#------------------------------------------------------------------------------
#$Date: 2022-02-09 12:13:31 +0200 (Wed, 09 Feb 2022) $
#$Revision: 272874 $
#$URL: file:///home/coder/svn-repositories/cod/cif/8/10/45/8104554.cif $
#------------------------------------------------------------------------------
#
# This file is available in the Crystallography Open Database (COD),
# http://www.crystallography.net/
#
# All data on this site have been placed in the public domain by the
# contributors.
#
data_8104554
loop_
_publ_author_name
'Du, Xigang'
_publ_section_title
;
 Crystal structure of
 trans-tetraaqua-bis{2-carboxy-4-((5-carboxypyridin-3-yl)oxy)benzoato-\k1
 N}cobalt(II) dihydrate C28H28O20N2Co
;
_journal_issue                   6
_journal_name_full
'Zeitschrift f\"ur Kristallographie - New Crystal Structures'
_journal_page_first              1157
_journal_page_last               1159
_journal_paper_doi               10.1515/ncrs-2021-0257
_journal_volume                  236
_journal_year                    2021
_chemical_formula_moiety         'C28 H24 Co N2 O18, 2(H2 O)'
_chemical_formula_sum            'C28 H28 Co N2 O20'
_chemical_formula_weight         771.45
_space_group_crystal_system      triclinic
_space_group_IT_number           2
_space_group_name_Hall           '-P 1'
_space_group_name_H-M_alt        'P -1'
_atom_sites_solution_hydrogens   mixed
_atom_sites_solution_primary     dual
_cell_angle_alpha                93.345(3)
_cell_angle_beta                 105.499(4)
_cell_angle_gamma                104.913(4)
_cell_formula_units_Z            1
_cell_length_a                   7.7951(3)
_cell_length_b                   9.3511(4)
_cell_length_c                   11.3352(4)
_cell_measurement_reflns_used    6101
_cell_measurement_temperature    293(2)
_cell_measurement_theta_max      28.1340
_cell_measurement_theta_min      4.0030
_cell_volume                     762.19(6)
_computing_cell_refinement       'CrysAlisPro 1.171.40.53 (Rigaku OD, 2019)'
_computing_data_collection       'CrysAlisPro 1.171.40.53 (Rigaku OD, 2019)'
_computing_data_reduction        'CrysAlisPro 1.171.40.53 (Rigaku OD, 2019)'
_computing_molecular_graphics    'Olex2 (Dolomanov et al., 2009)'
_computing_publication_material  'Olex2 (Dolomanov et al., 2009)'
_computing_structure_refinement  'ShelXL (Sheldrick, 2015)'
_computing_structure_solution    'ShelXT (Sheldrick, 2015)'
_diffrn_ambient_temperature      293(2)
_diffrn_detector                 'CCD plate'
_diffrn_detector_area_resol_mean 8.0584
_diffrn_detector_type            EosS2
_diffrn_measured_fraction_theta_full 0.997
_diffrn_measured_fraction_theta_max 0.997
_diffrn_measurement_details
;
List of Runs (angles in degrees, time in seconds):

  # Type    Start    End  Width  t~exp~   \w     \q     \k     \f   Frames
--------------------------------------------------------------------------
  1  \w    -18.00  25.00   1.00   10.00    --  -13.64 -99.00 -30.00   43
  2  \w    -17.00  25.00   1.00   10.00    --  -13.64 -99.00  30.00   42
  3  \w    -68.00  -7.00   1.00   10.00    --  -13.64 126.00 -16.13   61
  4  \w    -47.00  84.00   1.00   10.00    --   15.05   0.00  90.00  131
  5  \w      3.00  80.00   1.00   10.00    --   15.05  57.00 -60.00   77
  6  \w     -4.00  83.00   1.00   10.00    --   15.05  38.00-120.00   87
  7  \w     35.00  69.00   1.00   10.00    --   15.05 178.00-180.00   34
  8  \w     -4.00  83.00   1.00   10.00    --   15.05  38.00 150.00   87
  9  \w    -20.00  54.00   1.00   10.00    --   15.05 -99.00 -60.00   74
 10  \w     28.00  67.00   1.00   10.00    --   15.05-122.00-156.96   39
;
_diffrn_measurement_device       'four-circle diffractometer'
_diffrn_measurement_device_type
'SuperNova, Single source at offset/far, EosS2'
_diffrn_measurement_method       '\w scans'
_diffrn_orient_matrix_type
'CrysAlisPro convention (1999,Acta A55,543-557)'
_diffrn_orient_matrix_UB_11      -0.0847084000
_diffrn_orient_matrix_UB_12      -0.0352659000
_diffrn_orient_matrix_UB_13      0.0118244000
_diffrn_orient_matrix_UB_21      0.0113075000
_diffrn_orient_matrix_UB_22      -0.0709549000
_diffrn_orient_matrix_UB_23      -0.0153495000
_diffrn_orient_matrix_UB_31      0.0489259000
_diffrn_orient_matrix_UB_32      0.0005899000
_diffrn_orient_matrix_UB_33      0.0626212000
_diffrn_radiation_monochromator  mirror
_diffrn_radiation_probe          x-ray
_diffrn_radiation_type           MoK\a
_diffrn_radiation_wavelength     0.71073
_diffrn_reflns_av_R_equivalents  0.0307
_diffrn_reflns_av_unetI/netI     0.0291
_diffrn_reflns_Laue_measured_fraction_full 0.997
_diffrn_reflns_Laue_measured_fraction_max 0.997
_diffrn_reflns_limit_h_max       9
_diffrn_reflns_limit_h_min       -9
_diffrn_reflns_limit_k_max       11
_diffrn_reflns_limit_k_min       -11
_diffrn_reflns_limit_l_max       13
_diffrn_reflns_limit_l_min       -13
_diffrn_reflns_number            10420
_diffrn_reflns_point_group_measured_fraction_full 0.997
_diffrn_reflns_point_group_measured_fraction_max 0.997
_diffrn_reflns_theta_full        25.242
_diffrn_reflns_theta_max         25.497
_diffrn_reflns_theta_min         3.335
_diffrn_source                   'micro-focus sealed X-ray tube'
_diffrn_source_type              'SuperNova (Mo) X-ray Source'
_exptl_absorpt_coefficient_mu    0.661
_exptl_absorpt_correction_T_max  1.00000
_exptl_absorpt_correction_T_min  0.87141
_exptl_absorpt_correction_type   multi-scan
_exptl_absorpt_process_details
;
CrysAlisPro 1.171.40.53 (Rigaku Oxford Diffraction, 2019)
Empirical absorption correction using spherical harmonics,
 implemented in SCALE3 ABSPACK scaling algorithm.
;
_exptl_crystal_colour            pink
_exptl_crystal_colour_primary    pink
_exptl_crystal_density_diffrn    1.681
_exptl_crystal_description       block
_exptl_crystal_F_000             397
_exptl_crystal_size_max          0.36
_exptl_crystal_size_mid          0.32
_exptl_crystal_size_min          0.29
_refine_diff_density_max         0.305
_refine_diff_density_min         -0.315
_refine_diff_density_rms         0.051
_refine_ls_extinction_coef       .
_refine_ls_extinction_method     none
_refine_ls_goodness_of_fit_ref   1.053
_refine_ls_hydrogen_treatment    mixed
_refine_ls_matrix_type           full
_refine_ls_number_parameters     244
_refine_ls_number_reflns         2842
_refine_ls_number_restraints     1
_refine_ls_restrained_S_all      1.055
_refine_ls_R_factor_all          0.0378
_refine_ls_R_factor_gt           0.0339
_refine_ls_shift/su_max          0.000
_refine_ls_shift/su_mean         0.000
_refine_ls_structure_factor_coef Fsqd
_refine_ls_weighting_details
'w=1/[\s^2^(Fo^2^)+(0.0278P)^2^+0.6146P] where P=(Fo^2^+2Fc^2^)/3'
_refine_ls_weighting_scheme      calc
_refine_ls_wR_factor_gt          0.0781
_refine_ls_wR_factor_ref         0.0798
_reflns_Friedel_coverage         0.000
_reflns_Friedel_fraction_full    .
_reflns_Friedel_fraction_max     .
_reflns_number_gt                2567
_reflns_number_total             2842
_reflns_threshold_expression     'I > 2\s(I)'
_cod_data_source_file            suppl_j_ncrs-2021-0257_suppl.cif
_cod_data_source_block           dus
_cod_database_code               8104554
_shelx_space_group_comment
;
The symmetry employed for this shelxl refinement is uniquely defined
by the following loop, which should always be used as a source of
symmetry information in preference to the above space-group names.
They are only intended as comments.
;
_shelx_estimated_absorpt_t_max   0.831
_shelx_estimated_absorpt_t_min   0.797
_reflns_odcompleteness_completeness 99.75
_reflns_odcompleteness_iscentric 1
_reflns_odcompleteness_theta     25.30
_olex2_refinement_description
;
1. Fixed Uiso
 At 1.2 times of:
  All C(H) groups
 At 1.5 times of:
  All O(H) groups, All O(H,H) groups
2. Restrained distances
 Co1-H8A \\sim Co1-H8B
 with sigma of 0.02
3.a Free rotating group:
 O8(H8A,H8B), O10(H10A,H10B)
3.b Rotating group:
 O7(H7A,H7B)
3.c Aromatic/amide H refined with riding coordinates:
 C13(H13), C5(H5), C3(H3A), C1(H1), C8(H8), C9(H9)
3.d Idealised tetrahedral OH refined as rotating group:
 O3(H3)
;
_shelx_res_file
;
    dus.res created by SHELXL-2014/7

TITL dus_a.res in P-1
REM Old TITL duS in P-1 #2
REM SHELXT solution in P-1
REM R1 0.163, Rweak 0.017, Alpha 0.034, Orientation as input
REM Formula found by SHELXT: C32 N4 O14 Br
CELL 0.71073 7.7951 9.3511 11.3352 93.345 105.499 104.913
ZERR 1 0.0003 0.0004 0.0004 0.003 0.004 0.004
LATT 1
SFAC C H Co N O
UNIT 28 28 1 2 20
SADI Co1 H8a Co1 H8b

L.S. 4 0 0
PLAN  5
SIZE 0.36 0.32 0.29
CONF
BOND $H
list 4
MORE -1
htab
fmap 2 53
acta
OMIT 0 51
REM <olex2.extras>
REM <HklSrc "%.\\duS.hkl">"
REM </olex2.extras>

WGHT    0.027800    0.614600
FVAR       0.99578
CO1   3    0.500000    1.000000    0.500000    10.50000    0.03722    0.01806 =
         0.02294    0.00856    0.01467    0.00814
O9    5    0.182034    0.596227    0.755296    11.00000    0.04609    0.02577 =
         0.02665    0.01485    0.02245    0.01926
O2    5    0.208642   -0.001273    0.989197    11.00000    0.03337    0.02181 =
         0.02918    0.00522    0.01152    0.01010
O5    5    0.166111    0.248348    0.391921    11.00000    0.05150    0.02063 =
         0.02699    0.00517    0.01229    0.00104
O3    5    0.572255    0.175689    1.008795    11.00000    0.03498    0.03967 =
         0.03600    0.01656    0.01435    0.02238
AFIX 147
H3    2    0.640612    0.126261    0.997117    11.00000   -1.50000
AFIX   0
O6    5    0.286123    0.399982    0.272500    11.00000    0.05098    0.02389 =
         0.02663    0.00508    0.02065    0.00794
O1    5    0.254140    0.153403    1.157804    11.00000    0.06044    0.02660 =
         0.01919    0.00868    0.01563    0.01736
O7    5    0.672954    1.045880    0.682329    11.00000    0.05792    0.02740 =
         0.02649    0.00833    0.01194    0.01769
AFIX   7
H7A   2    0.667702    0.964781    0.713239    11.00000   -1.50000
H7B   2    0.629955    1.096222    0.726089    11.00000   -1.50000
AFIX   6
O8    5    0.307487    1.077102    0.560098    11.00000    0.05011    0.04307 =
         0.03949    0.02240    0.02686    0.02507
H8A   2    0.252508    1.046472    0.613199    11.00000   -1.50000
H8B   2    0.241873    1.127139    0.518497    11.00000   -1.50000
AFIX   0
O4    5    0.608602    0.260269    0.834978    11.00000    0.04741    0.05109 =
         0.04250    0.02023    0.02974    0.02843
N1    4    0.379506    0.770699    0.528064    11.00000    0.03549    0.01863 =
         0.02348    0.00775    0.01336    0.00745

AFIX   6
O10   5    0.141859    0.988849    0.732326    11.00000    0.05771    0.05214 =
         0.03419   -0.00519    0.02363   -0.01215
H10A  2    0.044190    0.916578    0.702117    11.00000   -1.50000
H10B  2    0.160597    0.993651    0.810046    11.00000   -1.50000
AFIX   0

C2    1    0.241289    0.605409    0.651250    11.00000    0.02583    0.02344 =
         0.02215    0.00970    0.01151    0.01014
C12   1    0.368504    0.307540    0.908711    11.00000    0.02412    0.01929 =
         0.01691    0.00157    0.00640    0.00558
C13   1    0.352035    0.421796    0.836143    11.00000    0.02750    0.02162 =
         0.02073    0.00545    0.01256    0.00469
AFIX  43
H13   2    0.441891    0.459527    0.797287    11.00000   -1.20000
AFIX   0
C10   1    0.234705    0.254030    0.969308    11.00000    0.02626    0.01947 =
         0.01626    0.00279    0.00726    0.00659
C4    1    0.265216    0.506819    0.460825    11.00000    0.02346    0.02246 =
         0.01994    0.00629    0.00565    0.00767
C11   1    0.234901    0.125000    1.043458    11.00000    0.02344    0.02138 =
         0.02381    0.00649    0.00992    0.00892
C7    1    0.202518    0.478303    0.822344    11.00000    0.03236    0.01828 =
         0.01791    0.00605    0.01013    0.00883
C5    1    0.348818    0.651409    0.444644    11.00000    0.03070    0.02361 =
         0.02156    0.00890    0.01104    0.00837
AFIX  43
H5    2    0.385044    0.666525    0.373481    11.00000   -1.20000
AFIX   0
C6    1    0.234524    0.373378    0.370342    11.00000    0.02280    0.02275 =
         0.02245    0.00627    0.00362    0.00613
C3    1    0.209367    0.483536    0.566026    11.00000    0.02606    0.01996 =
         0.02516    0.00893    0.00812    0.00451
AFIX  43
H3A   2    0.151737    0.387908    0.578713    11.00000   -1.20000
AFIX   0
C1    1    0.326159    0.746510    0.630203    11.00000    0.03433    0.02194 =
         0.02371    0.00569    0.01145    0.01061
AFIX  43
H1    2    0.347133    0.827724    0.688881    11.00000   -1.20000
AFIX   0
C14   1    0.527824    0.246123    0.913233    11.00000    0.02586    0.02205 =
         0.02396    0.00410    0.00719    0.00547
C8    1    0.067622    0.424843    0.879359    11.00000    0.03191    0.02969 =
         0.02915    0.01257    0.01590    0.01637
AFIX  43
H8    2   -0.034222    0.462441    0.868104    11.00000   -1.20000
AFIX   0
C9    1    0.086781    0.314124    0.953669    11.00000    0.03173    0.02934 =
         0.02981    0.01242    0.01906    0.01159
AFIX  43
H9    2   -0.001994    0.279331    0.994041    11.00000   -1.20000
AFIX   0
H6    2    0.263759    0.308279    0.220464    11.00000    0.09534
HKLF 4

REM  dus_a.res in P-1
REM R1 =  0.0339 for    2567 Fo > 4sig(Fo)  and  0.0378 for all    2842 data
REM    244 parameters refined using      1 restraints

END

WGHT      0.0278      0.6146

REM Instructions for potential hydrogen bonds
EQIV $1 -x+1, -y, -z+2
HTAB O3 O2_$1
EQIV $2 -x+1, -y+1, -z+2
HTAB O7 O1_$2
EQIV $3 x, y+1, z
HTAB O7 O4_$3
HTAB O8 O10
HTAB O8 O5_$3
EQIV $4 -x, -y+1, -z+1
HTAB O10 O5_$4
HTAB O10 O2_$3
EQIV $5 -x+1, -y+1, -z+1
HTAB C13 O6_$5
HTAB C5 O4_$5
HTAB C1 O10
EQIV $6 x, y, z-1
HTAB O6 O1_$6

REM Highest difference peak  0.305,  deepest hole -0.315,  1-sigma level  0.051
Q1    1   0.7446  0.9954  0.7348  11.00000  0.05    0.30
Q2    1   0.6064  1.0535  0.5806  11.00000  0.05    0.28
Q3    1   0.7181  1.1424  0.7337  11.00000  0.05    0.28
Q4    1   0.2256  0.4561  0.4024  11.00000  0.05    0.27
Q5    1   0.4373  0.8610  0.5081  11.00000  0.05    0.25
;
_shelx_hkl_file
;
   0   0  -2 3005.12   58.08
   0   0  -2 2891.66   60.10
   0   0   2 2963.03   62.24
   0   0  -2 2921.33   63.03
   0   0  -2 2857.11   61.66
   0   0   2 2994.86   62.87
   0   0  -2 2878.28   66.57
   0   0   2 2942.03   65.89
   0   0  -2 2825.89   59.89
   0   0  -3   49.88    2.84
   0   0  -3   48.06    2.88
   0   0   3   43.80    4.46
   0   0  -3   52.16    4.57
   0   0  -3   51.32    5.05
   0   0  -3   49.00    3.77
   0   0  -3   59.24    6.67
   0   0  -3   43.22    3.61
   0   0   3   52.43    5.99
   0   0   3   48.66    2.61
   0   0  -3   52.58    2.24
   0   0  -4  982.23   22.48
   0   0  -4  981.40   22.95
   0   0   4  946.72   29.47
   0   0  -4  937.13   25.93
   0   0  -4  963.30   30.53
   0   0  -4  919.00   28.11
   0   0  -4  912.14   25.95
   0   0   4  906.42   33.28
   0   0  -4  960.62   35.55
   0   0  -4  975.59   20.51
   0   0  -5    8.29    1.61
   0   0  -5   11.77    3.39
   0   0  -5   10.43    1.62
   0   0  -5    4.94    1.78
   0   0   5   13.02    3.30
   0   0  -5    4.72    1.74
   0   0  -5   13.20    2.68
   0   0   5    7.89    3.40
   0   0  -5    7.67    3.69
   0   0  -5    7.33    0.94
   0   0  -6  820.95   20.05
   0   0  -6  819.13   21.88
   0   0  -6  805.27   31.90
   0   0   6  784.99   30.24
   0   0  -6  760.90   27.84
   0   0  -6  821.83   25.74
   0   0   6  816.86   35.39
   0   0  -6  755.48   17.37
   0   0  -7  151.49    8.18
   0   0  -7  173.57    6.69
   0   0  -7  146.44    5.99
   0   0   7  179.65   14.35
   0   0  -7  184.65   15.37
   0   0  -7  140.61    9.91
   0   0   7  210.37   18.00
   0   0  -8  269.36   12.17
   0   0  -8  264.10    8.38
   0   0  -8  282.59    8.53
   0   0   8  298.30   22.98
   0   0  -8  284.83   20.71
   0   0  -8  279.50   15.15
   0   0   8  272.22   19.31
   0   0  -9  228.35   11.76
   0   0  -9  241.80   10.07
   0   0   9  248.01   22.16
   0   0  -9  226.49   14.33
   0   0  -9  273.03   21.47
   0   0 -10   20.68    3.54
   0   0  10   16.55    5.91
   0   0 -10   14.61    3.92
   0   0 -10   18.64    6.28
   0   0 -11   71.55    7.15
   0   0  11   86.70   14.59
   0   0 -11   76.03    9.23
   0   0 -11   81.58   13.51
   0   0 -12   85.61    8.37
   0   0  12   91.61   15.88
   0   0 -12  116.03   17.20
   0   0 -12   99.43   10.90
   0   0  13   14.15    7.31
   0   0 -13    7.38    3.72
   0   0 -13   16.98    7.63
   0   0 -14    1.33    2.78
   0   1 -13   13.29    6.55
   0   1 -13   24.13    5.93
   0   1 -12    9.18    3.58
   0   1 -12    4.13    3.32
   0   1 -11   87.84    7.51
   0  -1  11   97.66   15.12
   0   1 -11  108.00   15.49
   0   1 -11  119.63   11.61
   0  -1  11   91.64   13.41
   0   1 -10  107.62    7.77
   0  -1  10  110.21   15.27
   0  -1  10  107.24   13.36
   0   1 -10  117.66   15.09
   0   1 -10  115.11   10.81
   0   1  -9   70.97    5.77
   0  -1   9   80.47   12.16
   0   1  -9   70.19   10.97
   0   1  -9   94.48    9.14
   0  -1   9   75.17   10.46
   0   1  -8  213.08    9.82
   0  -1   8  225.14   19.03
   0   1  -8  226.52   18.38
   0  -1   8  202.46   16.13
   0   1  -8  214.15   13.32
   0   1  -7  236.62    9.64
   0   1  -7  232.87    7.52
   0  -1   7  211.99   17.52
   0   1  -7  226.91   16.89
   0   1  -7  244.50   13.48
   0  -1   7  260.29   16.75
   0   1  -6 2236.00   48.26
   0   1  -6 2224.57   46.14
   0   1  -6 2221.74   62.84
   0   1  -6 2214.13   55.01
   0  -1   6 2223.98   60.04
   0  -1   6 2101.77   64.20
   0   1  -5  783.92   17.97
   0   1  -5  742.69   18.56
   0  -1   5  689.80   18.50
   0   1  -5  733.41   23.57
   0   1  -5  753.29   24.65
   0  -1   5  733.08   26.16
   0   1  -5  765.65   28.50
   0   1  -5  743.26   23.15
   0  -1   5  713.44   29.43
   0   1  -5  729.98   32.12
   0   1  -5  751.61   16.67
   0   1  -4 2070.66   42.29
   0   1  -4 2040.58   41.96
   0  -1   4 1964.73   42.98
   0   1  -4 2008.33   46.83
   0  -1   4 2087.86   54.91
   0   1  -4 1919.46   56.15
   0   1  -4 2043.55   47.72
   0   1  -4 2085.63   52.98
   0  -1   4 2023.96   49.92
   0   1  -4 1994.52   48.19
   0   1  -3    5.78    0.79
   0   1  -3    8.01    1.15
   0   1  -3    6.40    1.46
   0   1  -3   10.17    2.64
   0  -1   3    4.38    1.84
   0  -1   3    3.74    1.16
   0   1  -3   12.12    2.51
   0  -1   3    5.14    0.95
   0   1  -3    8.05    1.72
   0  -1   3    2.26    1.10
   0   1  -2  220.16    6.94
   0  -1   2  194.62    6.57
   0  -1   2  208.77    8.02
   0   1  -2  202.02    7.72
   0  -1   2  212.92    8.09
   0   1  -2  221.46    7.80
   0   1  -2  205.87    7.09
   0   1  -2  212.08   10.04
   0  -1  -2 9736.92  188.01
   0  -1  -2 9610.82  187.17
   0   1   2 9669.90  191.82
   0  -1  -2 9999.00  192.23
   0  -1  -2 9471.04  187.88
   0   1   2 9888.25  197.99
   0  -1  -2 9837.52  197.71
   0  -1  -2 9656.50  186.05
   0   1   2 9526.15  186.47
   0  -1  -3 2040.12   43.37
   0  -1  -3 2021.18   43.12
   0  -1  -3 2026.26   49.71
   0  -1  -3 1973.95   43.45
   0  -1  -3 1955.39   48.39
   0   1   3 2034.04   49.11
   0  -1  -3 1998.34   44.73
   0  -1  -3 1934.76   54.88
   0   1   3 2033.85   55.36
   0   1   3 2005.34   42.31
   0  -1  -3 1947.08   41.31
   0  -1  -4 2312.11   50.81
   0  -1  -4 2432.12   51.32
   0  -1  -4 2411.21   59.80
   0  -1  -4 2325.50   58.26
   0   1   4 2455.67   59.15
   0  -1  -4 2350.34   52.45
   0  -1  -4 2355.52   53.72
   0  -1  -4 2331.66   66.79
   0   1   4 2307.87   66.15
   0   1   4 2297.91   50.23
   0  -1  -4 2365.62   48.54
   0  -1  -5   55.18    4.07
   0  -1  -5   63.16    4.66
   0  -1  -5   59.27    6.65
   0   1   5   67.38    7.37
   0  -1  -5   63.23    7.45
   0  -1  -5   54.95    5.02
   0  -1  -5   76.43   10.17
   0  -1  -5   53.92    5.36
   0   1   5   61.04    9.10
   0  -1  -5   59.43    3.45
   0   1   5   61.93    4.51
   0  -1  -6  323.71   11.48
   0  -1  -6  324.04   12.61
   0  -1  -6  305.04   13.77
   0  -1  -6  336.39   19.33
   0   1   6  297.39   21.68
   0   1   6  315.14   11.99
   0  -1  -6  306.71    9.68
   0  -1  -7  113.04    6.31
   0  -1  -7  114.96    7.31
   0  -1  -7  121.49    7.69
   0  -1  -7  111.48    8.34
   0  -1  -7  107.44   11.64
   0   1   7  115.18   13.90
   0  -1  -7  108.97    5.15
   0   1   7  117.99    7.14
   0  -1  -8   63.87    5.95
   0  -1  -8   63.40    5.25
   0  -1  -8   62.91    4.67
   0  -1  -8   78.28   10.72
   0  -1  -8   62.46    6.65
   0   1   8   71.85   11.76
   0  -1  -8   65.78    3.94
   0  -1  -9  571.20   17.91
   0  -1  -9  595.37   21.87
   0   1   9  529.99   35.07
   0  -1  -9  602.46   33.30
   0  -1  -9  580.86   23.83
   0  -1 -10  643.29   24.16
   0   1  10  622.75   39.83
   0  -1 -10  632.02   36.76
   0  -1 -10  653.65   26.79
   0  -1 -11  334.75   17.24
   0   1  11  365.11   31.39
   0  -1 -11  341.76   19.42
   0  -1 -11  355.39   28.51
   0  -1 -12  189.99   13.27
   0   1  12  175.89   22.71
   0  -1 -12  202.77   22.61
   0  -1 -12  183.68   14.65
   0  -1 -13    1.61    1.60
   0  -1 -13    3.50    4.00
   0  -1 -13    0.86    2.26
   0   2 -13   73.73   10.54
   0  -2  13   68.76   13.06
   0   2 -13   61.89   12.89
   0   2 -12   70.86   13.89
   0  -2  12   79.88   13.45
   0   2 -12   62.43    9.12
   0   2 -11   29.22    8.31
   0  -2  11   19.94    6.62
   0   2 -11   20.94    5.16
   0   2 -11   24.56    3.71
   0   2 -10   47.54    9.68
   0   2 -10   39.73    6.57
   0  -2  10   42.28    8.82
   0   2 -10   36.77    4.16
   0  -2   9    2.52    2.88
   0   2  -9    5.25    2.64
   0   2  -9    2.46    3.05
   0   2  -9    1.19    1.35
   0   2  -8  315.48   16.87
   0  -2   8  310.36   20.08
   0   2  -8  269.09   20.38
   0   2  -8  303.01    9.98
   0   2  -8  307.27   11.25
   0   2  -7  764.28   33.42
   0   2  -7  779.14   27.38
   0  -2   7  747.39   30.57
   0   2  -7  751.17   19.70
   0  -2   7  730.07   20.84
   0   2  -7  754.83   20.25
   0   2  -7  780.20   17.52
   0   2  -7  748.34   16.02
   0   2  -6  173.16    7.90
   0   2  -6  173.77    6.55
   0  -2   6  173.56    8.17
   0   2  -6  179.28   13.85
   0  -2   6  168.22   12.04
   0   2  -6  153.20   10.24
   0   2  -6  174.31   10.30
   0   2  -6  169.42    5.24
   0   2  -5 1227.90   26.39
   0  -2   5 1223.66   30.00
   0   2  -5 1205.55   29.90
   0  -2   5 1159.19   35.38
   0   2  -5 1276.32   34.44
   0   2  -5 1243.68   34.32
   0   2  -5 1195.00   32.67
   0   2  -5 1164.94   42.46
   0   2  -5 1220.08   26.05
   0   2  -4 1241.35   30.83
   0   2  -4 1267.74   25.85
   0  -2   4 1265.81   30.36
   0   2  -4 1299.92   33.13
   0  -2   4 1267.88   34.18
   0  -2   4 1210.43   34.20
   0   2  -4 1236.07   33.22
   0   2  -4 1305.83   40.91
   0   2  -4 1234.98   31.62
   0   2  -4 1185.73   34.11
   0   2  -4 1254.36   26.99
   0  -2   3  251.01    9.84
   0   2  -3  253.93   10.06
   0   2  -3  254.76   10.47
   0  -2   3  247.37   10.88
   0  -2   3  254.10   10.67
   0   2  -3  259.23    9.39
   0   2  -3  244.15    7.52
   0   2  -3  248.77   10.63
   0   2  -2 2293.90   49.81
   0  -2   2 2121.28   49.41
   0   2  -2 2163.90   48.20
   0  -2   2 2228.14   48.99
   0   2  -2 2210.74   46.08
   0   2  -2 2231.76   45.77
   0   2  -2 2327.28   47.97
   0  -2   2 2157.05   48.94
   0  -2   1 2914.06   60.52
   0   2  -1 2869.88   60.09
   0  -2   1 2833.00   63.66
   0  -2   1 2973.82   57.67
   0   2  -1 2975.95   63.50
   0  -2   1 2993.57   60.16
   0  -2   1 2886.68   59.98
   0   2  -1 3036.77   59.93
   0  -2   0  692.64   15.77
   0  -2   0  707.80   20.28
   0   2   0  731.24   20.18
   0  -2   0  705.34   16.28
   0   2   0  723.56   17.33
   0  -2   0  698.15   17.32
   0  -2  -1 1504.73   32.87
   0  -2  -1 1550.51   36.56
   0   2   1 1534.63   36.32
   0  -2  -1 1497.61   31.41
   0   2   1 1495.32   33.17
   0  -2  -1 1511.21   33.26
   0  -2  -2 5791.16  117.01
   0  -2  -2 5966.65  120.27
   0   2   2 5774.77  120.12
   0   2   2 6028.56  122.44
   0  -2  -2 5827.43  116.49
   0   2   2 6068.98  130.27
   0   2   2 5888.14  116.25
   0   2   2 5816.68  116.89
   0  -2  -2 5914.63  116.55
   0  -2  -3 3302.70   70.27
   0  -2  -3 3460.20   72.72
   0   2   3 3267.56   76.92
   0  -2  -3 3261.00   70.78
   0   2   3 3287.76   68.14
   0  -2  -3 3458.30   85.45
   0   2   3 3312.61   85.09
   0   2   3 3501.18   70.12
   0  -2  -3 3341.13   69.04
   0  -2  -4 3480.74   72.75
   0  -2  -4 3367.64   74.03
   0  -2  -4 3487.37   81.58
   0  -2  -4 3348.39   71.27
   0   2   4 3430.60   81.17
   0   2   4 3328.50   90.24
   0  -2  -4 3426.12   74.04
   0  -2  -4 3407.03   90.12
   0  -2  -4 3381.42   70.36
   0   2   4 3371.51   72.06
   0  -2  -5  422.40   15.27
   0  -2  -5  457.62   16.24
   0  -2  -5  444.00   15.07
   0   2   5  443.98   21.00
   0  -2  -5  428.67   20.38
   0  -2  -5  450.51   21.50
   0  -2  -5  426.66   25.88
   0  -2  -5  428.14   16.88
   0   2   5  455.45   26.97
   0  -2  -5  431.06   13.43
   0   2   5  436.46   15.09
   0  -2  -6  226.44   10.97
   0  -2  -6  225.25   10.99
   0  -2  -6  215.50   15.62
   0  -2  -6  226.88   11.01
   0   2   6  243.15   20.62
   0  -2  -6  228.95    9.04
   0   2   6  213.63   10.53
   0  -2  -7  100.01    7.12
   0  -2  -7   94.73    7.38
   0  -2  -7   81.14   10.15
   0  -2  -7   95.51    7.36
   0   2   7   83.35   12.85
   0   2   7   87.96    6.91
   0  -2  -7   97.95    5.77
   0  -2  -8   36.26    4.86
   0  -2  -8   32.23    4.14
   0  -2  -8   33.00    7.22
   0  -2  -8   33.70    4.77
   0   2   8   26.80    7.99
   0  -2  -8   34.61    3.49
   0   2   8   35.60    4.55
   0  -2  -9    4.06    1.99
   0   2   9    2.73    3.81
   0  -2  -9    2.97    1.74
   0  -2  -9    3.18    3.61
   0  -2  -9    3.98    1.85
   0  -2 -10   12.84    3.58
   0   2  10   10.39    6.29
   0  -2 -10    8.80    5.22
   0  -2 -10    4.71    2.43
   0  -2 -11   35.00    5.70
   0   2  11   43.37   11.04
   0  -2 -11   31.37    5.60
   0  -2 -11   28.17    8.44
   0  -2 -12  113.35   10.66
   0   2  12   96.04   17.52
   0  -2 -12  128.48   17.82
   0  -2 -12  113.57   11.06
   0  -2 -13  124.54   11.97
   0  -2 -14    6.19    4.19
   0  -3  13   42.52   10.43
   0   3 -13   32.82    7.06
   0   3 -13   33.13   10.58
   0   3 -12  160.34   14.93
   0  -3  12  160.10   18.71
   0   3 -12  160.30   20.44
   0   3 -11  172.97   19.83
   0   3 -11  202.87   15.91
   0  -3  11  176.36   18.65
   0   3 -10   73.48   12.09
   0  -3  10   75.89   11.24
   0   3 -10   48.07    7.36
   0   3 -10   65.33    5.17
   0   3  -9    1.12    1.84
   0  -3   9    1.07    2.61
   0   3  -9   -0.74    1.88
   0   3  -9    1.02    0.77
   0  -3   8  544.85   27.54
   0   3  -8  577.74   31.17
   0   3  -8  622.26   25.54
   0  -3   8  579.52   19.69
   0   3  -8  598.19   16.27
   0   3  -8  592.82   18.59
   0   3  -8  599.53   14.16
   0   3  -7  872.90   30.22
   0  -3   7  838.25   32.63
   0   3  -7  857.25   24.72
   0  -3   7  836.05   25.49
   0   3  -7  861.24   20.19
   0   3  -7  847.25   19.87
   0  -3   6  240.36   11.09
   0   3  -6  226.57   10.88
   0  -3   6  200.24   13.26
   0   3  -6  233.64   13.05
   0   3  -6  235.07   12.11
   0   3  -6  231.81    7.78
   0   3  -6  238.76    6.68
   0   3  -5  262.53   11.94
   0  -3   5  273.89   11.99
   0   3  -5  261.83   13.11
   0  -3   5  256.46   13.65
   0   3  -5  255.68   11.65
   0   3  -5  292.94   18.75
   0   3  -5  261.61    8.72
   0   3  -5  268.25   13.58
   0  -3   4 3939.72   89.35
   0   3  -4 3978.74   87.75
   0  -3   4 3945.76   88.16
   0   3  -4 4103.74   87.63
   0  -3   4 3891.96   87.00
   0   3  -4 4112.72   87.34
   0   3  -4 4103.99   81.62
   0  -3   3  139.35    8.58
   0   3  -3  145.60    8.65
   0  -3   3  149.93    8.30
   0   3  -3  134.81    7.72
   0  -3   3  142.72    8.41
   0   3  -3  148.79    6.57
   0   3  -3  146.35    7.56
   0   3  -3  135.20    6.06
   0  -3   3  144.85    8.70
   0   3  -2 1691.40   41.40
   0  -3   2 1600.17   32.70
   0  -3   2 1572.23   41.38
   0   3  -2 1576.52   37.62
   0  -3   2 1649.91   38.72
   0   3  -2 1606.39   34.29
   0  -3   2 1642.32   37.97
   0   3  -2 1664.40   36.33
   0   3  -1  218.83    8.08
   0  -3   1  213.19    8.33
   0   3  -1  227.97   11.09
   0  -3   1  209.14   11.07
   0  -3   1  222.52    6.82
   0  -3   1  204.87    8.37
   0   3  -1  228.59    8.48
   0  -3   0 1323.65   28.94
   0  -3   0 1345.45   29.64
   0   3   0 1305.69   35.39
   0  -3   0 1318.85   35.97
   0   3   0 1399.79   31.45
   0  -3   0 1263.13   31.22
   0  -3  -1 1040.29   29.91
   0  -3  -1 1027.63   24.70
   0   3   1  998.34   29.35
   0  -3  -1 1001.52   21.27
   0  -3  -1 1008.60   22.26
   0   3   1 1028.19   25.55
   0  -3  -1 1029.58   25.59
   0   3   2  956.61   28.24
   0  -3  -2  952.83   28.35
   0  -3  -2  883.51   23.70
   0  -3  -2  925.47   22.50
   0   3   2  953.73   24.63
   0   3   2  903.95   24.24
   0  -3  -2  943.53   24.21
   0  -3  -3 2110.92   51.35
   0  -3  -3 1953.65   46.55
   0   3   3 2109.40   53.54
   0   3   3 2011.67   61.85
   0  -3  -3 2013.43   46.09
   0   3   3 2078.39   46.12
   0   3   3 2054.21   47.09
   0  -3  -3 2057.48   46.23
   0  -3  -4   93.66    6.39
   0  -3  -4   98.11    7.63
   0   3   4   97.25    9.02
   0  -3  -4  103.95    5.24
   0   3   4   96.05    5.63
   0   3   4   92.96   11.66
   0  -3  -4   93.87    6.44
   0   3   4   99.70    6.56
   0  -3  -4   95.70    5.91
   0  -3  -5 1291.78   34.45
   0  -3  -5 1329.02   37.12
   0  -3  -5 1244.16   31.50
   0   3   5 1294.56   42.31
   0   3   5 1272.09   51.59
   0  -3  -5 1256.04   35.29
   0   3   5 1245.77   28.71
   0   3   5 1353.96   34.76
   0  -3  -5 1315.89   32.44
   0  -3  -6  189.31   10.72
   0  -3  -6  172.40   11.17
   0  -3  -6  167.53    8.82
   0  -3  -6  176.11    8.94
   0   3   6  214.18   11.32
   0  -3  -7  112.23    8.52
   0  -3  -7  121.33    9.22
   0  -3  -7   97.47    7.07
   0   3   7  110.51   15.55
   0  -3  -7   98.19    6.68
   0   3   7  105.24    8.30
   0  -3  -8  138.55   10.17
   0  -3  -8  141.86   10.32
   0  -3  -8  142.03    9.30
   0   3   8  136.39   18.40
   0   3   8  142.53   10.25
   0  -3  -8  131.04    7.88
   0  -3  -9  144.26   10.94
   0   3   9  146.06   19.87
   0  -3  -9  126.81    9.54
   0  -3 -10  138.90   11.21
   0   3  10  101.56   17.64
   0  -3 -10  123.03    9.86
   0  -3 -11   -2.17    2.71
   0   3  11    2.07    4.34
   0  -3 -12    2.03    2.27
   0   3  12   12.16    7.56
   0  -3 -13   49.72    8.00
   0   4 -12   60.74    9.23
   0   4 -12   77.71   14.29
   0  -4  12   64.57   11.99
   0  -4  11    5.75    3.74
   0   4 -11    7.91    3.54
   0   4 -11    6.81    4.87
   0   4 -10  344.76   27.15
   0   4 -10  379.68   21.71
   0  -4  10  361.83   24.98
   0  -4   9  246.42   18.89
   0   4  -9  232.47   20.55
   0   4  -9  242.49   16.24
   0   4  -9  234.56   11.71
   0   4  -8   93.44    9.41
   0  -4   8   87.07   10.22
   0  -4   8   96.27    7.93
   0   4  -8   95.13    7.54
   0   4  -8  109.26    5.34
   0  -4   7  442.11   22.59
   0   4  -7  461.89   21.07
   0  -4   7  467.09   18.78
   0   4  -7  450.23   18.32
   0   4  -7  481.70   14.03
   0   4  -6  631.22   22.99
   0  -4   6  625.24   22.62
   0  -4   6  645.42   25.88
   0   4  -6  658.88   24.58
   0   4  -6  655.56   22.22
   0   4  -6  654.30   17.93
   0   4  -5  809.52   26.71
   0  -4   5  802.17   26.70
   0   4  -5  764.79   26.34
   0  -4   5  791.44   27.37
   0   4  -5  788.30   23.78
   0   4  -5  829.42   21.46
   0   4  -4   35.85    4.89
   0  -4   4   41.49    5.24
   0  -4   4   44.68    5.34
   0  -4   4   47.03    5.42
   0   4  -4   35.67    4.48
   0   4  -4   32.57    3.43
   0   4  -4   53.75    5.10
   0  -4   4   30.93    4.68
   0   4  -4   37.32    3.43
   0  -4   3  863.08   29.08
   0  -4   3  875.76   18.72
   0   4  -3  897.35   28.70
   0  -4   3  877.42   26.95
   0   4  -3  899.78   25.67
   0   4  -3  877.84   21.80
   0   4  -3  897.74   23.38
   0  -4   3  830.48   25.91
   0   4  -2 3463.54   79.07
   0  -4   2 3330.61   67.95
   0  -4   2 3325.81   79.80
   0  -4   2 3406.67   74.14
   0   4  -2 3328.89   72.71
   0   4  -2 3421.92   67.70
   0   4  -2 3519.12   72.38
   0  -4   2 3388.17   73.22
   0  -4   1 1925.69   43.56
   0   4  -1 1939.71   50.16
   0  -4   1 1831.73   50.70
   0  -4   1 1909.35   41.04
   0  -4   1 1838.27   44.27
   0   4  -1 1999.39   44.39
   0  -4   0 2202.52   47.04
   0  -4   0 2178.34   47.81
   0  -4   0 2186.04   57.02
   0   4   0 2201.66   56.00
   0   4   0 2267.26   50.43
   0  -4   0 2202.53   50.41
   0  -4  -1    9.06    1.12
   0  -4  -1    5.88    2.33
   0  -4  -1    9.98    1.78
   0   4   1    9.34    2.66
   0   4   1    8.49    1.94
   0  -4  -1   12.15    2.14
   0  -4  -2  628.38   19.14
   0   4   2  644.17   24.08
   0  -4  -2  630.12   24.24
   0  -4  -2  600.55   16.87
   0   4   2  628.75   20.62
   0   4   2  655.86   20.21
   0  -4  -2  656.39   20.04
   0  -4  -3   97.75    6.67
   0  -4  -3  103.93    8.97
   0   4   3  100.19    9.05
   0   4   3   99.32    6.95
   0   4   3  102.62   12.11
   0  -4  -3   96.28    5.89
   0   4   3  111.41    7.38
   0  -4  -3  109.16    6.96
   0  -4  -4  768.44   27.81
   0  -4  -4  704.83   22.90
   0  -4  -4  748.43   17.67
   0   4   4  680.54   28.67
   0   4   4  695.47   22.29
   0   4   4  723.26   36.66
   0  -4  -4  725.43   22.42
   0  -4  -4  763.44   22.85
   0   4   4  779.04   24.21
   0  -4  -5   30.64    4.15
   0  -4  -5   35.65    5.43
   0  -4  -5   34.42    2.95
   0   4   5   37.30    3.94
   0   4   5   25.04    6.56
   0  -4  -5   31.70    4.12
   0  -4  -5   34.21    4.09
   0  -4  -6  145.09    9.85
   0  -4  -6  148.11    7.37
   0   4   6  139.86    5.87
   0   4   6  147.89   17.94
   0  -4  -6  148.48    8.91
   0  -4  -7    6.86    2.46
   0  -4  -7    9.67    2.08
   0   4   7    5.64    4.08
   0  -4  -7   13.72    2.84
   0  -4  -8   43.76    6.12
   0  -4  -8   44.53    4.77
   0  -4  -9   40.88    6.15
   0   4   9   41.21   11.13
   0  -4  -9   41.48    5.01
   0  -4 -10  299.51   17.91
   0   4  10  318.03   32.14
   0  -4 -11    2.48    2.76
   0   4  11    8.27    6.85
   0  -4 -12   25.31    5.57
   0   5 -12   86.38   11.34
   0   5 -12   92.37   11.86
   0   5 -12   97.45   16.19
   0  -5  12  112.67   15.70
   0   5 -11   12.60    4.43
   0   5 -11   14.49    5.98
   0  -5  11   18.10    6.31
   0   5 -10   27.72    5.99
   0   5 -10   25.37    7.52
   0  -5  10   24.99    7.03
   0  -5   9   50.32    8.43
   0   5  -9   47.54    7.40
   0   5  -9   57.11    6.44
   0  -5   8  791.83   34.13
   0   5  -8  808.65   31.47
   0   5  -8  822.18   28.61
   0  -5   8  738.09   28.16
   0   5  -8  828.47   22.49
   0  -5   7  721.97   30.50
   0   5  -7  730.43   28.35
   0   5  -7  738.95   27.27
   0  -5   7  732.10   27.21
   0   5  -7  751.65   21.38
   0  -5   6  634.58   25.43
   0   5  -6  658.09   25.48
   0  -5   6  655.55   26.81
   0   5  -6  667.23   25.48
   0   5  -6  658.50   22.37
   0   5  -6  684.13   20.06
   0   5  -5    4.63    2.29
   0  -5   5    1.72    1.58
   0  -5   5    4.08    3.32
   0   5  -5    0.49    1.20
   0   5  -5    3.48    1.48
   0  -5   5   -0.24    2.26
   0   5  -5    4.82    1.40
   0  -5   4  897.44   32.24
   0   5  -4  939.80   31.98
   0   5  -4  925.22   28.74
   0  -5   4  930.85   29.73
   0  -5   4  899.46   30.24
   0   5  -4  910.67   24.26
   0   5  -4  960.06   25.83
   0  -5   4  841.94   29.73
   0  -5   3   -0.10    0.78
   0   5  -3    2.99    1.85
   0  -5   3    3.25    2.11
   0  -5   3    0.84    1.36
   0   5  -3    0.85    1.03
   0   5  -3    0.46    0.56
   0  -5   3    2.66    1.63
   0   5  -3    2.94    1.37
   0   5  -2 1594.70   38.62
   0  -5   2 1563.86   39.90
   0  -5   2 1521.20   34.37
   0  -5   2 1481.47   46.23
   0   5  -2 1561.43   45.62
   0   5  -2 1603.71   38.96
   0  -5   2 1526.43   39.06
   0  -5   1 1096.12   29.05
   0  -5   1 1106.87   27.03
   0   5  -1 1180.24   37.14
   0   5  -1 1099.46   30.25
   0  -5   0 1409.09   32.29
   0   5   0 1348.10   41.92
   0  -5   0 1335.24   33.02
   0  -5   0 1344.23   36.03
   0  -5  -1   94.48    4.43
   0  -5  -1  102.41    6.44
   0   5   1   89.91    9.01
   0  -5  -1   91.02    6.90
   0   5   2  363.04   19.01
   0  -5  -2  357.32   14.20
   0   5   2  387.10   16.91
   0  -5  -2  392.20   15.70
   0  -5  -3   41.61    4.62
   0   5   3   40.06    8.28
   0   5   3   52.46    5.62
   0  -5  -3   50.26    4.24
   0  -5  -3   52.07    5.29
   0  -5  -4  820.76   26.51
   0   5   4  817.20   32.75
   0  -5  -4  811.35   24.84
   0   5   4  892.91   27.88
   0   5   4  801.75   41.31
   0  -5  -4  847.88   26.59
   0  -5  -5  432.63   18.68
   0  -5  -5  474.60   11.57
   0  -5  -5  429.44   17.89
   0   5   5  446.45   31.63
   0   5   5  469.67   18.51
   0  -5  -5  492.61   18.93
   0  -5  -6  171.55   11.54
   0  -5  -6  193.42    7.26
   0   5   6  173.94   20.42
   0   5   6  188.50    9.75
   0  -5  -6  200.57   11.63
   0  -5  -7  123.06   10.10
   0   5   7  110.70   17.26
   0  -5  -7  120.04    6.36
   0  -5  -8  937.46   34.04
   0   5   8  998.15   56.95
   0  -5  -9   76.86    8.92
   0   5   9   94.40   17.74
   0  -5 -10  115.14   11.46
   0   5  10  113.74   20.33
   0  -5 -11   27.84    5.97
   0   5  11   32.33   10.94
   0   6 -12  234.78   20.03
   0   6 -12  193.69   23.65
   0   6 -11    6.19    3.82
   0  -6  11    3.07    3.42
   0   6 -11   14.53    4.79
   0   6 -10    3.53    2.79
   0  -6  10   -1.99    3.97
   0   6 -10    7.53    3.95
   0   6  -9   44.37    6.31
   0  -6   9   25.30    6.08
   0   6  -9   28.68    6.04
   0   6  -8    1.23    1.38
   0  -6   8    0.02    2.79
   0   6  -7   48.32    6.89
   0  -6   7   56.79    8.41
   0   6  -7   52.66    7.10
   0   6  -6  611.38   26.60
   0   6  -6  608.72   24.88
   0  -6   6  635.28   26.86
   0   6  -6  620.65   21.51
   0   6  -5   14.89    3.99
   0   6  -5   10.43    2.89
   0  -6   5   20.99    4.99
   0   6  -5   16.27    2.67
   0  -6   5   10.18    3.11
   0   6  -4  718.67   29.13
   0  -6   4  692.20   16.54
   0   6  -4  691.36   24.52
   0   6  -4  709.39   19.61
   0  -6   4  696.38   26.43
   0  -6   3  142.33   10.00
   0   6  -3  148.55    9.35
   0   6  -3  143.13   12.11
   0  -6   3  137.74    6.16
   0  -6   3  152.52   10.08
   0  -6   2 1053.52   31.15
   0  -6   2 1063.62   26.56
   0   6  -2 1098.10   38.17
   0  -6   2 1058.30   30.96
   0  -6   1  160.66    8.93
   0   6  -1  175.60   13.47
   0  -6   1  165.17    8.05
   0  -6   0    9.50    1.93
   0   6   0    9.32    3.42
   0  -6   0   11.95    2.41
   0  -6  -1  189.94    9.97
   0   6   1  225.07   15.73
   0   6   1  204.84   13.27
   0  -6  -1  188.33   11.28
   0  -6  -2  544.41   19.67
   0   6   2  561.25   26.63
   0   6   2  571.48   23.36
   0  -6  -2  550.42   21.18
   0  -6  -3  115.08    8.45
   0   6   3  119.32    9.83
   0  -6  -3  126.85    9.35
   0  -6  -4  678.77   24.66
   0   6   4  700.74   26.42
   0   6   4  632.77   38.84
   0  -6  -4  687.51   24.96
   0  -6  -5   90.25    8.31
   0   6   5   91.24   14.97
   0  -6  -5   80.22    7.14
   0   6   5   80.41    7.88
   0  -6  -5   81.62    7.73
   0  -6  -6  205.17   13.57
   0   6   6  244.69   13.31
   0   6   6  240.06   25.92
   0  -6  -7   20.38    4.50
   0   6   7   16.12    7.58
   0  -6  -8   20.93    4.79
   0   6   8   16.92    7.82
   0  -6  -9   30.46    6.10
   0   6   9   40.48   12.51
   0  -6 -10  135.96   13.02
   0   6  10  107.26   20.28
   0   7 -12  207.11   20.08
   0   7 -11  128.23   13.88
   0   7 -11  133.43   18.65
   0  -7  11  123.09   15.84
   0   7 -10  174.74   15.47
   0  -7  10  203.67   19.16
   0  -7   9  500.25   29.13
   0   7  -9  493.01   25.96
   0   7  -9  497.06   24.82
   0   7  -8  824.07   33.73
   0  -7   8  859.31   37.51
   0   7  -8  866.58   34.65
   0  -7   7   16.90    5.44
   0   7  -7   21.67    4.98
   0   7  -7   20.61    5.30
   0  -7   6  168.63   13.54
   0   7  -6  163.20   12.22
   0   7  -6  168.27   14.04
   0  -7   6  159.47   14.35
   0  -7   5  230.64   15.04
   0   7  -5  198.89   12.97
   0   7  -5  203.26   15.55
   0  -7   5  184.16   14.24
   0  -7   4  109.70    5.38
   0   7  -4  117.73   11.79
   0  -7   4  100.39    9.33
   0   7  -3  133.24   12.56
   0  -7   3  120.75    6.41
   0  -7   3  129.01    9.82
   0  -7   2  578.71   17.98
   0   7  -2  583.82   28.19
   0  -7   2  563.97   21.62
   0   7  -1   -1.31    1.95
   0  -7   1    1.77    1.18
   0   7   0  458.70   24.93
   0  -7   0  427.05   16.41
   0   7   1 1313.89   46.96
   0  -7  -1 1256.01   35.38
   0   7   1 1281.15   42.65
   0  -7  -2  292.77   14.36
   0   7   2  288.58   17.51
   0  -7  -3    3.22    2.05
   0   7   3    0.56    1.36
   0  -7  -4  172.46   11.81
   0   7   4  147.46   19.40
   0   7   4  178.25   13.37
   0  -7  -5   38.96    5.94
   0   7   5   28.82    8.61
   0   7   5   36.06    5.87
   0  -7  -6  164.35   12.59
   0   7   6  145.91   20.99
   0  -7  -7   37.09    6.57
   0   7   7  109.97   19.54
   0  -7  -8   90.68   10.20
   0   7   8   92.03   18.20
   0   7   9   87.02   18.66
   0   8 -11   87.22   13.29
   0  -8  10   -2.91    3.36
   0   8 -10    6.22    3.46
   0  -8   9  164.70   16.59
   0   8  -9  141.31   13.60
   0   8  -9  147.47   14.05
   0  -8   8  321.31   22.49
   0   8  -8  346.42   20.83
   0   8  -8  325.39   21.54
   0  -8   7  242.89   18.33
   0   8  -7  205.21   15.07
   0   8  -7  209.60   17.07
   0  -8   6   83.27   10.17
   0   8  -6   89.26   11.01
   0  -8   6   75.25   10.34
   0  -8   5  101.58   10.59
   0   8  -5   80.50   10.56
   0  -8   5   71.89    9.16
   0  -8   4   25.06    3.01
   0   8  -4   38.67    7.44
   0  -8   4   29.32    5.44
   0  -8   3   74.19    5.51
   0   8  -3   83.96   10.73
   0  -8   3   82.11    8.37
   0  -8   2  142.58    8.43
   0   8  -2  164.87   15.30
   0  -8   2  152.63   10.98
   0   8  -1   39.46    7.79
   0  -8   1   36.83    4.43
   0  -8   0  944.70   29.16
   0   8   0  927.88   40.51
   0   8   0  971.90   38.54
   0  -8  -1  743.84   25.65
   0   8   1  721.87   32.09
   0  -8  -2  287.27   15.11
   0   8   2  287.36   18.99
   0  -8  -3    0.80    1.75
   0   8   3    1.26    2.23
   0  -8  -4  202.33   13.72
   0   8   4  226.77   25.68
   0   8   4  191.84   15.37
   0  -8  -5   27.99    5.31
   0   8   5   27.63    9.84
   0  -8  -6   56.33    7.76
   0   8   6   43.91   12.97
   0  -8  -7   34.35    6.41
   0   8   7   32.74   11.14
   0   8   8   86.24   18.93
   0  -9   9   29.55    7.58
   0  -9   8  118.37   13.94
   0   9  -8   99.82   12.63
   0  -9   7  274.49   20.52
   0   9  -7  286.08   21.64
   0  -9   6   99.58   11.96
   0   9  -6   98.34   12.63
   0  -9   6   97.58   12.25
   0  -9   5  304.76   19.77
   0   9  -5  277.12   21.49
   0  -9   5  277.40   19.44
   0   9  -4  171.23   16.77
   0  -9   4  147.44   12.90
   0   9  -3   -0.01    2.58
   0  -9   3    3.47    2.69
   0  -9   2  326.24   14.65
   0   9  -2  364.41   25.02
   0   9  -2  355.86   23.79
   0  -9   2  363.04   18.87
   0  -9   1    1.50    1.73
   0   9  -1    8.80    4.29
   0   9  -1    7.64    3.88
   0  -9   0    6.14    2.14
   0   9   0   10.31    4.29
   0  -9  -1   21.27    4.16
   0   9   1   15.10    4.84
   0  -9  -2  269.01   15.65
   0   9   2  284.54   20.64
   0  -9  -3  285.85   16.68
   0   9   3  248.71   19.45
   0  -9  -4   90.13    9.67
   0   9   4  110.59   19.21
   0  -9  -5   -1.55    2.44
   0   9   5    2.38    6.00
   0  -9  -6    4.11    2.48
   0   9   6    3.34    5.66
   0 -10   7   12.34    5.48
   0  10  -7    0.99    3.40
   0 -10   6    1.07    2.18
   0  10  -6   -0.81    3.67
   0 -10   5   11.01    5.32
   0  10  -5    4.74    3.59
   0 -10   5    2.84    2.73
   0  10  -5    3.01    3.48
   0  10  -4  141.60   16.38
   0  10  -4  132.23   15.74
   0 -10   4  126.66   12.75
   0 -10   3   37.61    6.69
   0  10  -3   49.58    9.53
   0  10  -2   16.42    6.29
   0 -10   2   11.24    3.80
   0 -10   1   28.53    4.59
   0  10  -1   29.78    7.45
   0 -10   1   34.78    6.10
   0 -10   0   56.63    6.89
   0  10   0   55.96    9.90
   0 -10  -1   14.31    3.46
   0  10   1   16.45    5.42
   0 -10  -2   37.65    5.87
   0  10   2   43.59    8.83
   0 -10  -3   23.54    5.05
   0  10   3   14.08    8.48
   0  10   3   14.34    5.37
   0 -10  -4  395.26   22.25
   0  10   4  412.57   39.57
   0 -11   5   72.48   11.28
   0 -11   5   37.39    8.00
   0 -11   4  135.82   14.06
   0 -11   3    9.77    4.21
   0  11  -3   18.80    6.48
   0  11  -2  149.78   17.57
   0 -11   2  141.87   13.27
   0  11  -1    3.30    2.61
   0 -11   1    9.24    4.05
   0  11   0   24.76    7.44
   0 -11  -1   31.26    5.66
   0  11   1   42.17    9.47
   0 -11  -2   26.64    5.46
   0  11   2   33.85    8.55
   0 -11  -3   -1.49    2.42
   1 -12   3  146.25   15.15
   1 -11  -3   72.17    9.27
   1 -11  -2   21.10    5.23
  -1  11   2   33.36    8.74
   1 -11  -1   27.02    5.49
  -1  11   1   23.34    7.61
  -1  11   0   41.07    9.43
  -1  11  -1    0.94    2.85
   1 -11   1   10.99    4.80
   1 -11   2   53.92    8.42
  -1  11  -2   51.15   10.76
   1 -11   3    9.83    4.18
  -1  11  -3    7.87    4.70
   1 -11   4    5.19    5.01
  -1  11  -4    0.96    3.27
   1 -11   4    0.43    2.74
   1 -11   5   16.71    5.85
   1 -11   5   10.02    3.59
   1 -11   6  120.56   14.18
   1 -10  -5   43.86    7.47
  -1  10   5   41.06   13.40
   1 -10  -4   20.36    5.07
  -1  10   4   21.55    9.32
   1 -10  -3   57.50    7.70
  -1  10   3   52.48    9.87
   1 -10  -2   40.65    6.25
  -1  10   2   42.73    9.05
   1 -10  -1   35.86    5.79
  -1  10   1   47.81    9.75
   1 -10   0   15.64    3.68
  -1  10   0   11.17    4.80
   1 -10   1  797.83   27.57
  -1  10  -1  686.72   37.80
   1 -10   1  729.10   30.14
   1 -10   2   35.19    6.57
  -1  10  -2   30.02    7.43
  -1  10  -3  153.83   17.12
   1 -10   3  139.48   12.80
   1 -10   4   94.28   11.04
  -1  10  -4   74.63   12.20
   1 -10   4   78.14   10.07
  -1  10  -5    1.41    2.19
   1 -10   5   -2.08    3.44
   1 -10   6   -0.07    3.14
  -1  10  -6    1.07    3.21
   1 -10   7   33.28    8.53
  -1  10  -7   25.85    7.65
  -1  10  -8   15.69    4.61
   1 -10   8   18.15    6.45
   1  -9  -6   10.17    3.49
  -1   9   6    1.35    3.33
   1  -9  -5  268.53   17.32
  -1   9   5  230.51   28.49
   1  -9  -4  105.75   10.21
  -1   9   4  114.03   19.22
  -1   9   4  110.47   13.21
   1  -9  -3  224.78   14.73
  -1   9   3  239.27   19.65
   1  -9  -2  116.33    9.95
  -1   9   2  144.78   15.05
   1  -9  -1  132.64   10.13
  -1   9   1  138.92   14.73
   1  -9   0   34.11    4.96
  -1   9   0   42.35    8.04
   1  -9   1  587.76   21.72
  -1   9  -1  546.08   30.84
   1  -9   2   42.12    5.21
  -1   9  -2   29.72    6.81
   1  -9   2   44.11    6.75
  -1   9  -3  407.04   26.49
   1  -9   3  398.02   21.12
   1  -9   4   20.28    5.46
   1  -9   4   14.06    4.23
  -1   9  -4   17.53    5.72
   1  -9   5  344.08   20.72
  -1   9  -5  324.22   18.01
  -1   9  -5  337.11   24.50
   1  -9   5  295.85   20.48
  -1   9  -6  100.39   10.33
   1  -9   6  120.73   12.70
  -1   9  -6  109.52   14.00
   1  -9   6   90.41   12.04
   1  -9   7  184.47   16.75
  -1   9  -7  154.99   13.55
  -1   9  -7  189.82   18.84
  -1   9  -8    7.48    3.46
   1  -9   8    6.26    3.80
  -1   9  -8    9.00    4.58
   1  -9   9   23.13    7.16
  -1   9  -9   31.17    6.67
  -1   9  -9   33.13    8.49
   1  -8  -8   10.16    3.82
  -1   8   8    9.91    6.50
   1  -8  -7   56.91    8.05
  -1   8   7   58.17   14.75
   1  -8  -6   43.46    6.54
  -1   8   6   36.31   11.19
   1  -8  -5   98.06    9.61
  -1   8   5  118.35   19.06
  -1   8   5   91.65   10.98
   1  -8  -4   55.02    6.76
  -1   8   4   54.13   12.46
  -1   8   4   75.31   10.06
   1  -8  -3  320.51   16.68
  -1   8   3  334.06   21.64
   1  -8  -2    7.07    2.15
  -1   8   2   20.22    5.25
   1  -8  -1  135.69    9.53
  -1   8   1  127.13   12.95
   1  -8   0  127.31    8.82
  -1   8   0  126.96   12.88
   1  -8   1  164.90    9.67
  -1   8  -1  151.12   14.29
   1  -8   2  105.94    7.36
  -1   8  -2   86.13   10.89
   1  -8   2   97.39    8.99
  -1   8  -3   28.84    4.36
   1  -8   3   27.57    3.45
  -1   8  -3   23.98    5.92
   1  -8   3   16.38    4.23
   1  -8   4   22.97    5.23
  -1   8  -4   18.77    3.81
   1  -8   4   16.83    2.05
  -1   8  -4   11.17    4.58
   1  -8   4   11.81    3.71
  -1   8  -5   57.07    7.12
   1  -8   5   67.56    8.50
   1  -8   5   63.46    8.76
  -1   8  -5   66.15    9.97
   1  -8   6   43.36    7.74
  -1   8  -6   30.10    5.53
   1  -8   6   19.34    5.24
  -1   8  -6   28.62    6.82
   1  -8   7  547.96   28.87
  -1   8  -7  544.07   26.13
  -1   8  -7  585.88   32.20
   1  -8   8   65.88   10.28
  -1   8  -8   70.97    9.26
  -1   8  -8   73.85   11.49
  -1   8  -9   26.84    6.09
   1  -8   9   24.57    6.56
  -1   8  -9   27.68    7.36
   1  -8  10   -1.74    4.35
  -1   8 -10    1.39    4.00
  -1   8 -10    1.62    3.71
  -1   8 -11   56.88   11.30
   1  -7  -9   60.99    8.66
  -1   7   9   63.06   15.75
   1  -7  -8   -2.83    3.15
  -1   7   8    2.72    5.11
   1  -7  -7   30.07    5.28
  -1   7   7   33.65   10.60
   1  -7  -6   24.59    4.61
  -1   7   6   26.86    9.00
  -1   7   6   35.00    6.06
   1  -7  -5   21.33    4.37
  -1   7   5   35.54   10.12
  -1   7   5   33.38    6.05
   1  -7  -4  360.74   17.55
  -1   7   4  396.80   21.90
  -1   7   4  380.31   31.04
   1  -7  -3    1.66    2.83
  -1   7   3    2.85    1.65
   1  -7  -2   -2.10    2.72
  -1   7   2    1.25    1.98
   1  -7  -1  115.87    8.09
  -1   7   1  113.73   11.15
   1  -7   0   56.43    5.27
  -1   7   0   44.32    6.99
   1  -7   1  128.46    7.78
  -1   7  -1  127.53    7.48
  -1   7  -1  116.86   11.44
   1  -7   2  619.83   19.24
  -1   7  -2  628.55   21.06
  -1   7  -2  593.33   28.10
   1  -7   2  631.79   23.41
  -1   7  -3   78.63    7.01
  -1   7  -3   82.46    9.88
   1  -7   3   85.29    5.46
   1  -7   3   71.33    7.55
   1  -7   4   19.52    4.88
  -1   7  -4    6.45    2.29
  -1   7  -4   11.87    3.90
   1  -7   4    8.89    3.13
  -1   7  -5   60.86    7.16
   1  -7   5   71.05    8.65
  -1   7  -5   57.56    8.70
   1  -7   5   65.82    8.65
   1  -7   6  276.82   17.88
  -1   7  -6  270.77   16.41
  -1   7  -6  305.76   20.62
   1  -7   6  236.26   17.98
  -1   7  -7    1.81    2.17
   1  -7   7    1.47    2.95
  -1   7  -7    3.61    3.33
   1  -7   8  358.84   23.70
  -1   7  -8  385.56   21.81
  -1   7  -8  386.79   24.99
  -1   7  -9  403.25   23.47
   1  -7   9  347.27   24.84
  -1   7  -9  394.09   25.81
   1  -7  10  165.56   17.96
  -1   7 -10  223.27   17.85
  -1   7 -10  196.91   18.63
  -1   7 -11  288.29   21.36
   1  -7  11  255.43   24.06
  -1   7 -11  262.77   22.20
  -1   7 -12    5.35    4.83
   1  -6 -10   47.17    7.64
  -1   6  10   45.15   12.80
   1  -6  -9   55.85    7.81
  -1   6   9   62.55   14.94
   1  -6  -8  174.64   13.22
  -1   6   8  128.98   20.68
   1  -6  -7  156.74   11.96
  -1   6   7  202.28   24.27
   1  -6  -6  211.27   13.46
  -1   6   6  241.51   24.91
  -1   6   6  228.59   14.41
   1  -6  -5   61.96    6.58
   1  -6  -5   74.40    6.38
  -1   6   5   57.07   11.87
  -1   6   5   72.72    8.20
   1  -6  -4  642.52   23.72
  -1   6   4  669.25   39.30
   1  -6  -4  673.96   20.53
  -1   6   4  678.07   28.11
   1  -6  -3  263.94   13.10
  -1   6   3  269.53   16.25
   1  -6  -3  255.83    9.91
   1  -6  -2  284.94   13.14
  -1   6   2  278.81   16.55
   1  -6  -2  296.51    9.21
   1  -6  -1   18.02    2.91
  -1   6   1   27.00    4.93
   1  -6   0  936.47   25.98
  -1   6   0  909.77   33.23
   1  -6   1   55.36    4.55
  -1   6  -1   64.60    4.97
  -1   6  -1   57.15    7.24
   1  -6   2  478.09   15.05
  -1   6  -2  496.09   17.59
  -1   6  -2  453.05   22.29
   1  -6   2  485.80   18.74
  -1   6  -3    0.71    1.27
   1  -6   3    6.19    1.50
  -1   6  -3    2.08    2.49
   1  -6   3    5.46    2.25
   1  -6   4    7.90    3.06
  -1   6  -4    6.83    2.15
   1  -6   4    5.05    2.06
   1  -6   5  183.00   12.86
  -1   6  -5  162.86   11.50
   1  -6   5  145.34   12.54
  -1   6  -6   78.31    8.37
   1  -6   6   82.60    9.33
  -1   6  -6   80.60    9.79
  -1   6  -7    2.66    2.26
   1  -6   7   -1.78    2.55
  -1   6  -7   -0.18    2.15
   1  -6   8   -1.06    3.42
  -1   6  -8    5.65    3.02
  -1   6  -8    6.87    3.59
  -1   6  -9  248.08   17.74
   1  -6   9  205.73   18.44
  -1   6  -9  238.56   18.56
   1  -6  10   30.82    7.61
  -1   6 -10   35.35    6.98
  -1   6 -10   29.41    6.76
  -1   6 -11  294.69   22.12
  -1   6 -11  285.54   27.33
  -1   6 -11  286.34   20.98
   1  -6  11  262.52   24.16
   1  -5 -11   68.52    9.26
  -1   5  11   66.58   15.89
   1  -5 -10   13.14    3.70
  -1   5  10   22.25    9.50
   1  -5  -9   49.80    7.02
  -1   5   9   51.57   13.77
   1  -5  -8   75.24    8.12
  -1   5   8   75.15   14.65
   1  -5  -7  132.09   10.41
  -1   5   7  125.71    8.71
  -1   5   7  134.33   18.65
   1  -5  -6 1059.54   34.00
  -1   5   6 1124.72   54.57
  -1   5   6 1120.68   34.50
   1  -5  -5  385.83   16.84
   1  -5  -5  386.38   15.60
  -1   5   5  361.37   17.71
  -1   5   5  350.53   27.34
   1  -5  -4  399.60   16.53
  -1   5   4  394.85   18.78
   1  -5  -4  428.19   15.07
  -1   5   4  349.97   26.29
   1  -5  -3  374.21   15.26
   1  -5  -3  399.02   13.18
  -1   5   3  389.66   18.54
   1  -5  -2  369.20   14.39
   1  -5  -2  385.09   11.35
  -1   5   2  363.18   17.60
   1  -5  -1   12.88    2.16
  -1   5   1   17.47    3.64
   1  -5   0  466.23   20.93
   1  -5   0  457.01   14.96
  -1   5   0  466.52   13.57
  -1   5   0  456.30   20.12
  -1   5   0  491.40   16.99
   1  -5   1  551.89   23.01
   1  -5   1  558.60   16.20
  -1   5  -1  537.24   16.87
  -1   5  -1  542.11   22.40
   1  -5   1  547.30   12.42
  -1   5  -1  537.32   18.33
   1  -5   2    9.01    2.03
   1  -5   2    5.38    2.10
  -1   5  -2    4.50    1.50
   1  -5   2    4.54    0.98
  -1   5  -2    5.67    1.67
   1  -5   2    8.06    2.56
  -1   5  -2    3.81    2.09
   1  -5   3   10.91    3.25
  -1   5  -3    3.05    1.32
  -1   5  -3    7.33    2.71
   1  -5   3    6.31    2.38
   1  -5   3    4.27    0.74
   1  -5   3    5.49    1.87
  -1   5  -3    6.28    1.83
   1  -5   4  108.90    8.70
  -1   5  -4   85.61    7.56
   1  -5   4   90.20    8.54
  -1   5  -4   87.28    8.04
   1  -5   4   73.79    7.73
  -1   5  -4   99.74    6.59
   1  -5   5  561.62   22.88
   1  -5   5  549.31   23.28
  -1   5  -5  555.38   22.39
  -1   5  -5  567.59   20.06
  -1   5  -5  567.01   18.31
   1  -5   5  478.56   23.71
  -1   5  -6  619.79   25.45
   1  -5   6  616.21   26.98
   1  -5   6  665.68   24.49
  -1   5  -6  642.94   19.87
   1  -5   7  675.11   24.23
  -1   5  -7  685.66   28.19
   1  -5   7  646.37   29.84
  -1   5  -7  702.74   29.85
  -1   5  -7  710.60   20.85
  -1   5  -8   56.17    7.63
   1  -5   8   53.08    8.28
  -1   5  -8   45.15    7.25
   1  -5   9  737.28   36.94
  -1   5  -9  849.64   34.56
  -1   5  -9  832.96   34.84
  -1   5 -10    7.20    3.92
   1  -5  10    7.46    4.41
  -1   5 -10    8.92    5.13
  -1   5 -10    3.85    2.83
   1  -5  11   60.98   11.29
  -1   5 -11   57.39   12.41
  -1   5 -11   63.42    9.57
  -1   5 -11   69.92   10.02
  -1   5 -12  114.11   17.60
   1  -5  12  118.80   16.98
  -1   5 -12  135.56   14.69
   1  -4 -12  352.92   21.26
  -1   4  12  312.61   34.54
   1  -4 -11    6.83    3.48
  -1   4  11    7.69    6.14
   1  -4 -10   18.88    4.22
  -1   4  10   30.18    9.81
   1  -4 -10   21.39    5.12
   1  -4  -9   70.01    7.71
  -1   4   9   52.85   12.65
   1  -4  -8  159.05   11.39
  -1   4   8  181.97   22.15
   1  -4  -7    7.53    2.28
  -1   4   7   10.82    5.32
   1  -4  -6  318.77   15.05
  -1   4   6  295.29   13.91
  -1   4   6  309.53   25.77
  -1   4   6  334.47   13.89
   1  -4  -5  228.33   13.71
   1  -4  -5  208.36   11.39
  -1   4   5  242.47   21.18
  -1   4   5  238.14   12.66
   1  -4  -5  228.65   11.38
  -1   4   5  224.60   10.64
   1  -4  -4   13.10    3.38
   1  -4  -4   12.09    2.49
  -1   4   4    8.34    3.42
   1  -4  -4   18.90    3.65
  -1   4   4    5.82    3.06
  -1   4   4    8.84    2.49
  -1   4   4   14.60    2.51
   1  -4  -3  490.00   17.13
   1  -4  -3  532.15   21.46
  -1   4   3  584.94   17.89
  -1   4   3  479.85   19.71
  -1   4   3  519.12   17.06
   1  -4  -2    6.88    1.71
  -1   4   2    8.72    1.81
   1  -4  -2   12.69    3.12
  -1   4   2    7.01    1.69
  -1   4   2    5.54    1.86
   1  -4  -1   69.30    4.78
   1  -4  -1   77.28    7.09
  -1   4   1   76.38    4.79
  -1   4   1   75.76    3.15
  -1   4   1   77.97    6.82
  -1   4   1   74.20    5.35
   1  -4   0  758.24   20.12
  -1   4   0  778.03   19.61
   1  -4   0  770.15   25.81
  -1   4   0  768.79   19.22
  -1   4   0  730.09   24.98
  -1   4   0  770.09   21.88
   1  -4   1 1374.34   38.40
   1  -4   1 1306.68   31.16
  -1   4  -1 1432.51   30.45
  -1   4  -1 1331.39   33.02
  -1   4  -1 1332.62   38.18
   1  -4   1 1410.34   29.43
  -1   4  -1 1360.92   33.83
  -1   4  -2  206.72    6.39
   1  -4   2  185.58   11.02
  -1   4  -2  194.12    9.69
   1  -4   2  200.97    9.68
   1  -4   2  212.01    7.58
  -1   4  -2  217.37   12.17
   1  -4   2  197.79    9.80
   1  -4   2  195.61    6.93
   1  -4   3 3072.45   72.67
  -1   4  -3 3148.85   61.10
  -1   4  -3 3086.02   70.70
   1  -4   3 3022.41   70.05
   1  -4   3 3017.82   66.12
   1  -4   3 3007.02   71.71
  -1   4  -3 3304.42   69.58
   1  -4   4  132.08    9.04
  -1   4  -4  130.54    9.13
   1  -4   4  151.57    9.94
  -1   4  -4  120.74    7.62
   1  -4   4  139.30    7.64
   1  -4   4  110.12    9.28
   1  -4   5 1685.46   43.85
  -1   4  -5 1626.94   43.19
  -1   4  -5 1693.03   46.25
   1  -4   5 1715.81   47.72
   1  -4   6 1288.67   34.63
  -1   4  -6 1300.05   40.10
   1  -4   6 1245.90   41.38
  -1   4  -7  449.81   10.80
   1  -4   7  472.37   16.64
   1  -4   7  453.33   23.91
  -1   4  -7  459.15   21.91
  -1   4  -7  483.82   22.33
   1  -4   8   29.82    6.53
  -1   4  -8   32.63    5.68
   1  -4   8   23.61    3.22
  -1   4  -8   30.33    2.24
  -1   4  -8   34.79    5.93
  -1   4  -8   25.30    2.82
  -1   4  -9  586.67   26.67
  -1   4  -9  614.69   27.98
   1  -4   9  544.38   31.09
  -1   4 -10   77.37    9.27
  -1   4 -10   74.00    9.68
   1  -4  10   66.51   11.20
  -1   4 -10   62.73   11.55
  -1   4 -11  218.62   16.58
   1  -4  11  219.88   21.40
  -1   4 -11  229.01   17.91
  -1   4 -11  250.24   24.54
  -1   4 -12   19.51    5.54
   1  -4  12   22.63    7.79
  -1   4 -12   11.40    5.97
   1  -3 -13    6.59    3.44
   1  -3 -12   30.30    6.03
  -1   3  12   47.34   12.52
   1  -3 -11  298.18   17.50
  -1   3  11  264.70   28.82
   1  -3 -10  153.43   11.85
   1  -3 -10  155.38   12.65
  -1   3  10  181.02   22.88
   1  -3 -10  149.33   10.51
   1  -3  -9  301.08   17.76
   1  -3  -9  302.24   16.04
   1  -3  -9  303.94   14.49
  -1   3   9  292.71   28.40
   1  -3  -8   96.77    8.37
   1  -3  -8   98.49    8.19
   1  -3  -8   95.31    7.12
  -1   3   8   85.89   14.34
  -1   3   8   97.20    7.05
   1  -3  -7  232.33   13.08
   1  -3  -7  221.40   12.21
   1  -3  -7  231.70   10.57
  -1   3   7  222.96   22.20
   1  -3  -7  237.59    8.59
  -1   3   7  221.98   10.56
   1  -3  -6   66.86    6.90
   1  -3  -6   55.38    5.54
   1  -3  -6   61.80    4.59
   1  -3  -6   55.25    7.04
   1  -3  -6   63.16    4.36
  -1   3   6   63.77   11.03
  -1   3   6   59.06    4.75
   1  -3  -5   32.92    4.65
   1  -3  -5   30.52    3.85
   1  -3  -5   32.40    4.96
  -1   3   5   40.07    6.42
   1  -3  -5   30.77    4.04
  -1   3   5   29.35    3.85
  -1   3   5   30.33    7.13
   1  -3  -5   35.29    3.41
  -1   3   5   33.71    3.38
   1  -3  -4   96.38    7.82
  -1   3   4  106.89    6.59
   1  -3  -4   98.94    6.54
  -1   3   4   89.68    9.02
  -1   3   4  106.01   12.04
  -1   3   4  108.86    7.64
   1  -3  -4  105.38    6.29
  -1   3   4  103.06    5.82
  -1   3   3  139.72    7.09
   1  -3  -3  119.15    6.74
   1  -3  -3  143.83    7.49
  -1   3   3  113.36   11.59
  -1   3   3  133.18    8.52
  -1   3   3  128.10    6.49
   1  -3  -2   25.90    2.78
  -1   3   2   32.18    3.02
   1  -3  -2   28.82    3.84
   1  -3  -2   29.10    3.34
  -1   3   2   25.69    3.56
  -1   3   2   34.15    3.15
  -1   3   1 1077.89   25.09
   1  -3  -1 1019.38   25.28
   1  -3  -1 1068.67   29.93
  -1   3   1 1019.87   29.09
   1  -3  -1 1109.59   28.56
  -1   3   1 1001.73   25.81
   1  -3   0  145.77    8.47
  -1   3   0  144.51    5.75
   1  -3   0  146.82    6.13
  -1   3   0  139.86    8.34
   1  -3   1 1208.35   31.76
  -1   3  -1 1222.39   26.16
  -1   3  -1 1176.83   32.56
   1  -3   1 1224.19   26.69
   1  -3   1 1197.97   28.93
   1  -3   1 1145.50   26.63
   1  -3   2    1.25    0.97
  -1   3  -2    4.84    0.93
   1  -3   2    6.28    1.98
  -1   3  -2    2.38    1.12
   1  -3   2    2.25    0.86
  -1   3  -2    4.06    1.73
  -1   3  -2    3.06    1.45
   1  -3   2    0.71    0.85
   1  -3   3   24.55    3.23
  -1   3  -3   29.95    3.74
  -1   3  -3   24.86    3.54
   1  -3   3   23.24    3.45
  -1   3  -3   18.56    2.60
   1  -3   3   27.16    3.05
  -1   3  -3   25.79    3.72
  -1   3  -3   25.07    1.68
   1  -3   3   24.73    3.73
  -1   3  -3   25.45    3.26
   1  -3   4   31.08    3.59
   1  -3   4   29.06    4.27
  -1   3  -4   25.02    4.04
  -1   3  -4   35.40    4.39
  -1   3  -4   23.43    3.29
   1  -3   4   34.59    3.81
  -1   3  -4   28.19    3.86
   1  -3   5 2144.86   50.06
  -1   3  -5 2234.15   56.92
  -1   3  -5 2405.77   56.07
   1  -3   5 2228.77   58.34
   1  -3   5 2295.57   53.72
  -1   3  -5 2120.16   53.86
  -1   3  -6   13.91    3.35
   1  -3   6    9.41    3.39
   1  -3   6   13.26    1.96
  -1   3  -6   12.15    1.42
  -1   3  -6    9.68    2.79
  -1   3  -7 1444.50   31.81
   1  -3   7 1376.73   32.15
  -1   3  -7 1489.92   44.33
   1  -3   7 1341.89   47.12
  -1   3  -7 1444.74   41.71
   1  -3   8   24.57    5.92
  -1   3  -8   37.40    6.16
  -1   3  -8   26.44    2.70
  -1   3  -8   30.90    4.98
  -1   3  -9  263.04   10.27
   1  -3   9  236.67   19.75
  -1   3  -9  252.00   21.56
  -1   3  -9  248.11   16.96
  -1   3  -9  275.82   16.01
  -1   3  -9  260.56   10.70
  -1   3 -10  186.17   13.41
  -1   3 -10  164.67   18.69
   1  -3  10  162.30   17.22
  -1   3 -10  172.30   14.56
   1  -3  11  178.21   19.68
  -1   3 -11  229.62   23.17
  -1   3 -11  242.64   18.24
  -1   3 -12  164.66   21.35
  -1   3 -12  181.81   16.44
   1  -3  12  180.00   20.60
   1  -2 -14    4.88    3.68
   1  -2 -13   65.01    8.75
   1  -2 -12   27.20    5.38
  -1   2  12   23.25    8.96
   1  -2 -12   23.71    4.93
   1  -2 -12   27.56    8.90
   1  -2 -11  403.47   20.13
  -1   2  11  416.84   35.10
   1  -2 -11  397.40   19.91
   1  -2 -11  408.64   30.52
   1  -2 -10  463.86   20.65
   1  -2 -10  450.21   20.23
   1  -2 -10  490.61   31.45
   1  -2 -10  432.59   19.86
  -1   2  10  437.90   34.51
   1  -2  -9  602.20   21.93
   1  -2  -9  583.15   22.71
   1  -2  -9  625.28   24.57
   1  -2  -9  627.58   34.02
   1  -2  -9  606.32   22.74
  -1   2   9  606.54   38.80
  -1   2   9  574.33   19.04
   1  -2  -8  727.89   25.20
   1  -2  -8  763.74   25.65
   1  -2  -8  826.94   28.62
   1  -2  -8  779.75   36.38
   1  -2  -8  768.91   25.07
  -1   2   8  762.75   42.10
   1  -2  -8  795.80   21.89
  -1   2   8  739.63   22.13
   1  -2  -7  558.37   22.00
   1  -2  -7  535.48   19.35
   1  -2  -7  520.83   27.40
   1  -2  -7  535.37   18.78
   1  -2  -7  539.73   17.37
  -1   2   7  513.64   32.55
  -1   2   7  533.40   16.49
   1  -2  -6  252.87   11.77
   1  -2  -6  282.68   11.51
   1  -2  -6  286.03   18.16
   1  -2  -6  278.07   15.21
   1  -2  -6  260.07   11.11
  -1   2   6  239.26   20.30
  -1   2   6  271.55    9.79
  -1   2   5  817.07   23.52
   1  -2  -5  853.92   24.02
   1  -2  -5  763.46   27.02
   1  -2  -5  857.54   22.36
  -1   2   5  872.59   32.30
   1  -2  -5  850.26   23.75
   1  -2  -5  818.30   36.84
  -1   2   5  907.83   38.84
  -1   2   5  840.96   20.93
  -1   2   4   99.07    5.81
   1  -2  -4   86.41    5.62
   1  -2  -4   98.54    7.28
  -1   2   4   98.04    8.83
  -1   2   4  100.32    5.29
  -1   2   4   99.61    6.67
  -1   2   4   92.00   10.52
   1  -2  -4  101.45   10.79
   1  -2  -4   96.66    6.09
  -1   2   4   93.80    4.75
   1  -2  -3  233.48    9.28
  -1   2   3  242.40    9.17
  -1   2   3  253.35    7.70
  -1   2   3  247.02   13.20
   1  -2  -3  225.29   10.38
  -1   2   3  286.51   16.92
  -1   2   3  227.20   10.65
   1  -2  -3  255.50   10.43
  -1   2   3  246.10    8.34
   1  -2  -2  301.81   10.13
  -1   2   2  309.55   10.03
  -1   2   2  299.53   12.15
   1  -2  -2  307.99   11.57
   1  -2  -1    0.59    1.04
  -1   2   1   -1.15    1.32
  -1   2   1    0.29    0.73
  -1   2   0  523.22   13.04
   1  -2   0  531.26   16.10
  -1   2   0  496.76   16.29
   1  -2   0  488.70   13.20
   1  -2   1 3437.46   70.06
   1  -2   1 3482.58   73.25
  -1   2  -1 3438.89   73.77
  -1   2  -1 3425.40   68.35
   1  -2   1 3423.29   70.50
   1  -2   2   26.33    2.67
   1  -2   2   33.49    3.41
  -1   2  -2   45.73    3.84
  -1   2  -2   34.51    3.71
   1  -2   2   33.46    2.92
  -1   2  -2   32.10    3.16
   1  -2   2   33.49    3.65
   1  -2   3  126.04    5.86
   1  -2   3  122.18    7.82
  -1   2  -3  146.78    7.94
  -1   2  -3  117.59    6.83
   1  -2   3  135.94    7.07
  -1   2  -3  149.87    8.08
  -1   2  -3  120.18    7.62
   1  -2   4 1902.60   40.96
   1  -2   4 1879.49   49.38
  -1   2  -4 1899.05   48.28
  -1   2  -4 1995.77   48.23
  -1   2  -4 1848.64   46.04
  -1   2  -4 1963.00   46.39
  -1   2  -4 1976.11   55.72
   1  -2   4 1951.82   46.00
  -1   2  -4 1822.68   48.72
   1  -2   5  153.71    5.22
  -1   2  -5  150.81    8.92
   1  -2   5  155.89    9.37
  -1   2  -5  139.01   13.10
  -1   2  -5  142.04    9.21
  -1   2  -5  188.56   11.28
  -1   2  -5  159.94   10.49
   1  -2   5  148.25   11.06
  -1   2  -6  288.42    9.74
   1  -2   6  244.32   16.02
  -1   2  -6  292.07   15.51
  -1   2  -6  279.50   13.12
   1  -2   6  287.02   14.21
  -1   2  -7   44.61    3.69
   1  -2   7   41.81    7.05
  -1   2  -7   44.36    6.17
  -1   2  -7   43.39    7.75
  -1   2  -7   36.52    4.73
  -1   2  -7   33.68    3.76
  -1   2  -8   47.15    4.14
  -1   2  -8   55.23    9.23
  -1   2  -8   58.69    7.51
   1  -2   8   42.15    7.62
  -1   2  -8   50.70    5.78
  -1   2  -8   55.28    4.39
  -1   2  -9  137.04    7.79
  -1   2  -9  128.94   15.24
  -1   2  -9  147.47   12.51
   1  -2   9  109.71   13.34
  -1   2  -9  129.55    9.85
  -1   2  -9  137.90    6.25
  -1   2 -10  295.80   13.08
  -1   2 -10  333.59   16.74
  -1   2 -10  315.88   25.51
  -1   2 -10  283.85   18.82
   1  -2  10  309.80   24.16
  -1   2 -11   23.04    5.64
   1  -2  11   20.64    6.39
  -1   2 -11   27.48    8.25
  -1   2 -12    6.06    3.58
  -1   2 -12    6.83    5.11
  -1   2 -13   14.63    5.00
   1  -1 -13   43.56    6.72
  -1   1  13   41.73   11.94
   1  -1 -13   35.25   10.21
   1  -1 -13   34.21    6.42
   1  -1 -12  224.52   14.62
  -1   1  12  243.30   26.58
   1  -1 -12  218.88   15.69
   1  -1 -12  264.80   25.33
   1  -1 -11   41.81    5.83
  -1   1  11   33.50   10.85
   1  -1 -11   42.88    6.31
   1  -1 -11   49.60   10.64
   1  -1 -10    0.82    2.01
  -1   1  10   -0.37    2.65
   1  -1 -10    1.38    1.23
   1  -1 -10    1.56    1.48
   1  -1 -10    2.98    4.19
   1  -1  -9   49.54    5.45
   1  -1  -9   35.47    4.56
   1  -1  -9   31.59    7.27
   1  -1  -9   50.86    6.03
   1  -1  -9   35.91    4.68
  -1   1   9   37.22    9.02
   1  -1  -8  167.43    9.86
   1  -1  -8  177.13   10.71
   1  -1  -8  166.49   10.50
   1  -1  -8  169.68   15.81
  -1   1   8  167.12   18.00
   1  -1  -8  175.68   10.56
  -1   1   8  172.11    6.81
   1  -1  -7 1457.08   39.40
   1  -1  -7 1464.04   37.10
  -1   1   7 1361.93   45.19
   1  -1  -7 1441.59   49.64
   1  -1  -7 1377.77   37.77
  -1   1   7 1485.17   56.01
   1  -1  -7 1423.76   38.72
  -1   1   7 1410.39   31.86
   1  -1  -6  229.71   11.82
  -1   1   6  218.26    9.76
   1  -1  -6  218.88   10.08
  -1   1   6  210.76   11.23
  -1   1   6  222.86   15.17
  -1   1   6  220.07   13.82
   1  -1  -6  207.75   10.36
   1  -1  -6  214.95   12.37
   1  -1  -6  221.18   15.65
  -1   1   6  228.50   18.48
   1  -1  -6  227.57   11.33
  -1   1   6  221.11    7.34
  -1   1   5    7.88    1.69
   1  -1  -5    9.13    1.50
  -1   1   5   13.28    3.51
  -1   1   5    9.36    1.99
   1  -1  -5   11.82    2.08
   1  -1  -5    7.66    1.74
   1  -1  -5    9.83    2.38
  -1   1   5    8.83    2.62
   1  -1  -5    9.93    3.26
   1  -1  -5   12.03    2.47
  -1   1   5    7.99    3.49
   1  -1  -5   11.59    4.34
  -1   1   5    9.25    1.12
   1  -1  -4  218.31   10.41
   1  -1  -4  208.25    8.48
  -1   1   4  197.20    8.06
   1  -1  -4  206.29    8.43
  -1   1   4  203.21   12.29
   1  -1  -4  197.47   12.24
  -1   1   4  203.32   10.57
   1  -1  -4  202.76    9.90
  -1   1   4  216.57    8.87
  -1   1   4  203.40   14.77
   1  -1  -4  213.99   15.14
   1  -1  -4  211.12   10.02
  -1   1   4  203.08    6.23
  -1   1   3  208.72    7.73
   1  -1  -3  219.77    8.02
   1  -1  -3  209.92    8.71
  -1   1   3  208.44    7.57
  -1   1   3  198.13    9.06
   1  -1  -3  189.38   10.84
  -1   1   3  187.64   10.88
  -1   1   3  201.51    9.25
   1  -1  -3  201.09   12.92
  -1   1   3  213.11   13.32
   1  -1  -3  212.16    9.59
  -1   1   2    1.70    0.60
   1  -1  -2    5.64    1.74
  -1   1   2    3.00    0.87
   1  -1  -2    2.76    0.74
  -1   1   2    3.27    1.15
   1  -1  -2    5.67    1.97
  -1   1   2    2.91    1.45
   1  -1  -2    4.08    1.27
   1  -1  -1 2739.07   59.21
   1  -1   1 2163.50   47.25
  -1   1  -1 2226.76   47.03
  -1   1  -1 2264.91   48.60
   1  -1   1 2199.51   47.89
  -1   1  -1 2193.77   46.52
   1  -1   1 2226.77   47.22
   1  -1   2 1892.77   45.45
  -1   1  -2 1957.30   44.98
  -1   1  -2 2050.76   48.22
   1  -1   2 2000.47   43.05
   1  -1   2 1984.72   43.66
  -1   1  -2 1909.11   43.69
   1  -1   3  719.84   24.02
  -1   1  -3  770.82   23.74
   1  -1   3  797.25   21.90
  -1   1  -3  762.37   20.74
  -1   1  -3  766.34   27.28
  -1   1  -3  778.47   22.14
  -1   1  -4 1427.08   39.15
   1  -1   4 1371.63   40.06
  -1   1  -4 1468.21   45.88
   1  -1   4 1441.03   36.54
   1  -1   4 1463.57   43.21
  -1   1  -4 1342.82   36.18
  -1   1  -4 1411.85   34.10
  -1   1  -4 1414.18   34.26
   1  -1   5 1992.78   55.31
  -1   1  -5 1968.51   51.30
  -1   1  -5 2110.28   54.02
  -1   1  -5 1981.10   62.20
   1  -1   5 2035.30   50.19
   1  -1   5 2159.50   59.48
  -1   1  -5 2018.86   46.55
  -1   1  -5 1832.14   49.56
  -1   1  -5 2070.69   46.60
  -1   1  -6 1609.87   50.45
  -1   1  -6 1590.31   44.59
   1  -1   6 1471.42   48.07
   1  -1   6 1561.25   42.77
   1  -1   6 1513.94   51.46
  -1   1  -6 1526.04   38.47
  -1   1  -6 1614.04   37.65
  -1   1  -7   17.93    2.59
  -1   1  -7   12.73    4.41
  -1   1  -7   20.26    4.16
   1  -1   7   14.42    4.32
   1  -1   7    8.06    3.80
  -1   1  -7   12.80    2.52
  -1   1  -7   17.20    2.44
  -1   1  -8  266.83   11.66
   1  -1   8  224.93   18.25
  -1   1  -8  259.09   15.95
  -1   1  -8  254.38   20.05
  -1   1  -8  259.60   12.19
   1  -1   8  272.68   21.42
  -1   1  -8  263.66    9.73
  -1   1  -9  150.65    8.92
  -1   1  -9  148.89   16.17
  -1   1  -9  146.14   12.40
  -1   1  -9  143.68    9.09
   1  -1   9  152.54   16.99
  -1   1  -9  143.82    6.17
  -1   1 -10  295.81   14.00
   1  -1  10  296.07   25.51
  -1   1 -10  315.96   19.46
  -1   1 -10  305.85   25.07
  -1   1 -11  106.31    8.50
  -1   1 -11  115.76   12.10
  -1   1 -11  110.50   16.06
  -1   1 -12    2.91    2.70
  -1   1 -12    6.63    4.39
  -1   1 -13    2.32    1.97
   1   0 -14   65.84    9.68
  -1   0  13   76.61   15.23
   1   0 -13   50.68    7.98
   1   0 -13   53.02   12.71
   1   0 -12  710.43   26.83
  -1   0  12  697.84   44.60
   1   0 -12  726.96   43.52
   1   0 -12  698.04   30.60
   1   0 -11    2.05    1.84
  -1   0  11   -1.84    3.41
  -1   0  11    3.55    3.01
   1   0 -11   -0.84    1.47
   1   0 -11    3.65    3.52
   1   0 -10  449.61   18.31
   1   0 -10  402.22   14.99
  -1   0  10  422.80   31.03
   1   0 -10  444.73   29.81
  -1   0  10  425.43   26.66
   1   0 -10  443.84   21.14
   1   0  -9    2.90    1.66
  -1   0   9    2.31    2.83
   1   0  -9    1.19    1.51
   1   0  -9    0.48    0.70
   1   0  -9    2.36    1.87
  -1   0   9    2.41    3.10
   1   0  -9    0.78    2.73
   1   0  -8   39.40    4.28
   1   0  -8   32.88    4.04
  -1   0   8   36.39    7.89
   1   0  -8   31.82    6.71
   1   0  -8   25.45    4.22
  -1   0   8   33.56    6.32
   1   0  -7  190.58    9.95
   1   0  -7  195.39    9.36
  -1   0   7  214.59   18.07
  -1   0   7  183.97   13.50
   1   0  -7  182.78   15.17
   1   0  -7  185.55   10.80
   1   0  -6 1925.24   43.35
  -1   0   6 1896.83   42.65
   1   0  -6 1868.36   45.61
   1   0  -6 1757.82   61.71
  -1   0   6 1939.34   60.37
   1   0  -6 1800.55   54.89
   1   0  -6 1852.48   46.28
  -1   0   6 1820.73   51.06
  -1   0   6 1809.97   47.71
   1   0  -6 1851.73   48.15
  -1   0   6 2023.96   55.62
   1   0  -5    9.09    1.72
  -1   0   5    8.75    1.54
  -1   0   5    8.19    2.86
   1   0  -5   11.91    4.00
  -1   0   5    7.30    1.77
   1   0  -5   10.19    2.52
  -1   0   5    6.53    2.37
   1   0  -5    8.47    2.00
   1   0  -5    6.56    1.83
   1   0  -5   14.17    3.57
  -1   0   5   13.57    3.34
   1   0  -4  217.92    9.70
   1   0  -4  223.18    8.20
  -1   0   4  207.09    9.65
  -1   0   4  206.83    7.64
  -1   0   4  205.66   13.42
   1   0  -4  202.70   14.11
   1   0  -4  211.16    9.23
   1   0  -4  222.45    9.69
  -1   0   4  221.83   12.32
   1   0  -4  189.60   11.74
  -1   0   4  207.01    9.34
  -1   0   4  218.83   10.45
  -1   0   3  775.79   18.72
   1   0  -3  801.28   19.24
   1   0  -3  813.88   21.86
  -1   0   3  760.84   21.91
   1   0  -3  734.43   23.85
  -1   0   3  736.66   20.79
   1   0  -3  797.46   20.20
  -1   0   3  812.05   24.26
  -1   0   3  784.89   20.39
  -1   0   3  796.31   26.29
   1   0  -3  784.77   26.98
   1   0  -2 3057.47   63.38
  -1   0   2 2962.98   63.43
  -1   0   2 3016.37   64.33
   1   0  -2 2798.60   64.01
  -1   0   2 2988.27   60.25
   1   0  -2 2911.65   66.06
  -1   0   2 3113.36   65.97
  -1   0   2 2916.22   60.13
   1   0  -2 3017.62   60.25
   1   0   1 1235.89   26.82
  -1   0  -1 1244.23   27.29
  -1   0  -1 1241.23   28.65
  -1   0  -1 1242.83   30.24
   1   0   1 1211.39   29.29
   1   0   1 1202.66   28.43
  -1   0  -1 1239.43   29.13
  -1   0  -2  851.62   19.24
   1   0   2  886.26   19.30
  -1   0  -2  854.35   24.85
   1   0   2  852.80   25.80
  -1   0  -2  842.40   20.89
  -1   0  -2  833.33   26.58
  -1   0  -2  812.38   22.25
   1   0   2  832.25   20.14
   1   0   2  910.61   22.66
  -1   0  -2  842.42   22.17
   1   0   3 1552.78   32.75
  -1   0  -3 1654.82   32.88
  -1   0  -3 1630.81   42.50
  -1   0  -3 1535.16   46.08
  -1   0  -3 1507.21   38.37
   1   0   3 1571.24   44.44
   1   0   3 1693.63   38.73
  -1   0  -3 1585.07   35.25
  -1   0  -3 1544.03   37.08
  -1   0  -4  375.63   17.10
  -1   0  -4  362.18   17.01
  -1   0  -4  325.63   14.03
   1   0   4  347.45   18.79
  -1   0  -4  365.79   20.77
  -1   0  -4  361.85   11.26
   1   0   4  386.12   14.80
  -1   0  -4  361.75   12.66
  -1   0  -5 1845.30   52.29
  -1   0  -5 1976.14   53.93
  -1   0  -5 1871.13   41.39
   1   0   5 1828.12   56.98
  -1   0  -5 1811.38   60.32
  -1   0  -5 1739.02   47.16
   1   0   5 1991.72   48.33
  -1   0  -5 1917.47   43.13
  -1   0  -6  384.00   17.83
  -1   0  -6  423.87   22.11
  -1   0  -6  402.40   12.79
   1   0   6  429.19   18.24
   1   0   6  418.58   24.63
  -1   0  -6  401.39   13.58
  -1   0  -7  147.94    8.53
  -1   0  -7  142.05   13.55
  -1   0  -7  154.73   11.37
  -1   0  -7  165.03    7.37
   1   0   7  170.18   16.25
  -1   0  -7  161.39    7.58
  -1   0  -8   99.82    7.23
  -1   0  -8   92.60   11.82
  -1   0  -8  102.24    9.49
   1   0   8   75.97   11.73
  -1   0  -8   89.03    5.19
  -1   0  -8   92.42    5.34
  -1   0  -9   97.15    7.57
  -1   0  -9   98.89    9.93
  -1   0  -9   97.90   13.26
   1   0   9   84.26   12.85
  -1   0  -9   87.83    5.07
  -1   0 -10   16.15    3.39
   1   0  10   17.39    6.25
  -1   0 -10   11.20    5.17
  -1   0 -10   17.26    4.42
  -1   0 -11   16.91    3.87
   1   0  11   10.74    5.60
  -1   0 -11   13.64    4.12
  -1   0 -11   17.41    6.68
  -1   0 -12    1.65    1.44
   1   0  12    2.32    4.66
  -1   0 -12    5.40    3.28
  -1   0 -12    2.43    4.45
  -1   0 -13   11.08    5.79
   1   1 -14   20.11    5.75
   1   1 -13  401.59   23.83
  -1  -1  13  333.09   28.28
   1   1 -13  393.38   33.28
   1   1 -12   76.85    7.99
  -1  -1  12   88.84   15.34
   1   1 -12   95.60   10.77
  -1  -1  12   96.55   13.87
   1   1 -12   87.86   15.34
   1   1 -11    5.34    2.90
  -1  -1  11   -0.67    2.45
   1   1 -11    5.08    3.17
   1   1 -11    1.46    4.26
  -1  -1  11    3.47    3.64
   1   1 -10   97.44    7.59
   1   1 -10   93.11    6.23
  -1  -1  10  104.02   14.38
   1   1 -10  100.31   13.93
   1   1 -10   90.88    9.38
  -1  -1  10   85.29   11.59
   1   1  -9    1.27    1.25
  -1  -1   9    1.54    2.53
   1   1  -9    0.95    1.79
  -1  -1   9    0.02    2.04
   1   1  -9   -1.38    1.82
   1   1  -8  124.57    7.45
   1   1  -8  121.76    7.31
  -1  -1   8  137.25   14.67
  -1  -1   8  101.12   10.63
   1   1  -8  109.76   12.51
   1   1  -8  121.97    9.58
  -1  -1   7   53.67    5.34
   1   1  -7   52.51    4.49
   1   1  -7   57.20    4.79
  -1  -1   7   54.97    8.55
  -1  -1   7   52.55    6.90
   1   1  -7   53.14    5.90
   1   1  -7   47.32    7.65
  -1  -1   6    4.84    1.12
   1   1  -6    4.11    1.37
   1   1  -6    8.47    2.13
  -1  -1   6    3.63    2.93
   1   1  -6    7.52    3.50
   1   1  -6    7.37    2.45
  -1  -1   6    5.12    1.82
  -1  -1   6    3.95    1.59
   1   1  -6    4.52    2.57
   1   1  -6    3.55    1.46
  -1  -1   6    4.40    1.74
   1   1  -5 1017.65   24.33
  -1  -1   5  989.88   27.97
  -1  -1   5  959.20   23.18
   1   1  -5 1001.61   26.56
   1   1  -5  999.77   28.12
   1   1  -5  983.02   33.33
  -1  -1   5  990.21   29.02
   1   1  -5  960.32   27.89
  -1  -1   5 1019.24   29.99
  -1  -1   5 1008.50   35.21
   1   1  -5 1003.32   37.85
   1   1  -4   39.05    3.66
  -1  -1   4   38.16    2.59
  -1  -1   4   37.88    4.04
  -1  -1   4   36.67    3.92
   1   1  -4   38.67    3.83
   1   1  -4   35.16    4.80
  -1  -1   4   42.55    4.45
   1   1  -4   41.29    4.25
  -1  -1   4   42.41    5.56
   1   1  -4   40.65    5.81
  -1  -1   4   37.45    1.68
   1   1  -4   41.17    2.30
   1   1  -4   44.27    3.13
   1   1  -3  492.20   15.24
  -1  -1   3  466.83   15.67
  -1  -1   3  455.20   12.19
   1   1  -3  452.58   16.80
  -1  -1   3  480.77   15.05
  -1  -1   3  488.69   14.76
   1   1  -3  464.38   18.55
   1   1  -3  510.62   12.50
   1   1  -3  465.45   12.36
  -1  -1   3  489.13   11.37
  -1  -1   2   26.92    2.89
   1   1  -2   28.96    2.94
   1   1  -2   25.80    2.81
   1   1  -2   30.10    3.31
   1   1  -2   22.84    2.11
   1   1  -2   22.25    2.14
  -1  -1   2   25.27    1.97
   1   1  -1 1314.33   28.48
   1   1  -1 1406.27   31.88
  -1  -1   1 1323.52   31.66
  -1  -1   1 1321.07   27.31
   1   1  -1 1372.69   30.51
  -1  -1   1 1343.56   29.82
  -1  -1   0 3572.36   73.13
   1   1   0 3600.69   73.44
   1   1   0 3420.53   72.57
  -1  -1   0 3472.40   72.04
   1   1   1 2044.67   44.71
  -1  -1  -1 1990.10   43.89
  -1  -1  -1 1959.18   42.10
   1   1   1 1998.50   47.43
   1   1   1 1938.99   44.44
  -1  -1  -1 1996.82   43.79
  -1  -1  -2 5968.86  118.82
   1   1   2 5542.96  119.03
  -1  -1  -2 5944.35  120.54
   1   1   2 6017.04  119.43
   1   1   2 6064.98  127.95
  -1  -1  -2 6210.44  128.00
   1   1   2 5827.98  116.82
  -1  -1  -2 5986.90  119.18
   1   1   2 5882.71  120.42
   1   1   3   99.10    5.56
  -1  -1  -3  109.19    5.73
  -1  -1  -3  100.32    7.48
  -1  -1  -3  108.72   10.03
   1   1   3  115.02   10.20
   1   1   3  114.98    6.84
  -1  -1  -3  108.48    6.77
  -1  -1  -3  105.03    5.98
   1   1   3   99.77    6.52
  -1  -1  -4    5.70    1.41
  -1  -1  -4    4.41    1.94
  -1  -1  -4    6.27    2.59
   1   1   4    8.75    2.23
   1   1   4    6.38    3.16
  -1  -1  -4    6.28    2.10
  -1  -1  -4    3.98    2.15
   1   1   4    4.82    1.71
  -1  -1  -4    6.23    1.54
  -1  -1  -5 1485.32   34.21
  -1  -1  -5 1441.37   44.65
  -1  -1  -5 1358.67   39.66
   1   1   5 1439.69   50.79
   1   1   5 1581.11   40.50
  -1  -1  -5 1403.83   52.12
   1   1   5 1430.11   38.47
  -1  -1  -5 1487.28   35.55
  -1  -1  -6  244.11    9.21
  -1  -1  -6  265.09   11.89
  -1  -1  -6  250.11   16.81
   1   1   6  235.29   19.39
   1   1   6  266.33   13.97
  -1  -1  -6  246.98   10.15
   1   1   6  235.60   12.41
  -1  -1  -7   50.61    3.47
  -1  -1  -7   41.40    4.79
  -1  -1  -7   47.68    8.07
  -1  -1  -7   43.68    5.89
   1   1   7   37.10    8.09
  -1  -1  -7   42.29    3.90
  -1  -1  -8   48.18    3.42
  -1  -1  -8   47.78    5.30
  -1  -1  -8   48.53    2.96
  -1  -1  -8   55.46    9.13
  -1  -1  -8   44.69    6.25
   1   1   8   41.33    9.02
  -1  -1  -8   44.77    3.96
  -1  -1  -9  832.43   27.92
  -1  -1  -9  898.46   41.93
  -1  -1  -9  891.15   32.48
   1   1   9  809.53   44.30
  -1  -1  -9  805.12   22.63
  -1  -1 -10  113.80    9.40
   1   1  10  112.32   16.51
  -1  -1 -10  143.43   16.93
  -1  -1 -10  127.48   11.52
  -1  -1 -11  710.07   27.60
   1   1  11  609.59   41.85
  -1  -1 -11  683.27   41.03
  -1  -1 -11  714.54   31.00
  -1  -1 -12   -2.65    2.45
   1   1  12   -0.82    3.71
  -1  -1 -12    5.30    3.04
  -1  -1 -12    8.43    5.92
  -1  -1 -13    0.88    1.95
  -1  -1 -13   -1.76    3.29
   1   2 -13    4.18    4.12
  -1  -2  13   14.15    5.99
   1   2 -13    5.89    3.51
  -1  -2  12   97.21   14.00
   1   2 -12   97.07   11.12
   1   2 -12  104.61   16.02
  -1  -2  11 1467.07   57.53
   1   2 -11 1429.54   61.58
   1   2 -11 1559.44   49.74
   1   2 -11 1496.35   39.84
  -1  -2  10  113.51   13.32
   1   2 -10  140.12   11.87
   1   2 -10  131.77   15.72
   1   2 -10  129.22    8.29
   1   2 -10  122.07    8.06
  -1  -2   9  135.65   13.38
   1   2  -9  126.41   10.70
   1   2  -9  154.01   16.01
   1   2  -9  141.22    8.65
  -1  -2   9  122.98    8.85
   1   2  -9  136.31    7.98
   1   2  -8  216.82   13.40
  -1  -2   8  191.68   14.63
   1   2  -8  210.58   17.46
   1   2  -8  218.86   10.90
  -1  -2   8  188.40   11.39
   1   2  -8  221.86    9.54
   1   2  -7  796.09   27.77
   1   2  -7  782.93   34.11
  -1  -2   7  807.91   30.28
  -1  -2   7  796.68   26.63
   1   2  -7  854.77   25.19
   1   2  -7  841.67   21.75
   1   2  -6  385.80   16.61
   1   2  -6  370.83   20.22
  -1  -2   6  366.26   17.39
  -1  -2   6  398.95   16.46
   1   2  -6  380.06   14.95
  -1  -2   6  389.44   10.95
   1   2  -6  380.44   10.35
   1   2  -6  400.84   11.88
  -1  -2   5   49.94    5.21
  -1  -2   5   52.82    2.91
   1   2  -5   50.23    4.80
  -1  -2   5   49.84    5.34
   1   2  -5   51.60    5.15
  -1  -2   5   60.34    6.09
   1   2  -5   53.37    6.72
   1   2  -5   49.70    7.37
   1   2  -5   48.73    3.05
   1   2  -5   52.92    3.21
  -1  -2   4 1167.13   32.13
   1   2  -4 1237.26   32.24
  -1  -2   4 1184.92   25.94
   1   2  -4 1202.00   31.84
   1   2  -4 1236.08   35.67
  -1  -2   4 1183.33   31.68
  -1  -2   4 1247.72   32.74
   1   2  -4 1199.08   38.35
  -1  -2   4 1208.63   26.44
   1   2  -4 1209.96   27.47
   1   2  -4 1158.90   31.81
  -1  -2   3  832.84   23.04
   1   2  -3  803.07   23.80
  -1  -2   3  789.99   23.73
   1   2  -3  820.95   21.58
  -1  -2   3  815.14   19.20
   1   2  -3  782.34   20.05
  -1  -2   2 1643.67   37.58
   1   2  -2 1661.08   40.63
  -1  -2   2 1625.91   40.05
   1   2  -2 1637.69   34.98
  -1  -2   2 1586.85   36.28
  -1  -2   2 1626.53   35.51
   1   2  -2 1611.80   36.52
   1   2  -1  589.01   19.26
  -1  -2   1  542.86   18.15
   1   2  -1  572.66   16.29
  -1  -2   1  544.62   15.26
   1   2   0  283.35   12.48
  -1  -2   0  276.15   11.99
   1   2   0  285.13   10.75
  -1  -2   0  293.39   10.17
   1   2   1 5188.34  109.63
  -1  -2  -1 4989.19  108.53
   1   2   1 5068.57  104.23
   1   2   1 5254.93  104.13
  -1  -2  -1 5395.96  105.63
   1   2   1 5126.42  106.69
  -1  -2  -2  235.92   11.11
   1   2   2  231.88   11.11
   1   2   2  247.15   10.50
   1   2   2  242.04    9.65
   1   2   2  234.23   14.49
  -1  -2  -2  236.76    9.61
   1   2   2  239.12   10.68
  -1  -2  -3  376.81   14.92
   1   2   3  366.37   14.61
  -1  -2  -3  360.53   15.67
   1   2   3  379.32   15.35
  -1  -2  -3  338.72   13.67
   1   2   3  368.07   20.74
  -1  -2  -3  418.93   21.63
   1   2   3  400.11   14.26
  -1  -2  -3  391.74   13.37
   1   2   3  364.63   14.70
  -1  -2  -4 2146.35   52.44
   1   2   4 2213.89   52.19
  -1  -2  -4 2217.39   57.65
   1   2   4 2238.24   56.37
  -1  -2  -4 2230.38   67.29
   1   2   4 2143.81   66.63
   1   2   4 2362.46   53.66
  -1  -2  -4 2125.82   53.01
   1   2   4 2241.21   54.07
  -1  -2  -4 2245.34   50.49
  -1  -2  -5   27.43    3.64
  -1  -2  -5   27.60    5.08
   1   2   5   25.93    3.93
   1   2   5   27.04    6.28
  -1  -2  -5   28.13    3.30
   1   2   5   25.08    3.93
  -1  -2  -6   54.38    5.18
  -1  -2  -6   63.46    5.93
  -1  -2  -6   61.75    8.28
   1   2   6   53.20    9.80
  -1  -2  -6   56.71    4.81
   1   2   6   56.02    6.25
  -1  -2  -7   47.03    4.83
  -1  -2  -7   57.24    5.94
  -1  -2  -7   52.28    8.34
  -1  -2  -7   49.17    5.95
   1   2   7   62.16   11.44
  -1  -2  -7   57.56    4.93
   1   2   7   51.99    6.34
  -1  -2  -8   78.98    7.39
  -1  -2  -8   75.38   10.67
  -1  -2  -8   72.79    7.82
   1   2   8   83.49   13.72
  -1  -2  -8   74.99    5.71
   1   2   8   79.47    8.05
  -1  -2  -9   11.68    3.08
  -1  -2  -9   10.47    4.32
  -1  -2  -9   16.77    3.96
   1   2   9    4.61    3.65
  -1  -2  -9   12.51    2.44
  -1  -2 -10    8.50    3.03
   1   2  10    3.70    4.73
  -1  -2 -10    3.23    2.07
  -1  -2 -10    3.66    3.16
  -1  -2 -11   77.41    8.80
   1   2  11   76.06   14.79
  -1  -2 -11   96.92   10.35
  -1  -2 -11   76.03   13.10
  -1  -2 -12    3.65    2.46
   1   2  12    5.81    6.65
  -1  -2 -12    2.07    3.83
  -1  -2 -13   66.65    9.06
  -1  -3  13    8.59    5.06
   1   3 -13   13.34    4.51
   1   3 -13    9.71    5.64
  -1  -3  12   28.06    8.01
   1   3 -12   21.28    5.48
   1   3 -12   24.35    8.11
  -1  -3  11    8.88    4.39
   1   3 -11   10.47    5.69
   1   3 -11    8.04    3.38
  -1  -3  10    0.23    2.19
   1   3 -10    7.78    4.57
   1   3 -10    7.08    3.07
   1   3 -10    2.65    1.71
   1   3 -10    4.22    1.88
  -1  -3   9  249.13   18.26
   1   3  -9  279.85   16.88
   1   3  -9  241.76   20.51
   1   3  -9  268.72   13.94
  -1  -3   9  274.55   14.91
   1   3  -9  282.95   10.33
   1   3  -8   27.77    6.58
  -1  -3   8   22.34    4.89
   1   3  -8   30.07    5.06
  -1  -3   8   33.65    4.89
   1   3  -8   33.02    4.76
   1   3  -8   31.22    2.69
   1   3  -8   28.23    2.20
   1   3  -7  375.10   17.71
   1   3  -7  361.01   21.77
  -1  -3   7  337.23   18.18
  -1  -3   7  353.27   16.82
   1   3  -7  353.93   16.29
   1   3  -7  339.21   10.98
  -1  -3   6  417.35   18.01
  -1  -3   6  424.25   10.39
   1   3  -6  422.76   18.06
   1   3  -6  418.67   18.07
   1   3  -6  435.43   22.43
  -1  -3   6  429.15   19.12
   1   3  -6  456.14   17.26
   1   3  -6  415.15   12.99
   1   3  -5  940.75   29.50
  -1  -3   5  890.67   19.57
  -1  -3   5  982.93   29.46
  -1  -3   5 1011.52   30.19
   1   3  -5  858.51   27.63
  -1  -3   5  928.65   28.65
   1   3  -5  966.93   36.51
   1   3  -5  929.63   27.71
   1   3  -5  878.18   22.97
   1   3  -4    1.41    1.23
  -1  -3   4    1.50    1.00
  -1  -3   4    0.84    0.49
   1   3  -4    2.48    1.73
  -1  -3   4    0.86    1.31
   1   3  -4    2.35    1.09
  -1  -3   4    1.34    0.81
   1   3  -4    1.42    0.83
  -1  -3   3 2927.93   64.53
  -1  -3   3 2789.81   66.84
   1   3  -3 3019.52   68.98
   1   3  -3 2908.22   61.08
  -1  -3   3 2872.20   60.47
  -1  -3   3 2756.36   63.57
   1   3  -3 2763.64   61.20
  -1  -3   2 3902.29   79.99
   1   3  -2 3917.31   86.29
  -1  -3   2 3613.59   84.14
   1   3  -2 3674.47   79.02
  -1  -3   2 3788.72   77.86
  -1  -3   2 3707.69   77.91
   1   3  -1 1242.22   35.59
  -1  -3   1 1131.21   33.93
   1   3  -1 1208.44   30.57
  -1  -3   1 1192.23   29.29
  -1  -3   0  595.16   22.06
   1   3   0  621.73   22.83
   1   3   0  630.83   19.51
  -1  -3   0  606.87   18.02
   1   3   1 1697.02   45.32
  -1  -3  -1 1560.15   44.55
   1   3   1 1730.98   37.90
  -1  -3  -1 1766.17   40.35
   1   3   1 1682.50   41.94
   1   3   2  475.03   19.04
  -1  -3  -2  449.34   18.93
   1   3   2  455.92   16.83
   1   3   2  454.99   23.18
   1   3   2  466.49   14.81
  -1  -3  -2  487.61   15.92
   1   3   2  462.07   17.29
   1   3   3 3962.40   89.02
  -1  -3  -3 3696.01   88.99
   1   3   3 3863.16   88.48
   1   3   3 4032.03   84.50
   1   3   3 3730.93  100.45
  -1  -3  -3 4049.55   84.31
   1   3   3 3980.00   87.69
  -1  -3  -4  294.89   15.27
   1   3   4  325.60   15.42
   1   3   4  333.53   16.58
   1   3   4  340.37   14.27
  -1  -3  -4  315.90   14.33
   1   3   4  331.14   10.10
   1   3   4  305.88   21.99
   1   3   4  341.96   15.61
  -1  -3  -4  349.69   13.41
  -1  -3  -5  300.17   15.43
  -1  -3  -5  340.96   14.77
   1   3   5  328.37   17.84
   1   3   5  306.17   23.58
   1   3   5  330.25   16.21
  -1  -3  -5  340.67   13.55
  -1  -3  -6   86.86    7.91
  -1  -3  -6  105.42    8.11
   1   3   6   89.71   13.31
  -1  -3  -6  105.84    7.14
  -1  -3  -7   10.42    2.92
  -1  -3  -7    8.46    2.75
  -1  -3  -7   10.97    2.90
  -1  -3  -7    8.08    3.53
   1   3   7   11.44    4.80
  -1  -3  -7   14.19    2.67
  -1  -3  -8   13.38    3.57
  -1  -3  -8    8.19    2.72
  -1  -3  -8   12.56    4.90
   1   3   8    5.08    4.13
  -1  -3  -8    8.43    2.13
  -1  -3  -9  178.40   12.71
  -1  -3  -9  199.15   18.84
  -1  -3  -9  180.17   12.60
   1   3   9  184.76   22.38
  -1  -3  -9  184.94   10.44
  -1  -3 -10   36.10    6.08
   1   3  10   27.93    9.09
  -1  -3 -10   35.94    5.76
  -1  -3 -11    0.33    1.87
   1   3  11    2.91    3.58
  -1  -3 -12   11.84    4.20
  -1  -4  13  112.31   16.31
   1   4 -13   75.90   14.60
   1   4 -13  101.24   12.37
  -1  -4  12  161.07   18.26
   1   4 -12  144.23   19.26
   1   4 -12  168.69   15.26
   1   4 -11   77.73    9.86
  -1  -4  11   78.41   11.77
   1   4 -11   68.88   12.35
  -1  -4  10    1.31    2.99
   1   4 -10    0.61    1.68
   1   4 -10   -0.06    2.48
   1   4 -10    4.37    2.26
   1   4  -9   72.54   11.57
   1   4  -9   89.69    9.51
  -1  -4   9   87.91   10.75
  -1  -4   9   76.94    8.39
   1   4  -9   85.00    8.42
   1   4  -8 1100.84   45.95
  -1  -4   8 1241.74   42.64
   1   4  -8 1266.63   40.12
  -1  -4   8 1242.38   39.29
   1   4  -8 1238.18   38.41
   1   4  -8 1156.94   29.72
   1   4  -7  809.22   28.93
  -1  -4   7  759.53   30.01
   1   4  -7  788.54   34.99
   1   4  -7  792.66   28.94
  -1  -4   7  793.33   28.63
   1   4  -7  750.67   21.67
   1   4  -6  463.38   21.07
  -1  -4   6  458.16   20.45
   1   4  -6  455.89   19.80
  -1  -4   6  483.76   20.81
   1   4  -6  495.52   18.17
   1   4  -6  476.70   15.67
  -1  -4   5  147.34   10.23
   1   4  -5  117.46    8.84
  -1  -4   5  131.20    4.12
   1   4  -5  143.33   10.89
  -1  -4   5  136.65   10.22
   1   4  -5  124.32    7.15
   1   4  -5  133.69    8.35
  -1  -4   4  776.73   25.34
   1   4  -4  727.90   27.66
  -1  -4   4  743.57   26.93
  -1  -4   4  739.84   21.32
  -1  -4   4  705.88   24.89
   1   4  -4  709.03   21.40
   1   4  -4  796.35   22.29
  -1  -4   3  688.75   22.10
   1   4  -3  658.05   25.79
  -1  -4   3  631.53   24.66
   1   4  -3  640.25   20.09
  -1  -4   3  678.39   19.80
  -1  -4   3  641.87   20.70
  -1  -4   2 2608.84   56.71
   1   4  -2 2563.97   64.67
  -1  -4   2 2273.04   61.83
  -1  -4   2 2441.96   55.37
   1   4  -2 2423.51   56.49
  -1  -4   2 2468.28   54.64
  -1  -4   1  262.78   10.53
  -1  -4   1  254.73   14.66
   1   4  -1  285.71   15.73
  -1  -4   1  265.79   11.16
   1   4  -1  256.77   11.79
   1   4   0  182.60   12.39
  -1  -4   0  165.99   11.94
   1   4   0  186.94    6.56
  -1  -4   0  183.11    9.14
   1   4   0  180.36    9.93
   1   4   1  274.72   15.41
  -1  -4  -1  255.54   15.10
   1   4   1  278.98    9.42
  -1  -4  -1  270.29   11.74
   1   4   1  263.72   12.83
   1   4   2  627.22   24.97
  -1  -4  -2  613.10   25.30
   1   4   2  606.86   22.00
   1   4   2  661.05   18.71
  -1  -4  -2  646.16   20.63
   1   4   3  153.03   11.25
  -1  -4  -3  141.13   11.30
   1   4   3  157.02   10.67
   1   4   3  137.73   14.55
   1   4   3  164.68    8.60
  -1  -4  -3  158.43    9.07
   1   4   4   84.22    8.41
  -1  -4  -4   86.87    7.09
   1   4   4   92.91    8.81
   1   4   4   88.11    5.76
   1   4   4   80.33   11.91
  -1  -4  -4   94.01    7.06
  -1  -4  -5  719.62   24.99
   1   4   5  765.00   29.80
   1   4   5  698.63   39.09
   1   4   5  711.40   19.39
  -1  -4  -5  744.89   23.93
  -1  -4  -6   71.78    7.21
  -1  -4  -6   61.49    5.91
   1   4   6   71.68   13.00
  -1  -4  -6   78.95    6.67
  -1  -4  -7  881.91   31.44
  -1  -4  -7  935.93   28.94
   1   4   7  914.48   50.11
  -1  -4  -7  969.20   29.45
  -1  -4  -8    3.31    2.02
  -1  -4  -8    4.27    1.95
   1   4   8    9.30    6.21
  -1  -4  -8    5.71    2.13
  -1  -4  -9   57.07    7.45
   1   4   9   72.47   15.01
  -1  -4  -9   54.61    6.09
  -1  -4 -10   87.23    9.96
   1   4  10   85.56   16.60
  -1  -4 -11   17.96    4.78
   1   4  11    6.56    4.12
   1   5 -12   14.86    6.56
  -1  -5  12   16.67    6.50
   1   5 -12   10.22    4.04
   1   5 -11   16.60    4.63
   1   5 -11   13.46    6.07
  -1  -5  11    2.71    3.67
   1   5 -10  313.05   19.81
   1   5 -10  281.69   24.22
  -1  -5  10  298.76   21.92
   1   5 -10  300.80   17.17
   1   5  -9  190.78   14.41
  -1  -5   9  184.14   16.01
   1   5  -9  165.49   17.47
   1   5  -9  197.73   13.91
   1   5  -8   68.50    8.13
   1   5  -8   61.86    9.95
  -1  -5   8   80.50    9.97
   1   5  -8   64.70    7.85
   1   5  -8   61.79    5.38
   1   5  -7    3.20    2.09
   1   5  -7    2.61    2.04
   1   5  -7    2.23    1.34
   1   5  -6  144.61   11.91
  -1  -5   6  128.54   10.78
   1   5  -6  129.38    8.35
   1   5  -6  120.96    7.87
   1   5  -5   96.70    9.70
  -1  -5   5   71.46    2.73
   1   5  -5   82.97    5.88
  -1  -5   5   63.15    7.25
   1   5  -5   79.13    6.24
  -1  -5   5   67.82    2.98
   1   5  -4  450.91   22.26
   1   5  -4  458.84   14.55
   1   5  -4  465.56   17.19
  -1  -5   4  458.39   19.23
  -1  -5   4  440.63   16.52
  -1  -5   3  391.71   16.19
   1   5  -3  367.67   19.75
  -1  -5   3  345.49   14.32
  -1  -5   3  357.83   14.85
  -1  -5   2 1493.74   38.40
   1   5  -2 1529.76   46.90
  -1  -5   2 1432.92   36.93
  -1  -5   2 1491.87   38.26
   1   5  -1  580.35   25.47
  -1  -5   1  579.22   18.36
   1   5  -1  560.34   12.89
  -1  -5   1  543.56   19.26
   1   5   0   74.84    8.55
  -1  -5   0   74.80    5.09
   1   5   0   79.74    3.57
  -1  -5   0   78.65    6.41
   1   5   1  124.91   11.06
   1   5   1  114.70    5.41
  -1  -5  -1  111.23    7.83
   1   5   2  953.86   31.58
   1   5   2  995.04   35.78
  -1  -5  -2 1003.13   29.08
  -1  -5  -2 1027.50   30.06
   1   5   3   50.30    7.18
  -1  -5  -3   47.44    5.27
   1   5   3   39.78    5.81
   1   5   3   51.32    9.61
  -1  -5  -3   47.66    5.36
   1   5   4  376.95   20.70
  -1  -5  -4  406.89   17.57
   1   5   4  392.71   20.22
   1   5   4  403.46   16.08
   1   5   4  375.69   27.87
  -1  -5  -4  404.44   17.16
  -1  -5  -5    2.13    1.87
   1   5   5    1.82    2.75
   1   5   5    3.01    1.32
  -1  -5  -5    2.28    1.74
  -1  -5  -6  104.04    9.20
  -1  -5  -6   98.09    6.81
   1   5   6  131.78   17.90
  -1  -5  -6  111.16    8.73
  -1  -5  -7   35.25    5.76
   1   5   7   46.61   11.88
  -1  -5  -7   30.65    4.78
  -1  -5  -8   42.14    6.51
   1   5   8   50.34   12.85
  -1  -5  -8   43.80    5.86
  -1  -5  -9  274.69   17.83
   1   5   9  272.37   30.31
  -1  -5  -9  280.55   15.75
  -1  -5 -10   21.78    5.16
   1   5  10   11.63    6.56
   1   6 -12    0.58    2.91
   1   6 -11   -1.13    2.72
  -1  -6  11    0.34    3.73
   1   6 -10  115.80   11.23
   1   6 -10  127.37   16.46
  -1  -6  10  130.73   14.59
   1   6  -9  270.70   17.83
   1   6  -9  283.61   23.10
  -1  -6   9  286.96   20.55
   1   6  -8 1317.49   45.67
  -1  -6   8 1362.25   47.29
   1   6  -7  303.10   18.95
  -1  -6   7  275.17   17.81
   1   6  -6   98.48   10.58
  -1  -6   6   88.49    9.70
   1   6  -6   93.37    6.90
   1   6  -5   41.43    6.89
  -1  -6   5   41.64    2.43
   1   6  -5   42.05    4.07
  -1  -6   5   41.63    6.08
  -1  -6   4  380.21   11.41
   1   6  -4  397.22   22.02
   1   6  -4  383.52   12.32
  -1  -6   4  390.26   18.05
   1   6  -3  157.09   13.46
  -1  -6   3  149.72    7.05
   1   6  -3  174.68    5.98
  -1  -6   3  160.41    9.96
  -1  -6   3  154.48    9.87
  -1  -6   2  353.69   15.14
   1   6  -2  353.91   20.63
  -1  -6   2  354.33   12.60
  -1  -6   2  330.82   14.42
  -1  -6   2  330.90   15.33
  -1  -6   1  686.37   21.48
   1   6  -1  717.06   30.72
  -1  -6   1  656.01   20.37
  -1  -6   1  648.02   23.30
  -1  -6   0  153.70    7.99
   1   6   0  155.91   13.51
  -1  -6   0  149.44    8.63
  -1  -6   0  136.54    9.56
  -1  -6  -1  224.43    9.19
   1   6   1  222.75   16.38
  -1  -6  -1  222.43   11.40
  -1  -6  -1  209.56   12.12
  -1  -6  -2   63.44    4.15
  -1  -6  -2   74.53    6.64
   1   6   2   78.19    9.56
  -1  -6  -2   68.71    6.82
   1   6   3    1.54    2.55
  -1  -6  -3    0.67    1.38
   1   6   3    1.88    2.15
   1   6   3    1.40    2.09
   1   6   3    1.14    1.39
  -1  -6  -3    1.01    1.55
  -1  -6  -4    3.93    2.10
  -1  -6  -4    0.57    1.19
   1   6   4    1.57    1.55
  -1  -6  -5   36.19    5.41
   1   6   5   37.51    5.06
   1   6   5   31.46    9.17
  -1  -6  -5   40.50    5.76
  -1  -6  -6    6.45    2.53
   1   6   6    9.91    6.67
  -1  -6  -6    5.25    2.43
  -1  -6  -7    0.69    1.44
   1   6   7   -0.76    4.88
  -1  -6  -7   -0.05    2.05
  -1  -6  -8  112.95   11.18
   1   6   8  100.37   18.60
  -1  -6  -8  109.36    9.95
  -1  -6  -9   18.28    5.04
   1   6   9   27.21   10.55
  -1  -7  11   -3.75    4.02
   1   7 -11    0.76    3.99
  -1  -7  10   18.28    6.62
   1   7 -10   26.94    7.88
  -1  -7   9   54.87    9.44
   1   7  -9   59.29    8.60
  -1  -7   8   78.64   10.57
   1   7  -8   65.22    9.15
  -1  -7   7  622.28   28.72
   1   7  -7  577.16   29.16
  -1  -7   6  679.24   28.77
   1   7  -6  665.40   31.31
  -1  -7   5   27.13    2.27
   1   7  -5   35.02    6.83
  -1  -7   5   30.64    5.52
  -1  -7   4   54.03    3.93
   1   7  -4   45.66    7.77
   1   7  -4   50.92    3.28
  -1  -7   4   55.09    6.80
   1   7  -3  662.14   31.03
  -1  -7   3  606.70   18.25
  -1  -7   3  589.91   22.93
  -1  -7   2   36.40    4.79
   1   7  -2   29.57    6.23
  -1  -7   2   46.11    4.50
  -1  -7   2   40.57    5.51
  -1  -7   2   40.21    5.14
  -1  -7   1    2.69    1.67
  -1  -7   1    3.26    1.33
   1   7  -1    2.52    2.82
  -1  -7   1    4.32    1.97
  -1  -7   0    4.51    1.48
  -1  -7   0    3.94    1.57
   1   7   0    4.56    3.11
  -1  -7   0    4.70    2.32
   1   7   1  155.88   14.59
  -1  -7  -1  142.22    9.55
  -1  -7  -1  158.86   11.34
   1   7   2    4.80    3.06
  -1  -7  -2    2.73    1.69
  -1  -7  -2    4.84    2.30
   1   7   3  540.06   29.06
  -1  -7  -3  533.79   22.09
   1   7   3  476.82   34.86
   1   7   3  503.19   23.48
  -1  -7  -4   23.11    4.56
   1   7   4   17.18    6.73
   1   7   4   24.62    4.77
  -1  -7  -4   17.48    4.14
  -1  -7  -5   41.22    6.22
   1   7   5   38.42   11.09
  -1  -7  -5   52.73    6.97
  -1  -7  -6   29.09    5.52
   1   7   6   41.40   11.65
  -1  -7  -6   33.45    5.89
  -1  -7  -7   91.39   10.14
   1   7   7  105.77   19.04
  -1  -7  -7   93.38    9.84
  -1  -7  -8   14.14    4.60
   1   7   8    5.12    6.24
   1   8 -11   14.90    5.89
   1   8 -10  143.40   18.40
  -1  -8  10  169.72   17.57
  -1  -8   9  272.36   21.31
   1   8  -9  245.98   19.26
  -1  -8   8   74.19   11.13
   1   8  -8   54.46    9.17
  -1  -8   7  103.45   12.10
   1   8  -7   93.51   11.90
  -1  -8   6  132.97   12.98
   1   8  -6  104.71   12.52
  -1  -8   6   93.26   11.03
   1   8  -5  481.90   27.86
  -1  -8   5  441.31   23.44
   1   8  -4  159.00   15.45
  -1  -8   4  139.12    7.32
  -1  -8   4  131.01   11.22
   1   8  -3  858.60   38.20
  -1  -8   3  784.50   23.28
  -1  -8   3  774.65   28.68
   1   8  -2   99.74   12.32
  -1  -8   2   99.88    7.21
  -1  -8   2  118.22    9.49
   1   8  -1  135.04   14.62
  -1  -8   1  147.88    9.32
  -1  -8   1  147.13   11.60
  -1  -8   0   33.35    4.68
   1   8   0   34.45    7.09
  -1  -8   0   30.61    5.42
   1   8   1    3.31    3.02
  -1  -8  -1    2.87    1.97
  -1  -8  -1   -0.06    2.26
  -1  -8  -2  252.85   14.64
   1   8   2  280.87   21.82
   1   8   2  264.26   17.99
  -1  -8  -2  286.98   17.03
  -1  -8  -3  159.10   11.93
   1   8   3  131.21   19.04
   1   8   3  155.95   13.44
  -1  -8  -3  144.45   12.15
  -1  -8  -4    8.82    3.24
   1   8   4   10.89    6.59
  -1  -8  -4    6.78    2.95
  -1  -8  -5  157.93   12.91
   1   8   5  144.90   21.98
  -1  -8  -5  155.98   13.34
  -1  -8  -6   14.74    4.58
   1   8   6   29.73   11.28
   1   8   7   43.61   13.28
   1   9 -10   23.69    7.89
   1   9  -9   65.68   10.65
  -1  -9   8   91.57   12.42
   1   9  -8   84.92   12.04
  -1  -9   7  117.15   13.25
   1   9  -7   81.33   11.86
   1   9  -6    2.73    3.01
  -1  -9   6    3.04    2.57
   1   9  -5   12.73    5.39
  -1  -9   5    7.17    3.58
   1   9  -4   17.25    5.81
  -1  -9   4   17.17    4.32
   1   9  -3  255.88   21.17
  -1  -9   3  226.22   14.99
  -1  -9   2   96.29    7.59
   1   9  -2   76.56   11.67
  -1  -9   2   96.73    9.40
  -1  -9   1   79.68    7.26
   1   9  -1   88.88   12.50
   1   9   0   27.61    7.31
  -1  -9   0   37.90    5.25
   1   9   1  123.36   15.11
  -1  -9  -1  124.39   10.25
   1   9   1  143.22   14.29
  -1  -9  -2   78.58    8.42
   1   9   2   70.45   10.12
  -1  -9  -3   18.48    4.42
   1   9   3   27.41    9.92
   1   9   3   16.66    4.90
  -1  -9  -4   46.82    7.11
   1   9   4   43.39   12.26
  -1  -9  -5    6.70    3.03
   1   9   5    8.03    6.43
   1   9   6   60.63   15.96
   1  10  -9  104.12   14.85
   1  10  -8   71.65   12.44
   1  10  -7   60.68   11.32
   1  10  -6   31.23    8.17
  -1 -10   6   43.56    8.47
   1  10  -5  153.37   17.48
  -1 -10   5  114.55   12.86
   1  10  -4   10.38    5.47
  -1 -10   4    0.97    2.51
   1  10  -3    6.09    4.65
  -1 -10   3    4.20    2.98
   1  10  -2   53.55   10.83
  -1 -10   2   68.77    8.50
   1  10  -1   43.85    9.80
  -1 -10   1   33.75    5.31
   1  10  -1   56.52   10.09
  -1 -10   1   47.29    6.96
   1  10   0    5.25    3.54
  -1 -10   0    0.92    1.36
   1  10   0    2.70    3.66
  -1 -10  -1   33.95    5.85
   1  10   1   20.43    6.02
  -1 -10  -2   39.27    6.31
   1  10   2   49.81    9.29
  -1 -10  -3   70.96    8.91
   1  10   3   58.66   15.23
  -1 -11   6    2.56    3.20
  -1 -11   5   -8.98    4.37
  -1 -11   4   46.61    8.31
  -1 -11   3   18.82    5.86
   1  11  -2   72.42   12.13
  -1 -11   2   50.10    7.92
  -1 -11   1   36.38    6.70
   1  11  -1   27.78    7.62
   1  11   0   37.79    8.62
  -1 -11  -1   41.83    6.71
   1  11   1   38.47    8.85
  -1 -11  -2   42.16    7.12
  -2  12   2   14.49    6.88
   2 -12   4   63.60   10.64
   2 -11  -4  364.71   22.34
   2 -11  -3  288.85   19.03
  -2  11   3  245.38   24.04
   2 -11  -2   29.25    6.09
  -2  11   2   21.24    7.12
   2 -11  -1   55.34    8.03
  -2  11   1   51.99   10.81
  -2  11   0   19.64    7.02
   2 -11   0   23.68    5.86
   2 -11   1   89.99   10.71
  -2  11  -1   65.86   12.47
   2 -11   2   89.12   10.36
  -2  11  -2   87.92   14.37
   2 -11   2   70.67    9.55
   2 -11   3   37.97    7.24
   2 -11   3   37.86    7.28
  -2  11  -3   49.66   10.97
   2 -11   4    6.95    4.48
   2 -11   4   -1.68    3.64
  -2  11  -4    1.02    3.02
   2 -11   5  209.37   17.88
   2 -11   6   17.83    6.25
   2 -10  -6    5.17    3.65
   2 -10  -5    7.03    4.21
  -2  10   5    6.53    7.29
   2 -10  -4    5.33    2.98
  -2  10   4    7.36    7.25
  -2  10   4    4.80    4.28
   2 -10  -3    5.06    2.87
  -2  10   3   -1.56    2.53
   2 -10  -2  475.46   22.90
  -2  10   2  476.30   31.68
   2 -10  -1  150.28   12.04
  -2  10   1  119.82   15.37
   2 -10   0   14.41    4.36
  -2  10   0    1.37    2.87
  -2  10  -1  146.60   17.00
   2 -10   1  141.57   10.77
   2 -10   1  139.16   12.25
   2 -10   2   30.19    6.39
   2 -10   2   21.18    5.11
  -2  10  -2   13.89    5.79
  -2  10  -3  199.51   20.68
   2 -10   3  231.66   17.13
  -2  10  -4    8.68    3.10
   2 -10   4   10.07    4.09
  -2  10  -4   11.16    4.95
  -2  10  -5  281.57   17.49
   2 -10   5  285.82   19.95
  -2  10  -5  289.84   25.02
   2 -10   5  252.13   20.47
  -2  10  -6  230.39   16.54
   2 -10   6  251.09   19.80
  -2  10  -6  239.07   23.08
   2 -10   6  231.53   20.66
  -2  10  -7  335.77   27.98
  -2  10  -7  309.67   20.52
   2 -10   7  314.85   23.57
   2 -10   8   11.19    4.94
  -2  10  -8   20.36    5.88
   2  -9  -7   70.81    9.70
  -2   9   7   89.66   19.10
   2  -9  -6   23.50    5.70
  -2   9   6   53.57   14.11
   2  -9  -5  225.38   15.90
  -2   9   5  233.32   20.40
  -2   9   5  226.41   27.94
   2  -9  -4   16.98    4.62
  -2   9   4   24.27    7.25
   2  -9  -3  151.19   12.11
  -2   9   3  171.21   17.31
   2  -9  -2    4.18    2.94
  -2   9   2    2.39    3.34
   2  -9  -1  442.77   20.16
  -2   9   1  399.61   27.23
   2  -9   0 1491.18   42.77
  -2   9   0 1410.65   55.47
  -2   9  -1  943.15   27.88
   2  -9   1  948.38   30.51
   2  -9   1  990.94   34.27
   2  -9   2    9.73    4.38
  -2   9  -2    1.09    1.25
   2  -9   2    8.42    2.89
   2  -9   2    7.54    3.55
  -2   9  -2    0.19    2.50
   2  -9   3  511.43   23.45
  -2   9  -3  490.13   20.71
  -2   9  -3  415.72   27.97
   2  -9   3  441.01   23.06
  -2   9  -4    2.08    1.61
  -2   9  -4    4.67    3.49
   2  -9   4   -1.34    2.76
   2  -9   5   17.41    5.22
  -2   9  -5    9.16    3.29
   2  -9   5   10.47    4.39
  -2   9  -5   19.58    6.78
   2  -9   6   25.77    6.19
  -2   9  -6   15.25    4.33
   2  -9   6    8.87    3.93
  -2   9  -6   15.43    5.78
   2  -9   7   60.91    9.58
  -2   9  -7   67.13    9.26
  -2   9  -7   77.15   12.58
   2  -9   8    7.95    3.84
  -2   9  -8   17.41    5.02
  -2   9  -8   11.18    5.14
   2  -9   9   35.96    8.12
  -2   9  -9   51.10    8.90
  -2   9  -9   44.07   10.49
   2  -8  -8    6.09    3.67
  -2   8   8   20.57   12.46
   2  -8  -7  100.47   10.97
  -2   8   7   77.91   17.14
   2  -8  -6   53.71    7.34
  -2   8   6   58.19   13.92
  -2   8   6   55.94    9.21
   2  -8  -5  410.34   21.03
  -2   8   5  397.76   35.00
  -2   8   5  398.74   25.25
   2  -8  -4   11.74    3.30
  -2   8   4   10.60    4.19
   2  -8  -3  126.24   10.30
  -2   8   3  110.90   13.04
   2  -8  -2   66.25    7.28
  -2   8   2   65.38    9.88
   2  -8  -1    5.29    3.24
  -2   8   1    4.58    3.10
   2  -8   0  416.78   17.81
  -2   8   0  387.69   13.95
  -2   8   0  393.06   24.95
  -2   8  -1  418.89   16.41
  -2   8  -1  392.93   24.96
   2  -8   1  427.81   17.48
   2  -8   1  453.73   20.07
   2  -8   2  178.85   12.07
  -2   8  -2  183.84   10.87
  -2   8  -2  159.31   15.55
   2  -8   2  171.38    9.71
   2  -8   2  177.90   12.60
   2  -8   3  293.87   16.31
  -2   8  -3  278.19   14.76
  -2   8  -3  251.63   19.93
   2  -8   3  262.17   11.16
   2  -8   3  254.87   16.00
  -2   8  -4   10.34    3.45
   2  -8   4    9.17    3.30
  -2   8  -4    8.25    3.75
   2  -8   5  346.85   20.25
  -2   8  -5  355.40   19.07
  -2   8  -5  347.94   24.02
   2  -8   5  279.94   20.01
  -2   8  -6   70.69    8.56
   2  -8   6   86.06   10.66
   2  -8   6   67.49   10.19
  -2   8  -6   84.49   11.85
   2  -8   7   37.68    7.52
  -2   8  -7   57.14    8.23
  -2   8  -7   53.17    9.81
   2  -8   8   -6.39    5.30
  -2   8  -8    1.19    2.16
  -2   8  -8   -1.99    2.62
  -2   8  -9  111.74   12.70
   2  -8   9   98.57   13.79
  -2   8  -9   98.92   14.07
   2  -8  10  288.74   25.59
  -2   8 -10  287.16   25.02
  -2   8 -11  113.71   16.10
   2  -7  -9    2.99    2.29
  -2   7   9    2.24    5.64
   2  -7  -8   -0.71    2.43
  -2   7   8    3.99    4.56
   2  -7  -7   16.85    4.53
  -2   7   7   15.69    7.23
  -2   7   7   12.78    3.91
   2  -7  -6   83.58    8.89
  -2   7   6   80.05   15.17
  -2   7   6   75.92    9.87
   2  -7  -5  235.16   14.61
  -2   7   5  262.54   26.41
  -2   7   5  244.06   18.08
   2  -7  -4  145.39   10.64
  -2   7   4  137.39   13.59
   2  -7  -4  121.59    7.49
   2  -7  -3   87.08    7.86
  -2   7   3  100.78   11.46
   2  -7  -3   95.08    5.73
   2  -7  -2  515.57   20.29
  -2   7   2  473.91   25.98
   2  -7  -1 2111.43   52.92
  -2   7   1 2074.13   63.78
  -2   7   1 2100.14   45.34
   2  -7   0  189.67   10.83
  -2   7   0  182.65    8.80
  -2   7   0  158.42   14.23
   2  -7   0  189.71    6.12
  -2   7  -1   39.74    3.80
  -2   7  -1   33.92    4.11
   2  -7   1   35.66    2.50
   2  -7   1   47.16    5.14
  -2   7  -1   36.76    6.86
  -2   7  -2   12.84    2.02
   2  -7   2   10.81    2.36
  -2   7  -2   10.03    2.52
   2  -7   2   20.79    4.38
   2  -7   2   12.71    1.79
   2  -7   2   10.88    3.02
  -2   7  -2   17.93    5.00
  -2   7  -3  116.90    9.16
   2  -7   3  126.52    9.98
   2  -7   3  111.40    6.30
  -2   7  -3  117.16   12.41
   2  -7   3  106.74    9.42
  -2   7  -4  523.79   22.21
   2  -7   4  506.94   22.71
  -2   7  -4  494.63   26.88
   2  -7   4  456.61   23.00
  -2   7  -5   63.98    7.65
   2  -7   5   65.33    8.34
   2  -7   5   52.70    7.92
  -2   7  -5   61.42    9.30
   2  -7   6   74.26    9.46
  -2   7  -6   75.81    8.97
  -2   7  -6   74.87   10.50
  -2   7  -7  103.11   11.02
   2  -7   7  114.74   12.52
  -2   7  -7  107.54   13.00
   2  -7   8   21.19    5.40
  -2   7  -8   31.15    6.33
   2  -7   9  177.52   18.21
  -2   7  -9  151.74   14.54
  -2   7  -9  139.73   15.75
  -2   7 -10   -0.10    2.17
   2  -7  10    2.27    3.43
  -2   7 -10    1.82    2.90
  -2   7 -11   25.14    7.19
   2  -6 -11   86.73   10.99
   2  -6 -10   68.65    9.04
  -2   6  10   74.78   17.08
   2  -6  -9   44.44    6.84
  -2   6   9   44.98   13.20
   2  -6  -8   12.37    4.07
  -2   6   8   14.97    7.95
   2  -6  -7  704.67   27.88
  -2   6   7  647.55   44.24
  -2   6   7  685.07   29.18
   2  -6  -6   42.74    5.89
  -2   6   6   42.81   10.66
  -2   6   6   52.17    7.57
   2  -6  -5  290.18   15.55
  -2   6   5  306.93   27.00
   2  -6  -5  330.96   14.24
  -2   6   5  317.98   19.50
   2  -6  -4  534.70   21.18
  -2   6   4  568.77   35.60
  -2   6   4  513.14   25.61
   2  -6  -3   97.66    7.86
  -2   6   3  106.94   10.90
   2  -6  -2  552.80   20.03
  -2   6   2  519.55   25.35
  -2   6   2  534.97   12.50
   2  -6  -1  705.06   23.23
  -2   6   1  736.74   21.95
  -2   6   1  730.81   30.80
  -2   6   1  725.46   19.06
   2  -6   0  256.87   12.11
  -2   6   0  280.84   11.16
  -2   6   0  272.34   11.05
  -2   6   0  253.38   16.87
  -2   6  -1 1071.34   26.76
  -2   6  -1 1074.35   29.78
  -2   6  -1 1008.79   37.91
   2  -6   1 1054.41   25.43
   2  -6   1 1009.16   28.37
   2  -6   2   28.60    3.23
  -2   6  -2   27.52    2.71
   2  -6   2   38.27    4.82
  -2   6  -2   30.08    4.29
   2  -6   2   27.34    2.94
   2  -6   2   22.65    3.94
  -2   6  -2   25.68    5.43
  -2   6  -3  738.17   18.24
  -2   6  -3  710.65   25.52
   2  -6   3  743.08   25.74
   2  -6   3  719.55   21.05
  -2   6  -3  691.68   30.34
   2  -6   3  660.40   25.73
  -2   6  -4   40.10    2.52
  -2   6  -4   39.30    5.62
   2  -6   4   39.68    5.96
   2  -6   4   41.90    4.42
   2  -6   4   32.06    5.49
  -2   6  -4   32.87    6.32
  -2   6  -5   47.35    2.06
  -2   6  -5   45.27    6.32
   2  -6   5   48.71    6.73
   2  -6   5   58.31    5.66
   2  -6   5   38.90    6.89
  -2   6  -5   42.45    7.24
   2  -6   6   98.04    9.55
  -2   6  -6  122.86   11.12
   2  -6   6   97.56   10.45
  -2   6  -6   98.67   11.21
  -2   6  -7    6.64    3.35
   2  -6   7    4.91    2.57
  -2   6  -7    7.39    3.18
   2  -6   8  337.89   23.65
  -2   6  -8  377.81   22.06
  -2   6  -8  343.57   22.90
  -2   6  -9   35.64    7.14
   2  -6   9   27.64    7.26
  -2   6  -9   30.06    6.98
   2  -6  10  112.24   15.23
  -2   6 -10  107.61   12.60
  -2   6 -10  122.88   14.18
  -2   6 -11   71.81   10.73
   2  -6  11   52.06   10.92
  -2   6 -11   45.11    9.11
   2  -5 -12    9.40    4.84
   2  -5 -11   44.50    8.02
  -2   5  11   36.33   11.99
   2  -5 -10   70.58    8.94
  -2   5  10   72.71   16.16
   2  -5 -10   75.74   10.89
   2  -5  -9  140.99   11.92
  -2   5   9  123.17   19.90
   2  -5  -8   26.93    5.05
  -2   5   8   26.70    8.79
  -2   5   8   28.33    4.82
   2  -5  -7  250.84   14.71
  -2   5   7  257.72   25.78
  -2   5   7  240.49   15.17
   2  -5  -6  324.62   16.40
  -2   5   6  339.71   28.21
  -2   5   6  314.38   18.26
   2  -5  -6  392.38   16.30
   2  -5  -5  560.26   22.08
  -2   5   5  576.46   35.49
  -2   5   5  593.50   26.18
   2  -5  -5  667.11   23.16
   2  -5  -4  247.35   12.88
  -2   5   4  260.36   22.14
   2  -5  -4  279.58   14.10
  -2   5   4  247.44   16.10
   2  -5  -3  833.92   26.53
  -2   5   3  843.59   32.35
   2  -5  -3  933.01   29.60
   2  -5  -2 1001.07   29.46
  -2   5   2 1103.35   28.85
   2  -5  -2 1095.45   33.72
  -2   5   2  987.89   35.81
   2  -5  -1 2410.30   57.10
  -2   5   1 2370.64   65.55
   2  -5   0  578.46   23.69
  -2   5   0  605.84   17.52
  -2   5   0  536.65   24.20
   2  -5   0  565.06   18.52
   2  -5   1   84.48    8.00
  -2   5  -1   85.73    5.07
   2  -5   1   79.14    5.90
  -2   5  -1   78.43    8.55
   2  -5   1   80.08    5.54
   2  -5   1   94.98    6.86
   2  -5   2  811.89   28.51
  -2   5  -2  844.92   20.86
  -2   5  -2  760.04   25.58
   2  -5   2  810.38   24.81
   2  -5   2  836.06   22.72
  -2   5  -2  794.41   30.75
   2  -5   2  813.98   25.81
  -2   5  -3 2015.41   42.18
   2  -5   3 1957.78   52.47
  -2   5  -3 1930.99   51.18
   2  -5   3 1895.24   49.83
   2  -5   3 1956.62   46.21
  -2   5  -3 1925.80   55.98
   2  -5   3 1939.08   51.65
   2  -5   4    2.25    1.49
  -2   5  -4    3.34    0.95
  -2   5  -4    0.38    1.07
   2  -5   4    0.50    1.53
   2  -5   4    2.15    1.21
   2  -5   4    0.79    1.43
  -2   5  -4    2.62    2.02
   2  -5   5   99.30    8.54
  -2   5  -5  110.37    4.58
  -2   5  -5   96.23    9.28
   2  -5   5   85.20    8.91
   2  -5   5  100.72    7.83
  -2   5  -5   91.37    9.89
   2  -5   6  125.01    9.36
   2  -5   6  105.90   10.82
  -2   5  -6  128.58   11.32
  -2   5  -6  116.70   11.42
   2  -5   6  129.15    9.46
  -2   5  -6  120.78    4.85
  -2   5  -7  125.96    4.38
   2  -5   7  127.82    8.60
   2  -5   7  142.22   13.70
  -2   5  -7  130.76   12.11
   2  -5   7  140.63   10.63
  -2   5  -7  140.88   12.90
   2  -5   8   11.12    4.44
  -2   5  -8    5.79    3.19
  -2   5  -9   32.73    6.73
   2  -5   9   29.47    7.68
  -2   5  -9   23.94    6.15
  -2   5 -10  311.32   21.97
   2  -5  10  330.27   26.49
  -2   5 -10  341.34   22.44
   2  -5  11  149.27   18.61
  -2   5 -11  169.55   21.17
  -2   5 -11  170.64   16.47
   2  -4 -13   71.53   10.27
   2  -4 -12   16.60    5.18
  -2   4  12   30.97   11.16
   2  -4 -11   42.74    7.65
  -2   4  11   32.14   10.25
   2  -4 -10  103.45   10.08
   2  -4 -10  105.86   11.86
  -2   4  10  100.78   17.82
   2  -4  -9  364.67   18.91
   2  -4  -9  351.39   21.74
  -2   4   9  387.94   33.49
   2  -4  -8    8.55    3.10
  -2   4   8    5.47    3.76
  -2   4   8    3.72    1.54
   2  -4  -8    6.83    2.03
   2  -4  -7  860.35   29.39
  -2   4   7  878.87   30.61
   2  -4  -7  887.98   27.65
  -2   4   7  901.70   48.14
  -2   4   7  882.64   25.46
   2  -4  -6  534.29   20.54
   2  -4  -6  469.19   21.52
  -2   4   6  508.86   22.47
  -2   4   6  537.36   33.93
   2  -4  -6  507.30   19.71
  -2   4   6  504.51   17.18
   2  -4  -5  388.76   16.38
   2  -4  -5  362.30   16.90
  -2   4   5  395.55   11.89
  -2   4   5  380.76   26.78
   2  -4  -5  397.49   17.06
  -2   4   5  377.69   19.10
  -2   4   5  398.49   14.50
   2  -4  -4    2.54    2.00
  -2   4   4    3.08    0.79
  -2   4   4    4.71    2.75
  -2   4   4    1.65    1.61
  -2   4   4    1.77    0.95
   2  -4  -4    3.77    1.86
   2  -4  -3   77.35    6.33
  -2   4   3   93.42    6.27
   2  -4  -3   78.36    7.11
  -2   4   3   77.80    8.17
   2  -4  -2 1938.56   47.46
  -2   4   2 2071.49   46.61
  -2   4   2 1943.19   54.35
   2  -4  -2 2040.22   51.72
   2  -4  -1 1915.61   46.61
  -2   4   1 2102.88   45.86
   2  -4  -1 2046.16   51.85
  -2   4   1 1921.28   53.86
  -2   4   0  535.94   15.70
   2  -4   0  530.36   20.61
  -2   4   0  494.37   21.69
   2  -4   0  503.06   16.27
   2  -4   1   29.23    3.32
   2  -4   1   24.93    3.90
   2  -4   1   17.20    2.15
  -2   4  -1   24.95    2.75
   2  -4   1   27.54    3.48
  -2   4  -1   22.88    4.24
  -2   4  -2  139.62    6.42
   2  -4   2  134.13    9.06
   2  -4   2  124.87    7.78
  -2   4  -2  121.39    9.91
   2  -4   2  128.53    7.26
   2  -4   2  142.32    8.55
   2  -4   3  725.64   23.66
   2  -4   3  638.55   23.13
   2  -4   3  694.34   21.58
  -2   4  -3  696.58   26.76
  -2   4  -3  721.28   22.57
  -2   4  -3  728.41   18.42
   2  -4   3  668.81   24.51
   2  -4   4   78.61    6.60
   2  -4   4   59.27    6.69
  -2   4  -4   86.13    7.31
   2  -4   4   84.52    6.65
  -2   4  -4   90.85    8.78
  -2   4  -4   82.39    4.53
   2  -4   4   69.75    7.72
   2  -4   5 1092.93   31.03
   2  -4   5 1093.55   37.21
  -2   4  -5 1031.14   35.75
   2  -4   5 1143.51   32.89
  -2   4  -5 1038.54   36.28
   2  -4   6    2.60    1.34
  -2   4  -6   -0.03    1.25
   2  -4   6    1.69    1.58
   2  -4   6    1.75    1.74
  -2   4  -6    1.66    1.85
   2  -4   7  158.96    7.47
  -2   4  -7  153.10   12.63
   2  -4   7  161.77   11.61
   2  -4   7  157.46   14.37
  -2   4  -7  163.72   13.31
  -2   4  -8  140.73    6.44
   2  -4   8  130.44   14.03
  -2   4  -8  139.59   13.19
  -2   4  -8  138.37   12.62
   2  -4   9  644.27   35.08
  -2   4  -9  662.41   30.92
  -2   4  -9  638.27   29.61
  -2   4  -9  608.37   23.90
  -2   4 -10   15.99    5.20
   2  -4  10   10.45    4.87
  -2   4 -10   12.98    5.77
  -2   4 -10   14.19    4.56
   2  -4  11  349.76   28.31
  -2   4 -11  343.32   29.78
  -2   4 -11  354.79   23.85
   2  -3 -14    8.88    5.41
   2  -3 -13   99.89   11.46
   2  -3 -12   44.69    7.19
  -2   3  12   41.01   11.88
   2  -3 -11  207.70   14.78
  -2   3  11  200.20   24.86
   2  -3 -10   70.27    7.90
   2  -3 -10   75.43    9.31
  -2   3  10   59.48   13.25
   2  -3  -9    1.07    1.81
   2  -3  -9   -1.85    2.25
  -2   3   9    2.21    2.86
   2  -3  -8  149.88   12.72
   2  -3  -8  151.77   10.74
   2  -3  -8  163.79   10.64
  -2   3   8  176.80   20.46
  -2   3   8  162.94    8.09
   2  -3  -7  680.10   24.38
   2  -3  -7  683.53   26.15
  -2   3   7  661.57   22.45
   2  -3  -7  764.41   25.50
  -2   3   7  730.18   40.53
  -2   3   7  700.87   19.96
   2  -3  -6  494.86   18.72
   2  -3  -6  438.98   19.22
  -2   3   6  484.29   16.32
   2  -3  -6  504.00   20.05
  -2   3   6  500.49   31.16
  -2   3   6  450.08   20.04
  -2   3   6  473.85   15.11
   2  -3  -5 1854.44   46.52
  -2   3   5 1874.60   42.42
   2  -3  -5 1863.42   47.13
   2  -3  -5 1889.87   49.58
  -2   3   5 1853.89   50.97
  -2   3   5 1880.66   64.14
  -2   3   5 1871.31   42.94
   2  -3  -4   90.24    6.62
  -2   3   4   82.57    5.88
   2  -3  -4   86.17    7.52
  -2   3   4   77.99    7.82
  -2   3   4   73.20    9.90
  -2   3   4   86.77    4.68
   2  -3  -4   86.94    6.26
   2  -3  -3 2926.85   67.00
  -2   3   3 3137.23   66.38
   2  -3  -3 3104.78   72.18
  -2   3   3 3059.88   81.29
  -2   3   3 2954.00   73.50
   2  -3  -2 1986.84   47.79
  -2   3   2 2169.63   47.24
   2  -3  -2 2095.02   52.79
  -2   3   2 2058.15   54.40
  -2   3   1  500.78   15.29
   2  -3  -1  497.27   19.39
  -2   3   1  508.88   20.74
   2  -3  -1  487.45   15.81
  -2   3   0 1105.85   26.79
   2  -3   0 1052.53   24.44
  -2   3   0 1053.90   33.22
   2  -3   0 1093.62   32.03
   2  -3   0 1071.30   26.73
   2  -3   1    5.74    1.40
  -2   3  -1    9.35    1.92
   2  -3   1   11.45    2.08
  -2   3  -1   10.47    2.84
   2  -3   1    9.06    2.39
  -2   3  -2   12.10    2.25
   2  -3   2   10.07    1.98
  -2   3  -2   12.25    1.79
   2  -3   2   12.41    2.49
  -2   3  -2   13.78    3.23
   2  -3   2   15.42    2.95
  -2   3  -2   13.44    2.41
   2  -3   3  898.71   25.13
   2  -3   3  900.39   28.37
  -2   3  -3  976.05   27.06
   2  -3   3  909.72   26.43
  -2   3  -3  911.36   30.12
   2  -3   3  822.13   28.41
  -2   3  -3  910.78   26.33
   2  -3   4   40.63    3.80
   2  -3   4   38.52    5.46
  -2   3  -4   43.94    5.25
   2  -3   4   41.54    4.74
  -2   3  -4   36.89    5.33
  -2   3  -4   39.88    4.90
   2  -3   5  538.07   16.29
   2  -3   5  512.86   23.67
  -2   3  -5  531.35   22.24
   2  -3   5  549.62   20.72
   2  -3   6   36.05    2.87
   2  -3   6   36.33    2.62
  -2   3  -6   41.52    6.29
   2  -3   6   44.68    7.11
   2  -3   6   30.10    4.75
  -2   3  -6   32.46    5.33
  -2   3  -7    1.26    1.93
   2  -3   7    2.93    2.78
   2  -3   7    3.45    2.42
  -2   3  -7    5.78    2.55
  -2   3  -8   58.56    4.61
  -2   3  -8   61.09    8.38
   2  -3   8   56.82    9.18
   2  -3   8   42.96    6.55
  -2   3  -8   51.12    6.00
  -2   3  -8   43.54    6.44
  -2   3  -9  175.26    8.85
  -2   3  -9  176.34   15.04
  -2   3  -9  208.09   20.28
   2  -3   9  171.50   17.48
  -2   3  -9  158.04   12.99
  -2   3  -9  174.80   10.83
  -2   3 -10   43.58    7.84
   2  -3  10   34.26    8.56
  -2   3 -10   31.71    8.49
  -2   3 -11  197.01   22.05
  -2   3 -11  214.37   18.05
  -2   3 -12    4.64    4.23
  -2   3 -12    2.92    3.51
   2  -2 -14   46.25    8.42
   2  -2 -13   47.88    7.72
  -2   2  13   40.07   12.19
   2  -2 -12   11.09    4.44
  -2   2  12   -0.89    4.29
   2  -2 -11  723.89   28.45
  -2   2  11  697.67   45.62
   2  -2 -10  299.07   17.69
   2  -2 -10  266.12   15.56
  -2   2  10  273.40   26.60
   2  -2  -9  889.33   30.02
   2  -2  -9  924.69   33.88
  -2   2   9  939.30   49.15
   2  -2  -9  896.57   31.20
  -2   2   9  883.09   22.86
   2  -2  -8 1723.36   46.38
   2  -2  -8 1734.47   51.25
  -2   2   8 1719.04   67.57
   2  -2  -8 1691.81   48.47
  -2   2   8 1762.60   38.89
   2  -2  -7    2.62    2.05
  -2   2   7    1.69    1.25
   2  -2  -7    1.10    1.34
   2  -2  -7    0.64    1.47
  -2   2   7    1.15    2.08
  -2   2   7    1.81    0.77
   2  -2  -7    6.99    2.86
   2  -2  -6  722.84   23.27
   2  -2  -6  729.18   27.57
  -2   2   6  714.94   22.33
   2  -2  -6  700.89   23.82
  -2   2   6  763.03   37.32
   2  -2  -6  735.93   26.40
  -2   2   6  723.46   18.62
   2  -2  -5 1602.69   39.96
  -2   2   5 1604.04   38.92
   2  -2  -5 1592.31   45.39
  -2   2   5 1601.79   44.32
  -2   2   5 1622.38   55.15
   2  -2  -5 1505.74   53.25
   2  -2  -5 1587.11   44.28
  -2   2   5 1602.38   49.79
  -2   2   5 1577.76   37.90
   2  -2  -5 1519.40   39.15
  -2   2   4  247.55   10.41
   2  -2  -4  267.23   11.43
  -2   2   4  262.42    9.70
   2  -2  -4  247.27    9.85
  -2   2   4  250.54   15.17
   2  -2  -4  223.66   16.09
  -2   2   4  245.06   13.62
   2  -2  -4  243.90   13.44
  -2   2   4  250.82   17.23
  -2   2   3    3.55    1.25
   2  -2  -3    7.51    2.48
   2  -2  -3    1.07    0.57
  -2   2   3    2.05    1.88
   2  -2  -3    4.04    1.69
  -2   2   3    3.80    1.84
  -2   2   2 3165.97   66.27
   2  -2  -2 3159.55   72.99
  -2   2   2 3127.57   73.39
   2  -2  -2 3000.20   66.50
   2  -2  -1 3592.81   80.97
  -2   2   1 3487.63   81.38
  -2   2   1 3567.39   74.37
   2  -2  -1 3560.62   74.44
   2  -2   0  121.25    5.27
  -2   2   0  137.52    4.97
   2  -2   0  128.92    8.64
  -2   2   0  118.00    8.64
  -2   2   0  124.60    6.18
   2  -2   1 2359.85   54.43
  -2   2  -1 2506.35   53.56
  -2   2  -1 2522.30   60.40
   2  -2   1 2581.11   59.16
  -2   2  -1 2444.43   52.97
   2  -2   1 2520.50   54.21
   2  -2   2 4512.68  100.41
  -2   2  -2 4861.68   99.40
   2  -2   2 4909.65  101.52
  -2   2  -2 4722.66  103.46
  -2   2  -2 4865.20   98.30
   2  -2   2 4396.14   99.99
   2  -2   3  178.42    8.39
   2  -2   3  185.32   11.23
  -2   2  -3  205.04   10.87
  -2   2  -3  227.57   13.65
   2  -2   3  187.60   10.00
  -2   2  -3  191.83   11.27
   2  -2   3  187.32    9.98
  -2   2  -3  200.31   10.46
   2  -2   4 1045.87   24.87
   2  -2   4 1074.75   25.79
   2  -2   4 1047.92   34.67
  -2   2  -4 1035.01   32.73
  -2   2  -4 1131.99   33.13
   2  -2   4 1077.40   31.28
  -2   2  -4 1104.35   38.82
  -2   2  -4 1055.03   32.71
   2  -2   5   32.36    5.80
   2  -2   5   35.11    4.86
  -2   2  -5   27.62    4.36
   2  -2   6  139.05   12.75
  -2   2  -6  145.24   10.36
   2  -2   6  166.86   11.28
  -2   2  -6  150.22    9.85
   2  -2   7 1353.63   50.23
  -2   2  -7 1503.74   47.36
   2  -2   7 1523.03   45.04
  -2   2  -7 1475.29   43.12
  -2   2  -7 1509.83   41.18
   2  -2   8  134.86   14.43
  -2   2  -8  139.46   15.30
  -2   2  -8  170.25   13.83
  -2   2  -8  134.63   10.57
   2  -2   8  144.75   11.88
  -2   2  -8  145.49    9.58
  -2   2  -9  109.64    7.52
  -2   2  -9  120.15   14.93
  -2   2  -9  103.02   11.23
  -2   2  -9   88.05    8.80
  -2   2  -9  103.52    7.62
  -2   2 -10   85.12    7.01
  -2   2 -10   82.83   13.31
  -2   2 -10   80.45   10.43
  -2   2 -11   26.75    6.41
  -2   2 -11   15.01    6.12
  -2   2 -12   99.76   16.37
  -2   2 -12   96.49   12.33
   2  -1 -13  127.93   11.76
  -2   1  13   86.27   16.42
   2  -1 -13  131.61   18.62
   2  -1 -12   10.61    4.13
  -2   1  12    8.38    6.39
   2  -1 -12   10.87    5.90
   2  -1 -11   26.31    4.90
  -2   1  11   20.76    7.82
   2  -1 -11   34.96    8.90
   2  -1 -10   10.78    3.41
  -2   1  10    7.28    5.35
   2  -1 -10    3.91    3.43
  -2   1  10    4.98    3.27
   2  -1 -10    7.55    3.13
   2  -1  -9   92.51    8.23
   2  -1  -9   98.61    9.16
  -2   1   9   87.55   10.50
   2  -1  -9   99.48   12.76
  -2   1   9  113.23   15.28
   2  -1  -9   97.85    9.74
   2  -1  -8  209.03   13.29
   2  -1  -8  217.71   11.90
  -2   1   8  183.32   14.08
   2  -1  -8  202.52   17.23
  -2   1   8  200.11   19.50
   2  -1  -8  207.75   14.08
  -2   1   8  202.49    6.14
   2  -1  -7 1182.35   33.27
   2  -1  -7 1253.65   38.04
  -2   1   7 1183.81   38.77
   2  -1  -7 1106.61   43.30
   2  -1  -7 1174.14   34.78
  -2   1   7 1175.91   34.79
   2  -1  -7 1212.54   39.03
  -2   1   7 1254.13   49.76
  -2   1   7 1219.40   25.85
   2  -1  -6 1091.93   29.29
  -2   1   6 1014.74   27.61
   2  -1  -6 1045.52   33.20
  -2   1   6 1100.07   33.15
   2  -1  -6  948.13   36.68
   2  -1  -6 1002.93   29.27
  -2   1   6 1049.44   29.70
   2  -1  -6  981.93   42.20
  -2   1   6 1039.11   42.57
   2  -1  -6 1040.48   34.11
  -2   1   6  994.41   22.91
  -2   1   5   13.97    2.09
   2  -1  -5   22.91    3.67
  -2   1   5   14.75    4.40
   2  -1  -5   21.06    3.90
   2  -1  -5   15.00    4.57
  -2   1   5   17.83    2.77
  -2   1   5   20.39    3.30
   2  -1  -5   21.20    3.14
   2  -1  -5   18.83    3.72
  -2   1   5   21.84    4.61
  -2   1   4    2.41    1.13
   2  -1  -4    3.34    1.90
   2  -1  -4    7.57    1.81
  -2   1   4    3.29    1.25
  -2   1   4    3.28    2.10
   2  -1  -4    1.60    1.76
  -2   1   4    2.28    2.12
   2  -1  -4    2.65    2.18
   2  -1  -4    3.17    1.58
  -2   1   3   79.74    5.17
   2  -1  -3   84.84    7.01
  -2   1   3   77.51    6.91
  -2   1   3   68.20    4.04
   2  -1  -3   79.10    7.48
  -2   1   3   72.98    6.80
  -2   1   3   70.35    7.36
   2  -1  -3   69.43    6.72
   2  -1  -3   74.71    5.06
   2  -1  -2 1427.17   37.92
  -2   1   2 1365.11   37.34
  -2   1   2 1435.42   29.16
  -2   1   2 1435.74   39.32
   2  -1  -2 1378.30   39.08
  -2   1   2 1443.31   37.87
   2  -1  -2 1430.08   33.39
  -2   1   2 1347.81   33.04
   2  -1  -1  824.92   24.92
  -2   1   1  828.83   25.06
  -2   1   1  835.01   26.65
   2  -1  -1  797.95   26.20
  -2   1   1  859.96   21.70
  -2   1   0 7194.83  143.96
   2  -1   0 6951.55  143.60
   2  -1   0 7055.13  146.38
  -2   1   0 7067.34  146.77
   2  -1   0 6982.64  137.10
   2  -1   1 9112.45  183.58
  -2   1  -1 9270.63  183.91
  -2   1  -1 9314.23  184.07
  -2   1  -1 9435.20  187.97
   2  -1   1 9099.13  186.73
  -2   1  -1 9116.92  180.48
   2  -1   2  950.71   24.67
  -2   1  -2  968.07   25.05
  -2   1  -2  990.62   28.64
   2  -1   2  911.73   26.89
  -2   1  -2  980.52   28.72
  -2   1  -2 1005.38   29.31
  -2   1  -2  896.83   25.82
   2  -1   3 1549.73   34.84
  -2   1  -3 1629.83   43.37
  -2   1  -3 1569.63   45.81
   2  -1   3 1566.14   40.46
  -2   1  -3 1560.34   40.87
   2  -1   3 1522.99   38.39
   2  -1   4  689.15   15.68
  -2   1  -4  663.62   25.50
  -2   1  -4  615.30   21.85
   2  -1   4  630.86   22.45
  -2   1  -4  603.75   28.02
  -2   1  -4  631.23   22.31
   2  -1   5    5.12    2.59
   2  -1   5    3.52    1.81
  -2   1  -5    2.58    2.24
  -2   1  -5    5.76    1.80
  -2   1  -5   11.40    2.87
   2  -1   6  158.90   14.25
  -2   1  -6  169.68   10.30
   2  -1   6  167.26   11.58
  -2   1  -6  162.85   10.09
  -2   1  -7   33.51    6.97
   2  -1   7   27.43    4.96
   2  -1   7   24.04    6.21
  -2   1  -7   25.99    3.96
  -2   1  -7   23.16    3.83
  -2   1  -8  230.90   16.14
  -2   1  -8  227.88   19.11
   2  -1   8  178.48   17.73
  -2   1  -8  193.46   11.40
   2  -1   8  213.92   14.70
  -2   1  -8  212.38   11.20
  -2   1  -9  310.24   20.10
  -2   1  -9  355.63   25.66
  -2   1  -9  346.55   15.24
  -2   1  -9  328.34   14.05
  -2   1 -10   63.90    6.51
  -2   1 -10   65.19    9.14
  -2   1 -10   57.90   11.21
  -2   1 -11   38.46    5.36
  -2   1 -11   36.03    7.50
  -2   1 -11   43.65   10.55
  -2   1 -12   -1.20    2.01
  -2   1 -12    4.87    4.66
   2   0 -13   33.28    6.11
  -2   0  13   30.46    9.68
   2   0 -13   41.28   10.72
   2   0 -12   16.52    4.82
  -2   0  12   11.60    5.75
   2   0 -12   16.78    7.44
  -2   0  12   21.09    6.94
   2   0 -11   53.51    6.88
  -2   0  11   55.38   11.68
   2   0 -11   53.09   10.65
  -2   0  11   48.07    8.97
   2   0 -10  403.72   18.22
   2   0 -10  425.84   18.41
   2   0 -10  438.16   23.58
  -2   0  10  468.18   31.93
  -2   0  10  368.23   23.94
   2   0 -10  435.90   29.12
   2   0  -9   51.05    6.13
   2   0  -9   59.81    6.24
   2   0  -9   47.50    7.34
  -2   0   9   44.62    9.43
  -2   0   9   54.66    8.26
   2   0  -9   42.95    8.41
  -2   0   8   10.75    2.14
   2   0  -8   20.67    4.02
  -2   0   8   10.71    3.55
   2   0  -8   12.44    3.15
   2   0  -8    9.71    4.05
  -2   0   8    4.44    2.68
   2   0  -8    6.84    2.44
   2   0  -7 1174.77   35.18
  -2   0   7 1123.30   29.69
  -2   0   7 1168.66   37.43
   2   0  -7 1104.34   42.19
   2   0  -7 1129.31   33.19
  -2   0   7 1061.47   44.13
   2   0  -7 1176.58   31.63
   2   0  -6  573.02   21.72
  -2   0   6  534.30   21.67
  -2   0   6  546.62   17.04
  -2   0   6  581.32   21.47
   2   0  -6  538.84   25.39
  -2   0   6  561.78   25.07
   2   0  -6  540.23   18.91
  -2   0   6  555.83   20.17
   2   0  -6  523.00   28.74
  -2   0   6  561.06   27.44
  -2   0   6  543.92   13.68
   2   0  -6  567.34   18.38
   2   0  -5 3158.46   72.51
  -2   0   5 3037.88   65.85
  -2   0   5 2998.14   73.00
   2   0  -5 3024.40   76.69
  -2   0   5 3219.38   69.86
   2   0  -5 3087.70   67.45
  -2   0   5 3162.55   76.85
  -2   0   5 3081.17   69.28
   2   0  -5 2917.16   81.46
  -2   0   5 3167.87   80.30
  -2   0   5 3072.19   63.96
   2   0  -5 3059.29   66.81
  -2   0   4   14.98    2.55
   2   0  -4   11.19    2.05
   2   0  -4   10.15    2.72
  -2   0   4   13.37    2.33
  -2   0   4   11.94    2.98
   2   0  -4   15.16    3.08
  -2   0   4   13.81    3.18
  -2   0   4   17.66    2.78
  -2   0   4   10.64    2.89
   2   0  -4   11.98    3.53
  -2   0   4   14.02    2.01
   2   0  -3    3.05    0.96
  -2   0   3    8.09    1.86
  -2   0   3   10.20    2.49
  -2   0   3   13.52    2.06
   2   0  -3    7.79    2.21
  -2   0   3    8.10    2.29
  -2   0   3    8.66    2.25
   2   0  -3    9.80    2.70
   2   0  -3    4.53    1.91
  -2   0   3    6.75    1.51
   2   0  -2  112.57    7.49
  -2   0   2  102.78    7.42
  -2   0   2  106.11    6.57
  -2   0   2  102.48    5.99
   2   0  -2  100.02    6.25
   2   0  -2  105.65    8.11
  -2   0   2   91.21    5.23
  -2   0   2   98.79    6.12
   2   0  -1  574.10   18.66
  -2   0   1  571.28   19.05
   2   0  -1  529.35   19.93
  -2   0   1  533.01   17.65
   2   0   0 7346.86  151.00
  -2   0   0 7505.01  151.95
  -2   0   0 7640.46  154.37
   2   0   0 7256.43  154.16
  -2   0   0 7521.92  144.45
  -2   0   0 7395.45  152.04
   2   0   1 2235.10   51.55
  -2   0  -1 2326.35   52.84
  -2   0  -1 2356.29   52.97
  -2   0  -1 2405.70   55.50
   2   0   1 2288.91   54.93
   2   0   1 2350.59   50.88
  -2   0  -1 2326.31   54.69
  -2   0  -2 1429.73   34.78
   2   0   2 1457.04   33.89
  -2   0  -2 1435.89   40.23
  -2   0  -2 1475.62   37.54
   2   0   2 1426.11   38.03
   2   0   2 1366.27   36.33
  -2   0  -2 1457.42   37.90
  -2   0  -3 3393.43   72.49
   2   0   3 3512.41   72.07
  -2   0  -3 3393.68   81.77
  -2   0  -3 3458.51   85.10
   2   0   3 3360.51   73.75
   2   0   3 3567.87   77.67
  -2   0  -3 3443.13   75.76
   2   0   3 3332.29   80.90
  -2   0  -3 3443.84   77.36
  -2   0  -4  384.86   12.38
   2   0   4  368.96   12.00
  -2   0  -4  406.09   19.92
  -2   0  -4  384.22   22.18
  -2   0  -4  389.82   14.66
   2   0   4  367.97   16.10
   2   0   4  392.60   12.70
   2   0   4  371.56   19.65
  -2   0  -4  371.72   15.75
   2   0   5  389.54   11.12
  -2   0  -5  408.04   12.05
  -2   0  -5  437.27   21.11
  -2   0  -5  415.62   25.38
  -2   0  -5  410.83   14.96
   2   0   5  366.92   21.62
   2   0   5  445.36   18.68
  -2   0  -5  426.87   16.90
  -2   0  -6   17.26    4.74
  -2   0  -6   15.70    2.52
   2   0   6    7.34    3.64
   2   0   6   13.91    3.36
  -2   0  -6   14.57    2.97
  -2   0  -7  202.40   16.56
  -2   0  -7  214.03    9.04
   2   0   7  236.14   14.78
   2   0   7  210.09   18.30
  -2   0  -7  205.60   11.26
  -2   0  -8  289.29   14.00
  -2   0  -8  249.31   16.78
  -2   0  -8  271.85   20.88
   2   0   8  312.59   18.11
   2   0   8  278.41   22.59
  -2   0  -8  265.76   12.75
  -2   0  -9   20.66    4.01
  -2   0  -9   23.44    5.71
  -2   0  -9   16.47    5.44
   2   0   9   10.85    4.59
  -2   0  -9   14.60    2.81
  -2   0 -10  608.03   23.87
   2   0  10  630.59   39.08
  -2   0 -10  612.42   36.78
  -2   0 -10  631.29   30.21
  -2   0 -11  259.45   15.22
   2   0  11  283.76   27.19
  -2   0 -11  276.33   25.51
  -2   0 -11  275.27   19.81
  -2   0 -12  103.84    9.85
  -2   0 -12  109.24   17.08
  -2   0 -12  110.53   12.94
   2   0  12  108.09   17.46
  -2   0 -13   14.98    5.95
  -2  -1  14   49.68   11.20
  -2  -1  13  197.17   20.51
   2   1 -13  175.87   22.01
  -2  -1  12  423.72   29.37
   2   1 -12  492.25   35.08
   2   1 -12  468.03   20.43
   2   1 -11   14.98    3.88
   2   1 -11   11.27    5.51
  -2  -1  11   10.45    4.52
  -2  -1  11   23.28    7.68
   2   1 -10  472.05   19.39
  -2  -1  10  451.91   26.18
   2   1 -10  445.88   29.67
  -2  -1  10  470.17   31.15
   2   1 -10  469.17   18.61
  -2  -1   9  106.57    6.82
   2   1  -9  111.07    8.67
  -2  -1   9  112.78    9.85
  -2  -1   9  119.90   11.96
   2   1  -9  118.42   13.92
  -2  -1   9  119.33   14.26
   2   1  -9  115.90    8.21
  -2  -1   8   45.83    4.16
  -2  -1   8   55.65    6.76
   2   1  -8   45.54    5.54
   2   1  -8   41.48    7.64
  -2  -1   8   39.89    6.10
  -2  -1   8   49.56    8.85
   2   1  -8   56.98    5.34
   2   1  -7  185.84   11.05
  -2  -1   7  159.96    7.87
  -2  -1   7  193.66   12.56
   2   1  -7  150.98   13.44
  -2  -1   7  176.13   12.07
  -2  -1   7  199.74   15.92
   2   1  -7  164.16    8.71
   2   1  -6  517.92   19.79
  -2  -1   6  492.02   21.27
  -2  -1   6  504.59   15.66
   2   1  -6  487.86   23.60
  -2  -1   6  536.64   20.43
  -2  -1   6  548.58   20.66
   2   1  -6  498.87   27.45
  -2  -1   6  541.39   25.62
  -2  -1   6  535.53   12.44
   2   1  -6  530.34   16.72
  -2  -1   5    7.66    1.84
   2   1  -5   -1.25    1.80
  -2  -1   5    9.69    2.83
  -2  -1   5    3.16    1.49
  -2  -1   5    3.88    1.96
   2   1  -5    3.04    1.50
  -2  -1   5    2.66    1.80
   2   1  -5    0.85    1.27
  -2  -1   5    2.15    1.95
   2   1  -5    1.91    1.73
  -2  -1   5    2.52    0.77
  -2  -1   4    5.73    1.68
   2   1  -4    7.37    2.30
  -2  -1   4   10.34    2.43
  -2  -1   4    5.42    1.58
   2   1  -4    5.06    1.73
  -2  -1   4    4.93    1.87
  -2  -1   4    7.07    2.23
  -2  -1   4    5.30    2.35
   2   1  -4    7.94    2.80
  -2  -1   4    5.70    1.32
   2   1  -3  472.57   17.41
  -2  -1   3  453.73   18.12
   2   1  -3  434.42   16.52
  -2  -1   3  482.48   16.60
   2   1  -3  441.53   17.51
  -2  -1   3  450.25   13.88
  -2  -1   3  452.90   14.46
   2   1  -3  447.13   15.43
  -2  -1   2 1220.01   34.71
   2   1  -2 1290.87   33.96
   2   1  -2 1200.66   30.56
  -2  -1   2 1266.44   30.48
   2   1  -2 1240.84   31.00
   2   1  -2 1242.40   32.71
   2   1  -2 1301.38   26.23
  -2  -1   2 1260.50   31.78
  -2  -1   1 7134.64  137.12
  -2  -1   1 7059.00  145.09
   2   1  -1 7167.67  144.40
   2   1  -1 6812.40  144.06
  -2  -1   1 6857.77  143.04
  -2  -1   0  501.06   17.45
   2   1   0  524.04   17.54
   2   1   0  500.82   14.97
   2   1   0  493.80   17.96
  -2  -1   0  497.22   17.39
  -2  -1  -1   12.81    2.35
   2   1   1   12.17    2.35
   2   1   1   11.97    2.45
   2   1   1   10.81    2.44
  -2  -1  -1   12.58    2.51
   2   1   1   13.12    2.67
  -2  -1  -2  247.00   10.79
   2   1   2  246.87   11.28
  -2  -1  -2  249.13   10.48
   2   1   2  227.41   13.20
  -2  -1  -2  241.78   13.60
   2   1   2  241.96   11.35
   2   1   2  247.22   11.38
   2   1   2  225.99   12.20
  -2  -1  -2  254.45   11.95
  -2  -1  -3 1477.31   36.49
   2   1   3 1477.91   37.69
  -2  -1  -3 1528.97   39.76
  -2  -1  -3 1483.55   46.47
   2   1   3 1461.57   36.37
   2   1   3 1420.29   44.97
   2   1   3 1495.57   39.39
  -2  -1  -3 1534.34   39.40
   2   1   3 1437.31   40.88
   2   1   4 1606.80   39.85
  -2  -1  -4 1617.90   38.96
  -2  -1  -4 1640.69   45.50
   2   1   4 1519.09   50.62
   2   1   4 1773.58   44.34
  -2  -1  -4 1556.76   52.90
   2   1   4 1597.57   36.49
  -2  -1  -4 1680.94   42.32
   2   1   4 1529.47   44.41
  -2  -1  -5 1918.60   45.35
   2   1   5 2002.20   45.73
  -2  -1  -5 2033.92   56.58
   2   1   5 1909.60   61.97
   2   1   5 2078.77   52.78
  -2  -1  -5 1926.52   64.93
   2   1   5 1886.35   52.64
  -2  -1  -5 2025.09   49.37
  -2  -1  -6   10.28    1.89
  -2  -1  -6    5.21    2.65
   2   1   6    4.19    3.19
   2   1   6   11.99    3.29
  -2  -1  -6    8.25    2.18
  -2  -1  -7  535.34   16.38
  -2  -1  -7  635.57   30.52
   2   1   7  647.32   26.07
   2   1   7  562.80   32.99
  -2  -1  -7  618.39   21.05
  -2  -1  -8  102.05    8.55
  -2  -1  -8  106.46   12.72
  -2  -1  -8  101.51   10.18
   2   1   8   91.84   13.53
   2   1   8  110.06   10.72
  -2  -1  -8  101.07    7.51
  -2  -1  -9   26.35    4.59
  -2  -1  -9   23.08    6.99
  -2  -1  -9   23.50    5.21
   2   1   9   19.45    7.02
  -2  -1  -9   22.80    3.49
  -2  -1 -10   54.51    6.83
   2   1  10   57.17   11.77
  -2  -1 -10   50.07    7.82
  -2  -1 -10   50.77   10.36
  -2  -1 -11    0.79    1.56
   2   1  11    2.12    3.74
  -2  -1 -11    6.75    3.78
  -2  -1 -11    5.59    4.94
  -2  -1 -12   32.92    5.87
  -2  -1 -12   31.69    6.98
  -2  -1 -12   27.35    9.08
   2   1  12   27.57    8.88
  -2  -2  13  437.39   31.66
   2   2 -13  440.00   35.07
   2   2 -12   10.09    5.94
  -2  -2  12   12.16    5.53
  -2  -2  11  806.05   38.90
   2   2 -11  778.57   42.57
   2   2 -11  837.29   26.28
  -2  -2  10  112.55   12.64
   2   2 -10  106.37   14.33
   2   2 -10  133.87   10.01
   2   2 -10  110.97    7.74
   2   2  -9  293.79   22.06
  -2  -2   9  275.07   18.29
  -2  -2   9  266.29   16.31
   2   2  -9  305.78   15.45
  -2  -2   9  293.72   11.26
   2   2  -9  306.28   12.75
   2   2  -8   97.34   11.60
  -2  -2   8   96.01    9.67
  -2  -2   8   91.39    9.04
  -2  -2   8   94.07    5.60
   2   2  -8  111.60    8.75
   2   2  -8   95.38    6.22
  -2  -2   7  634.26   24.56
   2   2  -7  563.97   27.71
  -2  -2   7  599.43   24.82
  -2  -2   7  604.22   17.17
   2   2  -7  612.21   22.82
  -2  -2   6  125.14   10.12
  -2  -2   6  125.24    6.25
   2   2  -6  118.19    8.87
  -2  -2   6  146.17    9.98
   2   2  -6  117.79   10.84
   2   2  -6  147.90   13.92
  -2  -2   6  126.38    5.25
   2   2  -6  125.31    6.89
  -2  -2   5  241.17   13.93
   2   2  -5  245.24   12.90
  -2  -2   5  271.02   12.56
   2   2  -5  236.30   14.32
  -2  -2   5  262.29   12.95
   2   2  -5  233.50   15.96
   2   2  -5  249.69   10.66
   2   2  -5  238.16   11.86
  -2  -2   5  253.43    8.74
  -2  -2   5  249.11    9.45
  -2  -2   4  313.51   15.55
   2   2  -4  298.74   14.28
  -2  -2   4  329.50   13.87
   2   2  -4  271.46   13.99
   2   2  -4  304.14   16.23
  -2  -2   4  317.77   10.78
   2   2  -4  304.72   12.44
  -2  -2   4  302.23   10.63
   2   2  -4  325.28   11.91
   2   2  -3 1503.17   40.21
  -2  -2   3 1590.13   43.76
   2   2  -3 1696.16   43.61
  -2  -2   3 1630.66   38.26
   2   2  -3 1669.68   40.87
   2   2  -3 1688.08   35.84
   2   2  -2  728.64   19.73
  -2  -2   2  751.88   24.92
   2   2  -2  800.02   25.26
  -2  -2   2  727.88   21.17
   2   2  -2  745.65   23.08
  -2  -2   2  729.10   18.21
   2   2  -1 1743.80   45.07
  -2  -2   1 1725.69   44.81
  -2  -2   1 1685.03   41.49
   2   2  -1 1759.51   43.90
   2   2   0  838.96   26.57
  -2  -2   0  779.77   25.29
   2   2   0  779.69   25.40
  -2  -2   0  819.37   23.98
   2   2   1  737.82   24.45
  -2  -2  -1  664.96   22.52
   2   2   1  659.80   24.65
  -2  -2  -1  711.68   22.07
   2   2   1  644.74   23.16
   2   2   2  427.80   17.95
  -2  -2  -2  416.17   16.64
  -2  -2  -2  417.04   14.66
   2   2   2  443.58   16.33
   2   2   2  429.03   20.85
   2   2   2  433.90   18.34
  -2  -2  -2  422.81   16.26
   2   2   3  238.13   12.90
  -2  -2  -3  268.34   12.66
  -2  -2  -3  268.43   13.01
   2   2   3  259.04   17.44
   2   2   3  259.06   11.80
   2   2   3  263.40   12.74
  -2  -2  -3  276.83   12.76
   2   2   3  265.66   14.47
   2   2   4  133.88    9.03
  -2  -2  -4  120.66    8.28
  -2  -2  -4  149.94   10.81
   2   2   4  120.76   12.80
  -2  -2  -4  138.00   13.59
   2   2   4  127.23    6.68
   2   2   4  140.76    9.54
   2   2   4  137.07   10.53
  -2  -2  -4  135.30    8.73
   2   2   5   15.72    2.99
  -2  -2  -5   12.05    2.52
  -2  -2  -5   14.26    3.72
   2   2   5   14.32    3.39
   2   2   5   13.29    5.17
  -2  -2  -5   13.84    2.75
  -2  -2  -6    8.32    2.19
  -2  -2  -6    7.15    3.16
   2   2   6    8.90    4.77
   2   2   6    4.32    2.23
  -2  -2  -6   11.83    2.73
  -2  -2  -7  106.38    7.51
  -2  -2  -7  141.42   13.74
   2   2   7  138.23   16.52
   2   2   7  141.98   11.55
  -2  -2  -7  129.29    8.79
  -2  -2  -8  168.18   11.73
  -2  -2  -8  154.86   15.60
  -2  -2  -8  162.49   12.92
   2   2   8  156.26   18.59
  -2  -2  -8  173.66   10.29
  -2  -2  -9  150.56   11.61
  -2  -2  -9  152.72   16.54
  -2  -2  -9  151.56   12.90
   2   2   9  150.04   19.42
  -2  -2  -9  152.07    9.70
  -2  -2 -10    1.53    2.31
   2   2  10    4.32    4.29
  -2  -2 -10    3.33    2.39
  -2  -2 -10    2.72    2.89
  -2  -2 -11   69.65    8.63
   2   2  11   54.58   12.79
  -2  -2 -11   60.41   11.80
  -2  -2 -11   69.21    9.45
  -2  -2 -12   26.26    8.60
  -2  -2 -12   57.66    8.32
  -2  -3  13    6.00    4.45
   2   3 -13   10.37    5.44
   2   3 -12   35.70   10.02
  -2  -3  12   36.94    8.61
   2   3 -11  123.44   16.41
  -2  -3  11  115.26   13.72
  -2  -3  10  182.98   16.01
   2   3 -10  185.53   18.92
   2   3 -10  199.65   13.45
   2   3  -9 3595.70  104.93
  -2  -3   9 3858.71   98.70
  -2  -3   9 3935.62   79.79
   2   3  -9 3802.29   91.90
   2   3  -8  122.35   13.07
  -2  -3   8  122.38   11.18
   2   3  -8  110.24    9.59
  -2  -3   8  115.61    5.61
   2   3  -8  104.37    6.25
   2   3  -7  259.67   17.84
  -2  -3   7  270.99   15.46
  -2  -3   7  252.97   15.74
  -2  -3   7  240.70    8.71
   2   3  -7  269.34   15.00
   2   3  -7  239.64   10.89
   2   3  -6   81.94    9.00
  -2  -3   6   85.38    7.93
  -2  -3   6   92.17    8.97
  -2  -3   6   82.99    4.89
   2   3  -6   83.62    8.05
  -2  -3   6   86.92    5.06
   2   3  -6   88.56    7.18
   2   3  -6   84.83    6.32
  -2  -3   5  554.17   23.11
   2   3  -5  543.14   22.29
   2   3  -5  506.04   22.15
   2   3  -5  514.29   25.13
  -2  -3   5  536.95   15.88
   2   3  -5  548.81   17.96
   2   3  -5  522.01   18.44
  -2  -3   5  523.41   15.34
  -2  -3   4  261.12   12.71
   2   3  -4  222.25   12.47
   2   3  -4  234.16   13.75
  -2  -3   4  230.62   13.84
  -2  -3   4  251.99    9.96
   2   3  -4  246.00    9.72
   2   3  -4  239.43   11.59
   2   3  -3 1166.95   32.00
  -2  -3   3 1209.04   36.93
   2   3  -3 1247.10   37.60
  -2  -3   3 1214.69   30.49
  -2  -3   3 1158.09   30.54
   2   3  -3 1199.57   33.25
   2   3  -2  396.98   18.53
  -2  -3   2  348.59   16.90
  -2  -3   2  368.69   13.69
   2   3  -2  373.88   15.68
  -2  -3   2  373.31   11.60
   2   3  -1 3053.63   74.69
  -2  -3   1 3010.37   72.89
   2   3  -1 2990.04   70.54
  -2  -3   1 3057.32   67.43
  -2  -3   0 2492.48   62.65
   2   3   0 2574.74   64.94
  -2  -3   0 2536.29   58.25
   2   3   0 2447.61   61.15
   2   3   1   78.28    7.87
  -2  -3  -1   72.64    7.14
   2   3   1   76.50    4.11
   2   3   1   74.10    8.34
  -2  -3  -1   74.24    6.10
   2   3   1   72.57    7.11
   2   3   2  160.80   11.60
  -2  -3  -2  168.11   11.08
   2   3   2  169.33    9.40
   2   3   2  166.87   13.77
  -2  -3  -2  175.66    9.91
   2   3   3 3748.61   88.57
  -2  -3  -3 3575.10   86.51
   2   3   3 3545.21   97.93
   2   3   3 3817.08   84.23
  -2  -3  -3 3972.82   84.53
   2   3   4  638.66   24.66
  -2  -3  -4  621.97   23.91
   2   3   4  627.49   33.17
   2   3   4  634.75   20.63
   2   3   4  716.34   24.14
  -2  -3  -4  644.73   22.29
   2   3   5   84.41    8.13
  -2  -3  -5   75.27    7.36
   2   3   5   77.55    7.65
   2   3   5   81.49   12.01
  -2  -3  -5   90.34    7.34
  -2  -3  -6  108.58    8.93
  -2  -3  -6  130.80   12.19
   2   3   6  126.47   16.01
   2   3   6  137.85   10.68
  -2  -3  -6  122.25    8.79
  -2  -3  -7   10.64    3.19
  -2  -3  -7    7.25    4.23
   2   3   7    8.63    3.25
   2   3   7    9.71    4.89
  -2  -3  -7    9.46    2.59
  -2  -3  -8  121.62   10.36
  -2  -3  -8  111.77   10.34
  -2  -3  -8   99.15   12.57
   2   3   8  101.29   15.73
  -2  -3  -8  124.60    9.07
  -2  -3  -9   12.61    3.50
  -2  -3  -9   14.18    5.58
  -2  -3  -9   20.41    4.81
   2   3   9   15.17    6.75
  -2  -3  -9   13.87    3.11
  -2  -3 -10    2.73    2.60
   2   3  10    1.19    3.82
  -2  -3 -11    7.57    3.33
   2   3  11    2.38    4.53
  -2  -4  13  144.92   17.86
   2   4 -13  137.29   19.27
  -2  -4  12   32.27    7.87
   2   4 -12   26.74    8.11
  -2  -4  11   -0.42    3.22
   2   4 -11    2.61    4.42
   2   4 -10   90.34   13.09
  -2  -4  10   98.61   11.95
   2   4 -10   83.41    9.35
   2   4  -9    2.04    3.20
  -2  -4   9    5.83    3.77
   2   4  -9   -0.12    1.73
   2   4  -8   44.54    8.14
  -2  -4   8   60.23    8.45
   2   4  -8   48.15    7.03
  -2  -4   8   47.44    2.95
   2   4  -8   57.13    5.47
   2   4  -7 1272.53   45.66
  -2  -4   7 1300.16   41.15
   2   4  -7 1334.69   43.22
  -2  -4   7 1300.50   29.00
   2   4  -7 1254.49   35.47
  -2  -4   6   39.39    5.84
   2   4  -6   33.27    5.93
   2   4  -6   32.63    5.85
  -2  -4   6   34.17    3.63
   2   4  -6   30.15    4.12
  -2  -4   6   36.68    3.22
   2   4  -5  607.99   25.38
   2   4  -5  708.53   28.26
   2   4  -5  677.97   20.41
  -2  -4   5  653.08   19.76
   2   4  -5  603.15   21.99
   2   4  -4   22.42    4.86
  -2  -4   4   24.88    3.82
  -2  -4   4   31.22    3.59
   2   4  -4   25.68    3.90
  -2  -4   3  329.19   14.42
   2   4  -3  319.46   18.11
  -2  -4   3  312.01   12.71
  -2  -4   3  303.01   12.40
   2   4  -3  290.44   14.30
   2   4  -2   69.51    8.15
  -2  -4   2   72.88    4.86
  -2  -4   2   66.78    5.59
   2   4  -2   58.09    6.13
   2   4  -1    1.04    1.52
  -2  -4   1    1.58    1.38
   2   4   0  317.42   18.25
  -2  -4   0  309.40   13.65
   2   4   1  407.18   20.93
   2   4   1  367.81   12.92
   2   4   1  418.19   14.78
  -2  -4  -1  397.91   16.17
   2   4   2  814.00   31.22
   2   4   2  773.17   23.21
   2   4   2  739.24   34.78
   2   4   2  830.31   24.45
  -2  -4  -2  820.40   25.98
   2   4   3  517.15   23.86
   2   4   3  537.87   19.59
   2   4   3  533.18   19.50
   2   4   3  466.20   28.52
  -2  -4  -3  572.11   20.66
   2   4   4   27.47    5.24
   2   4   4   26.93    4.23
   2   4   4   43.39    8.77
  -2  -4  -4   31.21    4.48
   2   4   5  384.00   20.22
   2   4   5  377.58   28.29
   2   4   5  358.63   13.75
   2   4   5  428.09   18.98
   2   4   5  390.70   12.23
  -2  -4  -5  407.80   17.58
  -2  -4  -6   18.47    4.04
   2   4   6   18.89    4.25
   2   4   6   27.78    8.19
  -2  -4  -6   32.53    4.73
  -2  -4  -7   21.80    4.41
   2   4   7   28.50    8.70
  -2  -4  -7   27.94    4.45
  -2  -4  -8  238.04   15.69
  -2  -4  -8  266.37   15.77
   2   4   8  236.25   25.76
  -2  -4  -8  257.40   14.34
  -2  -4  -9   88.30    9.66
   2   4   9   70.88   14.79
  -2  -4  -9   89.26    8.39
  -2  -4 -10   24.88    5.50
   2   4  10   28.31    9.67
   2   5 -13  109.13   17.51
  -2  -5  12   -0.40    4.31
   2   5 -12   -2.94    2.87
  -2  -5  11  104.27   13.15
   2   5 -11  101.85   15.02
   2   5 -10   14.31    5.68
  -2  -5  10   22.94    6.44
   2   5 -10   15.59    4.54
   2   5  -9   23.46    6.74
  -2  -5   9   42.40    7.97
   2   5  -9   36.12    6.62
   2   5  -8   44.18    8.18
  -2  -5   8   62.13    8.68
   2   5  -8   49.99    7.81
   2   5  -7  996.75   39.92
  -2  -5   7 1011.32   35.84
   2   5  -7 1045.39   39.02
  -2  -5   7  980.12   22.21
   2   5  -7  939.99   30.72
   2   5  -6  170.20   13.80
   2   5  -6  171.89   14.24
  -2  -5   6  166.07    6.96
  -2  -5   6  163.11    9.29
   2   5  -5  344.39   20.68
  -2  -5   5  353.26   14.52
   2   5  -4  138.71   12.60
  -2  -5   4  133.00    8.40
  -2  -5   4  116.97    8.79
   2   5  -3  364.51   21.14
  -2  -5   3  346.25   14.68
  -2  -5   3  358.09   14.46
  -2  -5   2 1433.63   38.62
   2   5  -2 1406.04   47.85
  -2  -5   2 1381.58   37.83
  -2  -5   2 1442.22   35.71
   2   5  -1  202.96   15.59
  -2  -5   1  203.80   11.16
   2   5   0    5.58    2.72
   2   5   0    9.15    1.71
  -2  -5   0    4.09    1.96
   2   5   1   72.72    9.23
   2   5   1   76.82    5.95
   2   5   1   78.42    5.63
  -2  -5  -1   71.40    6.70
   2   5   2  668.74   29.50
   2   5   2  621.58   21.48
   2   5   2  616.59   33.51
   2   5   2  668.77   21.04
  -2  -5  -2  647.24   23.43
   2   5   3  789.85   33.29
   2   5   3  830.76   27.57
   2   5   3  769.35   40.13
  -2  -5  -3  851.38   28.56
   2   5   4  625.02   28.87
   2   5   4  598.72   24.19
   2   5   4  688.53   23.81
   2   5   4  607.62   36.92
  -2  -5  -4  664.80   24.52
   2   5   5    0.59    1.48
  -2  -5  -5   -1.19    1.62
   2   5   5    0.51    2.91
   2   5   5    3.07    2.04
  -2  -5  -5    0.07    1.26
   2   5   5    2.03    1.39
  -2  -5  -6    2.83    2.51
   2   5   6    2.51    4.04
  -2  -5  -6    0.64    1.41
  -2  -5  -7  377.27   20.52
   2   5   7  412.08   34.52
  -2  -5  -7  446.24   20.25
  -2  -5  -8   84.45    9.62
   2   5   8   73.45   15.42
  -2  -5  -8   87.36    8.77
  -2  -5  -9   30.42    6.37
   2   5   9   28.94    9.76
  -2  -5  -9   30.42    5.57
   2   5  10    0.06    3.55
   2   6 -12    9.51    4.90
   2   6 -11  141.65   17.84
  -2  -6  11  149.52   16.24
   2   6 -10  127.52   16.00
  -2  -6  10  163.07   16.12
   2   6 -10  125.87   12.95
   2   6  -9  475.05   29.90
  -2  -6   9  539.04   28.32
   2   6  -9  507.67   27.49
   2   6  -8  346.70   23.60
  -2  -6   8  358.55   21.48
   2   6  -8  344.33   22.31
   2   6  -7  174.83   15.33
  -2  -6   7  190.96   14.70
   2   6  -7  157.69   14.82
   2   6  -6    4.23    3.04
  -2  -6   6    1.32    1.19
   2   6  -5   40.96    7.50
  -2  -6   5   24.01    4.56
  -2  -6   5   33.95    4.69
   2   6  -4 1251.12   46.08
  -2  -6   4 1201.72   36.66
  -2  -6   4 1191.82   35.20
   2   6  -3   22.58    5.59
  -2  -6   3   26.30    4.00
  -2  -6   3   21.58    3.78
   2   6  -2  539.04   28.01
  -2  -6   2  540.21   18.84
  -2  -6   2  522.33   20.62
   2   6  -1  490.44   26.67
  -2  -6   1  524.56   19.14
   2   6  -1  512.39   14.73
  -2  -6   1  483.90   20.01
   2   6   0   87.41   10.76
   2   6   0   96.73    5.45
  -2  -6   0   88.56    7.90
   2   6   1    9.72    3.86
   2   6   1    7.53    2.26
   2   6   1    8.69    1.92
  -2  -6  -1   10.01    3.07
   2   6   2  268.82   19.11
   2   6   2  253.07   13.45
   2   6   2  248.75   22.27
   2   6   2  277.19   11.86
  -2  -6  -2  290.58   15.28
   2   6   3   48.48    8.05
   2   6   3   54.66    5.41
   2   6   3   44.68    9.71
  -2  -6  -3   53.71    6.48
   2   6   4    8.07    3.69
  -2  -6  -4    2.20    1.80
   2   6   4    7.99    4.69
  -2  -6  -4    7.32    2.97
   2   6   5    0.44    2.04
  -2  -6  -5    0.45    1.67
   2   6   5   -1.31    3.18
  -2  -6  -5   -0.51    1.57
  -2  -6  -6    8.94    3.55
  -2  -6  -6   18.73    4.37
  -2  -6  -7   49.04    7.54
  -2  -6  -7   66.35    7.92
  -2  -6  -8  105.62   11.38
   2   6   8  107.66   19.12
  -2  -6  -8  115.66   10.78
   2   6   9   23.80   10.19
   2   7 -12   23.91    8.37
   2   7 -11   74.42   13.19
   2   7 -10   23.32    7.46
  -2  -7  10   43.48    9.18
   2   7 -10   30.02    6.61
   2   7  -9  211.41   19.90
  -2  -7   9  226.51   18.38
   2   7  -9  193.06   17.25
  -2  -7   8   17.94    5.92
   2   7  -8    7.26    4.28
   2   7  -8   10.40    4.44
  -2  -7   7  320.16   20.39
   2   7  -7  283.66   21.18
   2   7  -6   36.42    7.55
   2   7  -5  319.87   22.34
  -2  -7   5  310.60   11.08
  -2  -7   5  294.11   17.82
  -2  -7   5  286.15   15.56
   2   7  -4   29.51    6.98
  -2  -7   4   24.15    4.43
  -2  -7   4   17.16    3.82
   2   7  -3  197.95   17.34
  -2  -7   3  219.56   13.21
  -2  -7   3  181.25   11.40
   2   7  -2   83.12   11.26
  -2  -7   2   96.82    7.78
  -2  -7   2   90.81    8.49
  -2  -7   1  186.02   11.01
   2   7  -1  193.84   17.24
  -2  -7   1  185.35   12.37
   2   7   0  137.36   14.24
  -2  -7   0  122.29   10.10
   2   7   1 1231.53   48.08
  -2  -7  -1 1174.32   35.96
  -2  -7  -1 1193.52   38.29
   2   7   2  375.57   24.80
  -2  -7  -2  384.91   18.46
   2   7   2  381.12   29.89
  -2  -7  -2  416.15   20.01
   2   7   3  411.54   26.06
  -2  -7  -3  391.60   19.37
   2   7   3  363.51   30.58
  -2  -7  -3  438.18   20.94
   2   7   4    6.46    3.66
  -2  -7  -4   12.19    3.52
   2   7   4   22.45    8.12
  -2  -7  -4   16.74    4.05
  -2  -7  -5   18.44    4.44
   2   7   5   18.46    8.02
  -2  -7  -5   22.39    4.91
  -2  -7  -6    0.30    1.97
   2   7   6    0.28    3.44
  -2  -7  -6   -0.76    2.37
   2   7   7   93.59   18.49
  -2  -7  -7  103.90   10.79
   2   7   8   65.64   15.67
  -2  -7  -8  100.83   10.88
   2   8 -11  145.50   18.94
   2   8 -10  107.27   15.37
   2   8 -10   99.58   12.97
  -2  -8   9   86.26   12.31
   2   8  -9   54.00   10.35
   2   8  -9   66.36   10.75
  -2  -8   8    8.51    4.87
   2   8  -8    3.59    3.48
   2   8  -8    7.49    4.34
  -2  -8   7  204.40   16.75
   2   8  -7  150.36   16.21
   2   8  -6  117.90   14.11
  -2  -8   6   77.17    9.94
   2   8  -5  572.29   32.55
  -2  -8   5  598.78   27.45
   2   8  -4  427.92   27.60
  -2  -8   4  426.56   15.37
  -2  -8   4  402.60   20.29
  -2  -8   4  409.18   20.78
   2   8  -3  392.12   26.58
  -2  -8   3  399.07   15.77
  -2  -8   3  417.53   20.46
  -2  -8   3  408.67   19.27
   2   8  -2   57.16   10.00
  -2  -8   2   66.39    6.24
  -2  -8   2   51.43    6.22
  -2  -8   2   75.50    8.33
   2   8  -1  634.53   34.65
  -2  -8   1  652.72   23.63
  -2  -8   1  704.94   28.10
  -2  -8   0    2.49    1.97
   2   8   0    2.91    3.22
  -2  -8   0    2.31    1.62
  -2  -8  -1    2.79    2.10
   2   8   1    0.39    2.18
  -2  -8  -1    1.70    2.60
   2   8   2   45.40    9.10
  -2  -8  -2   47.34    6.52
   2   8   2   38.15   10.12
  -2  -8  -2   52.99    7.40
   2   8   3  410.94   28.07
  -2  -8  -3  458.13   22.05
  -2  -8  -3  464.00   23.30
  -2  -8  -4    1.43    2.06
   2   8   4    0.84    4.14
  -2  -8  -4    0.01    1.92
  -2  -8  -5   54.19    7.81
   2   8   5   53.27   12.95
  -2  -8  -5   66.52    8.71
   2   8   6   36.70   11.72
  -2  -8  -6   43.45    7.38
   2   8   7   18.44    9.27
   2   9  -9   13.70    5.57
   2   9  -8   47.48    9.60
  -2  -9   7   12.45    6.78
   2   9  -7   12.25    5.59
   2   9  -6    2.12    2.87
  -2  -9   6    1.46    2.25
   2   9  -5  154.84   17.11
  -2  -9   5  116.43   12.03
   2   9  -4   41.54    9.22
  -2  -9   4   35.91    6.29
   2   9  -3  208.04   20.13
  -2  -9   3  178.34   13.07
  -2  -9   2    4.56    2.10
   2   9  -2    4.97    3.42
  -2  -9   2    2.25    2.22
  -2  -9   2    6.16    3.05
  -2  -9   1   36.98    5.28
   2   9  -1   40.20    9.00
  -2  -9   1   38.97    6.67
  -2  -9   0    5.63    2.68
   2   9   0   -1.51    2.98
  -2  -9   0    2.39    1.84
   2   9   1  105.81   14.57
  -2  -9  -1  112.13   10.11
  -2  -9  -1  117.86   11.70
   2   9   2    2.94    4.25
  -2  -9  -2    4.16    2.33
   2   9   2    2.43    4.54
  -2  -9  -2    5.93    3.32
   2   9   2    5.31    3.79
   2   9   3   -0.92    2.97
  -2  -9  -3    1.66    2.39
   2   9   3    5.53    7.04
  -2  -9  -3    2.23    2.38
  -2  -9  -4   77.65    9.54
   2   9   4   54.96   13.68
   2   9   5  115.94   20.83
   2  10  -6   81.09   13.25
  -2 -10   6   63.00   10.10
   2  10  -5   74.16   12.87
  -2 -10   5   55.49    9.02
   2  10  -4   14.66    6.14
  -2 -10   4    1.40    2.02
   2  10  -3   70.02   12.68
  -2 -10   3   60.38    8.37
   2  10  -2   16.75    6.27
  -2 -10   2   15.73    4.42
  -2 -10   1   37.40    5.76
  -2 -10   1   41.27    6.91
  -2 -10   0   10.86    3.30
  -2 -10  -1    4.36    2.52
   2  10   1    7.76    4.44
  -2 -10  -2    5.44    3.20
   2  10   2    3.19    4.48
   2  10   3   13.17    8.29
   2  11   0  192.54   20.00
   3 -12  -3   12.07    6.04
  -3  12   3    5.43    6.10
   3 -11  -4   18.07    5.81
  -3  11   4    3.32    4.61
   3 -11  -3   48.43    8.27
  -3  11   3   55.61   11.91
   3 -11  -2    6.37    4.03
  -3  11   2   11.13    6.15
   3 -11  -1   67.40    8.92
  -3  11   1   90.83   14.89
  -3  11   0   33.14    9.21
   3 -11   0   49.66    8.01
   3 -11   1   49.17    8.00
  -3  11  -1   32.60    9.22
  -3  11  -2  133.05   18.11
   3 -11   2  131.62   13.25
   3 -11   3    3.96    3.56
   3 -11   3    1.34    2.41
  -3  11  -3    5.58    4.87
   3 -11   4  248.72   18.88
   3 -11   5   15.80    6.14
   3 -11   6   91.14   12.77
   3 -11   7    1.03    4.26
  -3  11  -7    1.27    3.70
   3 -10  -6   40.85    7.96
   3 -10  -5   11.16    4.98
  -3  10   5    9.09    7.60
  -3  10   5    1.69    4.21
   3 -10  -4  301.86   19.77
  -3  10   4  313.39   26.53
   3 -10  -3    9.65    5.53
  -3  10   3   -1.74    2.91
   3 -10  -2   42.93    7.20
  -3  10   2   17.46    6.65
  -3  10   1  437.45   31.75
   3 -10  -1  426.01   21.67
   3 -10   0   44.92    6.82
   3 -10   0   24.10    5.58
  -3  10   0   32.71    8.64
   3 -10   1  160.30   12.02
  -3  10  -1  130.65   16.94
   3 -10   1  146.68   12.89
   3 -10   1  135.52   10.51
   3 -10   2   49.62    7.25
   3 -10   2   43.57    7.25
  -3  10  -2   46.80   10.25
   3 -10   3   95.32   10.56
  -3  10  -3   94.46    9.05
  -3  10  -3   84.84   13.67
   3 -10   3   94.64   11.21
  -3  10  -4  172.30   13.32
   3 -10   4  187.09   15.42
  -3  10  -4  168.03   19.63
   3 -10   4  153.27   15.15
  -3  10  -5  405.68   22.16
   3 -10   5  364.11   23.53
  -3  10  -5  396.04   30.98
   3 -10   5  381.23   26.28
  -3  10  -6  132.54   12.93
   3 -10   6  145.27   15.22
  -3  10  -6  127.53   17.57
   3 -10   6  123.94   15.56
   3 -10   7  109.00   14.03
  -3  10  -7   97.13   11.72
   3 -10   8   52.40   10.22
   3  -9  -7   33.01    6.93
  -3   9   7   12.57    7.77
   3  -9  -6  172.75   14.94
  -3   9   6  160.56   24.09
  -3   9   6  145.19   16.78
   3  -9  -5   46.22    7.83
  -3   9   5   40.27   12.01
  -3   9   5   46.17    9.53
   3  -9  -4   11.00    5.08
  -3   9   4    5.34    3.54
   3  -9  -3    9.42    4.48
  -3   9   3   11.08    5.53
   3  -9  -2  319.58   18.16
  -3   9   2  322.39   25.22
  -3   9   1   81.56   12.38
   3  -9  -1   84.50    8.74
  -3   9   0  798.29   24.44
  -3   9   0  774.57   40.76
   3  -9   0  811.26   29.05
   3  -9   1   21.00    4.70
  -3   9  -1   11.52    2.66
   3  -9   1   14.06    3.75
   3  -9   1   13.75    3.90
  -3   9  -1    9.25    4.54
  -3   9  -2    6.76    2.33
   3  -9   2    3.96    1.69
   3  -9   2    9.15    3.76
  -3   9  -2    7.28    4.02
  -3   9  -3  149.25   11.40
   3  -9   3  140.94   11.97
  -3   9  -3  145.77   16.96
   3  -9   3  148.50   13.17
   3  -9   4   17.79    4.95
  -3   9  -4   19.62    4.47
   3  -9   4   12.36    3.90
  -3   9  -4   17.80    6.11
  -3   9  -5  123.50   11.69
   3  -9   5  113.38   12.25
  -3   9  -5  119.15   15.77
   3  -9   5  112.01   13.13
  -3   9  -6  115.84   11.97
   3  -9   6  100.93   12.25
   3  -9   6  102.22   13.37
  -3   9  -6   96.20   14.30
   3  -9   7   46.19    8.73
  -3   9  -7   70.18   10.07
  -3   9  -7   67.47   12.16
  -3   9  -8   64.29   10.04
   3  -9   8   69.02   11.81
  -3   9  -8   54.80   11.36
  -3   9  -9  134.36   18.21
   3  -9   9  128.96   16.58
   3  -8  -9   70.13   10.25
  -3   8   9   67.05   16.94
   3  -8  -8   27.37    6.22
  -3   8   8   16.62    7.59
   3  -8  -7   15.08    4.80
  -3   8   7    6.76    5.68
  -3   8   7   13.74    5.19
   3  -8  -6   17.07    5.03
  -3   8   6    4.37    5.16
  -3   8   6    6.07    3.73
   3  -8  -5   11.84    4.57
  -3   8   5    5.08    4.13
  -3   8   5    7.13    4.37
   3  -8  -4   27.74    5.52
  -3   8   4   31.56    7.37
   3  -8  -3   27.37    5.60
  -3   8   3   20.68    6.07
  -3   8   2   42.67    3.01
   3  -8  -2   52.32    7.17
  -3   8   2   35.93    8.04
  -3   8   1  100.79    6.33
  -3   8   1  122.91   14.51
   3  -8  -1  113.18    9.55
  -3   8   0  604.27   20.54
  -3   8   0  594.00   32.92
   3  -8   0  607.65   23.16
  -3   8  -1  222.73   12.25
   3  -8   1  231.18   12.79
  -3   8  -1  201.11   18.64
   3  -8   1  217.67    9.27
   3  -8   1  223.26   14.00
   3  -8   1  228.87   12.37
  -3   8  -2  759.82   21.69
  -3   8  -2  724.42   26.51
   3  -8   2  719.14   26.48
  -3   8  -2  652.55   35.36
   3  -8   2  698.83   20.81
   3  -8   2  677.83   23.19
   3  -8   2  755.98   28.88
  -3   8  -3   33.56    5.39
   3  -8   3   36.69    5.76
   3  -8   3   34.98    4.05
   3  -8   3   33.28    5.99
  -3   8  -3   29.24    7.68
  -3   8  -4  255.57   16.28
   3  -8   4  257.36   16.72
  -3   8  -4  237.17   20.81
   3  -8   4  251.25   12.30
   3  -8   4  260.65   18.25
  -3   8  -5  142.36   12.56
   3  -8   5  120.47   11.93
   3  -8   5  142.47    9.68
  -3   8  -5  119.70   14.88
   3  -8   5  137.37   13.96
   3  -8   6  167.50   15.24
  -3   8  -6  170.28   14.47
  -3   8  -6  178.45   18.35
  -3   8  -7    9.53    4.05
   3  -8   7   15.51    5.05
  -3   8  -7    8.41    4.10
  -3   8  -8   74.25   10.18
   3  -8   8   77.19   11.76
  -3   8  -8   88.88   13.43
   3  -8   9  128.14   16.35
  -3   8  -9  143.19   14.93
  -3   8  -9  102.71   14.98
  -3   8 -10  191.31   21.06
   3  -7 -10   69.61   10.06
  -3   7  10   61.11   15.80
   3  -7  -9    7.19    4.33
  -3   7   9    1.47    5.20
   3  -7  -8  474.63   24.59
  -3   7   8  450.22   39.69
   3  -7  -7   22.35    5.52
  -3   7   7   15.85    7.89
  -3   7   7   24.38    6.10
   3  -7  -6  225.72   15.28
  -3   7   6  201.25   23.92
  -3   7   6  199.65   17.50
   3  -7  -5   47.45    6.85
  -3   7   5   57.68   12.47
  -3   7   5   48.82    8.77
   3  -7  -4   39.83    6.52
  -3   7   4   50.17    8.77
  -3   7   3   28.29    1.92
  -3   7   3   20.51    5.64
  -3   7   2  593.26   17.23
  -3   7   2  605.58   31.42
   3  -7  -2  609.29   23.78
  -3   7   1  249.21   11.25
  -3   7   1  270.58   20.34
   3  -7  -1  276.87   14.52
  -3   7   0  169.34    9.83
   3  -7   0  159.56    9.26
  -3   7   0  135.44   14.26
   3  -7   0  159.72   10.27
  -3   7  -1 1080.61   28.20
  -3   7  -1  988.93   31.37
   3  -7   1  956.46   29.59
  -3   7  -1  956.58   41.26
   3  -7   1 1074.31   33.07
   3  -7   1  967.10   29.48
  -3   7  -2    4.27    1.52
  -3   7  -2    4.74    2.35
   3  -7   2    5.72    3.32
   3  -7   2    4.54    1.65
   3  -7   2    7.46    3.17
  -3   7  -2    5.32    3.25
  -3   7  -3   48.57    3.99
   3  -7   3   39.78    5.82
  -3   7  -3   53.39    6.86
   3  -7   3   49.87    5.05
   3  -7   3   45.39    6.59
  -3   7  -3   42.16    8.02
  -3   7  -4 1200.81   40.14
   3  -7   4 1128.74   39.11
   3  -7   4 1220.80   34.30
  -3   7  -4 1134.76   46.67
   3  -7   4 1151.74   41.78
  -3   7  -5    3.91    2.41
   3  -7   5   -0.83    2.84
   3  -7   5    3.55    2.01
   3  -7   5   -0.81    3.09
  -3   7  -5    0.41    2.01
   3  -7   6   91.09   11.05
  -3   7  -6  101.95   11.15
   3  -7   6  101.56    8.93
  -3   7  -6   80.18   11.76
  -3   7  -7    0.27    2.09
   3  -7   7    6.80    4.37
   3  -7   7    0.67    1.28
  -3   7  -7    0.37    2.55
  -3   7  -8    2.23    2.27
   3  -7   8    8.11    4.54
  -3   7  -8    3.70    3.43
   3  -7   9  120.28   15.53
  -3   7  -9   98.46   12.58
  -3   7  -9  106.64   14.61
   3  -7  10    6.17    5.97
  -3   7 -10    3.79    3.78
   3  -6 -11   23.57    6.35
  -3   6  11   20.24    9.37
   3  -6 -11   17.28    6.24
   3  -6 -10   15.27    5.07
  -3   6  10    3.88    5.78
   3  -6 -10    9.15    4.27
   3  -6  -9   27.74    6.34
  -3   6   9   15.94    7.46
   3  -6  -8  201.67   14.90
  -3   6   8  200.20   25.15
  -3   6   8  199.56   15.96
   3  -6  -7   15.13    4.57
  -3   6   7   13.16    6.81
  -3   6   7    9.70    3.58
   3  -6  -6  497.12   22.57
  -3   6   6  469.46   35.23
  -3   6   6  477.67   26.66
   3  -6  -6  512.68   21.83
   3  -6  -5   93.54    9.17
  -3   6   5   93.83   11.31
  -3   6   5   76.74   13.24
   3  -6  -4  574.98   23.22
  -3   6   4  573.70   29.47
   3  -6  -3   14.33    4.24
  -3   6   3   -0.01    2.00
  -3   6   2 1100.06   42.86
   3  -6  -2 1123.93   33.97
  -3   6   1  289.01   19.71
   3  -6  -1  278.88   13.83
  -3   6   0  810.88   23.35
   3  -6   0  745.24   22.09
  -3   6   0  772.75   34.09
   3  -6   0  746.61   24.42
  -3   6  -1  293.52   11.87
   3  -6   1  286.65   12.84
  -3   6  -1  292.29   19.88
   3  -6   1  270.17   12.47
   3  -6   1  307.93   14.53
  -3   6  -2   11.60    2.15
   3  -6   2   14.21    3.23
   3  -6   2   15.33    2.78
   3  -6   2   12.50    3.17
  -3   6  -2   11.46    4.14
  -3   6  -3  444.85   14.60
   3  -6   3  438.77   19.66
  -3   6  -3  466.37   26.01
   3  -6   3  442.10   17.45
   3  -6   3  441.19   20.93
  -3   6  -4  209.03    8.72
   3  -6   4  182.52   13.20
  -3   6  -4  191.96   13.90
  -3   6  -4  188.56   16.33
   3  -6   4  189.53   11.25
   3  -6   4  182.71   14.14
  -3   6  -5  158.58    7.24
   3  -6   5  123.82   11.79
  -3   6  -5  147.51   12.76
   3  -6   5  152.38   10.60
  -3   6  -5  155.89   15.03
   3  -6   6  123.74   12.77
  -3   6  -6  147.38   13.16
  -3   6  -6  134.88   14.23
   3  -6   6  138.70   10.76
  -3   6  -7   18.37    5.34
   3  -6   7   16.24    5.06
   3  -6   7   21.02    4.47
  -3   6  -7   21.70    6.07
  -3   6  -8   93.33   12.45
   3  -6   8  101.79   10.27
   3  -6   8  108.24   13.48
  -3   6  -8  123.03   13.18
  -3   6  -9  178.12   17.90
   3  -6   9  160.54   17.79
  -3   6  -9  188.95   16.97
  -3   6 -10  163.47   17.45
  -3   6 -10  165.38   16.66
   3  -6  10  166.53   19.32
   3  -5 -12  327.32   22.10
   3  -5 -11   10.66    4.72
  -3   5  11    3.54    5.66
   3  -5 -11    4.86    3.26
   3  -5 -10    4.44    3.55
  -3   5  10    1.10    2.93
   3  -5 -10    4.65    3.80
   3  -5  -9    4.03    3.28
  -3   5   9    0.02    3.80
   3  -5  -9    2.26    3.36
   3  -5  -8  110.29   10.47
  -3   5   8  112.36   11.44
  -3   5   8  138.91   19.73
   3  -5  -7  322.07   17.83
  -3   5   7  351.23   29.86
  -3   5   7  332.82   20.52
   3  -5  -7  319.50   16.55
  -3   5   7  327.21   12.42
   3  -5  -6   67.79    7.68
   3  -5  -6   80.32    7.29
  -3   5   6   74.70    4.75
  -3   5   6   76.38    9.64
  -3   5   6   51.26   10.96
   3  -5  -5   80.00    7.80
   3  -5  -5   73.50    6.40
  -3   5   5   70.03    4.29
  -3   5   5   66.82   11.66
  -3   5   5   52.71    8.14
   3  -5  -4  228.64   13.13
  -3   5   4  204.09   16.03
  -3   5   4  232.22   20.64
  -3   5   3   41.13    7.03
   3  -5  -3   50.05    6.10
  -3   5   2  553.86   27.13
   3  -5  -2  556.55   20.63
  -3   5   1  224.43   10.57
   3  -5  -1  228.21    8.28
  -3   5   1  203.95   15.62
   3  -5  -1  215.95   11.33
  -3   5   0  816.46   23.23
   3  -5   0  765.96   21.27
  -3   5   0  766.39   32.57
   3  -5   0  743.44   23.65
  -3   5  -1  270.55   11.36
   3  -5   1  247.64   11.29
  -3   5  -1  254.55   17.56
   3  -5   1  266.05   12.63
   3  -5   2  306.59   16.37
  -3   5  -2  363.13   13.25
   3  -5   2  321.05   14.74
  -3   5  -2  325.19   20.20
   3  -5   2  331.50   15.55
   3  -5   3  177.91   11.77
   3  -5   3  181.94   11.79
  -3   5  -3  148.59   13.48
   3  -5   3  185.05   10.83
  -3   5  -3  198.04    9.10
   3  -5   3  187.48   12.58
   3  -5   4 1210.43   36.83
   3  -5   4 1204.35   39.65
  -3   5  -4 1194.21   43.90
   3  -5   4 1232.42   35.87
  -3   5  -4 1253.92   30.97
   3  -5   4 1121.06   40.14
   3  -5   5  189.27   11.66
   3  -5   5  175.34   13.92
  -3   5  -5  194.89   15.89
   3  -5   5  201.13   12.42
  -3   5  -5  184.11    8.66
   3  -5   6   15.74    3.32
  -3   5  -6    9.86    1.81
  -3   5  -6   16.82    4.71
   3  -5   6   21.61    5.36
   3  -5   6   22.06    4.31
  -3   5  -6   16.06    4.48
   3  -5   7   81.93    6.97
   3  -5   7   98.91   11.96
  -3   5  -7   88.70   10.64
   3  -5   7   95.27    9.51
  -3   5  -7   93.24   11.45
   3  -5   8   58.01    9.96
  -3   5  -8   69.02   10.11
   3  -5   8   75.59    8.89
  -3   5  -8   77.00   10.75
  -3   5  -9    8.74    4.39
   3  -5   9    9.77    4.86
   3  -5   9   10.52    3.95
  -3   5  -9   11.59    4.94
  -3   5 -10  167.09   16.85
   3  -5  10  167.95   19.29
  -3   5 -10  171.55   16.66
   3  -5  11    3.94    4.16
   3  -4 -13  128.53   13.35
   3  -4 -12    4.48    4.32
  -3   4  12    0.01    4.13
  -3   4  11    2.86    3.46
   3  -4 -11    5.67    4.08
   3  -4 -10  120.62   11.38
   3  -4 -10  105.14   12.69
  -3   4  10   90.23   16.85
   3  -4  -9    3.64    3.61
   3  -4  -9    3.48    2.49
  -3   4   9   -2.62    3.40
   3  -4  -8   94.02    9.45
   3  -4  -8   87.68   10.90
  -3   4   8   70.60    6.40
  -3   4   8   99.74   17.81
   3  -4  -8   71.42    8.17
  -3   4   8   83.49    6.12
   3  -4  -7  164.59   14.48
   3  -4  -7  183.85   12.33
  -3   4   7  150.64    8.57
   3  -4  -7  145.83    9.80
  -3   4   7  132.43   12.17
   3  -4  -7  172.07   12.80
  -3   4   7  132.29   17.58
  -3   4   7  157.38    8.75
   3  -4  -6    8.43    3.93
  -3   4   6    3.22    1.28
   3  -4  -6   -0.42    1.84
  -3   4   6    3.54    3.33
  -3   4   6    1.55    1.79
  -3   4   6    1.21    1.08
   3  -4  -6    3.14    2.36
   3  -4  -5   92.33    8.19
   3  -4  -5   77.78    5.82
  -3   4   5   88.19    5.45
   3  -4  -5   94.57    9.50
  -3   4   5   80.25   11.89
  -3   4   5   74.37    9.08
   3  -4  -4   12.75    3.81
   3  -4  -4   10.10    1.77
  -3   4   4    4.68    3.43
   3  -4  -4    9.10    3.22
  -3   4   4    7.41    2.98
   3  -4  -3 1768.99   37.71
   3  -4  -3 1814.62   51.94
  -3   4   3 1680.14   53.64
   3  -4  -3 1703.55   45.22
  -3   4   2    7.48    2.02
   3  -4  -2   11.14    3.04
  -3   4   2    9.48    3.37
   3  -4  -2    6.16    2.41
  -3   4   1 3260.49   69.65
   3  -4  -1 3062.91   62.92
  -3   4   1 3001.29   80.43
   3  -4  -1 3240.84   78.76
   3  -4  -1 3127.24   70.06
  -3   4   0  522.87   17.15
   3  -4   0  450.37   14.28
  -3   4   0  457.20   23.03
   3  -4   0  481.05   21.70
   3  -4   1    1.40    1.12
  -3   4  -1    3.90    1.72
   3  -4   1    3.30    1.55
  -3   4  -1    0.74    1.61
   3  -4   1    1.20    1.13
   3  -4   2  512.83   19.78
  -3   4  -2  609.59   18.62
  -3   4  -2  536.59   25.49
  -3   4  -2  553.98   17.85
   3  -4   2  540.17   20.49
  -3   4  -3    8.90    1.75
  -3   4  -3   14.58    3.24
   3  -4   3    9.14    2.77
   3  -4   3   11.93    2.82
   3  -4   3   11.63    3.18
  -3   4  -3    7.35    3.15
   3  -4   4   73.87    6.56
  -3   4  -4   67.43    8.70
   3  -4   4   85.87    7.64
   3  -4   4   83.21    8.67
   3  -4   5   77.36    6.21
   3  -4   5   66.47    6.26
   3  -4   5   89.36    9.88
  -3   4  -5   75.33    9.33
   3  -4   5   76.06    7.58
   3  -4   6    3.00    1.49
   3  -4   6    1.51    2.23
   3  -4   6    3.70    1.44
   3  -4   6    5.47    2.35
  -3   4  -6    4.54    2.94
   3  -4   7   69.21    4.33
  -3   4  -7   83.85   10.22
   3  -4   7   79.35    8.80
   3  -4   7   75.61   10.50
  -3   4  -7   75.66    9.51
  -3   4  -8  333.32   21.57
   3  -4   8  367.70   20.32
   3  -4   8  307.26   23.38
  -3   4  -8  370.28   23.01
  -3   4  -9   83.25   10.71
   3  -4   9   92.13   10.32
  -3   4  -9   83.86   11.33
   3  -4   9   86.47   12.96
  -3   4 -10  101.74   13.00
  -3   4 -10   73.85   13.24
  -3   4 -11    9.70    4.85
  -3   4 -11    5.60    4.79
   3  -3 -14    4.09    3.60
   3  -3 -13  103.05   11.75
  -3   3  13  101.80   18.93
   3  -3 -12   40.95    7.88
  -3   3  12   23.51    9.29
   3  -3 -11    8.93    4.76
  -3   3  11    9.18    5.83
   3  -3 -11    8.48    3.80
   3  -3 -10    5.52    3.14
  -3   3  10    4.12    4.76
   3  -3 -10    3.11    3.09
   3  -3  -9 1290.33   41.43
   3  -3  -9 1384.20   48.54
  -3   3   9 1381.27   63.41
   3  -3  -9 1313.98   44.17
   3  -3  -8  938.17   32.16
   3  -3  -8 1031.34   39.23
  -3   3   8  957.11   29.79
   3  -3  -8  926.08   35.46
  -3   3   8  933.93   48.98
  -3   3   8  914.59   25.01
   3  -3  -7  876.66   29.85
   3  -3  -7  915.85   35.96
  -3   3   7  900.52   26.78
   3  -3  -7  848.07   26.81
  -3   3   7  878.74   44.80
   3  -3  -7  895.29   33.91
  -3   3   7  858.23   23.93
   3  -3  -6   96.95    8.37
   3  -3  -6   82.10    9.41
   3  -3  -6   81.69    6.14
  -3   3   6   92.70    6.51
  -3   3   6   90.36    9.69
  -3   3   6   80.41   11.85
   3  -3  -6   84.68    9.18
   3  -3  -5  337.47   18.96
   3  -3  -5  298.21   11.23
  -3   3   5  291.17   21.54
  -3   3   5  307.11   18.52
   3  -3  -5  334.60   18.60
   3  -3  -5  339.19   15.33
   3  -3  -4 1792.00   51.98
  -3   3   4 1768.49   43.43
   3  -3  -4 1692.56   37.17
  -3   3   4 1798.84   57.54
  -3   3   4 1722.11   52.50
   3  -3  -4 1846.11   52.56
   3  -3  -4 1733.55   44.90
  -3   3   3  201.11   10.21
  -3   3   3  243.61   16.77
  -3   3   3  214.77   15.13
   3  -3  -3  221.15   14.58
   3  -3  -3  185.77   10.49
  -3   3   2  109.51    7.31
   3  -3  -2  113.74   10.16
  -3   3   2  104.03   10.16
   3  -3  -2  108.60    7.36
   3  -3  -1 1832.83   51.26
  -3   3   1 1668.91   51.16
  -3   3   1 1759.63   42.63
   3  -3  -1 1733.51   42.69
  -3   3   0    4.76    1.23
   3  -3   0    6.06    1.43
  -3   3   0    5.31    2.02
   3  -3   0    7.62    1.91
   3  -3   0    3.19    1.72
  -3   3   0    5.33    2.79
   3  -3   1   31.32    3.80
  -3   3  -1   44.41    3.91
  -3   3  -1   36.82    5.90
  -3   3  -1   37.63    3.89
   3  -3   1   32.72    5.18
   3  -3   1   35.12    3.85
   3  -3   2  161.82   10.47
   3  -3   2  157.41   10.01
  -3   3  -2  171.51    9.38
   3  -3   2  165.04   11.51
  -3   3  -2  193.04   13.63
  -3   3  -2  202.76    9.59
   3  -3   2  184.16   10.79
   3  -3   3   81.51    7.16
   3  -3   3   88.90    8.32
  -3   3  -3   59.04    6.18
  -3   3  -3   82.97    9.10
   3  -3   3   64.90    7.06
   3  -3   3   69.02    6.86
  -3   3  -3   66.43    5.93
   3  -3   4  446.00   17.28
   3  -3   4  456.06   21.75
  -3   3  -4  497.95   20.51
  -3   3  -4  436.96   22.08
   3  -3   4  473.31   19.89
   3  -3   4  481.31   20.27
  -3   3  -4  475.18   24.48
   3  -3   5   11.21    2.07
   3  -3   5   14.40    4.11
   3  -3   5   12.99    2.35
   3  -3   5   13.69    3.33
  -3   3  -5   10.50    3.34
   3  -3   6   25.74    2.43
   3  -3   6   23.99    2.38
   3  -3   6   37.67    7.35
   3  -3   6   32.81    5.48
  -3   3  -6   40.14    6.65
   3  -3   7   45.48    8.26
   3  -3   7   48.35    6.85
  -3   3  -7   44.41    7.09
  -3   3  -7   38.72    5.80
  -3   3  -8  112.51   12.33
   3  -3   8  116.88   11.28
  -3   3  -8   99.82   10.90
  -3   3  -8  102.11    9.61
  -3   3  -9    8.15    4.25
  -3   3  -9    3.33    3.58
   3  -3   9    9.11    3.83
  -3   3  -9    9.92    3.78
  -3   3  -9    2.58    2.35
  -3   3 -10  100.33   12.53
  -3   3 -10   92.63   14.67
  -3   3 -11   33.06    9.74
  -3   3 -11   47.61    8.97
   3  -2 -14  112.26   12.31
   3  -2 -13   62.53    9.05
  -3   2  13   63.24   14.78
  -3   2  12  108.76   18.20
   3  -2 -12   99.76   10.61
   3  -2 -11   38.44    6.70
  -3   2  11   24.26    7.73
   3  -2 -11   20.34    4.97
   3  -2 -10   58.73    7.68
   3  -2 -10   48.07    7.68
  -3   2  10   39.84   10.24
   3  -2  -9    0.68    1.81
  -3   2   9    3.25    4.15
   3  -2  -9    0.89    1.74
  -3   2   9    0.55    0.61
   3  -2  -8  253.70   17.07
  -3   2   8  252.25   15.74
   3  -2  -8  242.71   16.74
  -3   2   8  235.01   22.24
   3  -2  -8  250.28   14.22
  -3   2   8  240.17    8.97
   3  -2  -7  420.04   21.90
  -3   2   7  400.79   18.85
   3  -2  -7  384.71   15.77
  -3   2   7  371.58   16.15
  -3   2   7  414.61   28.09
   3  -2  -7  417.15   22.08
   3  -2  -7  400.67   17.90
   3  -2  -6  772.80   30.87
  -3   2   6  856.18   24.94
  -3   2   6  715.10   25.03
   3  -2  -6  733.87   22.00
  -3   2   6  765.49   37.08
   3  -2  -6  765.11   31.00
   3  -2  -6  762.69   25.73
  -3   2   5  213.92   10.69
   3  -2  -5  219.98   14.80
  -3   2   5  213.67   10.30
  -3   2   5  242.96   16.28
   3  -2  -5  202.38    8.60
  -3   2   5  198.76   14.35
   3  -2  -5  215.59   16.71
  -3   2   5  216.36   17.04
   3  -2  -5  193.13   14.15
   3  -2  -5  237.75   11.94
  -3   2   4  873.58   25.73
   3  -2  -4  887.84   32.07
  -3   2   4  875.26   22.79
  -3   2   4  891.30   35.01
  -3   2   4  851.49   32.74
   3  -2  -4  883.64   32.96
   3  -2  -4  898.41   26.53
  -3   2   3 1475.47   37.77
   3  -2  -3 1474.89   44.33
  -3   2   3 1482.95   31.47
  -3   2   3 1521.96   45.58
  -3   2   3 1432.00   45.66
   3  -2  -3 1480.59   45.72
   3  -2  -3 1523.08   38.20
   3  -2  -2 3349.64   81.83
  -3   2   2 3411.00   84.83
   3  -2  -2 3404.51   84.47
  -3   2   2 3552.10   75.25
   3  -2  -2 3364.08   74.95
   3  -2  -1  748.17   27.20
  -3   2   1  778.83   18.67
  -3   2   1  806.70   30.16
   3  -2  -1  780.52   29.37
  -3   2   1  811.79   23.23
   3  -2   0 4345.52   99.66
  -3   2   0 4575.72   92.04
  -3   2   0 4422.60  104.01
   3  -2   0 4408.32  103.11
   3  -2   0 4427.20   90.83
  -3   2  -1    4.20    1.42
   3  -2   1   12.36    3.12
   3  -2   1    2.78    1.21
  -3   2  -1    9.16    1.90
  -3   2  -1    3.53    2.07
   3  -2   1    4.02    1.93
   3  -2   2  252.76   12.71
  -3   2  -2  272.68   13.19
   3  -2   2  251.77   14.12
  -3   2  -2  245.35   15.05
  -3   2  -2  263.97   11.14
   3  -2   3  350.23   14.52
  -3   2  -3  376.73   17.35
   3  -2   3  362.47   16.51
  -3   2  -3  392.34   19.49
   3  -2   3  360.75   16.84
  -3   2  -3  370.87   18.86
  -3   2  -3  357.69   15.23
   3  -2   4  800.31   23.07
   3  -2   4  855.67   27.51
   3  -2   4  825.42   28.59
  -3   2  -4  791.53   30.27
  -3   2  -4  825.96   33.98
   3  -2   5    1.93    0.84
   3  -2   5    1.19    1.12
  -3   2  -5    2.43    1.41
  -3   2  -5    0.84    1.31
  -3   2  -6  580.31   25.28
   3  -2   6  591.64   24.91
  -3   2  -6  587.80   24.53
   3  -2   7    3.28    2.59
  -3   2  -7    3.49    2.09
  -3   2  -7    0.75    1.50
  -3   2  -8  228.57   20.02
   3  -2   8  266.10   17.32
  -3   2  -8  209.21   14.64
  -3   2  -8  211.10   13.64
  -3   2  -9   89.45   11.35
  -3   2  -9   88.44   13.44
   3  -2   9   92.50   10.61
  -3   2  -9   84.77    8.20
  -3   2 -10    8.08    2.71
  -3   2 -10   14.21    6.79
  -3   2 -10    9.93    4.52
  -3   2 -11    2.06    3.34
  -3   2 -11    4.76    3.92
   3  -1 -13   21.34    5.33
  -3   1  13    5.31    5.20
   3  -1 -12   61.59    8.20
  -3   1  12   77.86   14.54
  -3   1  12   68.49   11.17
  -3   1  11    0.77    2.77
  -3   1  11    1.05    2.13
   3  -1 -11    6.29    3.15
   3  -1 -10   29.52    5.58
  -3   1  10   30.53    6.35
   3  -1 -10   23.09    4.98
  -3   1  10   35.35    8.95
   3  -1  -9  719.73   30.11
  -3   1   9  653.72   29.94
  -3   1   9  696.66   39.56
  -3   1   9  689.90   17.83
   3  -1  -9  767.60   26.94
  -3   1   9  730.87   16.17
   3  -1  -8  631.38   27.48
  -3   1   8  622.90   26.48
  -3   1   8  699.57   36.84
   3  -1  -8  616.63   29.40
   3  -1  -8  641.03   23.64
   3  -1  -7  331.49   18.80
  -3   1   7  354.74   17.21
   3  -1  -7  343.78   14.30
  -3   1   7  334.11   23.40
   3  -1  -7  318.48   19.87
   3  -1  -7  318.72   15.04
   3  -1  -6 1900.80   53.87
  -3   1   6 1833.60   45.28
  -3   1   6 1835.59   47.01
  -3   1   6 1861.64   46.83
  -3   1   6 1876.57   60.52
   3  -1  -6 1669.91   59.02
   3  -1  -6 1821.14   55.67
   3  -1  -6 1871.83   46.83
   3  -1  -5  170.09   12.35
  -3   1   5  174.59    9.35
  -3   1   5  149.32   11.74
  -3   1   5  180.35   13.42
  -3   1   5  159.39    8.57
  -3   1   5  166.24   13.90
   3  -1  -5  146.24   13.03
   3  -1  -5  167.32   13.29
   3  -1  -5  173.99    9.72
   3  -1  -4 2828.83   69.03
  -3   1   4 2657.59   68.53
  -3   1   4 2768.51   69.08
  -3   1   4 2598.13   57.71
  -3   1   4 2815.19   71.01
   3  -1  -4 2601.01   69.34
   3  -1  -4 2707.07   71.54
   3  -1  -4 2786.05   61.84
  -3   1   4 2612.00   61.12
   3  -1  -3 1874.25   50.60
  -3   1   3 1791.92   50.68
  -3   1   3 1802.46   52.35
  -3   1   3 1881.92   49.30
   3  -1  -3 1736.26   52.29
  -3   1   3 1841.77   44.05
   3  -1  -2 1985.11   53.51
  -3   1   2 2088.22   54.71
  -3   1   2 2018.15   56.39
  -3   1   2 2063.60   49.32
   3  -1  -2 2011.00   56.47
  -3   1   2 2066.74   48.05
   3  -1  -1    8.18    2.36
  -3   1   1   11.79    2.93
  -3   1   1    7.18    2.51
   3  -1  -1   11.00    1.33
   3  -1  -1   12.35    3.41
   3  -1   0 3358.86   78.49
  -3   1   0 3490.38   79.75
  -3   1   0 3576.73   83.86
   3  -1   0 3456.60   82.67
   3  -1   0 3350.45   70.88
   3  -1   1  515.93   19.11
  -3   1  -1  508.17   19.75
  -3   1  -1  505.31   22.03
   3  -1   1  504.11   21.52
  -3   1  -1  540.28   17.65
  -3   1  -1  508.60   15.20
   3  -1   2  945.60   27.84
  -3   1  -2  964.49   29.00
  -3   1  -2  962.08   31.07
  -3   1  -2  961.75   30.63
   3  -1   2  963.29   31.44
  -3   1  -2  961.09   32.62
  -3   1  -2  951.96   26.91
  -3   1  -3   28.69    3.86
  -3   1  -3   21.45    4.20
   3  -1   3   22.05    2.98
  -3   1  -3   24.29    4.83
   3  -1   3   20.44    3.84
   3  -1   3   22.57    3.86
  -3   1  -3   24.86    4.33
  -3   1  -3   22.97    4.33
  -3   1  -3   19.60    3.32
   3  -1   4  418.50   14.00
  -3   1  -4  400.58   23.01
   3  -1   4  443.62   19.43
  -3   1  -4  424.41   19.67
   3  -1   4  435.54   17.56
  -3   1  -4  427.96   19.73
   3  -1   5    0.47    0.93
   3  -1   5    1.48    1.31
  -3   1  -5    1.33    1.54
  -3   1  -5    2.26    1.83
   3  -1   5    1.89    1.49
  -3   1  -6  282.13   15.36
   3  -1   6  266.24   15.99
  -3   1  -6  275.50   15.67
  -3   1  -7    7.53    3.46
   3  -1   7    9.31    3.37
  -3   1  -7    8.90    2.85
  -3   1  -7    6.10    2.21
  -3   1  -8  257.83   21.12
   3  -1   8  290.10   18.46
  -3   1  -8  255.30   14.79
  -3   1  -9  228.11   17.86
  -3   1  -9  196.23   19.41
   3  -1   9  190.26   15.55
  -3   1  -9  199.55   12.60
  -3   1 -10   55.25    9.03
  -3   1 -10   46.13   10.24
  -3   1 -10   41.38    5.77
  -3   1 -11   31.78    7.33
  -3   1 -11   24.17    4.72
  -3   0  14    1.08    2.85
  -3   0  13  173.45   18.59
   3   0 -13  178.70   21.59
  -3   0  13  179.85   22.68
   3   0 -13  188.67   13.70
   3   0 -12   49.28    6.81
  -3   0  12   43.53   10.57
  -3   0  12   55.37   10.11
   3   0 -12   45.59   10.65
   3   0 -11   20.51    4.51
  -3   0  11   21.63    7.47
   3   0 -11   11.28    4.84
  -3   0  11   25.20    6.44
   3   0 -11   15.03    3.80
   3   0 -10   44.76    5.89
  -3   0  10   49.34    8.13
   3   0 -10   41.76    6.36
   3   0 -10   47.51    9.50
  -3   0  10   44.71    9.87
   3   0  -9   54.52    7.25
  -3   0   9   61.20    8.51
   3   0  -9   46.90    8.87
  -3   0   9   64.55   10.83
   3   0  -9   53.24    6.18
   3   0  -8 1203.00   39.67
  -3   0   8 1169.48   38.80
   3   0  -8 1159.15   45.61
  -3   0   8 1165.63   47.87
  -3   0   8 1177.76   26.62
   3   0  -8 1191.31   34.35
   3   0  -7  609.61   25.36
  -3   0   7  563.71   19.15
  -3   0   7  582.05   25.96
   3   0  -7  553.96   27.74
  -3   0   7  589.48   22.78
  -3   0   7  598.25   30.13
  -3   0   7  566.63   17.10
   3   0  -7  580.16   20.44
   3   0  -6  231.86   14.55
  -3   0   6  171.73    9.43
  -3   0   6  183.39   13.53
   3   0  -6  202.56   14.87
  -3   0   6  198.95   14.49
  -3   0   6  191.75   10.88
  -3   0   6  226.07   16.30
   3   0  -6  221.67   15.94
   3   0  -6  193.30   16.40
  -3   0   6  207.27    9.74
   3   0  -6  179.38    9.97
   3   0  -5  369.24   18.40
  -3   0   5  372.55   19.32
  -3   0   5  387.15   19.21
  -3   0   5  374.57   14.28
  -3   0   5  353.88   18.93
   3   0  -5  397.04   21.25
   3   0  -5  364.21   20.59
  -3   0   5  370.74   14.61
   3   0  -5  363.03   14.59
  -3   0   5  372.43   14.50
   3   0  -4 2546.07   64.02
  -3   0   4 2396.23   64.56
  -3   0   4 2570.90   63.30
  -3   0   4 2550.40   62.68
   3   0  -4 2507.67   67.74
   3   0  -4 2375.59   63.76
  -3   0   4 2478.45   56.76
  -3   0   4 2499.95   58.54
  -3   0   3    2.45    1.19
  -3   0   3    6.34    2.68
  -3   0   3   10.55    2.85
   3   0  -3   12.63    3.40
   3   0  -3    9.53    3.31
  -3   0   3    8.59    2.16
   3   0  -3    7.83    2.29
  -3   0   3   11.61    2.84
   3   0  -2  816.05   28.09
  -3   0   2  835.47   29.10
   3   0  -2  802.35   30.78
  -3   0   2  881.52   20.73
  -3   0   2  833.48   26.79
   3   0  -1  330.35   15.38
  -3   0   1  347.62   16.37
   3   0  -1  314.69   17.20
  -3   0   1  319.68   15.04
   3   0   0  176.15   10.39
  -3   0   0  172.03   10.95
  -3   0   0  205.96   13.00
   3   0   0  180.39   12.37
  -3   0   0  193.11   11.77
   3   0   1   92.71    7.01
  -3   0  -1   97.52    7.87
  -3   0  -1  107.24    9.00
  -3   0  -1   90.46    6.51
   3   0   1   97.36    8.68
  -3   0  -1  105.34    8.60
  -3   0  -2   32.06    4.33
   3   0   2   37.94    4.24
  -3   0  -2   28.96    4.65
  -3   0  -2   19.18    3.95
   3   0   2   30.74    4.03
  -3   0  -2   31.00    4.70
   3   0   2   28.16    4.56
   3   0   3   19.58    3.15
  -3   0  -3   19.82    3.60
   3   0   3   27.48    4.81
  -3   0  -3   29.05    4.67
  -3   0  -3   28.95    5.48
   3   0   3   24.53    4.21
  -3   0  -3   26.78    4.66
   3   0   3   25.66    4.15
  -3   0  -4  191.08   10.36
   3   0   4  205.39   10.09
  -3   0  -4  217.80   16.80
  -3   0  -4  220.94   12.56
   3   0   4  206.62   11.05
   3   0   4  216.49   13.05
   3   0   4  195.16   13.86
  -3   0  -4  216.52   13.28
   3   0   5    3.80    1.39
  -3   0  -5    3.72    1.38
  -3   0  -5    4.43    2.44
  -3   0  -5    3.70    1.82
   3   0   5    1.74    2.38
   3   0   5    6.34    2.53
  -3   0  -5    6.19    2.33
   3   0   5    4.90    1.68
   3   0   6   71.71    4.48
  -3   0  -6   64.53    4.80
  -3   0  -6   73.88    9.46
  -3   0  -6   87.68    7.05
   3   0   6   90.00    9.20
   3   0   6   82.95   10.76
  -3   0  -6   70.27    7.56
  -3   0  -7  101.78   11.93
   3   0   7  118.73   11.10
   3   0   7  104.29   12.92
  -3   0  -7  109.55    9.28
  -3   0  -8  208.84   18.50
   3   0   8  223.62   16.19
   3   0   8  206.19   19.34
  -3   0  -8  183.15   12.08
  -3   0  -9  281.14   19.92
  -3   0  -9  284.22   23.31
   3   0   9  316.28   20.41
   3   0   9  272.93   24.03
  -3   0  -9  277.63   14.91
  -3   0 -10  228.21   14.48
   3   0  10  216.78   22.64
  -3   0 -10  238.51   22.67
  -3   0 -10  224.20   18.51
  -3   0 -11   98.74    9.83
  -3   0 -11  111.66   13.34
  -3   0 -11  121.00   16.93
  -3   0 -12  125.10   18.79
  -3   0 -12  146.77   15.92
  -3  -1  14  145.59   18.44
  -3  -1  13   61.98   11.15
   3   1 -13   78.42   14.74
   3   1 -12    4.97    3.15
   3   1 -12    9.96    5.25
  -3  -1  12    5.34    4.00
  -3  -1  12   14.88    6.26
   3   1 -11  386.78   19.95
  -3  -1  11  398.76   25.25
   3   1 -11  419.66   30.00
  -3  -1  11  457.86   31.92
   3   1 -11  395.79   18.09
   3   1 -10  467.74   21.88
  -3  -1  10  438.51   24.87
   3   1 -10  428.85   28.92
  -3  -1  10  457.83   30.23
   3   1 -10  443.16   18.61
   3   1  -9  250.64   15.42
  -3  -1   9  268.05   17.34
   3   1  -9  246.71   20.32
  -3  -1   9  292.70   22.26
   3   1  -9  257.59   13.01
   3   1  -8 1106.45   37.06
  -3  -1   8 1094.76   30.65
   3   1  -8 1030.17   42.96
  -3  -1   8 1163.34   37.94
  -3  -1   8 1208.63   45.97
   3   1  -8 1134.00   32.47
  -3  -1   8 1166.56   25.00
   3   1  -7  399.66   19.31
  -3  -1   7  396.98   14.84
   3   1  -7  381.10   22.21
  -3  -1   7  394.41   18.13
  -3  -1   7  417.55   23.35
  -3  -1   7  388.86   12.30
   3   1  -6   72.84    7.57
  -3  -1   6   75.68    8.58
  -3  -1   6   78.12    6.18
   3   1  -6   71.14    8.45
  -3  -1   6   78.20    8.58
  -3  -1   6   93.46    7.45
   3   1  -6   75.11    9.94
  -3  -1   6   78.67    8.81
  -3  -1   6   71.33    5.23
   3   1  -5 1605.36   46.00
  -3  -1   5 1624.95   48.70
   3   1  -5 1526.06   46.78
  -3  -1   5 1681.51   46.88
  -3  -1   5 1684.85   41.28
   3   1  -5 1554.39   49.77
  -3  -1   5 1614.72   39.85
  -3  -1   5 1621.94   40.04
  -3  -1   4   -0.23    1.52
  -3  -1   4    1.32    1.24
   3   1  -4    1.89    1.86
  -3  -1   4    0.75    1.30
   3   1  -4    0.66    1.17
  -3  -1   4    0.60    1.04
   3   1  -3  155.63   10.53
  -3  -1   3  138.59   10.80
  -3  -1   3  152.36    8.77
   3   1  -3  136.25    8.59
   3   1  -3  142.70    5.14
  -3  -1   3  149.59    9.13
  -3  -1   2  128.54    9.98
   3   1  -2  115.52    8.88
  -3  -1   2  129.22    6.91
   3   1  -2  115.18    5.88
  -3  -1   2  130.99    8.69
   3   1  -2  110.78    8.71
  -3  -1   1  217.06   12.92
   3   1  -1  210.93   11.99
   3   1  -1  180.25   12.92
  -3  -1   1  194.08   11.28
   3   1  -1  207.15   12.32
  -3  -1   0  345.77   16.33
   3   1   0  326.98   15.11
   3   1   0  315.31   10.77
   3   1   0  356.53   18.02
   3   1   0  323.66   16.41
  -3  -1   0  347.47   15.93
  -3  -1  -1  372.65   16.85
   3   1   1  384.71   16.36
   3   1   1  373.88   14.68
   3   1   1  362.91   18.09
   3   1   1  365.45   18.01
  -3  -1  -1  383.32   17.30
  -3  -1  -2  165.16   10.45
   3   1   2  169.04   10.29
   3   1   2  154.02   10.42
  -3  -1  -2  160.10   11.19
   3   1   2  144.01   10.53
   3   1   2  142.78   11.23
  -3  -1  -2  166.28   11.02
  -3  -1  -3   80.33    7.17
   3   1   3   85.26    7.26
  -3  -1  -3   81.90    7.02
   3   1   3   64.65    7.64
   3   1   3   88.42    7.94
  -3  -1  -3   77.70    9.10
   3   1   3   91.51    7.84
  -3  -1  -3   81.28    7.71
  -3  -1  -4  305.04   14.42
   3   1   4  301.45   14.52
  -3  -1  -4  330.50   16.73
   3   1   4  298.23   18.89
  -3  -1  -4  331.96   21.37
   3   1   4  329.48   16.64
   3   1   4  320.46   14.21
  -3  -1  -4  325.82   16.37
  -3  -1  -5  255.06   12.62
   3   1   5  240.68   12.12
  -3  -1  -5  284.34   16.82
   3   1   5  215.85   17.24
   3   1   5  258.77   10.75
   3   1   5  240.87   14.78
  -3  -1  -5  256.43   14.54
   3   1   6    6.00    1.83
  -3  -1  -6    7.35    3.34
  -3  -1  -6    4.89    1.94
   3   1   6    6.82    3.35
   3   1   6    4.01    2.23
  -3  -1  -6    4.22    2.12
  -3  -1  -7  178.96   15.74
   3   1   7  183.89   14.05
   3   1   7  135.58   15.67
  -3  -1  -7  163.72   11.40
  -3  -1  -8   26.44    7.20
   3   1   8   38.04    8.74
  -3  -1  -8   48.06    6.14
  -3  -1  -9    1.87    1.66
  -3  -1  -9    5.57    3.76
   3   1   9    1.25    3.89
   3   1   9    1.93    2.59
  -3  -1  -9    3.19    1.63
  -3  -1 -10    6.48    2.96
   3   1  10    7.09    5.02
  -3  -1 -10   21.78    6.38
  -3  -1 -10   12.55    6.17
  -3  -1 -11   18.35    4.57
   3   1  11   13.76    6.78
  -3  -1 -11   27.86    6.96
  -3  -1 -11   11.06    6.14
  -3  -1 -12   22.59    6.89
  -3  -1 -12   13.80    7.21
  -3  -1 -12   12.12    4.13
  -3  -2  14   35.77    9.66
  -3  -2  13  186.03   19.50
   3   2 -13  156.77   20.34
  -3  -2  12  104.15   13.72
   3   2 -12  118.77   16.88
  -3  -2  11  109.69   12.85
   3   2 -11   88.54   13.53
   3   2 -11   99.97    9.88
   3   2 -10   95.84   13.32
  -3  -2  10  109.11   11.92
   3   2 -10  112.71   10.33
   3   2  -9  374.39   25.42
  -3  -2   9  428.14   22.35
  -3  -2   9  398.04   14.80
   3   2  -9  418.00   20.68
   3   2  -8  873.44   38.17
  -3  -2   8  912.68   33.18
  -3  -2   8  936.92   25.98
   3   2  -8  944.97   33.54
  -3  -2   8  936.27   22.15
   3   2  -7  169.73   14.38
  -3  -2   7  219.59   13.22
   3   2  -7  200.17   13.45
  -3  -2   7  198.62    9.74
  -3  -2   7  189.81    7.99
   3   2  -6    1.88    1.29
  -3  -2   6    6.90    2.27
  -3  -2   6    6.42    2.98
   3   2  -6   -0.50    1.67
   3   2  -6    1.67    1.98
   3   2  -6    0.16    1.06
  -3  -2   6    1.94    1.07
   3   2  -5  183.65   12.43
   3   2  -5  186.70   12.44
   3   2  -5  161.67   12.98
   3   2  -5  181.15   11.02
  -3  -2   5  177.21    9.03
  -3  -2   5  178.05    8.98
   3   2  -5  177.61    8.79
  -3  -2   4 1789.88   52.97
   3   2  -4 1936.65   51.51
   3   2  -4 1788.74   47.56
   3   2  -4 1815.79   50.43
   3   2  -4 1807.08   48.58
  -3  -2   4 1782.24   44.85
   3   2  -4 1891.79   40.23
  -3  -2   3 1049.85   36.01
   3   2  -3 1142.02   35.48
   3   2  -3 1059.90   29.48
   3   2  -3 1143.38   31.82
   3   2  -3 1085.30   33.81
  -3  -2   3 1083.35   30.96
  -3  -2   2   88.84    8.42
   3   2  -2   75.42    7.56
   3   2  -2   85.75    7.89
  -3  -2   2   74.88    6.52
  -3  -2   1  939.30   31.93
   3   2  -1 1008.71   32.16
   3   2  -1  923.75   31.58
  -3  -2   1  947.92   29.37
   3   2   0    0.06    1.32
  -3  -2   0    1.17    1.50
   3   2   0    0.28    0.80
   3   2   0    1.46    1.66
  -3  -2   0    0.09    1.13
  -3  -2  -1  964.47   31.72
   3   2   1 1004.02   32.75
  -3  -2  -1  997.85   22.54
   3   2   1  927.89   33.31
   3   2   1  955.76   31.75
  -3  -2  -1 1021.62   31.51
  -3  -2  -2   24.23    4.12
   3   2   2   26.90    4.72
  -3  -2  -2   24.07    3.02
   3   2   2   22.21    4.47
   3   2   2   21.31    4.11
  -3  -2  -2   24.93    4.22
  -3  -2  -3   66.47    6.91
   3   2   3   74.37    7.81
  -3  -2  -3   84.78    6.91
   3   2   3   65.92    8.68
   3   2   3   87.95    7.95
   3   2   3   71.55    7.20
  -3  -2  -3   75.85    7.33
  -3  -2  -4  150.84   10.34
   3   2   4  162.84   11.43
  -3  -2  -4  166.30   11.34
   3   2   4  168.77   15.01
  -3  -2  -4  169.01   15.39
   3   2   4  154.81    9.83
   3   2   4  166.26   11.60
  -3  -2  -4  176.62   11.63
  -3  -2  -5   50.69    5.96
   3   2   5   53.91    6.20
  -3  -2  -5   62.32    7.72
   3   2   5   50.68    4.39
   3   2   5   49.44    8.70
   3   2   5   66.84    7.45
  -3  -2  -5   58.22    6.58
  -3  -2  -6   56.93    6.36
   3   2   6   65.28    6.63
  -3  -2  -6   64.33    8.59
   3   2   6   68.98    8.23
   3   2   6   60.11   10.24
  -3  -2  -6   64.85    6.98
  -3  -2  -7   60.63    9.06
   3   2   7   49.66    9.92
   3   2   7   69.26    8.72
  -3  -2  -7   68.68    7.28
  -3  -2  -8   35.34    7.74
   3   2   8   44.69    9.92
   3   2   8   57.43    8.30
  -3  -2  -8   47.17    5.97
  -3  -2  -9   35.80    5.82
  -3  -2  -9   37.67    7.03
  -3  -2  -9   29.33    7.42
   3   2   9   40.74   10.01
  -3  -2  -9   41.29    5.65
  -3  -2 -10   18.04    4.70
   3   2  10   21.24    9.08
  -3  -2 -10   32.32    6.85
  -3  -2 -10   27.21    7.90
  -3  -2 -11    1.34    2.02
   3   2  11    3.73    4.06
  -3  -2 -11   -1.59    3.78
  -3  -3  13   74.13   12.19
   3   3 -13   56.93   12.48
  -3  -3  12  187.97   18.44
   3   3 -12  197.48   21.96
   3   3 -11  321.52   26.35
  -3  -3  11  336.59   23.01
   3   3 -11  316.18   19.18
   3   3 -10   81.59   12.60
  -3  -3  10   80.01   10.39
   3   3 -10   91.45   10.06
   3   3  -9  104.56   13.13
  -3  -3   9  136.19   12.99
   3   3  -9  141.28   12.14
   3   3  -8  321.17   21.68
  -3  -3   8  371.86   19.57
  -3  -3   8  339.66   12.98
   3   3  -8  373.44   20.14
  -3  -3   8  350.44   11.83
   3   3  -7  487.85   25.12
  -3  -3   7  508.87   21.95
  -3  -3   7  470.13   16.48
   3   3  -7  508.90   23.70
   3   3  -7  452.70   19.23
  -3  -3   7  501.71   15.58
   3   3  -6  607.57   26.79
   3   3  -6  665.45   27.34
   3   3  -6  640.41   23.79
  -3  -3   6  656.26   19.60
  -3  -3   6  617.69   19.70
   3   3  -6  653.42   20.61
   3   3  -5   13.86    3.96
   3   3  -5   10.64    2.99
   3   3  -5   12.82    3.88
  -3  -3   5    9.39    2.13
   3   3  -5   12.36    2.10
   3   3  -5   10.12    2.71
   3   3  -4 1012.44   30.97
   3   3  -4 1051.79   36.05
   3   3  -4 1009.44   33.11
  -3  -3   4 1052.92   29.37
   3   3  -3  395.86   14.79
   3   3  -3  438.71   20.97
   3   3  -3  418.46   19.19
  -3  -3   3  430.32   16.58
   3   3  -2   95.84    9.34
  -3  -3   2   93.91    7.34
  -3  -3   2   91.41    4.59
   3   3  -1  121.04   10.64
  -3  -3   1  110.17    8.27
   3   3   0  273.90   16.97
  -3  -3   0  318.55   15.20
   3   3   1  260.11   16.19
   3   3   1  228.57   15.26
  -3  -3  -1  233.05   13.01
   3   3   2  270.21   16.79
   3   3   2  260.50   15.86
   3   3   2  265.70   17.99
   3   3   2  289.68   14.48
  -3  -3  -2  292.92   14.95
   3   3   3  137.13   11.74
   3   3   3  141.47   14.01
   3   3   3  141.74   11.02
   3   3   3  146.90   10.51
  -3  -3  -3  144.39   10.57
   3   3   4   87.53    9.15
   3   3   4   83.55   11.58
   3   3   4  101.43    8.33
   3   3   4   98.28    8.85
  -3  -3  -4   97.24    8.56
   3   3   5  132.27   11.02
  -3  -3  -5  145.09   11.65
   3   3   5  149.93   16.40
   3   3   5  147.58   11.56
  -3  -3  -5  145.17   10.70
   3   3   6  271.62   15.99
  -3  -3  -6  324.32   19.61
   3   3   6  277.80   24.06
   3   3   6  318.60   18.33
  -3  -3  -6  298.37   16.00
  -3  -3  -7   14.25    4.53
   3   3   7   23.46    7.39
   3   3   7   21.87    5.13
  -3  -3  -7   19.66    4.16
  -3  -3  -8  399.00   20.97
  -3  -3  -8  436.81   26.77
   3   3   8  390.72   31.54
   3   3   8  423.14   23.47
  -3  -3  -8  403.73   19.28
  -3  -3  -9    4.02    2.46
  -3  -3  -9    3.56    2.57
  -3  -3  -9   10.36    4.90
   3   3   9    0.13    3.55
  -3  -3  -9    5.18    2.33
  -3  -3 -10   25.50    5.74
   3   3  10   25.28    8.41
  -3  -4  13  133.63   16.64
   3   4 -13  107.66   16.94
  -3  -4  12  198.28   18.96
   3   4 -12  182.80   20.94
  -3  -4  11    0.07    2.59
   3   4 -11    3.69    4.21
   3   4 -11    1.65    2.57
   3   4 -10  270.90   22.81
  -3  -4  10  311.06   20.98
   3   4 -10  301.36   19.85
   3   4  -9  693.19   35.70
  -3  -4   9  725.18   31.55
   3   4  -9  732.91   32.12
   3   4  -8  343.66   22.57
  -3  -4   8  378.89   20.38
   3   4  -8  387.68   22.02
   3   4  -8  340.92   17.00
  -3  -4   8  364.31   13.49
  -3  -4   7   46.59    7.11
   3   4  -7   42.53    7.06
   3   4  -7   38.86    6.78
  -3  -4   7   42.80    4.47
   3   4  -7   39.58    5.59
  -3  -4   7   41.05    4.18
   3   4  -6  182.70   13.61
   3   4  -6  228.15   16.23
   3   4  -6  205.10    9.85
  -3  -4   6  188.68    9.40
  -3  -4   6  190.67    9.81
   3   4  -5   50.86    6.44
   3   4  -5   60.89    8.27
  -3  -4   5   60.64    5.45
   3   4  -4  420.89   17.67
   3   4  -4  445.73   23.30
  -3  -4   4  473.13   17.59
   3   4  -3   40.45    4.13
   3   4  -3   53.67    7.73
  -3  -4   3   43.47    4.93
  -3  -4   3   50.98    4.45
   3   4  -2    1.59    0.65
   3   4  -2    0.89    2.10
  -3  -4   2    3.27    1.26
  -3  -4   2   -1.62    1.39
   3   4  -1   21.01    5.24
  -3  -4   1   14.77    3.17
   3   4   0 1076.18   40.48
  -3  -4   0 1138.01   34.08
   3   4   1   20.27    5.10
   3   4   1   23.46    5.42
   3   4   1   19.58    3.44
  -3  -4  -1   20.29    3.73
   3   4   2 1428.66   48.05
   3   4   2 1338.51   50.57
   3   4   2 1453.83   40.35
  -3  -4  -2 1406.78   41.15
   3   4   3   26.26    5.64
   3   4   3   29.66    5.37
   3   4   3   28.64    7.05
   3   4   3   26.10    4.33
  -3  -4  -3   33.65    4.97
   3   4   4  304.71   18.93
   3   4   4  304.31   24.03
   3   4   4  311.16   16.45
  -3  -4  -4  304.69   16.22
   3   4   5   97.38   10.36
   3   4   5  113.00   10.13
   3   4   5   94.24   14.01
  -3  -4  -5  109.96    9.55
   3   4   6  234.48   16.25
   3   4   6  262.15   24.67
   3   4   6  293.60   17.46
  -3  -4  -6  283.77   15.77
   3   4   7    2.00    2.68
   3   4   7    8.28    3.52
  -3  -4  -7    5.03    2.27
  -3  -4  -8  210.71   15.43
   3   4   8  175.62   21.99
  -3  -4  -8  201.31   13.80
  -3  -4  -9   17.68    5.21
   3   4   9    2.87    3.10
   3   4  10   65.91   14.68
   3   5 -13    6.88    4.93
  -3  -5  12   36.39    8.42
   3   5 -12   15.63    6.64
  -3  -5  11   49.20    9.48
   3   5 -11   34.54    8.68
   3   5 -11   30.00    6.84
  -3  -5  10   64.82   10.28
   3   5 -10   50.91    9.78
   3   5 -10   60.17    9.26
  -3  -5   9   50.17    8.34
   3   5  -9   24.88    6.72
   3   5  -9   43.55    7.83
  -3  -5   8 1814.46   54.97
   3   5  -8 1840.73   59.71
  -3  -5   8 1758.68   44.17
  -3  -5   7  241.72   16.02
   3   5  -7  214.93   16.39
   3   5  -7  208.66   17.22
  -3  -5   7  219.36   11.33
   3   5  -6   18.01    4.38
   3   5  -6   24.90    5.94
  -3  -5   6   21.85    3.63
   3   5  -5  289.10   16.17
   3   5  -5  346.00   21.89
  -3  -5   5  307.16   14.18
   3   5  -4   17.09    3.32
   3   5  -4   19.01    5.30
  -3  -5   4   10.37    2.43
  -3  -5   4   16.16    3.19
   3   5  -3  171.66    9.15
   3   5  -3  171.22   15.29
  -3  -5   3  182.51   10.93
  -3  -5   3  183.20    9.57
   3   5  -2   36.35    3.00
   3   5  -2   32.37    6.60
  -3  -5   2   48.05    4.39
  -3  -5   2   48.37    5.55
   3   5  -1   12.75    3.98
  -3  -5   1   12.92    3.02
   3   5   0  333.32   21.69
  -3  -5   0  330.36   16.27
   3   5   1  251.70   18.63
   3   5   1  229.01   18.95
   3   5   1  236.59   12.36
  -3  -5  -1  248.84   14.13
   3   5   2  178.89   15.51
   3   5   2  160.26   16.38
   3   5   2  180.41   11.03
  -3  -5  -2  196.88   12.54
   3   5   3   71.19    9.61
   3   5   3   75.29    7.26
  -3  -5  -3   67.42    7.56
   3   5   4  186.47   15.75
   3   5   4  172.16   19.32
   3   5   4  215.33   13.49
  -3  -5  -4  216.34   13.73
   3   5   5    2.18    1.96
   3   5   5    2.10    2.77
   3   5   5    3.80    2.16
  -3  -5  -5    4.31    2.33
   3   5   6   84.93   10.52
   3   5   6   92.53    9.71
   3   5   6   80.41   14.39
  -3  -5  -6  108.62   10.02
  -3  -5  -7    2.71    2.19
   3   5   7    1.85    4.70
  -3  -5  -7    3.22    2.21
  -3  -5  -8   13.64    4.31
   3   5   8   13.31    6.79
  -3  -5  -8   17.89    4.33
   3   5   9    8.34    6.75
   3   6 -12  150.86   19.37
   3   6 -11  169.81   19.53
  -3  -6  11  174.45   17.44
   3   6 -11  201.56   18.26
  -3  -6  10   44.38    8.49
   3   6 -10   26.96    7.81
   3   6 -10   24.20    6.61
  -3  -6   9   80.81   10.76
   3   6  -9   72.95   11.33
   3   6  -9   82.70   11.73
  -3  -6   8   25.25    6.53
   3   6  -8   26.84    6.38
   3   6  -8   33.66    7.30
  -3  -6   8   22.13    3.82
   3   6  -7   91.13   10.65
   3   6  -7  101.29   12.82
  -3  -6   7   93.70    7.91
   3   6  -6 1117.16   40.23
   3   6  -6 1229.36   48.62
  -3  -6   6 1233.05   35.71
   3   6  -5    3.23    2.10
   3   6  -5   11.26    4.93
  -3  -6   5    6.55    2.66
   3   6  -4  183.68   11.44
   3   6  -4  186.46   17.08
  -3  -6   4  201.31   12.02
  -3  -6   4  176.54   11.43
   3   6  -3  140.79    8.61
   3   6  -3  148.90   15.43
  -3  -6   3  170.89   11.12
  -3  -6   3  150.39    9.43
   3   6  -2    3.77    1.23
   3   6  -2    0.34    2.29
  -3  -6   2    5.46    2.03
  -3  -6   2    3.18    1.78
   3   6  -1   13.95    5.12
  -3  -6   1    8.58    2.74
   3   6   0  186.77   16.93
   3   6   0  205.75   10.60
  -3  -6   0  209.24   13.19
   3   6   1  181.59   16.45
   3   6   1  148.05   16.67
   3   6   1  181.61   10.22
  -3  -6  -1  192.87   12.85
   3   6   2   46.75    8.30
   3   6   2   62.60    6.23
   3   6   2   59.00   10.74
  -3  -6  -2   48.04    6.59
   3   6   3  118.34   13.53
   3   6   3  138.91   17.81
   3   6   3  150.45   10.42
  -3  -6  -3  144.19   11.48
   3   6   4   50.95    8.78
   3   6   4   57.72    6.88
   3   6   4   34.89    9.23
  -3  -6  -4   55.56    7.24
   3   6   5    2.04    2.52
  -3  -6  -5    5.44    2.92
   3   6   5    1.89    1.77
   3   6   5    4.00    3.57
  -3  -6  -5    5.09    2.80
  -3  -6  -6  124.31   11.93
   3   6   6  123.48   19.07
  -3  -6  -6  119.58   10.99
   3   6   7    8.01    6.93
  -3  -6  -7   13.26    4.20
   3   6   8   23.30    9.54
  -3  -6  -8    4.51    3.33
   3   7 -12    2.42    4.81
   3   7 -11   95.31   14.63
   3   7 -10   14.36    5.39
   3   7 -10   10.85    4.67
  -3  -7   9  194.83   17.27
   3   7  -9  149.49   16.33
   3   7  -9  198.87   19.02
   3   7  -8   29.18    6.87
  -3  -7   8   55.95    9.37
   3   7  -8   43.71    8.99
   3   7  -7   90.71   10.84
   3   7  -7   85.40   12.35
  -3  -7   7   97.18    8.75
   3   7  -6   50.23    7.40
   3   7  -6   35.91    7.94
  -3  -7   6   42.65    5.89
   3   7  -5  160.93   12.28
   3   7  -5  161.06   16.76
  -3  -7   5  176.20   12.08
  -3  -7   5  131.96   11.43
   3   7  -4 1172.63   49.23
  -3  -7   4 1144.32   36.75
  -3  -7   4 1127.12   36.47
   3   7  -3    3.91    3.82
  -3  -7   3    0.37    1.36
  -3  -7   3    0.78    1.85
   3   7  -2  636.62   34.80
  -3  -7   2  666.50   22.93
  -3  -7   2  640.16   25.89
   3   7  -1    8.93    4.01
  -3  -7   1   14.91    3.98
   3   7   0  283.53   22.17
  -3  -7   0  274.25   16.25
   3   7   1  170.77   17.11
   3   7   1  151.12   18.44
  -3  -7  -1  183.54   13.22
   3   7   2   77.90   11.66
   3   7   2   69.88   13.08
  -3  -7  -2   76.83    8.87
   3   7   3    3.81    2.83
   3   7   3   12.30    5.57
  -3  -7  -3    5.48    2.59
   3   7   4   76.22   11.58
  -3  -7  -4   80.40    9.34
   3   7   4   54.56   12.85
  -3  -7  -4   82.76    9.36
   3   7   5  115.51   14.28
  -3  -7  -5   89.80   10.31
   3   7   5  106.84   18.19
  -3  -7  -5  113.42   11.31
   3   7   6   33.25   10.90
  -3  -7  -6   24.80    5.37
   3   7   7   10.74    6.92
  -3  -7  -7   16.48    4.57
   3   8 -10    3.37    3.22
   3   8  -9   12.40    5.46
  -3  -8   8   10.03    5.54
   3   8  -8    6.42    4.39
   3   8  -7  101.41   14.02
   3   8  -6    5.15    3.56
  -3  -8   6   -0.69    1.54
   3   8  -5   67.77   11.36
  -3  -8   5   60.14    8.07
  -3  -8   5   58.62    7.48
   3   8  -4    6.07    3.95
  -3  -8   4   -1.55    2.43
  -3  -8   4    9.03    3.20
   3   8  -3  192.66   19.20
  -3  -8   3  199.99   14.26
  -3  -8   3  186.92   12.37
   3   8  -2   63.39   11.22
  -3  -8   2   69.74    8.40
  -3  -8   2   55.31    6.43
   3   8  -1   27.38    7.80
  -3  -8   1   21.04    4.82
   3   8   0  458.24   30.21
  -3  -8   0  454.77   22.97
   3   8   1   68.93   11.65
  -3  -8  -1   88.15    8.94
   3   8   1   67.38   13.19
  -3  -8  -1   95.64   10.17
   3   8   2  139.98   16.58
  -3  -8  -2  147.09   12.26
   3   8   2  115.97   18.00
  -3  -8  -2  157.86   13.32
   3   8   3    3.11    3.90
  -3  -8  -3    1.17    1.88
   3   8   3   -1.38    3.27
  -3  -8  -3    4.66    3.52
   3   8   4   12.98    5.40
  -3  -8  -4   11.77    4.22
   3   8   4   23.42    9.17
  -3  -8  -4   22.21    5.36
   3   8   5    7.25    4.82
   3   9  -9   38.08    9.67
   3   9  -8  148.18   17.86
   3   9  -7    2.02    3.82
   3   9  -6   86.86   13.86
   3   9  -5   77.08   12.98
  -3  -9   5   78.42    9.47
   3   9  -4  222.02   21.82
  -3  -9   4  253.07   17.13
   3   9  -3    6.30    4.10
  -3  -9   3    3.27    3.12
  -3  -9   2    9.23    3.02
   3   9  -2   16.78    6.53
  -3  -9   2   11.49    3.85
   3   9  -1  101.79   14.76
  -3  -9   1  102.06    9.38
  -3  -9   1  122.48   12.08
  -3  -9   0   36.01    5.78
   3   9   0   26.02    7.97
  -3  -9   0   31.51    6.39
  -3  -9  -1   35.70    6.00
   3   9   1   46.62   10.03
   3   9   1   37.58   10.89
  -3  -9  -2   39.86    6.68
   3   9   2   26.72    9.62
  -3 -10   0  115.99   10.98
   4 -12  -3  160.16   15.49
  -4  11   5   40.33   10.42
   4 -11  -4   12.00    5.98
  -4  11   4    3.38    4.56
   4 -11  -3   18.57    5.34
  -4  11   3    0.24    3.59
  -4  11   2  204.50   23.80
   4 -11  -2  220.92   16.71
  -4  11   1  164.91   21.23
   4 -11  -1  176.23   14.08
   4 -11   0   28.08    6.27
  -4  11   0   28.75    9.04
   4 -11   1   19.29    5.52
  -4  11  -1    9.59    5.71
  -4  11  -2   11.97    6.29
   4 -10  -6   84.10   11.76
  -4  10   6   74.32   13.64
   4 -10  -5   37.60    7.69
  -4  10   5   50.92   11.25
   4 -10  -4    6.35    4.84
  -4  10   4    6.44    4.25
  -4  10   3  147.28   19.03
   4 -10  -3  181.69   14.77
   4 -10  -2    7.42    3.81
  -4  10   2    1.62    2.81
  -4  10   1  124.40   17.28
   4 -10  -1  114.28   10.86
  -4  10   0  215.24   22.90
   4 -10   0  213.48   14.45
  -4  10  -1  508.84   35.92
   4 -10   1  525.72   26.15
   4 -10   1  512.00   22.57
  -4  10  -2   91.81   15.26
   4 -10   2  115.10   12.20
  -4  10  -3   46.55    6.86
   4 -10   3   49.66    8.53
  -4  10  -3   49.30   11.36
  -4  10  -4   53.01    7.93
   4 -10   4   60.64    8.94
   4 -10   4   48.07    8.70
  -4  10  -5   13.09    4.51
   4 -10   5    8.57    3.73
   4 -10   5   13.56    4.83
  -4  10  -5   14.23    6.51
  -4  10  -6   59.53    9.28
   4 -10   6   57.28   10.09
  -4  10  -7   23.18    6.14
   4 -10   7   16.81    6.22
   4 -10   8   76.04   13.34
   4  -9  -7  137.24   14.07
  -4   9   7  100.57   19.54
   4  -9  -6   72.29   10.02
  -4   9   6   73.59   16.78
  -4   9   6   77.35   12.95
   4  -9  -5   68.43    9.87
  -4   9   5   50.59   13.44
  -4   9   5   51.80   10.54
  -4   9   4   79.81   13.25
   4  -9  -4  119.02   11.97
   4  -9  -3    3.87    3.62
  -4   9   3    5.23    3.03
   4  -9  -2   56.84    7.66
  -4   9   2   68.36   12.25
   4  -9  -1    3.30    2.88
  -4   9   1    2.36    3.68
  -4   9   0  491.66   20.26
   4  -9   0  523.66   20.46
  -4   9   0  485.50   33.10
   4  -9   0  522.07   23.90
   4  -9   0  494.55   22.13
   4  -9   1   68.17    7.50
  -4   9  -1   65.31    7.18
   4  -9   1   72.49    8.83
  -4   9  -1   71.61   12.64
  -4   9  -2   27.33    5.06
   4  -9   2   33.10    5.63
   4  -9   2   32.06    6.27
  -4   9  -2   33.53    8.68
  -4   9  -3  113.10   11.00
   4  -9   3  120.85   11.24
  -4   9  -3  154.21   18.45
   4  -9   3  147.27   13.73
   4  -9   4   87.22   10.30
  -4   9  -4  100.20   10.91
  -4   9  -4  128.77   16.93
   4  -9   4  122.45   13.37
   4  -9   5  148.28   14.68
  -4   9  -5  172.37   14.99
  -4   9  -5  176.85   20.43
   4  -9   5  175.16   17.45
  -4   9  -6   46.88    8.22
   4  -9   6   30.88    7.25
  -4   9  -6   42.27   10.44
  -4   9  -7   64.78   10.07
   4  -9   7   53.29   10.42
  -4   9  -7   45.15   10.73
   4  -9   8   70.86   12.19
  -4   9  -8   67.95   13.94
   4  -8 -11    6.13    4.70
   4  -8 -10   67.86   13.06
   4  -8  -9   29.30    7.62
  -4   8   9   28.94   11.46
   4  -8  -8   86.16   11.35
  -4   8   8   74.54   16.93
   4  -8  -7   47.74    8.29
  -4   8   7   48.79   12.99
  -4   8   7   31.78    7.89
   4  -8  -6   38.92    7.35
  -4   8   6   29.68   10.20
  -4   8   6   30.30    8.07
   4  -8  -5   48.14    7.88
  -4   8   5   55.35   13.34
  -4   8   5   58.68   10.72
  -4   8   4  177.38   18.53
   4  -8  -4  166.15   13.69
   4  -8  -3   62.28    8.19
  -4   8   3   60.53   10.87
   4  -8  -2  263.21   11.18
  -4   8   2  240.58   21.73
   4  -8  -2  246.48   15.39
   4  -8  -1   28.36    4.13
   4  -8  -1   21.89    4.50
  -4   8   1   22.86    6.93
   4  -8   0 1453.42   39.31
  -4   8   0 1406.92   57.78
   4  -8   0 1533.78   44.73
   4  -8   0 1455.15   42.77
  -4   8  -1  182.02   12.52
   4  -8   1  187.99   11.76
  -4   8  -1  186.55   19.05
   4  -8   1  231.79   14.65
  -4   8  -2  132.08   11.29
   4  -8   2  129.32   10.26
  -4   8  -2  133.75   16.20
   4  -8   2  130.97    9.03
   4  -8   2  119.42   11.06
  -4   8  -3   22.40    5.01
   4  -8   3   20.13    4.16
   4  -8   3   25.24    4.18
   4  -8   3   18.41    4.66
  -4   8  -3   19.06    6.62
   4  -8   4  230.21   16.61
  -4   8  -4  248.85   17.40
  -4   8  -4  263.03   23.34
   4  -8   4  230.22   13.40
   4  -8   4  225.23   17.78
   4  -8   5  341.67   21.91
  -4   8  -5  318.84   20.79
  -4   8  -5  326.78   26.50
   4  -8   5  340.97   17.39
   4  -8   5  280.43   21.60
   4  -8   6   92.22   11.96
  -4   8  -6  115.15   12.59
  -4   8  -6  105.52   15.17
   4  -8   6   96.84    9.48
  -4   8  -7   26.29    6.52
   4  -8   7   18.73    5.90
   4  -8   7   20.46    4.93
  -4   8  -7   19.13    7.00
  -4   8  -8   47.53    8.81
   4  -8   8   55.22   10.63
   4  -8   8   35.91    6.34
  -4   8  -8   37.13   10.05
   4  -8   9   25.26    7.92
  -4   8  -9   26.85    8.41
  -4   8 -10   58.57   12.86
   4  -7 -11  225.05   22.84
   4  -7 -10   49.41    9.09
  -4   7  10   16.58    9.04
   4  -7 -10   41.71    9.61
   4  -7  -9   18.23    6.32
  -4   7   9    6.20    5.30
   4  -7  -8  349.37   21.54
  -4   7   8  313.84   33.06
  -4   7   8  344.18   24.83
   4  -7  -7  130.49   12.78
  -4   7   7  138.51   15.52
  -4   7   7  112.86   19.02
  -4   7   6  314.63   30.22
  -4   7   6  336.89   24.71
   4  -7  -6  341.53   20.14
  -4   7   5    1.08    3.25
  -4   7   5    3.64    2.38
  -4   7   4  145.67   16.07
   4  -7  -4  134.41   11.72
  -4   7   3   94.91   12.90
   4  -7  -3  106.14   10.06
   4  -7  -2  494.36   15.02
  -4   7   2  488.03   29.98
   4  -7  -2  517.83   22.18
   4  -7  -1    9.41    2.35
   4  -7  -1    3.95    1.87
  -4   7   1    7.54    3.88
   4  -7   0   33.40    4.00
   4  -7   0   22.23    3.82
  -4   7   0   25.12    6.87
   4  -7   0   26.93    4.67
   4  -7   1   16.52    3.22
   4  -7   1   13.96    3.73
  -4   7  -1   22.68    6.57
   4  -7   2 1378.90   40.96
  -4   7  -2 1446.98   55.77
   4  -7   2 1386.88   39.59
   4  -7   2 1387.59   43.19
  -4   7  -3  261.61   11.86
   4  -7   3  276.89   16.31
  -4   7  -3  236.00   20.90
   4  -7   3  255.18   14.08
   4  -7   3  250.54   16.76
   4  -7   4  210.44   15.46
  -4   7  -4  242.55   21.08
   4  -7   4  236.75   13.90
   4  -7   4  217.48   16.78
  -4   7  -5    1.86    2.75
   4  -7   5    4.02    3.34
   4  -7   5    4.85    2.51
  -4   7  -5    4.98    4.21
   4  -7   6  104.91   12.42
  -4   7  -6   99.91   11.81
   4  -7   6   96.39    9.60
  -4   7  -6   93.04   13.39
  -4   7  -7   21.08    5.97
   4  -7   7   19.82    6.17
   4  -7   7   18.42    4.64
  -4   7  -7   24.56    7.08
   4  -7   8   89.51   13.67
  -4   7  -8  116.51   13.78
   4  -7   8   90.57   10.41
  -4   7  -8   95.07   14.45
  -4   7  -9  140.16   17.89
   4  -7   9  166.32   14.54
   4  -7   9  135.48   17.20
  -4   7  -9  166.32   17.22
   4  -6 -11    7.12    5.49
  -4   6  11   -1.21    4.30
   4  -6 -11   -0.55    2.71
  -4   6  10   -0.75    4.38
   4  -6 -10    1.84    3.83
   4  -6  -9  230.64   17.25
   4  -6  -9  217.19   20.50
  -4   6   9  225.36   18.64
  -4   6   9  237.60   28.36
   4  -6  -8  249.79   21.56
  -4   6   8  251.75   27.94
  -4   6   8  240.44   19.75
   4  -6  -8  236.61   17.15
   4  -6  -7   16.71    5.53
  -4   6   7   11.43    4.29
  -4   6   7   11.20    6.09
  -4   6   6  273.85   26.26
  -4   6   6  285.06   21.64
   4  -6  -6  236.83   15.97
   4  -6  -5   22.35    5.41
   4  -6  -5   10.02    2.00
  -4   6   5   12.64    6.08
  -4   6   5    8.50    4.25
   4  -6  -4   -0.02    0.65
  -4   6   4    1.99    2.18
   4  -6  -3   68.10    3.29
  -4   6   3   59.28    9.57
   4  -6  -3   78.50    7.88
   4  -6  -2  604.27   15.47
  -4   6   2  623.20   32.62
   4  -6  -2  618.35   23.70
   4  -6  -1   61.10    4.22
   4  -6  -1   57.63    6.26
  -4   6   1   57.90    9.42
   4  -6   0  511.30   17.54
  -4   6   0  542.55   30.29
   4  -6   0  581.62   21.11
   4  -6   1  503.26   19.01
  -4   6  -1  521.79   29.49
   4  -6   1  507.92   20.59
   4  -6   2   14.70    3.49
  -4   6  -2   15.28    3.71
   4  -6   2   13.01    3.35
  -4   6  -2    5.57    3.31
   4  -6   3 2640.69   69.99
  -4   6  -3 2704.78   82.48
   4  -6   3 2728.36   68.05
  -4   6  -3 2757.13   63.50
   4  -6   3 2800.31   73.06
   4  -6   4  551.45   26.05
  -4   6  -4  560.85   31.69
   4  -6   4  568.55   23.42
   4  -6   4  536.78   26.92
  -4   6  -4  574.17   19.71
   4  -6   5    1.64    2.20
   4  -6   5    1.03    1.39
  -4   6  -5    0.70    2.11
   4  -6   6  309.10   17.78
   4  -6   6  333.42   22.35
  -4   6  -6  320.37   24.14
   4  -6   6  329.53   18.41
  -4   6  -7   26.09    6.61
   4  -6   7   16.79    5.70
   4  -6   7   20.93    4.95
  -4   6  -7   23.14    6.60
  -4   6  -8   25.30    6.74
   4  -6   8   21.46    6.80
   4  -6   8   26.68    6.07
  -4   6  -8   22.81    7.22
  -4   6  -9   82.67   11.94
   4  -6   9   66.69   11.98
   4  -6   9   87.87   10.78
  -4   6  -9   82.98   13.07
   4  -6  10   20.86    7.49
  -4   5  12  158.79   24.82
   4  -5 -12  164.44   15.56
   4  -5 -11    2.95    3.91
  -4   5  11    2.61    4.29
   4  -5 -11    1.53    3.09
   4  -5 -10   23.37    6.61
   4  -5 -10   30.44    7.90
  -4   5  10   29.88   10.18
   4  -5  -9   97.98   13.12
  -4   5   9   97.70   17.15
   4  -5  -9   96.84   10.82
   4  -5  -8  266.78   21.28
  -4   5   8  240.52   18.95
  -4   5   8  248.56   26.27
   4  -5  -8  228.27   15.94
   4  -5  -7  187.90   17.37
  -4   5   7  195.51    9.99
   4  -5  -7  194.39    9.88
  -4   5   7  170.18   20.71
  -4   5   7  192.02   17.09
   4  -5  -7  211.92   14.79
  -4   5   6   99.79    6.68
   4  -5  -6   92.23    5.76
  -4   5   6  106.99   15.54
  -4   5   6  111.99   13.02
   4  -5  -6  105.79   10.02
   4  -5  -5   53.09    3.39
  -4   5   5   48.02    9.92
  -4   5   5   57.66    9.35
   4  -5  -5   76.69    8.35
  -4   5   4  183.18   18.37
  -4   5   4  181.51   16.44
   4  -5  -4  182.30   12.26
   4  -5  -3   33.38    5.03
  -4   5   3   23.62    6.07
   4  -5  -2    3.16    1.87
  -4   5   2    1.04    1.97
   4  -5  -1  214.24    7.80
  -4   5   1  233.81   18.25
   4  -5  -1  196.26   11.61
   4  -5   0   35.76    3.74
   4  -5   0   42.91    4.88
  -4   5   0   42.12    7.87
   4  -5   1  470.83   18.24
  -4   5  -1  477.39   27.10
  -4   5  -1  500.70   18.79
   4  -5   1  496.82   19.36
   4  -5   2  233.10   13.40
  -4   5  -2  247.34   19.05
  -4   5  -2  269.34   12.71
   4  -5   2  250.27   14.27
   4  -5   3  521.27   23.74
  -4   5  -3  641.97   21.88
  -4   5  -3  645.37   32.22
   4  -5   3  571.24   23.42
  -4   5  -3  612.66   20.74
   4  -5   3  543.89   24.97
   4  -5   4   43.73    5.91
   4  -5   4   49.08    6.67
   4  -5   4   46.99    7.04
   4  -5   4   51.81    6.59
  -4   5  -4   61.46    9.62
  -4   5  -4   50.37    5.29
   4  -5   5 1514.27   41.83
   4  -5   5 1354.22   43.18
   4  -5   5 1422.52   49.43
  -4   5  -5 1409.89   53.56
   4  -5   5 1446.78   44.82
  -4   5  -5 1501.77   39.07
   4  -5   6   27.26    6.28
   4  -5   6   28.32    4.61
   4  -5   6   35.18    6.08
  -4   5  -6   30.25    7.07
   4  -5   7  149.54   15.55
  -4   5  -7  167.40   16.85
   4  -5   7  160.63   13.39
  -4   5  -8   73.96   11.00
   4  -5   8   51.26    9.87
   4  -5   8   61.35    8.58
  -4   5  -8   49.13    9.56
   4  -5   9  201.50   16.37
  -4   5  -9  173.77   17.84
  -4   5  -9  181.76   17.77
   4  -5  10   29.19    6.74
   4  -4 -13   55.93    9.45
   4  -4 -12   59.54    9.14
  -4   4  12   87.66   17.84
   4  -4 -11   68.94   11.02
  -4   4  11   72.32   15.53
   4  -4 -11   87.60   10.71
   4  -4 -10  250.35   20.63
  -4   4  10  241.22   27.34
   4  -4 -10  258.07   17.53
  -4   4   9   14.24    6.43
   4  -4  -9    9.11    3.93
   4  -4  -8   17.47    5.31
  -4   4   8    4.91    3.66
   4  -4  -8   15.51    3.49
   4  -4  -8   15.36    5.08
   4  -4  -7   19.00    5.31
  -4   4   7   19.90    5.85
  -4   4   7   10.39    5.47
  -4   4   7   13.81    2.75
   4  -4  -7   12.65    5.01
   4  -4  -7   23.76    3.49
   4  -4  -6   14.64    4.36
   4  -4  -6   10.70    2.06
   4  -4  -6    6.76    3.45
  -4   4   6    9.60    3.98
  -4   4   6    2.17    2.40
   4  -4  -5  156.62   14.22
  -4   4   5  151.08   16.15
  -4   4   5  158.61   14.87
   4  -4  -5  152.89   11.10
   4  -4  -4  244.82   17.46
  -4   4   4  260.61   20.24
  -4   4   4  202.96   17.02
   4  -4  -4  178.86   11.78
   4  -4  -3  792.05   33.04
  -4   4   3  752.52   34.40
   4  -4  -3  786.96   26.72
   4  -4  -2 2483.13   69.74
  -4   4   2 2559.05   74.00
   4  -4  -2 2462.69   60.65
   4  -4  -1  309.22   18.70
  -4   4   1  319.11   20.83
   4  -4   0  117.78   11.04
  -4   4   0  121.75   12.56
   4  -4   0  127.39    7.84
  -4   4   0  131.49    8.73
   4  -4   1   71.86    8.31
  -4   4  -1   88.63    5.90
  -4   4  -1   83.44   10.38
  -4   4  -1   79.49    6.71
   4  -4   1   80.34    6.72
   4  -4   2  897.35   33.54
  -4   4  -2 1036.01   29.05
  -4   4  -2  987.17   39.72
  -4   4  -2  999.42   29.51
   4  -4   2  947.75   31.85
   4  -4   3  294.87   16.78
  -4   4  -3  336.05   21.56
   4  -4   3  300.56   16.93
  -4   4  -3  348.59   15.91
   4  -4   4  475.83   21.07
   4  -4   4  473.29   23.62
   4  -4   4  485.61   22.16
  -4   4  -4  528.83   27.86
   4  -4   5    2.41    1.57
   4  -4   5    1.96    1.55
   4  -4   5    3.69    1.86
  -4   4  -5   -0.43    2.44
   4  -4   6    1.13    1.34
   4  -4   6    1.38    1.94
  -4   4  -6    2.48    2.16
   4  -4   7  280.63   17.93
  -4   4  -7  255.08   19.90
  -4   4  -8  167.57   16.24
   4  -4   8  156.12   14.08
  -4   4  -8  181.39   14.75
   4  -4   9   11.65    4.44
  -4   4  -9   10.32    4.20
   4  -4  10    8.34    3.92
  -4   4 -10   13.61    5.25
  -4   4 -10    7.21    5.71
   4  -3 -14   68.88    9.96
   4  -3 -13   67.52    9.74
  -4   3  13   45.42   12.93
   4  -3 -12    3.33    4.62
   4  -3 -12    1.15    3.01
  -4   3  12    8.64    6.39
   4  -3 -11  135.06   14.56
  -4   3  11  110.55   18.11
   4  -3 -11  118.36   11.68
   4  -3 -10  328.23   22.72
  -4   3  10  261.66   26.96
   4  -3 -10  298.91   18.17
   4  -3  -9  193.06   16.98
  -4   3   9  174.56   20.89
   4  -3  -9  201.90   14.28
   4  -3  -8 1310.83   48.26
   4  -3  -8 1205.70   33.53
  -4   3   8 1273.36   57.95
   4  -3  -8 1276.41   40.23
   4  -3  -7  395.78   24.11
   4  -3  -7  454.21   15.32
  -4   3   7  438.05   30.18
   4  -3  -7  397.86   19.49
   4  -3  -6   25.96    4.70
  -4   3   6   26.75    7.08
  -4   3   6   15.76    4.92
   4  -3  -6   13.99    4.29
   4  -3  -5    1.71    1.84
   4  -3  -5    3.23    2.90
  -4   3   5    2.12    2.19
  -4   3   5    4.22    2.54
   4  -3  -4  357.88   21.00
  -4   3   4  336.32   21.29
  -4   3   4  334.90   21.64
   4  -3  -4  353.96   16.21
   4  -3  -3  450.32   23.35
  -4   3   3  446.48   23.35
  -4   3   3  480.06   25.70
   4  -3  -3  450.97   18.44
   4  -3  -2  244.13   16.32
  -4   3   2  233.45   17.22
   4  -3  -1 1629.96   51.07
  -4   3   1 1743.37   36.92
  -4   3   1 1679.12   55.17
  -4   3   1 1810.90   45.22
   4  -3   0  111.31   10.28
  -4   3   0  113.18    6.33
  -4   3   0  131.12   12.55
  -4   3   0  128.63    8.57
   4  -3   0  114.57    7.01
   4  -3   1  222.72   14.27
  -4   3  -1  236.71   11.15
  -4   3  -1  249.11   17.44
   4  -3   1  213.68   11.33
  -4   3  -2    3.85    1.32
   4  -3   2    8.88    2.90
  -4   3  -2    8.08    2.31
  -4   3  -2    5.08    3.06
   4  -3   3  350.83   17.29
  -4   3  -3  398.97   22.76
  -4   3  -3  380.38   20.69
  -4   3  -3  396.63   18.35
   4  -3   4  153.22   10.15
   4  -3   4  165.62   12.21
  -4   3  -4  146.49   13.62
   4  -3   5    2.26    1.49
   4  -3   5    0.55    1.61
  -4   3  -5    1.24    2.55
   4  -3   6  185.16    8.41
  -4   3  -6  190.10   15.98
   4  -3   6  196.43   14.42
  -4   3  -6  223.08   15.88
   4  -3   7    0.47    1.80
  -4   3  -7    1.41    2.39
  -4   3  -7    1.02    2.77
   4  -3   8  687.47   31.21
  -4   3  -8  638.98   31.38
  -4   3  -8  652.46   29.39
  -4   3  -9    4.29    4.08
   4  -3   9    2.65    3.02
  -4   3 -10    4.96    3.59
  -4   3 -10    4.51    3.93
   4  -3  10    9.14    3.83
   4  -2 -14  151.77   14.10
   4  -2 -13   22.28    5.71
  -4   2  13   16.11    7.79
   4  -2 -12  151.38   14.93
  -4   2  12  147.16   20.61
   4  -2 -12  152.56   13.04
   4  -2 -11   18.49    5.14
  -4   2  11   11.95    6.21
   4  -2 -11   14.95    4.57
   4  -2 -10    6.21    3.39
  -4   2  10    0.33    3.18
  -4   2  10    2.87    2.79
   4  -2 -10    1.22    2.43
   4  -2  -9    2.13    2.62
  -4   2   9   -0.65    2.32
  -4   2   9   -1.32    1.46
   4  -2  -9    4.92    3.24
   4  -2  -8    3.95    2.82
  -4   2   8    0.64    1.59
   4  -2  -8    0.40    1.77
  -4   2   8    3.35    3.42
   4  -2  -7  167.23   14.46
  -4   2   7  162.65   10.71
  -4   2   7  158.52   16.74
   4  -2  -7  140.88   10.72
   4  -2  -6 1038.75   39.70
  -4   2   6 1068.90   30.05
  -4   2   6 1053.65   43.91
   4  -2  -6 1019.10   32.71
   4  -2  -5   83.92    9.76
  -4   2   5   74.70    5.24
  -4   2   5   82.78   10.16
  -4   2   5   78.28    9.97
   4  -2  -5   68.73    6.67
   4  -2  -4  211.71   15.37
  -4   2   4  224.62    7.97
  -4   2   4  218.03   16.64
  -4   2   4  226.93   15.83
   4  -2  -4  225.99   12.34
   4  -2  -3  462.81   23.06
  -4   2   3  450.32   24.66
  -4   2   3  496.64   22.00
   4  -2  -3  461.41   24.64
  -4   2   3  474.60   18.38
   4  -2  -2 1406.83   45.16
  -4   2   2 1475.99   49.38
   4  -2  -2 1431.82   48.39
  -4   2   2 1444.10   39.01
   4  -2  -1    3.16    2.28
  -4   2   1   -0.15    2.29
   4  -2  -1    7.92    1.65
  -4   2   1    4.42    2.76
   4  -2  -1    4.84    2.53
   4  -2   0  732.38   28.12
  -4   2   0  757.53   23.63
  -4   2   0  766.96   32.36
   4  -2   0  744.84   31.40
   4  -2   0  750.26   21.78
   4  -2   1 4934.40  114.54
  -4   2  -1 5209.50  111.78
   4  -2   1 5085.17  120.20
  -4   2  -1 5238.51  122.93
   4  -2   2 4151.66   98.28
  -4   2  -2 4535.10  100.19
   4  -2   2 4255.20  104.16
  -4   2  -2 4392.44  107.27
  -4   2  -2 4488.14   99.84
  -4   2  -2 4296.22   92.36
   4  -2   3  903.46   29.38
  -4   2  -3  972.13   33.79
   4  -2   3  934.45   33.74
  -4   2  -3  893.34   35.98
  -4   2  -3  940.57   34.96
  -4   2  -3  948.29   28.53
   4  -2   4   43.30    4.83
  -4   2  -4   36.66    6.89
   4  -2   4   44.06    6.14
   4  -2   4   43.81    6.21
  -4   2  -4   31.37    6.18
  -4   2  -4   36.58    6.19
   4  -2   5   22.29    3.06
   4  -2   5   18.13    4.53
  -4   2  -5   17.87    4.76
  -4   2  -5   21.02    4.98
   4  -2   5   23.78    4.50
   4  -2   6   92.95    5.30
  -4   2  -6   85.69    9.98
   4  -2   6  107.22   10.56
  -4   2  -6  114.70   11.13
   4  -2   7    6.67    3.29
  -4   2  -7    1.45    2.35
  -4   2  -7    0.46    1.83
   4  -2   8   62.53    8.80
  -4   2  -8   60.22    7.95
   4  -2   9    3.96    3.13
  -4   2  -9    4.35    3.57
   4  -2  10  176.53   16.66
  -4   2 -10  189.03   18.43
  -4   2 -10  199.50   21.88
  -4   2 -11   36.35   10.27
   4  -1 -13    4.29    3.63
  -4   1  13    3.02    2.58
   4  -1 -12  110.43   12.08
  -4   1  12   92.55   12.70
  -4   1  12  115.10   17.47
   4  -1 -12   91.94    9.74
   4  -1 -11   76.28   10.11
   4  -1 -11   60.14    7.66
  -4   1  11   64.41    9.51
  -4   1  11   70.97   13.28
   4  -1 -10  220.60   17.07
  -4   1  10  206.79   16.13
  -4   1  10  197.84   20.76
   4  -1 -10  223.98   14.24
   4  -1  -9   36.48    5.44
  -4   1   9   34.44    6.03
   4  -1  -9   34.88    6.52
  -4   1   9   25.98    7.18
  -4   1   9   39.01    4.31
   4  -1  -8   25.51    4.51
  -4   1   8   22.85    4.48
   4  -1  -8   18.07    4.62
  -4   1   8   25.42    6.95
  -4   1   8   14.87    2.91
   4  -1  -7   43.24    5.47
  -4   1   7   46.65    5.33
   4  -1  -7   49.96    7.64
  -4   1   7   51.82    8.81
   4  -1  -6  589.43   27.29
  -4   1   6  572.26   19.67
  -4   1   6  551.85   27.91
   4  -1  -6  510.09   27.66
   4  -1  -6  546.24   21.22
   4  -1  -5  311.94   18.80
  -4   1   5  316.18   18.81
   4  -1  -5  268.16   17.49
  -4   1   5  297.25   18.21
  -4   1   5  313.60   11.93
   4  -1  -4 2792.53   74.26
  -4   1   4 2840.24   72.58
  -4   1   4 2751.99   70.54
   4  -1  -3 1075.28   37.81
  -4   1   3 1114.92   39.14
  -4   1   3 1093.02   40.74
  -4   1   3 1088.83   32.56
   4  -1  -3 1136.63   41.84
  -4   1   3 1109.17   32.04
   4  -1  -2  710.89   28.24
  -4   1   2  711.21   29.00
  -4   1   2  732.15   31.22
  -4   1   2  701.72   21.06
   4  -1  -2  683.80   30.62
   4  -1  -1   27.34    4.89
  -4   1   1   34.46    5.71
  -4   1   1   47.89    7.39
   4  -1  -1   35.46    6.37
   4  -1  -1   34.44    2.83
   4  -1   0  408.87   19.51
  -4   1   0  442.70   21.04
  -4   1   0  451.25   23.41
   4  -1   0  441.51   23.07
  -4   1   0  448.74   13.91
   4  -1   1 2012.76   54.53
  -4   1  -1 2079.84   56.87
  -4   1  -1 2057.17   50.54
  -4   1  -1 2143.81   61.68
   4  -1   1 2143.47   60.67
  -4   1  -1 2154.16   58.60
  -4   1  -1 2076.94   46.38
   4  -1   2  664.58   24.33
  -4   1  -2  690.77   26.43
  -4   1  -2  701.33   27.62
  -4   1  -2  669.83   25.71
  -4   1  -2  738.11   30.55
   4  -1   2  703.53   29.00
  -4   1  -2  731.04   28.92
  -4   1  -2  682.55   21.59
   4  -1   3  545.34   20.18
  -4   1  -3  538.59   21.98
  -4   1  -3  541.86   25.56
   4  -1   3  579.40   24.68
  -4   1  -3  574.98   26.33
  -4   1  -3  560.60   25.21
  -4   1  -3  507.56   20.21
   4  -1   4    3.58    1.55
  -4   1  -4    4.78    1.89
  -4   1  -4    8.42    3.24
  -4   1  -4    9.23    3.53
   4  -1   4    4.48    2.41
  -4   1  -4   12.58    3.98
   4  -1   4    6.78    2.43
   4  -1   5   53.31    4.97
  -4   1  -5   45.77    6.85
   4  -1   5   50.49    7.12
   4  -1   5   52.40    6.13
  -4   1  -5   48.82    7.16
   4  -1   6   43.50    4.00
  -4   1  -6   45.78    6.86
   4  -1   6   50.44    7.34
  -4   1  -6   49.13    7.21
  -4   1  -7    0.30    2.08
   4  -1   7    3.09    2.45
  -4   1  -7    0.98    1.64
  -4   1  -7    1.57    1.76
  -4   1  -8   38.86    8.49
   4  -1   8   30.30    6.49
  -4   1  -8   49.76    7.09
   4  -1   9   45.45    8.05
  -4   1  -9   38.95    8.96
   4  -1  10    1.85    2.95
  -4   1 -10   -0.63    2.92
  -4   1 -10    5.13    4.07
  -4   1 -11  224.79   24.41
  -4   0  14  108.62   18.27
  -4   0  14   97.23   14.42
   4   0 -13   13.28    3.90
  -4   0  13   12.20    5.04
  -4   0  13   10.65    5.59
   4   0 -12  102.68   11.06
  -4   0  12  116.80   13.87
  -4   0  12  103.00   16.11
   4   0 -12   79.68    8.75
   4   0 -11  149.78   13.44
  -4   0  11  173.27   15.85
  -4   0  11  143.51   17.62
   4   0 -11  143.15   11.20
   4   0 -10   84.34    9.94
  -4   0  10   98.21   10.98
  -4   0  10   90.11   13.22
   4   0 -10   88.81    8.41
   4   0  -9   12.85    3.02
  -4   0   9    4.02    1.81
  -4   0   9   14.86    6.16
  -4   0   9   13.19    2.18
   4   0  -8  283.94   18.38
  -4   0   8  237.58   14.43
  -4   0   8  261.48   19.94
   4   0  -8  228.70   13.24
  -4   0   8  247.77   11.54
   4   0  -7   49.32    7.43
  -4   0   7   46.21    5.62
  -4   0   7   38.54    7.23
  -4   0   7   48.77    5.26
   4   0  -6   97.77   10.22
  -4   0   6  111.58    7.92
   4   0  -6  100.20   11.29
  -4   0   6  111.13   10.65
  -4   0   6  101.33    8.05
   4   0  -5  152.47   12.56
  -4   0   5  173.27   12.83
  -4   0   5  189.86    9.55
   4   0  -5  162.98   12.76
  -4   0   5  156.23   11.32
  -4   0   5  163.32   10.81
   4   0  -4  405.79   20.84
  -4   0   4  406.84   19.13
   4   0  -4  342.93   16.98
  -4   0   4  409.90   16.66
  -4   0   4  387.74   18.00
  -4   0   4  385.30   16.14
   4   0  -3 1113.96   39.49
  -4   0   3 1272.76   37.25
  -4   0   3 1332.35   30.94
  -4   0   3 1195.57   37.93
   4   0  -2  401.90   19.86
  -4   0   2  420.60   21.20
   4   0  -2  391.80   22.54
  -4   0   2  405.84   19.21
   4   0  -1    1.14    1.32
  -4   0   1    0.41    1.55
   4   0  -1    2.78    2.33
  -4   0   1    2.51    2.03
   4   0   0  318.58   16.30
  -4   0   0  332.26   17.76
   4   0   0  314.17   19.25
  -4   0   0  295.99    8.85
  -4   0   0  346.59   17.95
  -4   0  -1  252.01   15.16
   4   0   1  244.39   13.73
  -4   0  -1  260.80   16.69
  -4   0  -1  247.71   11.30
   4   0   1  247.04   16.46
  -4   0  -1  262.30   15.78
  -4   0  -1  238.15    9.82
  -4   0  -2  564.22   23.56
   4   0   2  526.04   21.09
  -4   0  -2  597.07   26.21
  -4   0  -2  549.49   22.43
   4   0   2  575.10   25.60
  -4   0  -2  606.93   25.43
  -4   0  -2  502.51   18.80
  -4   0  -3  388.45   18.55
   4   0   3  389.52   17.06
  -4   0  -3  401.12   20.72
  -4   0  -3  363.88   20.44
   4   0   3  424.97   20.06
   4   0   3  396.26   20.03
  -4   0  -3  377.92   20.10
  -4   0  -4  121.24    9.58
   4   0   4  118.65    8.78
  -4   0  -4  117.27   10.51
   4   0   4  120.69   10.03
  -4   0  -4  122.34   12.70
   4   0   4  136.94   11.46
  -4   0  -4  114.43   10.80
   4   0   5  192.43   11.37
  -4   0  -5  201.01   12.25
  -4   0  -5  232.72   15.94
   4   0   5  211.96   12.30
   4   0   5  227.20   15.27
  -4   0  -5  221.84   15.17
   4   0   6  288.44   13.00
  -4   0  -6  323.97   20.64
   4   0   6  310.22   18.81
  -4   0  -6  325.37   18.71
  -4   0  -7  262.84   20.04
   4   0   7  291.16   19.03
  -4   0  -7  284.47   17.40
  -4   0  -8   36.10    8.45
   4   0   8   31.43    6.47
  -4   0  -8   28.89    5.41
   4   0   9   25.81    6.51
  -4   0  -9   32.04    8.10
   4   0  10   13.46    5.07
  -4   0 -10    9.91    4.74
  -4   0 -10   20.23    7.02
  -4   0 -11    4.66    2.72
  -4   0 -11    3.31    3.42
  -4   0 -11    6.64    6.56
  -4  -1  14   39.55    9.50
   4   1 -13    4.22    4.30
  -4  -1  13    5.20    4.34
   4   1 -12    1.45    2.16
   4   1 -12    2.94    4.07
  -4  -1  12    0.38    1.95
   4   1 -11  417.15   23.13
  -4  -1  11  439.58   25.76
   4   1 -11  391.36   29.12
   4   1 -10  165.99   13.91
  -4  -1  10  166.54   14.30
   4   1 -10  164.95   17.40
  -4  -1  10  202.13   19.40
   4   1  -9  195.64   15.03
   4   1  -9  195.78   17.96
  -4  -1   9  202.77   14.58
  -4  -1   9  205.80   18.28
  -4  -1   9  204.89    8.30
   4   1  -8  345.88   20.05
   4   1  -8  345.42   22.65
  -4  -1   8  351.02   18.23
  -4  -1   8  376.02   23.20
  -4  -1   8  353.48   13.42
  -4  -1   7  153.89   10.59
   4   1  -7  136.92   11.94
  -4  -1   7  142.75    8.67
   4   1  -6  590.97   26.15
  -4  -1   6  608.34   26.09
  -4  -1   6  593.58   21.34
   4   1  -6  538.28   27.68
  -4  -1   6  551.99   20.61
   4   1  -5 1097.86   37.60
  -4  -1   5 1083.87   35.26
   4   1  -5  998.74   36.59
  -4  -1   5 1065.23   31.44
  -4  -1   5 1064.45   32.64
   4   1  -4  180.05   13.14
  -4  -1   4  194.07   11.79
   4   1  -4  186.43   11.59
  -4  -1   4  196.98   12.06
   4   1  -4  184.58    6.47
   4   1  -3  241.50   15.02
  -4  -1   3  239.51   11.91
   4   1  -3  233.58   10.44
  -4  -1   3  240.69   13.82
  -4  -1   2 2363.61   53.04
   4   1  -2 2218.31   60.83
  -4  -1   2 2242.52   59.71
   4   1  -1   14.40    3.54
   4   1  -1   13.76    4.19
  -4  -1   1   15.28    3.67
   4   1   0    6.01    2.58
  -4  -1   0    4.46    2.45
   4   1   0    8.28    3.15
  -4  -1   0    3.89    0.95
  -4  -1   0    4.68    2.42
  -4  -1  -1  430.41   21.00
   4   1   1  408.47   19.21
   4   1   1  429.37   22.59
   4   1   1  419.48   14.60
  -4  -1  -1  435.41   20.90
   4   1   2   30.19    4.82
  -4  -1  -2   38.43    5.83
   4   1   2   36.18    4.67
   4   1   2   43.19    6.62
  -4  -1  -2   33.03    5.35
  -4  -1  -3  121.74   10.21
   4   1   3  138.33   10.56
  -4  -1  -3  132.98    9.40
  -4  -1  -3  130.24   11.77
   4   1   3  121.49   10.84
   4   1   3  143.62   11.32
   4   1   3  130.62   10.53
  -4  -1  -3  131.59   11.28
  -4  -1  -4  159.05   11.69
   4   1   4  164.01   11.75
  -4  -1  -4  192.59   12.74
  -4  -1  -4  154.24   14.44
   4   1   4  180.09   13.32
   4   1   4  142.96   11.04
   4   1   4  145.55   12.52
  -4  -1  -4  172.23   12.97
  -4  -1  -5  233.85   14.42
   4   1   5  263.04   14.69
  -4  -1  -5  278.95   17.20
   4   1   5  263.56   13.71
   4   1   5  264.34   16.85
   4   1   5  260.23   18.43
  -4  -1  -5  281.34   16.90
   4   1   6   65.38    6.45
  -4  -1  -6   71.22    9.26
   4   1   6   66.63    9.87
   4   1   6   70.72    9.03
  -4  -1  -6   72.04    8.53
  -4  -1  -7   95.94   11.64
   4   1   7   74.60   11.45
   4   1   7   83.44   10.28
  -4  -1  -7   94.66    9.58
  -4  -1  -8    4.84    4.32
   4   1   8    3.38    3.44
   4   1   8   -0.56    2.09
  -4  -1  -8    0.35    1.72
   4   1   9   82.93   13.46
   4   1   9  110.21   12.69
  -4  -1  -9   94.32   13.52
  -4  -1 -10   18.92    4.87
   4   1  10   21.91    8.02
  -4  -1 -10    9.83    4.66
  -4  -1 -11   41.47    9.31
  -4  -2  14   -1.69    4.24
   4   2 -13    1.86    3.90
  -4  -2  13    0.09    2.82
  -4  -2  12   -0.27    3.01
   4   2 -12    2.98    3.99
   4   2 -12   -0.88    2.39
   4   2 -11  114.78   15.61
  -4  -2  11  107.32   12.30
   4   2 -11  109.33   11.53
  -4  -2  10   21.63    5.59
   4   2 -10   15.79    5.90
   4   2 -10   16.67    4.75
   4   2  -9  351.11   24.38
  -4  -2   9  408.75   21.46
   4   2  -9  394.89   22.08
  -4  -2   9  377.40   12.53
   4   2  -8  631.29   31.60
  -4  -2   8  749.84   28.28
   4   2  -8  665.34   29.56
  -4  -2   8  687.49   20.52
   4   2  -7  217.79   16.23
  -4  -2   7  232.17   13.77
   4   2  -7  214.64   15.42
  -4  -2   7  223.55   10.89
   4   2  -7  208.27   11.65
   4   2  -6  531.73   25.11
   4   2  -6  521.87   24.37
   4   2  -6  528.63   26.96
  -4  -2   6  532.84   19.35
   4   2  -6  509.67   17.34
   4   2  -5  465.43   22.67
   4   2  -5  402.96   20.82
  -4  -2   5  420.83   17.41
  -4  -2   5  417.82   17.68
   4   2  -5  439.83   12.90
   4   2  -4  238.86   15.47
   4   2  -4  211.20   12.67
  -4  -2   4  201.73   12.09
   4   2  -3  533.64   24.53
   4   2  -3  561.89   19.26
  -4  -2   3  576.08   22.51
   4   2  -2  208.43   14.24
   4   2  -2  215.10    8.71
  -4  -2   2  202.42   12.75
   4   2  -1   57.65    7.19
   4   2  -1   47.83    4.09
  -4  -2   1   49.08    6.35
   4   2   0 1090.52   36.63
   4   2   0 1013.09   29.06
   4   2   0 1030.21   39.87
  -4  -2   0 1059.07   35.12
   4   2   1  630.85   26.24
  -4  -2  -1  589.19   14.95
   4   2   1  614.28   22.72
   4   2   1  588.47   27.93
  -4  -2  -1  691.88   26.57
   4   2   2   59.66    7.64
  -4  -2  -2   54.91    4.62
   4   2   2   53.04    6.74
   4   2   2   58.37    7.97
  -4  -2  -2   56.02    7.19
   4   2   3  144.44   12.03
  -4  -2  -3  131.58    8.85
   4   2   3  131.45   11.85
   4   2   3  123.14   11.21
   4   2   3  144.80   11.45
  -4  -2  -3  151.73   11.86
   4   2   4   67.07    8.05
  -4  -2  -4   62.35    6.99
   4   2   4   62.56    8.92
   4   2   4   60.13    7.67
   4   2   4   59.93    7.13
  -4  -2  -4   65.35    7.93
   4   2   5  158.00   12.10
  -4  -2  -5  155.64   12.44
   4   2   5  158.93   15.35
   4   2   5  173.78   13.49
  -4  -2  -5  174.84   13.11
   4   2   6   12.68    3.36
  -4  -2  -6   13.87    4.39
   4   2   6    7.57    3.77
   4   2   6   13.32    4.20
  -4  -2  -6   11.08    3.55
  -4  -2  -7  101.37   12.00
   4   2   7  118.35   12.12
   4   2   7   95.77   13.57
  -4  -2  -7  105.64   10.23
   4   2   8    0.89    3.54
   4   2   8    1.82    3.71
  -4  -2  -8    5.39    2.79
   4   2   9    4.39    3.57
   4   2   9    2.76    2.93
   4   2  10    4.10    4.53
   4   3 -13   14.94    6.52
  -4  -3  13   14.95    5.51
   4   3 -12   79.94   13.85
  -4  -3  12   91.15   12.50
   4   3 -12   90.47   10.99
   4   3 -11   29.61    8.10
  -4  -3  11   37.10    7.43
   4   3 -11   40.13    7.42
   4   3 -10  474.16   30.36
  -4  -3  10  475.32   25.79
   4   3 -10  510.73   26.67
  -4  -3   9   39.80    7.00
   4   3  -9   30.20    7.14
   4   3  -9   25.51    5.87
  -4  -3   9   32.79    3.43
   4   3  -8   73.57   10.06
  -4  -3   8   83.55    9.22
   4   3  -8   77.58    9.78
  -4  -3   8   66.54    5.38
   4   3  -7  497.75   25.54
  -4  -3   7  519.76   23.03
   4   3  -7  544.47   26.68
  -4  -3   7  536.92   18.70
   4   3  -7  532.39   18.50
   4   3  -6  982.67   37.42
   4   3  -6  904.99   33.90
   4   3  -6  900.77   37.90
   4   3  -6  998.78   25.32
  -4  -3   6  955.09   28.96
   4   3  -5   81.26    9.63
   4   3  -5   74.03    7.47
   4   3  -5   76.02    8.75
  -4  -3   5   76.80    6.94
   4   3  -4  939.81   36.03
   4   3  -4  936.62   31.67
  -4  -3   4  927.05   30.09
   4   3  -3    2.97    2.25
  -4  -3   3    1.20    1.26
   4   3  -2   42.02    6.77
  -4  -3   2   38.21    5.36
  -4  -3   2   41.60    2.69
   4   3  -1   46.35    7.22
  -4  -3   1   52.62    6.46
   4   3   0  216.62   15.84
   4   3   0  224.96   13.76
  -4  -3   0  215.10   13.76
   4   3   1  282.40   18.53
   4   3   1  270.84   16.65
  -4  -3  -1  309.84   16.85
   4   3   2  512.93   25.62
   4   3   2  479.11   24.76
   4   3   2  466.05   24.87
   4   3   2  498.90   21.96
  -4  -3  -2  509.64   22.80
   4   3   3    1.35    1.47
   4   3   3    5.94    3.18
   4   3   3    7.57    2.81
   4   3   3    6.96    3.13
  -4  -3  -3    7.36    3.23
   4   3   4    0.70    1.61
   4   3   4    2.27    2.81
   4   3   4    2.08    2.25
  -4  -3  -4    5.29    2.91
   4   3   5   52.51    7.48
   4   3   5   46.69    9.09
   4   3   5   40.31    6.70
  -4  -3  -5   62.78    7.78
   4   3   6  143.38   12.27
   4   3   6  143.08   16.77
   4   3   6  147.03   13.45
  -4  -3  -6  179.76   13.29
   4   3   7  127.83   16.50
   4   3   7  138.77   13.40
  -4  -3  -7  125.23   11.18
   4   3   8   11.65    5.70
   4   3   8    6.84    3.71
  -4  -3  -8    5.76    2.64
   4   3   9   53.28   11.92
   4   3   9   56.20    9.31
  -4  -4  13   -2.08    3.92
   4   4 -13    1.70    3.13
   4   4 -12  229.67   23.23
  -4  -4  12  206.82   19.18
   4   4 -12  224.81   18.75
  -4  -4  11   19.22    5.94
   4   4 -11   12.00    5.57
   4   4 -11    7.11    3.79
   4   4 -10  635.08   35.60
  -4  -4  10  654.26   31.42
   4   4 -10  630.34   32.08
   4   4  -9   12.76    5.06
   4   4  -9    6.94    3.63
  -4  -4   9   12.98    2.52
   4   4  -8   74.79   10.20
  -4  -4   8   83.64    9.68
   4   4  -8   59.08    9.09
  -4  -4   8   67.66    5.81
   4   4  -7  167.45   14.08
   4   4  -7  180.18   15.62
  -4  -4   7  191.86   10.52
   4   4  -6   54.12    7.17
   4   4  -6   87.07   10.70
  -4  -4   6   69.60    6.42
   4   4  -5    4.73    3.04
   4   4  -5    7.36    2.53
   4   4  -5    7.52    3.34
  -4  -4   5    8.09    2.45
   4   4  -4  535.23   27.55
  -4  -4   4  510.92   20.78
   4   4  -3    3.19    2.79
  -4  -4   3   -0.07    1.08
  -4  -4   3    0.50    1.15
   4   4  -2  491.32   26.68
  -4  -4   2  520.81   21.75
  -4  -4   2  501.12   14.63
   4   4  -1   14.68    4.73
  -4  -4   1   17.07    3.86
   4   4   0   69.26    9.81
   4   4   0   92.63   10.20
  -4  -4   0   87.93    8.72
   4   4   1    9.02    3.70
   4   4   1    5.96    3.29
  -4  -4  -1   10.54    3.33
   4   4   2  135.23   13.55
   4   4   2  118.69   13.06
   4   4   2  123.76   10.31
  -4  -4  -2  132.52   11.06
   4   4   3  204.62   16.80
   4   4   3  194.33   17.96
   4   4   3  229.76   14.54
  -4  -4  -3  201.94   14.08
   4   4   4  190.48   15.79
   4   4   4  171.43   17.75
   4   4   4  175.64   13.24
  -4  -4  -4  187.86   13.60
   4   4   5  181.15   15.21
   4   4   5  220.59   15.42
  -4  -4  -5  212.18   14.61
   4   4   6   73.13    9.27
   4   4   6   72.22   12.72
   4   4   6   78.75    9.72
  -4  -4  -6   71.23    8.52
   4   4   7   52.94   11.37
   4   4   7   42.38    7.49
  -4  -4  -7   43.97    6.81
   4   4   8   27.52    6.34
  -4  -4  -8   39.97    6.53
   4   5 -13   16.36    7.10
  -4  -5  12   59.35   10.41
   4   5 -12   53.11   11.23
   4   5 -11  144.83   17.49
  -4  -5  11  164.14   16.50
   4   5 -11  153.70   16.36
   4   5 -10  389.10   27.61
  -4  -5  10  461.78   26.44
   4   5 -10  433.38   27.67
   4   5  -9  109.63   13.17
  -4  -5   9  137.06   13.39
   4   5  -9  115.81   13.84
  -4  -5   9  116.87    8.21
   4   5  -8  366.33   23.48
  -4  -5   8  452.20   23.87
   4   5  -8  443.34   27.40
  -4  -5   8  435.17   17.44
   4   5  -7  422.36   26.63
  -4  -5   7  465.28   18.41
   4   5  -6  267.29   16.30
   4   5  -6  291.86   21.48
  -4  -5   6  267.86   13.98
   4   5  -5    1.23    1.53
   4   5  -5   -0.58    2.23
  -4  -5   5    1.61    1.63
   4   5  -4   91.12    6.54
   4   5  -4  113.92   13.26
  -4  -5   4  105.49    8.78
   4   5  -3   89.16   11.94
  -4  -5   3   93.96    8.50
  -4  -5   3   72.18    5.77
   4   5  -2   71.12   10.73
  -4  -5   2   71.50    7.55
  -4  -5   2   74.50    5.22
   4   5  -1   91.43   11.83
  -4  -5   1   75.46    7.99
   4   5   0  128.54   14.16
   4   5   0  129.81   13.54
  -4  -5   0  130.97   10.80
   4   5   1    7.12    3.60
   4   5   1    8.64    2.88
   4   5   1   10.29    4.68
  -4  -5  -1    7.66    2.83
   4   5   2   23.26    5.94
   4   5   2   27.87    7.21
   4   5   2   28.57    4.91
  -4  -5  -2   26.76    5.05
   4   5   3  433.73   26.24
   4   5   3  422.72   20.38
  -4  -5  -3  421.62   21.33
   4   5   4   40.45    8.08
   4   5   4   40.63    9.41
   4   5   4   41.83    6.52
  -4  -5  -4   47.10    6.90
   4   5   5    6.54    3.39
   4   5   5    6.16    4.17
   4   5   5    2.71    2.49
  -4  -5  -5    4.46    2.25
   4   5   6   63.12   12.58
   4   5   6   69.55    9.26
  -4  -5  -6   66.60    8.48
   4   5   7   33.96    6.89
  -4  -5  -7   40.69    6.81
  -4  -5  -8   20.08    5.32
   4   6 -12  228.85   23.73
   4   6 -11  117.87   15.81
  -4  -6  11  128.69   15.01
   4   6 -11  116.84   14.98
  -4  -6  10  104.04   13.01
   4   6 -10   90.05   13.28
   4   6  -9  166.57   16.54
  -4  -6   9  196.07   16.65
   4   6  -9  210.67   19.76
   4   6  -8   36.12    7.12
   4   6  -8   35.22    8.36
  -4  -6   8   31.97    4.71
   4   6  -7   28.09    5.94
   4   6  -7   47.31    9.28
  -4  -6   7   44.01    5.70
   4   6  -6  373.42   26.40
  -4  -6   6  400.74   18.51
   4   6  -5  186.35   18.20
  -4  -6   5  181.16   12.07
   4   6  -4  163.11   17.02
  -4  -6   4  165.84   11.68
  -4  -6   4  150.41   10.28
   4   6  -3   52.84    9.67
  -4  -6   3   57.41    6.97
  -4  -6   3   47.52    5.10
   4   6  -2    4.40    2.97
  -4  -6   2    4.86    1.75
  -4  -6   2    2.71    1.87
   4   6  -1   35.93    7.82
  -4  -6   1   44.87    6.39
   4   6   0   44.66    8.92
   4   6   0   29.76    7.29
   4   6   0   48.72    5.96
  -4  -6   0   43.06    6.36
   4   6   1  371.26   25.60
   4   6   1  327.88   25.05
   4   6   1  333.67   16.65
  -4  -6  -1  364.75   19.59
   4   6   2  283.49   22.50
   4   6   2  278.99   24.29
   4   6   2  333.26   16.89
  -4  -6  -2  335.52   18.92
   4   6   3  383.66   26.29
   4   6   3  359.90   29.13
   4   6   3  423.26   20.19
  -4  -6  -3  417.64   21.73
   4   6   4   54.14    9.62
   4   6   4   57.23   11.98
  -4  -6  -4   61.23    8.17
   4   6   5    4.79    3.55
  -4  -6  -5    7.85    3.80
  -4  -6  -6  112.89   11.62
   4   7 -11    8.70    4.49
   4   7 -10   23.46    7.66
  -4  -7   9   13.47    6.13
   4   7  -9    8.91    5.36
   4   7  -8   -3.06    4.13
  -4  -7   8    2.76    1.56
   4   7  -7   87.96   13.41
  -4  -7   7   78.74    8.29
   4   7  -6  135.10   16.49
  -4  -7   6  142.56   11.30
   4   7  -5   32.51    8.24
  -4  -7   5   41.98    6.11
   4   7  -4  359.35   27.32
  -4  -7   4  377.84   19.47
   4   7  -3  105.75   14.67
  -4  -7   3  124.87   10.90
   4   7  -2   21.23    6.37
  -4  -7   2   20.00    4.78
   4   7  -1  140.49   16.44
  -4  -7   1  121.56   11.15
   4   7   0   53.82   10.22
   4   7   0   46.94   10.04
  -4  -7   0   36.60    6.25
   4   7   1   19.77    6.74
   4   7   1   20.17    7.19
  -4  -7  -1   19.49    4.80
   4   7   2    5.74    4.18
  -4  -7  -2    7.00    3.27
   4   7   3  119.03   15.18
  -4  -7  -3  113.30   11.49
   4   7   4   25.69    7.08
  -4  -7  -4   19.69    5.12
   4   7   5   97.85   13.87
   4   8  -9   -2.21    4.26
   4   8  -8   12.71    6.07
  -4  -8   8    5.18    2.86
   4   8  -7   29.81    8.36
  -4  -8   7   13.29    3.82
   4   8  -6   10.76    5.65
  -4  -8   6    3.28    2.53
   4   8  -5   62.43   11.79
  -4  -8   5   59.32    7.81
   4   8  -4    6.05    5.62
  -4  -8   4    5.37    3.14
   4   8  -3   12.12    6.10
  -4  -8   3    2.25    2.20
   4   8  -2  398.23   29.84
  -4  -8   2  439.52   22.99
   4   8  -1   15.14    5.82
  -4  -8   1   31.90    6.14
   4   8   0   57.72   11.16
  -4  -8   0   59.14    8.56
   4   8   1   27.34    8.38
  -4  -8  -1   18.75    4.93
   4   8   2   60.57   11.49
   4   8   3    3.00    3.83
  -4  -9   7    7.13    3.60
  -4  -9   6   38.50    6.77
  -4  -9   5    6.87    3.30
  -4  -9   4    0.58    2.29
  -4  -9   0   84.39    9.56
  -5  11   5    5.23    5.51
   5 -11  -4    9.85    4.78
  -5  11   4   11.21    5.98
  -5  11   3  184.43   23.29
   5 -11  -3  146.55   14.28
   5 -11  -2   99.76   11.28
  -5  11   2   86.38   16.19
  -5  11   1  149.57   21.27
   5 -11  -1  146.83   13.12
  -5  10   6   86.22   15.57
   5 -10  -6   95.94   12.25
  -5  10   5  121.78   21.55
   5 -10  -5  115.06   13.09
  -5  10   5  127.14   18.41
   5 -10  -4    7.01    4.39
  -5  10   4   -2.73    4.85
   5 -10  -3  106.22   11.81
  -5  10   3   96.82   16.06
   5 -10  -2   73.02    9.30
  -5  10   2   79.64   14.84
   5 -10  -1   61.68    8.19
   5 -10  -1   75.36    9.34
  -5  10   1   57.51   12.47
   5 -10   0    6.41    3.76
  -5  10   0   11.66    7.00
  -5  10  -1  114.83   17.69
   5 -10   1  127.88   12.83
   5 -10   2   18.28    5.32
  -5  10  -2   10.12    6.48
  -5  10  -3  192.70   15.48
  -5  10  -3  204.27   23.66
   5 -10   3  168.65   16.35
  -5  10  -4    2.38    3.06
   5 -10   4    0.79    3.50
  -5  10  -4   -1.43    4.26
  -5  10  -5   13.48    5.04
  -5  10  -6    1.09    2.18
  -5   9   7  275.75   32.45
  -5   9   7  206.89   22.51
   5  -9  -7  256.96   19.89
   5  -9  -6   72.62   10.31
  -5   9   6   43.51   12.72
  -5   9   6   46.07   10.66
   5  -9  -5   58.35    9.47
  -5   9   5   42.87   12.14
  -5   9   5   47.69   11.00
   5  -9  -4   22.47    5.74
  -5   9   4   38.86    9.93
  -5   9   3  132.49   18.01
   5  -9  -3  135.36   12.50
   5  -9  -2   -0.09    2.89
  -5   9   2    2.10    3.92
   5  -9  -1   85.83    9.30
   5  -9  -1  102.21   10.20
  -5   9   1   93.33   15.05
   5  -9   0   17.45    4.67
  -5   9   0   14.96    6.80
   5  -9   1    5.07    3.41
  -5   9  -1    4.87    4.71
  -5   9  -2    4.36    2.62
   5  -9   2   11.66    3.93
  -5   9  -2    9.07    5.47
  -5   9  -3  100.92   11.40
   5  -9   3   80.39   10.67
  -5   9  -3   80.50   14.36
  -5   9  -4   23.94    6.01
   5  -9   4   15.78    5.20
  -5   9  -4   15.34    7.08
  -5   9  -5   54.87    9.18
   5  -9   5   45.21    8.99
  -5   9  -5   52.65   12.02
  -5   9  -6    9.81    4.49
  -5   9  -6    8.58    4.89
  -5   9  -7   -3.02    5.44
   5  -8 -10  202.49   22.99
   5  -8  -9   55.43   11.50
  -5   8   9   68.53   17.35
  -5   8   8   67.87   12.46
   5  -8  -8   96.68   11.83
  -5   8   7  194.69   25.84
  -5   8   7  167.46   19.37
   5  -8  -7  203.45   16.67
   5  -8  -6   77.78   10.10
  -5   8   6   68.27   15.11
  -5   8   6   81.93   13.39
  -5   8   5  258.90   28.15
  -5   8   5  234.77   23.10
   5  -8  -5  249.91   17.51
   5  -8  -4    6.48    3.74
  -5   8   4   11.56    5.39
  -5   8   3  158.77   18.69
   5  -8  -3  135.93   12.00
  -5   8   2  203.37   21.05
   5  -8  -2  167.49   13.01
  -5   8   1  202.68   21.18
   5  -8  -1  202.04   13.92
   5  -8   0   41.85    6.37
  -5   8   0   30.52    8.25
   5  -8   1  134.38    9.99
  -5   8  -1  137.02   17.34
   5  -8   1  141.31   11.88
   5  -8   2   81.24    8.53
   5  -8   2   75.47    7.97
  -5   8  -2   97.31   14.81
   5  -8   2   73.30    9.10
   5  -8   3   18.65    4.98
   5  -8   3    7.31    3.26
   5  -8   3    3.14    2.22
  -5   8  -3   13.43    6.15
   5  -8   4   99.23   11.08
   5  -8   4   93.10    9.27
   5  -8   4   70.81   10.54
  -5   8  -4   74.59   13.53
  -5   8  -5   27.87    6.79
   5  -8   5   33.43    6.82
   5  -8   5   25.93    5.27
  -5   8  -5   48.42   10.95
  -5   8  -6   -1.55    3.04
   5  -8   6    1.25    2.53
   5  -8   6    1.52    2.05
  -5   8  -6    1.58    3.60
  -5   8  -7   84.54   12.34
   5  -8   7   92.01   13.12
   5  -8   7   93.89   10.76
  -5   8  -7   89.50   15.18
   5  -8   8   15.69    6.28
   5  -8   8   16.96    5.10
  -5   8  -8    5.70    4.90
   5  -8   9   21.47    6.01
  -5   8  -9   12.57    7.18
   5  -7 -11   49.23   11.40
   5  -7 -10   55.04    9.53
  -5   7  10   46.08   13.45
   5  -7 -10   32.87    9.18
   5  -7  -9   35.64    7.83
   5  -7  -9   37.68    9.56
  -5   7   9   22.60    7.05
  -5   7   9   27.66    9.73
   5  -7  -8  179.33   19.98
  -5   7   8  198.35   25.88
  -5   7   8  161.90   18.25
   5  -7  -8  171.89   15.47
   5  -7  -7   45.69    8.22
   5  -7  -7   48.52    9.99
  -5   7   7   42.63   11.69
  -5   7   7   54.35   10.67
   5  -7  -6   69.01    9.24
  -5   7   6   57.85   12.85
  -5   7   6   56.46   10.77
  -5   7   5  158.82   20.51
  -5   7   5  141.09   16.96
   5  -7  -5  135.24   12.37
  -5   7   4  400.77   28.87
   5  -7  -4  390.93   20.91
  -5   7   3  110.62   14.98
   5  -7  -3  131.43   11.27
   5  -7  -2   35.55    5.65
  -5   7   2   54.72   10.41
   5  -7  -1  168.95    7.63
  -5   7   1  179.29   19.06
   5  -7   0   54.48    5.20
  -5   7   0   39.98    9.06
   5  -7   1    0.53    1.12
   5  -7   1    0.33    1.69
  -5   7  -1   -0.32    2.78
   5  -7   2  176.55   12.55
  -5   7  -2  169.30   18.66
   5  -7   2  179.56   13.79
   5  -7   3   85.30    9.50
   5  -7   3  105.18    9.83
   5  -7   3   96.14   10.73
  -5   7  -3   93.63   13.92
   5  -7   4   14.53    4.47
   5  -7   4   19.86    5.55
   5  -7   4   20.27    4.59
   5  -7   4   12.31    4.53
  -5   7  -4   13.64    5.79
   5  -7   5   28.94    6.34
   5  -7   5   15.00    4.61
   5  -7   5   26.79    5.47
  -5   7  -5   27.96    8.37
   5  -7   6   23.10    6.24
   5  -7   6   19.38    4.89
  -5   7  -6   31.34    8.83
  -5   7  -7   82.38   12.05
   5  -7   7   90.62   12.94
   5  -7   7  121.56   12.13
  -5   7  -7  130.44   17.41
  -5   7  -8  138.27   15.96
   5  -7   8  141.53   13.80
  -5   7  -8  130.71   17.87
   5  -7   9  181.78   16.42
  -5   7  -9  180.72   21.39
   5  -6 -12   28.16    8.34
   5  -6 -11  513.46   35.12
  -5   6  11  516.78   45.71
   5  -6 -11  522.65   29.22
   5  -6 -10   32.80    7.46
   5  -6 -10   22.75    7.19
  -5   6  10   26.76   10.10
   5  -6  -9  357.47   28.10
  -5   6   9  398.95   27.76
  -5   6   9  380.69   35.77
   5  -6  -9  375.31   22.85
   5  -6  -8   -0.79    2.66
  -5   6   8    0.69    3.49
  -5   6   8    0.90    2.75
   5  -6  -7  144.59   16.45
  -5   6   7  128.87   15.84
  -5   6   7  114.94   17.77
   5  -6  -7  118.22   11.87
   5  -6  -6  173.33   17.77
  -5   6   6  194.96   22.35
  -5   6   6  199.62   19.55
   5  -6  -6  204.14   14.95
   5  -6  -5    7.30    3.51
   5  -6  -5    7.37    3.40
  -5   6   5   15.09    6.93
  -5   6   5    9.87    4.85
   5  -6  -4    1.23    2.34
  -5   6   4    1.67    2.52
  -5   6   3  246.57   21.42
   5  -6  -3  235.25   14.82
   5  -6  -2    3.53    2.05
  -5   6   2    8.00    3.87
  -5   6   1    7.22    4.13
   5  -6   0    3.77    2.29
  -5   6   0    3.57    3.18
  -5   6  -1   75.75   12.04
   5  -6   1   80.82    7.99
   5  -6   2  111.17   12.25
   5  -6   2  109.86    9.45
  -5   6  -2  113.55   14.51
   5  -6   2   99.55    9.82
   5  -6   3  220.12   16.85
   5  -6   3  200.14   14.36
   5  -6   3  183.28   13.33
  -5   6  -3  197.51   19.45
   5  -6   3  194.09   15.29
   5  -6   4  234.68   17.25
   5  -6   4  243.18   17.20
   5  -6   4  248.80   16.19
  -5   6  -4  285.74   23.78
   5  -6   5   50.81    8.26
   5  -6   5   61.62    8.26
  -5   6  -5   72.98   12.22
   5  -6   6  123.39   11.89
  -5   6  -6  107.99   14.86
   5  -6   7  164.79   14.31
  -5   6  -7  124.31   16.47
  -5   6  -8   74.08   11.75
   5  -6   8   77.54   10.29
  -5   6  -8   68.40   12.52
   5  -6   9   71.93   10.42
   5  -5 -12   27.86    7.31
  -5   5  12   25.06   10.65
   5  -5 -12   14.40    5.95
   5  -5 -11    6.99    4.53
   5  -5 -11    4.21    3.70
  -5   5  11    9.11    5.90
   5  -5 -10  177.46   18.91
   5  -5 -10  169.72   14.91
   5  -5  -9  695.78   38.31
  -5   5   9  658.46   45.74
   5  -5  -9  680.32   30.76
   5  -5  -8  343.81   25.83
  -5   5   8  366.96   26.02
  -5   5   8  345.94   31.15
   5  -5  -8  387.70   21.54
   5  -5  -7   63.89    8.62
  -5   5   7   61.66   10.52
  -5   5   7   50.99   11.39
   5  -5  -7   75.30   11.81
   5  -5  -6   68.28    8.39
   5  -5  -6   76.05   11.39
  -5   5   6   70.02   11.24
  -5   5   6   83.25   13.49
   5  -5  -5  167.82   16.46
  -5   5   5  174.94   18.56
  -5   5   5  146.11   16.27
   5  -5  -5  168.23   12.70
   5  -5  -4   -2.51    3.07
   5  -5  -4    5.18    3.63
  -5   5   4    1.94    2.60
  -5   5   4    0.26    2.18
   5  -5  -3  194.98   16.92
  -5   5   3  185.16   18.01
   5  -5  -3  189.84   12.88
   5  -5  -2   25.98    6.10
  -5   5   2   26.72    6.67
   5  -5  -1  377.08   23.15
  -5   5   1  385.99   26.21
   5  -5  -1  390.29   15.97
   5  -5   0   34.33    6.69
  -5   5   0   43.03    8.47
   5  -5   0   42.84    5.07
   5  -5   1   40.20    7.31
  -5   5  -1   54.04    4.94
   5  -5   1   37.83    5.30
  -5   5  -1   54.96    9.43
  -5   5  -2   36.92    4.77
   5  -5   2   24.74    5.92
   5  -5   2   29.91    5.26
  -5   5  -2   18.46    5.60
   5  -5   3 1170.46   42.10
  -5   5  -3 1201.52   50.07
   5  -5   4  140.40   12.27
   5  -5   4  153.50   12.59
  -5   5  -4  147.98   16.26
   5  -5   5  167.67   12.71
   5  -5   5  163.45   13.54
  -5   5  -5  150.95   16.63
   5  -5   6   70.95    9.13
  -5   5  -6   53.42   10.24
   5  -5   7   22.20    5.56
  -5   5  -7   14.92    5.79
   5  -5   8   71.94   10.14
  -5   5  -8   70.03   11.92
  -5   5  -8   71.11   10.33
   5  -5   9   79.30   11.08
   5  -4 -13   29.42    6.87
   5  -4 -12    5.10    4.72
   5  -4 -12   -2.73    3.11
  -5   4  12    0.56    4.98
   5  -4 -11  178.72   18.52
  -5   4  11  167.72   23.16
   5  -4 -11  184.98   15.64
   5  -4 -10  136.43   15.83
  -5   4  10  113.44   18.50
   5  -4 -10  146.53   13.24
   5  -4  -9   83.13   12.42
  -5   4   9   73.19   14.09
   5  -4  -9   78.97    9.62
   5  -4  -8 1692.13   61.42
  -5   4   8 1705.40   71.01
   5  -4  -8 1657.52   51.31
   5  -4  -7  257.21   20.64
  -5   4   7  256.01   21.06
  -5   4   7  268.39   24.45
   5  -4  -7  233.26   15.50
   5  -4  -6   10.09    3.42
   5  -4  -6   11.64    5.03
  -5   4   6   10.40    4.04
  -5   4   6    7.95    3.97
   5  -4  -5  773.12   36.19
  -5   4   5  738.34   37.48
  -5   4   5  719.04   36.80
   5  -4  -5  692.06   27.42
   5  -4  -4    0.37    2.51
  -5   4   4   15.93    5.15
  -5   4   4    9.21    4.46
   5  -4  -4    9.58    3.64
   5  -4  -3  151.63   14.47
  -5   4   3  147.70   15.56
   5  -4  -2    3.08    2.98
  -5   4   2   -0.48    2.24
   5  -4  -1   61.64    8.76
  -5   4   1   63.53    3.40
   5  -4  -1   54.24    5.10
  -5   4   1   46.89    8.69
   5  -4   0   21.45    5.04
  -5   4   0   26.75    3.22
   5  -4   0   16.65    3.07
  -5   4   0   19.92    5.83
   5  -4   1  369.34   21.40
  -5   4  -1  407.84   15.50
  -5   4  -1  373.18   24.88
   5  -4   1  376.08   17.63
  -5   4  -2   15.00    3.13
   5  -4   2   13.93    3.96
   5  -4   2    7.87    2.58
  -5   4  -2   10.51    4.51
   5  -4   3  114.94   10.75
  -5   4  -3  125.65   14.30
   5  -4   4    4.99    1.88
   5  -4   4    6.61    2.84
  -5   4  -4    9.97    4.40
   5  -4   5  293.24   15.81
  -5   4  -5  270.57   21.77
   5  -4   5  325.69   19.41
  -5   4  -6  158.11   16.66
   5  -4   6  175.34   14.49
  -5   4  -7  501.68   30.65
   5  -4   7  514.86   26.93
  -5   4  -7  521.30   28.45
   5  -4   8   14.76    4.97
  -5   4  -8    8.40    3.69
   5  -4   9    8.40    4.39
  -5   3  13  228.82   27.79
   5  -3 -13  193.48   16.58
   5  -3 -12    3.26    4.02
   5  -3 -12    1.91    2.85
  -5   3  12   -2.33    4.68
   5  -3 -11  220.69   19.91
  -5   3  11  226.82   25.65
   5  -3 -11  205.96   15.85
   5  -3 -10   71.16    8.99
  -5   3  10   98.80   16.33
   5  -3 -10   92.33   12.45
   5  -3  -9   44.25    7.06
  -5   3   9   38.64    9.62
   5  -3  -9   43.60    8.52
   5  -3  -8   19.20    4.59
   5  -3  -8    9.02    4.27
  -5   3   8   11.52    5.21
   5  -3  -7  116.61   13.31
  -5   3   7  109.21   14.51
   5  -3  -7   92.63    9.20
   5  -3  -6  683.13   33.28
  -5   3   6  658.07   34.26
  -5   3   6  618.69   33.94
   5  -3  -6  612.77   25.38
   5  -3  -5  173.95   15.69
  -5   3   5  148.56   15.56
  -5   3   5  152.46   14.91
   5  -3  -5  159.41   11.53
  -5   3   4   43.97    8.44
  -5   3   4   64.43    9.07
   5  -3  -4   68.00    9.61
  -5   3   3   28.55    6.70
  -5   3   3   33.31    6.12
   5  -3  -3   28.95    6.26
   5  -3  -2  308.72   19.90
  -5   3   2  307.08    9.60
  -5   3   2  329.21   22.85
  -5   3   1   58.71    4.66
   5  -3  -1   49.58    7.66
  -5   3   1   60.55    9.62
   5  -3  -1   58.78    4.82
   5  -3   0  106.41   10.90
  -5   3   0  110.78    7.57
  -5   3   0  100.58   12.25
   5  -3   0   98.54    7.31
   5  -3   1  703.04   29.49
  -5   3  -1  752.19   25.06
  -5   3  -1  707.52   34.72
   5  -3   2  190.98   13.88
  -5   3  -2  198.27   17.31
  -5   3  -2  207.29   14.02
  -5   3  -2  199.98   12.80
   5  -3   3  414.27   20.43
  -5   3  -3  425.97   26.06
  -5   3  -3  421.80   22.95
   5  -3   4  292.69   15.81
  -5   3  -4  303.00   21.85
   5  -3   4  296.52   18.19
   5  -3   5   -0.40    1.48
   5  -3   5   -0.37    1.82
  -5   3  -5   -0.28    2.14
  -5   3  -6  258.27   20.56
   5  -3   6  300.73   19.32
  -5   3  -6  286.52   20.15
  -5   3  -7  243.80   19.72
   5  -3   7  234.10   17.76
  -5   3  -7  245.00   18.68
   5  -3   8   15.47    5.47
  -5   3  -8    0.59    2.82
   5  -3   9  170.11   16.28
  -5   3  -9  163.47   19.22
  -5   3 -10   32.57    9.72
   5  -2 -14   22.74    5.81
   5  -2 -13   33.24    6.64
  -5   2  13   26.13    9.73
   5  -2 -12   -0.79    2.90
  -5   2  12    6.55    5.10
   5  -2 -12    2.18    2.05
   5  -2 -11   20.00    4.88
  -5   2  11   12.32    4.30
   5  -2 -11   21.49    6.24
   5  -2 -10   91.50   12.08
  -5   2  10   89.78    9.99
  -5   2  10   85.26   14.10
   5  -2 -10   90.14    9.86
   5  -2  -9  269.82   20.90
  -5   2   9  280.41   16.70
  -5   2   9  273.06   24.19
   5  -2  -9  277.65   16.75
   5  -2  -8   47.02    6.50
  -5   2   8   60.90   10.56
  -5   2   8   68.18    7.28
   5  -2  -8   62.57    9.54
   5  -2  -7    8.14    2.67
  -5   2   7   12.40    4.69
  -5   2   7   12.18    2.85
   5  -2  -7   10.08    4.00
  -5   2   6   57.67    9.06
   5  -2  -6   62.74    9.26
  -5   2   6   59.14    5.00
   5  -2  -5  498.65   26.85
  -5   2   5  500.97   28.83
  -5   2   5  463.16   25.23
  -5   2   5  510.36   15.50
   5  -2  -4  766.79   33.88
  -5   2   4  796.74   19.71
  -5   2   4  707.38   35.41
  -5   2   4  734.03   30.28
   5  -2  -3   55.89    8.21
  -5   2   3   59.02    6.98
  -5   2   3   50.85    8.64
   5  -2  -2  212.74   16.12
  -5   2   2  246.73   19.34
  -5   2   2  236.16   12.80
   5  -2  -2  235.90    8.81
   5  -2  -1  595.90   27.32
  -5   2   1  599.16   31.18
   5  -2  -1  579.69   17.97
   5  -2   0  292.35   17.84
  -5   2   0  262.83   19.96
  -5   2   0  281.50   14.58
   5  -2   1  577.60   26.08
  -5   2  -1  634.01   25.07
  -5   2  -1  670.29   32.67
  -5   2  -1  622.13   22.55
   5  -2   2  162.75   12.25
  -5   2  -2  169.61   12.30
  -5   2  -2  185.17   16.44
  -5   2  -2  168.00    9.19
   5  -2   3  259.22   14.91
  -5   2  -3  244.27   17.01
  -5   2  -3  263.61   19.69
  -5   2  -3  260.33   18.28
   5  -2   4   83.43    7.69
  -5   2  -4  105.55   12.20
   5  -2   4   75.77    9.01
  -5   2  -4   85.48   10.48
   5  -2   5   50.48    5.51
  -5   2  -5   39.36    7.90
   5  -2   5   49.49    7.60
  -5   2  -5   48.10    7.81
  -5   2  -6   67.40    9.82
   5  -2   6   57.83    8.64
  -5   2  -6   62.52    9.13
   5  -2   7    6.00    3.52
  -5   2  -7    8.53    3.45
  -5   2  -8  257.74   22.37
   5  -2   8  241.07   18.89
  -5   2  -8  248.73   18.28
   5  -2   9   37.15    7.92
  -5   2  -9   30.36    8.03
  -5   2 -10   31.46    9.12
   5  -1 -13   -0.98    3.10
  -5   1  13    7.78    4.57
  -5   1  13    4.24    5.23
   5  -1 -12  146.16   15.24
  -5   1  12  142.27   14.99
  -5   1  12  157.10   20.16
   5  -1 -12  150.50   12.81
   5  -1 -11    1.27    2.79
  -5   1  11    3.30    3.11
   5  -1 -11    4.02    3.25
  -5   1  11    3.80    4.67
   5  -1 -10  342.80   23.32
  -5   1  10  309.07   19.38
  -5   1  10  325.43   26.41
   5  -1 -10  330.53   18.48
  -5   1   9    4.16    2.56
   5  -1  -9    0.99    2.48
  -5   1   9    2.52    2.67
  -5   1   9    1.62    1.69
   5  -1  -8   69.72    9.79
  -5   1   8   67.00    6.92
  -5   1   8   59.36    9.78
  -5   1   8   69.67    7.47
   5  -1  -7  249.07   18.61
  -5   1   7  245.74   12.87
  -5   1   7  230.98   18.08
  -5   1   7  218.39   14.07
  -5   1   6   11.01    3.11
   5  -1  -6    3.44    2.80
   5  -1  -6    5.67    2.93
  -5   1   6    2.80    1.75
  -5   1   6    3.75    2.15
  -5   1   5    3.30    2.19
  -5   1   5   -0.58    1.27
  -5   1   5   -0.82    1.91
   5  -1  -4   -0.46    1.76
  -5   1   4    1.68    1.56
  -5   1   4    0.88    1.30
   5  -1  -3  203.70   15.48
  -5   1   3  184.21    9.29
  -5   1   3  172.22   13.25
   5  -1  -2   58.59    7.87
  -5   1   2   49.76    8.64
   5  -1  -2   51.23    3.31
  -5   1   2   55.22    7.43
   5  -1  -1  597.96   27.09
  -5   1   1  656.94   32.04
  -5   1   1  626.29   27.93
   5  -1   0   55.12    7.33
  -5   1   0   54.16    3.89
  -5   1   0   52.30    8.62
  -5   1   0   47.28    7.22
   5  -1   1  415.35   20.72
  -5   1  -1  445.30   17.36
  -5   1  -1  466.75   26.05
  -5   1  -1  444.88   14.30
  -5   1  -1  450.20   23.80
   5  -1   2   70.29    7.62
  -5   1  -2   83.33    8.42
  -5   1  -2   72.19    9.83
  -5   1  -2   77.60    9.51
  -5   1  -2   77.28    5.98
  -5   1  -3  286.97   17.33
   5  -1   3  243.80   14.34
  -5   1  -3  263.20   17.53
  -5   1  -3  304.76   20.41
  -5   1  -3  268.10   18.44
  -5   1  -3  269.32   13.45
   5  -1   4   24.36    4.28
  -5   1  -4   17.79    4.25
  -5   1  -4   18.76    4.99
  -5   1  -4   19.32    5.42
   5  -1   4   25.89    5.34
  -5   1  -4   21.25    5.36
   5  -1   5  181.54   11.21
  -5   1  -5  175.49   14.95
   5  -1   5  181.45   14.86
  -5   1  -5  174.16   14.89
   5  -1   6    1.32    2.57
  -5   1  -6    2.66    2.72
  -5   1  -6    1.70    2.58
  -5   1  -7  110.10   13.55
   5  -1   7  110.86   12.30
  -5   1  -7  107.27   11.78
  -5   1  -8   18.76    6.42
   5  -1   8   16.01    5.56
  -5   1  -8    7.86    3.38
   5  -1   9    6.08    3.77
  -5   1  -9    7.19    4.66
  -5   1 -10   91.81   14.96
  -5   0  14   27.93    9.48
  -5   0  14   30.28    7.98
  -5   0  13  173.63   21.48
  -5   0  13  170.04   17.68
   5   0 -12    1.38    2.63
  -5   0  12   -1.97    3.30
  -5   0  12   -0.82    2.45
  -5   0  11   12.51    6.37
  -5   0  11   20.18    5.39
   5   0 -11   14.73    4.78
   5   0 -10  615.73   31.33
  -5   0  10  621.05   28.49
  -5   0  10  601.83   34.70
   5   0  -9  231.41   18.24
  -5   0   9  239.85   15.47
  -5   0   9  226.02   19.25
  -5   0   9  243.87   12.62
  -5   0   8   13.37    3.62
   5   0  -8   15.85    5.06
  -5   0   8    9.97    3.83
  -5   0   8   11.94    2.99
   5   0  -7   61.15    8.96
  -5   0   7   56.85    6.50
  -5   0   7   50.70    7.63
   5   0  -7   47.46    8.29
  -5   0   7   47.13    6.05
   5   0  -6    9.36    3.72
  -5   0   6   14.84    4.05
   5   0  -6    4.47    2.09
  -5   0   6    9.01    2.92
   5   0  -5 1694.77   55.17
  -5   0   5 1697.57   51.75
   5   0  -5 1654.81   48.79
  -5   0   5 1783.43   46.30
  -5   0   5 1678.72   50.11
  -5   0   4  113.37   10.08
   5   0  -4  129.47   12.21
  -5   0   4  122.09   10.89
   5   0  -3   23.02    5.10
  -5   0   3   27.40    4.70
  -5   0   3   16.43    3.80
   5   0  -2   49.73    7.17
  -5   0   2   41.88    6.46
   5   0  -1 1048.49   37.23
  -5   0   1 1075.63   38.54
   5   0   0   10.38    3.55
  -5   0   0   14.37    4.49
   5   0   1   98.19    9.46
  -5   0  -1  118.08   11.53
  -5   0  -1  113.66    6.10
   5   0   2  108.20    9.71
  -5   0  -2  117.34    9.29
  -5   0  -2  133.61   12.54
  -5   0  -2  117.89    7.74
   5   0   3   98.18    9.04
  -5   0  -3   95.16    9.93
  -5   0  -3  111.97   11.52
  -5   0  -3   83.49    7.67
   5   0   4    4.20    2.21
  -5   0  -4    1.21    2.43
   5   0   4    4.52    2.94
  -5   0  -4    2.43    2.53
  -5   0  -4    2.04    1.55
   5   0   5  258.50   15.11
  -5   0  -5  269.34   17.97
   5   0   5  293.77   19.08
  -5   0  -5  290.30   19.26
  -5   0  -6   10.77    4.20
   5   0   6    7.37    3.74
  -5   0  -6    8.16    3.82
  -5   0  -7   97.36   12.36
   5   0   7   97.43   11.67
  -5   0  -7  101.74   11.15
  -5   0  -8   -2.84    3.72
   5   0   8   -0.26    2.79
  -5   0  -8    2.56    2.77
  -5  -1  14  109.66   15.47
  -5  -1  13   17.72    6.02
  -5  -1  12   13.24    5.01
   5   1 -12   12.45    5.00
  -5  -1  11  148.55   14.33
   5   1 -11  132.34   13.71
  -5  -1  10  297.63   18.92
   5   1 -10  249.06   18.91
  -5  -1   9  307.76   18.01
   5   1  -9  283.66   19.99
  -5  -1   9  285.18   13.14
  -5  -1   8   24.67    5.68
   5   1  -8   14.47    4.66
  -5  -1   8   15.68    3.08
   5   1  -7   91.27   10.67
  -5  -1   7  117.58    9.39
   5   1  -7   86.92   11.17
  -5  -1   7  102.88    8.69
   5   1  -6  107.18   11.33
  -5  -1   6  101.08   10.11
   5   1  -6   95.00   10.34
   5   1  -6   86.39    5.84
  -5  -1   6   86.37    8.49
   5   1  -5  591.06   28.20
  -5  -1   5  635.38   25.72
   5   1  -5  568.23   23.94
   5   1  -5  606.98   14.77
  -5  -1   5  624.52   25.45
   5   1  -4   55.95    7.93
  -5  -1   4   40.56    5.42
   5   1  -4   41.86    4.47
  -5  -1   4   53.79    7.18
  -5  -1   3 1329.33   36.67
   5   1  -3 1254.65   43.75
  -5  -1   3 1282.60   42.15
  -5  -1   2    8.04    2.27
   5   1  -2    2.49    2.15
  -5  -1   2    5.89    3.17
   5   1  -1  702.84   29.63
  -5  -1   1  752.27   30.63
   5   1   0  560.00   25.26
  -5  -1   0  542.75   13.22
  -5  -1   0  565.37   26.29
   5   1   1  580.19   25.40
  -5  -1  -1  513.32   16.69
  -5  -1  -1  589.83   26.99
   5   1   2    2.54    1.70
  -5  -1  -2   -0.90    2.21
   5   1   3   69.53    8.35
  -5  -1  -3   75.85    7.32
   5   1   3   67.94    8.53
  -5  -1  -3   77.50    9.56
   5   1   4   48.00    7.09
  -5  -1  -4   66.54    7.63
   5   1   4   57.96    8.18
  -5  -1  -4   60.98    8.51
   5   1   5    5.32    2.43
  -5  -1  -5    3.47    2.35
   5   1   5    9.59    3.98
  -5  -1  -5    2.23    2.29
  -5  -1  -6   48.21    8.15
   5   1   6   48.75    7.99
  -5  -1  -6   49.53    7.82
   5   1   7   21.33    5.95
  -5  -1  -7   25.29    6.10
   5   1   8    0.50    2.10
  -5  -1  -8    1.10    2.42
  -5  -2  14    0.18    3.27
  -5  -2  13   12.97    5.24
  -5  -2  12    5.79    2.83
   5   2 -12   13.45    5.22
  -5  -2  11  127.51   13.43
   5   2 -11  140.54   14.38
  -5  -2  10   78.74    9.90
   5   2 -10   68.43    9.92
  -5  -2   9  371.73   20.58
   5   2  -9  382.27   23.59
  -5  -2   9  373.27   15.26
  -5  -2   8  187.30   13.15
   5   2  -8  183.36   15.79
  -5  -2   8  165.68   10.33
   5   2  -7  258.51   18.59
   5   2  -7  233.27   19.00
  -5  -2   7  279.20   14.55
   5   2  -7  264.33   11.20
   5   2  -6  801.70   34.33
   5   2  -6  765.26   32.60
   5   2  -6  780.68   19.51
  -5  -2   6  746.93   27.69
   5   2  -5 1313.28   46.64
   5   2  -5 1306.50   41.56
  -5  -2   5 1405.12   41.93
   5   2  -4  178.55   14.67
   5   2  -4  161.33    9.84
  -5  -2   4  143.48   11.50
   5   2  -3  306.35   19.09
  -5  -2   3  294.21   16.98
   5   2  -2  139.55   12.61
  -5  -2   2  132.51   11.44
   5   2  -1  292.54   18.50
  -5  -2   1  264.05   16.93
   5   2   0  163.56   13.65
  -5  -2   0  158.27    6.42
  -5  -2   0  201.64   14.64
   5   2   1   69.70    8.90
   5   2   1   58.58    5.10
  -5  -2  -1   68.62    8.76
   5   2   2    2.31    2.16
  -5  -2  -2    4.26    1.50
   5   2   2    6.81    2.19
  -5  -2  -2    8.59    3.50
   5   2   3  210.11   15.97
  -5  -2  -3  182.86   10.53
   5   2   3  172.06   13.86
   5   2   3  180.87   13.01
  -5  -2  -3  188.12   14.70
   5   2   4    1.47    1.71
   5   2   4    0.95    2.32
   5   2   4    0.70    1.99
  -5  -2  -4    2.37    2.64
   5   2   5   23.16    5.08
   5   2   5   24.95    5.76
   5   2   5   33.50    6.70
  -5  -2  -5   21.05    5.20
   5   2   6   80.96   10.39
   5   2   6   84.48   11.60
  -5  -2  -6   72.44    9.38
   5   2   7    7.10    4.43
  -5  -2  -7    6.25    3.51
   5   2   8   82.71   11.59
  -5  -2  -8   68.91    9.15
  -5  -3  13  116.36   14.99
   5   3 -13  118.01   17.73
  -5  -3  12    2.33    2.52
   5   3 -12    3.29    3.42
   5   3 -12    0.67    2.92
   5   3 -11  117.67   15.34
  -5  -3  11   99.50   12.09
   5   3 -11   96.57   12.54
  -5  -3  10   69.92    9.83
   5   3 -10   66.93   11.04
   5   3 -10   52.10    8.97
  -5  -3   9  186.32   15.05
   5   3  -9  184.07   16.60
  -5  -3   9  190.54   10.32
  -5  -3   8   42.80    6.92
   5   3  -8   40.89    7.75
  -5  -3   8   33.60    4.55
   5   3  -7   44.44    8.03
  -5  -3   7   49.57    5.88
   5   3  -6   90.15   11.10
   5   3  -6   87.84   10.43
  -5  -3   6   94.06    8.52
   5   3  -5  104.67   11.96
   5   3  -5  107.29   10.12
  -5  -3   5  125.84   10.24
   5   3  -4   83.32   10.64
   5   3  -4   78.49    7.42
  -5  -3   4   72.84    8.02
   5   3  -3    4.58    2.95
   5   3  -3    5.11    1.78
  -5  -3   3    7.91    2.94
   5   3  -2   43.06    7.49
   5   3  -2   35.43    4.11
  -5  -3   2   45.86    6.58
   5   3  -1  190.93   15.83
   5   3  -1  176.13    9.64
  -5  -3   1  196.77   14.24
   5   3   0  357.01   22.20
   5   3   0  338.21   15.31
  -5  -3   0  341.18   19.54
   5   3   1   22.52    5.77
   5   3   1   17.12    3.76
  -5  -3  -1   30.09    5.80
   5   3   2   25.24    6.00
   5   3   2   21.12    4.55
   5   3   2   15.36    4.31
  -5  -3  -2   20.03    4.92
   5   3   3   66.75    9.54
   5   3   3   59.86    8.37
   5   3   3   73.82    8.96
  -5  -3  -3   71.38    9.22
   5   3   4   95.08   11.45
   5   3   4   91.49   11.34
   5   3   4   96.16   10.77
  -5  -3  -4  107.37   11.36
   5   3   5  104.03   11.52
   5   3   5  114.46   12.04
  -5  -3  -5  122.41   12.00
   5   3   6   -1.86    2.87
  -5  -3  -6    1.34    2.22
   5   3   7  115.35   13.10
  -5  -3  -7   95.93   10.73
   5   3   8    1.75    2.76
  -5  -3  -8    0.84    2.14
   5   4 -13   15.31    6.95
  -5  -4  12    8.40    5.37
   5   4 -12    3.87    3.14
   5   4 -12    0.20    2.28
   5   4 -11   27.26    7.68
  -5  -4  11   43.59    8.73
   5   4 -11   34.78    8.16
   5   4 -10   31.29    7.39
   5   4 -10   23.82    6.42
  -5  -4   9    7.84    4.69
   5   4  -9    6.16    3.45
   5   4  -9    9.82    4.70
  -5  -4   9    8.64    2.56
   5   4  -8  346.22   22.02
  -5  -4   8  407.47   22.24
   5   4  -8  344.79   24.09
  -5  -4   8  376.15   16.70
   5   4  -7  619.67   32.55
  -5  -4   7  580.36   22.73
   5   4  -6  493.63   28.33
  -5  -4   6  487.44   21.01
   5   4  -5  297.41   21.53
  -5  -4   5  295.09   16.12
   5   4  -4   87.86   11.51
  -5  -4   4   88.59    8.89
   5   4  -3    4.80    3.21
  -5  -4   3    4.40    2.61
   5   4  -2  145.32   14.86
  -5  -4   2  168.61   12.83
   5   4  -1  103.28   12.75
   5   4  -1  107.56    9.69
  -5  -4   1  107.72   10.50
   5   4   0   18.02    5.61
   5   4   0   17.11    4.31
  -5  -4   0   20.92    4.79
   5   4   1   95.67   12.41
   5   4   1   88.04   10.10
  -5  -4  -1   94.14   10.17
   5   4   2    2.63    1.93
   5   4   2    0.50    2.29
  -5  -4  -2    0.24    1.56
   5   4   3    0.94    2.14
   5   4   3    0.94    2.19
  -5  -4  -3    1.86    2.16
   5   4   4    6.76    3.37
   5   4   4   11.01    3.93
  -5  -4  -4    6.54    3.47
   5   4   5    6.57    2.86
   5   4   5    6.25    3.49
  -5  -4  -5    7.64    3.62
   5   4   6    1.48    2.16
  -5  -4  -6   -0.92    2.44
   5   4   7   44.33    8.34
  -5  -4  -7   46.58    7.59
  -5  -4  -8    4.71    3.62
   5   5 -12  169.66   18.63
  -5  -5  11   30.16    7.75
   5   5 -11   17.89    6.10
  -5  -5  10  389.26   24.48
   5   5 -10  340.17   26.21
  -5  -5   9   49.82    9.03
   5   5  -9   51.22    9.95
   5   5  -8   52.76    9.80
  -5  -5   8   56.45    6.32
   5   5  -7    0.76    2.37
  -5  -5   7    1.51    1.57
   5   5  -6  269.40   22.30
  -5  -5   6  288.49   15.87
   5   5  -5  466.98   29.68
  -5  -5   5  501.26   22.19
   5   5  -4  125.09   14.92
  -5  -5   4  107.57    9.86
   5   5  -3    3.12    2.94
  -5  -5   3   -0.06    1.50
   5   5  -2   10.74    5.12
  -5  -5   2    5.95    2.75
   5   5  -1   65.97   10.82
  -5  -5   1   66.82    8.24
   5   5   0    8.69    4.66
  -5  -5   0    9.55    3.61
   5   5   1    5.75    3.62
  -5  -5  -1    2.50    1.87
   5   5   2    5.12    3.90
   5   5   2    4.50    2.80
  -5  -5  -2    4.69    2.44
   5   5   3  107.22   13.53
   5   5   3  106.52   10.77
  -5  -5  -3   93.02   10.40
   5   5   4   15.98    5.51
   5   5   4   16.51    4.83
  -5  -5  -4   22.40    5.37
   5   5   5   59.73    8.74
  -5  -5  -5   70.85    9.40
   5   5   6   -2.46    2.99
  -5  -5  -6    2.48    2.48
   5   6 -12   14.39    7.53
   5   6 -11  113.42   15.98
  -5  -6  10   12.10    5.40
   5   6 -10    2.57    2.78
  -5  -6   9  200.62   17.21
   5   6  -9  152.86   18.21
   5   6  -8  141.61   17.08
  -5  -6   8  131.76   10.38
   5   6  -7  145.33   17.42
  -5  -6   7  153.67   11.55
   5   6  -6   43.14    9.80
  -5  -6   6   43.84    6.21
   5   6  -5   44.82    9.89
  -5  -6   5   36.16    5.98
   5   6  -4  122.64   15.75
  -5  -6   4  141.43   11.66
   5   6  -3  160.98   18.09
  -5  -6   3  187.67   13.82
   5   6  -2   10.15    4.76
  -5  -6   2   18.33    4.48
   5   6  -1  352.76   27.25
  -5  -6   1  414.46   21.89
   5   6   0   11.99    5.24
  -5  -6   0   22.78    5.09
   5   6   1   51.79   10.04
  -5  -6  -1   66.19    8.77
   5   6   2    1.37    2.84
  -5  -6  -2    0.09    1.87
   5   6   3   28.27    7.78
  -5  -6  -3   23.67    5.64
   5   6   4   23.58    7.28
   5   7  -9  104.28   15.54
   5   7  -8  107.49   15.80
  -5  -7   8  113.75   10.30
   5   7  -7  107.38   16.00
  -5  -7   7  131.85   11.34
   5   7  -6   11.04    5.24
  -5  -7   6   19.29    4.43
   5   7  -5   98.20   15.07
  -5  -7   5   81.45    9.09
   5   7  -4   26.50    8.41
  -5  -7   4   27.34    5.26
   5   7  -3   14.17    5.82
  -5  -7   3   17.11    4.28
   5   7  -2    9.61    5.43
  -5  -7   2    4.63    2.84
   5   7  -1  205.34   21.36
  -5  -7   1  209.52   15.73
   5   7   0    6.56    4.52
  -5  -7   0   24.31    5.51
   5   7   1   91.98   14.19
   5   7   2    0.04    2.54
   5   7   3  136.12   17.03
   5   7   4    2.38    4.62
  -5  -8   7   45.96    7.41
  -5  -8   6    0.48    1.81
  -5  -8   5  199.30   15.23
  -5  -8   4   12.49    4.10
   6 -11  -3   43.49    7.90
  -6  10   7    5.57    7.36
  -6  10   6   12.52    5.67
   6 -10  -5   62.17    9.60
  -6  10   5   48.21   13.76
  -6  10   5   43.52   12.05
   6 -10  -4   53.58    8.80
  -6  10   4   59.84   13.31
  -6  10   3  164.72   21.94
   6 -10  -3  144.58   14.05
   6 -10  -2   21.44    5.63
  -6  10   2   15.75    8.07
   6 -10  -1    7.35    3.96
  -6  10   1   -8.97    5.70
   6 -10   0    2.89    3.41
  -6  10   0    6.90    5.61
  -6  10  -1  164.97   22.15
   6 -10   1  141.82   14.16
   6 -10   2    1.71    3.28
  -6  10  -3  113.87   13.08
  -6  10  -4   11.43    4.68
  -6  10  -5   31.64    7.78
  -6   9   8   29.85    9.23
  -6   9   7   27.05   11.48
  -6   9   7   12.41    6.78
   6  -9  -6   18.45    5.88
  -6   9   6   17.36    8.42
  -6   9   6   31.76    9.64
   6  -9  -5   20.94    5.40
  -6   9   5   27.44   10.50
  -6   9   5   37.92   10.74
  -6   9   4  153.58   20.51
   6  -9  -4  132.93   13.32
   6  -9  -3   55.58    8.19
  -6   9   3   64.84   13.37
  -6   9   2  107.73   17.01
   6  -9  -1   65.12    8.73
  -6   9   1   69.88   13.73
  -6   9   0  240.92   25.65
   6  -9   0  253.32   17.33
  -6   9  -1  209.15   23.98
   6  -9   1  238.59   17.25
   6  -9   2   44.21    7.91
  -6   9  -2   51.80   12.11
   6  -9   3    2.12    3.14
   6  -9   3   -0.68    2.62
  -6   9  -3    3.38    4.21
   6  -9   4    7.92    4.46
   6  -9   4    3.10    2.73
  -6   9  -4   15.32    7.91
  -6   9  -5   12.86    5.14
  -6   9  -5    5.18    5.86
   6  -8  -9   19.75    7.88
  -6   8   9   26.38   11.39
   6  -8  -8  169.37   20.73
  -6   8   8  224.73   28.94
  -6   8   8  196.50   22.26
   6  -8  -8  173.68   16.30
   6  -8  -7   41.72    8.18
   6  -8  -7   41.40   10.58
  -6   8   7   25.00    7.87
  -6   8   7   31.66   10.67
   6  -8  -6   16.93    5.07
   6  -8  -6   12.73    5.86
  -6   8   6   24.23    8.03
   6  -8  -5  499.05   34.26
  -6   8   5  520.66   40.64
  -6   8   5  476.61   35.19
   6  -8  -5  483.05   26.23
   6  -8  -4  118.85   16.02
  -6   8   4  119.14   17.33
   6  -8  -4  118.25   12.09
   6  -8  -3   58.13    8.17
  -6   8   3   51.00   11.51
  -6   8   2  363.16   30.36
   6  -8  -1   27.52    5.45
  -6   8   1   35.04    9.74
   6  -8   0   16.03    4.37
  -6   8   0    8.41    5.61
   6  -8   1   50.38    9.93
   6  -8   1   53.03    7.72
  -6   8  -1   63.27   12.78
   6  -8   2  118.85   14.53
  -6   8  -2  115.95   17.11
   6  -8   2  110.70   12.01
   6  -8   3    7.64    4.34
   6  -8   3   10.20    3.80
   6  -8   3    7.93    4.04
  -6   8  -3    8.11    4.78
   6  -8   4   -1.29    1.96
   6  -8   4    1.76    2.68
   6  -8   4    0.61    2.62
  -6   8  -4    3.90    4.89
   6  -8   5   51.40    7.88
  -6   8  -5   57.88   12.44
   6  -8   6    1.08    2.57
  -6   8  -6    2.38    3.74
   6  -8   7   13.38    5.00
  -6   8  -7   25.38    9.17
  -6   7  10   16.41    8.64
   6  -7 -10   18.26    7.62
   6  -7  -9   52.37    9.10
   6  -7  -9   62.75   12.40
  -6   7   9   71.13   12.68
  -6   7   9   89.97   18.10
   6  -7  -8  182.75   20.76
  -6   7   8  155.08   19.19
  -6   7   8  130.16   21.37
   6  -7  -8  157.47   14.98
   6  -7  -7   20.47    5.74
   6  -7  -7   16.04    6.57
  -6   7   7   26.14    8.10
  -6   7   7   11.45    6.45
   6  -7  -6   33.26    6.70
   6  -7  -6   44.68   10.01
  -6   7   6   24.11    8.65
  -6   7   6   47.10   10.66
   6  -7  -5   84.75   10.01
   6  -7  -5  119.88   15.96
  -6   7   5  116.56   17.75
  -6   7   5   94.55   14.81
   6  -7  -4   82.94   12.82
   6  -7  -4   79.46    9.44
  -6   7   4   77.22   13.59
   6  -7  -3  203.56   20.21
  -6   7   3  212.31   22.42
   6  -7  -2   -1.15    3.75
  -6   7   2    2.76    2.80
   6  -7  -1  143.88   16.17
  -6   7   1  159.09   18.98
   6  -7  -1  170.74   12.02
   6  -7   0  125.54   14.88
  -6   7   0  126.56   17.03
   6  -7   0  137.19   11.20
   6  -7   1  280.68   22.15
  -6   7  -1  300.04   26.54
   6  -7   1  301.21   18.11
   6  -7   2    1.96    2.13
   6  -7   2    3.36    2.82
  -6   7  -2    7.94    5.65
   6  -7   3   56.11    9.65
   6  -7   3   49.01    7.48
   6  -7   3   32.45    6.55
  -6   7  -3   63.64   12.45
   6  -7   4  229.56   18.73
   6  -7   4  243.51   17.18
  -6   7  -4  215.63   22.88
   6  -7   5   21.60    5.36
  -6   7  -5   24.47    8.16
   6  -7   6   34.83    7.01
  -6   7  -6   14.87    6.39
   6  -7   7   57.66    8.91
  -6   7  -7   55.68   12.23
  -6   7  -8    7.74    5.72
   6  -6 -12    7.89    4.36
  -6   6  11   42.91   13.72
   6  -6 -11   41.72   10.29
   6  -6 -10   66.93   10.01
  -6   6  10   69.83   16.21
   6  -6 -10   64.39   12.42
   6  -6  -9    0.68    2.94
  -6   6   9    1.74    3.50
  -6   6   9    1.78    4.82
   6  -6  -9    2.60    3.99
   6  -6  -8    6.65    4.10
   6  -6  -8    7.48    4.74
  -6   6   8   12.27    5.54
  -6   6   8   17.17    7.07
   6  -6  -7  123.08   16.10
  -6   6   7  133.78   17.28
  -6   6   7   95.93   16.28
   6  -6  -7  101.62   11.14
   6  -6  -6  105.82   14.65
  -6   6   6  141.54   17.83
  -6   6   6  113.40   16.85
   6  -6  -6  122.71   12.06
   6  -6  -5  168.28   18.02
  -6   6   5  163.00   19.35
  -6   6   5  145.83   17.97
   6  -6  -5  146.32   12.92
   6  -6  -4  219.11   20.36
  -6   6   4  234.38   22.49
  -6   6   4  221.96   22.12
   6  -6  -3  100.81   13.53
  -6   6   3   96.74   14.74
   6  -6  -2   24.54    6.58
  -6   6   2   40.49    9.39
   6  -6  -1    3.69    3.21
   6  -6  -1    1.64    2.15
  -6   6   1    5.66    5.29
   6  -6   0  107.52   13.27
  -6   6   0   92.62   14.09
   6  -6   0  100.19    9.23
   6  -6   1  133.16   14.36
  -6   6  -1  129.49   16.73
   6  -6   1  122.27   10.88
   6  -6   2   54.36    9.06
   6  -6   2   57.17    8.09
  -6   6  -2   61.81   11.71
   6  -6   3   42.40    7.93
   6  -6   3   36.13    6.50
  -6   6  -3   50.73   11.09
   6  -6   4   26.63    6.08
   6  -6   4   29.27    6.37
   6  -6   5   65.46    9.33
  -6   6  -5   74.32   13.21
   6  -6   6   95.36   11.50
  -6   6  -6  110.91   16.32
   6  -6   7   23.20    5.91
  -6   6  -7   22.25    7.79
   6  -5 -12   10.53    5.37
  -6   5  12   20.71   10.13
   6  -5 -11  143.80   18.15
  -6   5  11  129.53   21.25
   6  -5 -11  135.62   14.47
   6  -5 -10   -1.92    3.30
   6  -5 -10    4.19    4.18
  -6   5  10    6.54    6.42
   6  -5  -9  817.51   44.07
  -6   5   9  831.70   51.40
   6  -5  -9  856.74   36.13
   6  -5  -8   84.26   10.38
  -6   5   8   92.08   15.73
  -6   5   8  101.89   14.64
   6  -5  -8   93.19   13.85
   6  -5  -7   60.61    8.34
  -6   5   7   75.41   12.41
  -6   5   7   61.07   12.37
   6  -5  -7   71.72   11.83
   6  -5  -6   11.37    2.94
  -6   5   6   29.92    8.86
  -6   5   6   26.76    7.94
   6  -5  -6   15.57    5.73
   6  -5  -5  138.45   15.97
  -6   5   5  161.12   17.86
  -6   5   5  132.35   16.66
   6  -5  -4  278.24   22.31
  -6   5   4  318.62   24.28
  -6   5   4  295.36   25.17
   6  -5  -3  341.12   24.31
  -6   5   3  320.84   25.99
   6  -5  -2   17.01    5.57
   6  -5  -2   30.06    4.29
  -6   5   2   20.45    6.69
   6  -5  -1  291.84   21.66
  -6   5   1  316.43   25.37
   6  -5  -1  289.47   14.33
   6  -5   0  121.40   13.40
  -6   5   0  110.91   15.14
   6  -5   0  109.08    9.23
   6  -5   1   35.59    7.05
   6  -5   1   19.30    4.30
  -6   5  -1   36.23    8.85
   6  -5   2   19.62    5.35
   6  -5   2   16.74    4.28
  -6   5  -2   16.70    6.19
   6  -5   3   61.47    8.85
  -6   5  -3   59.43   11.18
   6  -5   4   62.26    8.59
   6  -5   4   71.95    9.44
  -6   5  -4   51.22   10.33
   6  -5   5   60.07    8.86
  -6   5  -5   48.11   10.17
   6  -5   6   34.67    7.45
  -6   5  -6   31.91    8.34
   6  -5   7   23.65    6.19
  -6   5  -7   16.08    6.53
  -6   5  -7   10.07    4.58
   6  -4 -12    8.99    4.27
  -6   4  12    6.60    5.85
   6  -4 -12    8.96    4.90
   6  -4 -11   71.95    9.90
   6  -4 -11   77.03   12.84
  -6   4  11   82.38   16.12
   6  -4 -10  206.79   20.76
  -6   4  10  197.95   23.82
   6  -4 -10  197.42   15.97
   6  -4  -9  342.39   26.81
  -6   4   9  361.56   31.29
   6  -4  -9  348.12   21.18
   6  -4  -8  306.99   24.40
  -6   4   8  266.15   25.39
   6  -4  -8  286.88   18.60
   6  -4  -7 1525.05   59.28
  -6   4   7 1524.08   61.35
  -6   4   7 1515.21   62.92
   6  -4  -7 1498.61   48.79
  -6   4   6   19.57    6.44
  -6   4   6   21.24    6.82
   6  -4  -6   19.61    6.42
   6  -4  -5  524.44   30.87
  -6   4   5  534.27   33.55
  -6   4   5  517.82   30.80
  -6   4   4    6.74    4.35
  -6   4   4    7.05    4.05
   6  -4  -4    4.10    2.71
   6  -4  -3  100.62   12.69
  -6   4   3  115.77   15.08
  -6   4   3  120.22   12.62
   6  -4  -2    4.97    3.40
   6  -4  -2    6.50    2.21
  -6   4   2    4.58    4.18
   6  -4  -1   34.38    7.29
  -6   4   1   33.51    3.19
   6  -4  -1   29.44    4.06
  -6   4   1   29.66    7.68
   6  -4   0  209.31   17.09
  -6   4   0  218.20   10.51
  -6   4   0  176.62   18.52
   6  -4   0  192.37   11.97
   6  -4   1  116.28   12.35
  -6   4  -1  104.81    8.13
  -6   4  -1   99.85   13.73
   6  -4   1   95.46    9.12
   6  -4   2   17.28    4.94
  -6   4  -2   16.09    5.42
   6  -4   3  366.55   21.26
  -6   4  -3  357.58   26.74
   6  -4   4    8.31    3.11
   6  -4   4   12.32    4.18
  -6   4  -4   13.73    5.29
   6  -4   5   26.33    6.15
  -6   4  -5   39.61    8.85
  -6   4  -5   19.36    5.60
  -6   4  -6  105.68   14.54
   6  -4   6   87.23   10.98
   6  -4   7   21.28    5.81
  -6   4  -7   30.95    7.02
  -6   4  -8  163.72   16.65
   6  -3 -13    5.20    2.97
  -6   3  13   15.53    7.58
   6  -3 -13   13.20    5.35
   6  -3 -12   82.30   10.66
   6  -3 -12   98.98   14.19
  -6   3  12   90.35   16.33
   6  -3 -11  172.16   18.54
  -6   3  11  130.69   19.07
   6  -3 -11  150.78   13.94
   6  -3 -10    5.07    2.49
   6  -3 -10    6.34    3.77
   6  -3  -9   19.98    4.53
   6  -3  -9   27.23    7.78
   6  -3  -8  237.66   20.99
  -6   3   8  241.39   22.61
   6  -3  -7  307.26   23.57
  -6   3   7  321.50   24.76
  -6   3   7  337.47   13.11
   6  -3  -6  928.20   42.07
  -6   3   6  933.73   45.14
  -6   3   6  878.80   40.85
  -6   3   6  898.94   22.69
   6  -3  -5  247.83   20.26
  -6   3   5  267.66   22.61
  -6   3   5  268.80   19.43
  -6   3   5  231.64    7.22
  -6   3   4   13.30    5.94
  -6   3   4    5.24    2.84
  -6   3   4    5.54    0.91
   6  -3  -4    4.37    3.12
   6  -3  -3  134.09   14.06
  -6   3   3  115.97    5.83
  -6   3   3  133.72   15.88
  -6   3   3  103.17   10.33
  -6   3   2    1.60    1.01
   6  -3  -2    2.31    2.65
  -6   3   2    2.33    1.87
  -6   3   2    0.14    2.22
   6  -3  -2    2.17    1.27
  -6   3   1   37.37    4.46
   6  -3  -1   24.53    5.80
  -6   3   1   37.05    8.30
   6  -3  -1   27.55    3.76
   6  -3   0  415.93   24.11
  -6   3   0  402.07   18.08
   6  -3   1  436.22   24.05
  -6   3  -1  484.90   30.20
  -6   3  -1  445.69   20.27
  -6   3  -1  436.61   20.35
   6  -3   2  600.53   28.36
  -6   3  -2  687.46   36.68
  -6   3  -2  628.11   27.54
   6  -3   3  720.00   30.36
  -6   3  -3  696.31   37.95
  -6   3  -3  750.08   35.55
   6  -3   4  336.20   18.30
  -6   3  -4  331.20   25.29
   6  -3   4  328.62   21.06
  -6   3  -4  371.15   24.40
   6  -3   5   -0.82    2.47
  -6   3  -5    3.60    3.46
  -6   3  -5   -0.74    2.15
  -6   3  -6  110.37   14.22
   6  -3   6  117.95   12.92
  -6   3  -6  114.57   13.44
   6  -3   7   51.11    8.90
  -6   3  -7   47.76    8.78
  -6   3  -8    5.60    3.97
  -6   3  -9   17.94    7.57
   6  -2 -14    0.26    3.77
   6  -2 -13   59.81    9.04
  -6   2  13   57.84   13.28
   6  -2 -13   51.17   10.07
   6  -2 -12   10.10    3.94
   6  -2 -12   19.07    6.13
  -6   2  12   21.07    8.12
   6  -2 -11   82.21   12.32
  -6   2  11   80.89   14.04
   6  -2 -10   31.32    7.77
  -6   2  10   33.57    8.96
   6  -2  -9  145.71   16.18
  -6   2   9  164.18   11.93
  -6   2   9  148.16   17.14
  -6   2   9  156.14   12.79
  -6   2   8   25.64    6.99
  -6   2   8   21.12    4.29
   6  -2  -8   17.64    5.63
  -6   2   7   35.45    7.40
  -6   2   7   22.33    3.32
   6  -2  -7   22.05    6.11
   6  -2  -6  230.01   19.27
  -6   2   6  210.41   16.55
  -6   2   6  211.25   10.10
  -6   2   5   72.33    8.91
   6  -2  -5   86.29   11.44
  -6   2   5   80.76    5.47
   6  -2  -4 1985.60   65.58
  -6   2   4 2078.74   56.62
  -6   2   4 2109.58   72.67
   6  -2  -3    2.91    2.70
  -6   2   3    4.32    2.11
  -6   2   3    0.58    3.13
   6  -2  -3    6.68    1.62
   6  -2  -2  120.15   12.92
  -6   2   2  138.21   15.55
  -6   2   2  126.07    7.97
   6  -2  -2  121.07    6.83
   6  -2  -1    2.91    2.55
  -6   2   1    0.59    1.07
  -6   2   1    4.89    1.35
  -6   2   1    5.46    3.62
   6  -2   0  198.25   15.66
  -6   2   0  202.27   13.64
  -6   2   0  211.93   19.24
  -6   2   0  207.37   10.37
  -6   2   0  206.50   16.83
   6  -2   1   22.69    5.18
  -6   2  -1   24.74    4.19
  -6   2  -1   36.57    7.92
  -6   2  -1   27.39    6.21
   6  -2   2   39.83    6.45
  -6   2  -2   38.07    8.15
  -6   2  -2   39.81    7.47
   6  -2   3    2.71    1.96
  -6   2  -3    1.34    2.23
  -6   2  -3    6.30    3.98
   6  -2   4  109.73    9.81
  -6   2  -4  129.70   14.90
   6  -2   4  127.33   12.98
  -6   2  -4  143.45   14.70
  -6   2  -5  169.59   16.87
   6  -2   5  158.43   14.66
  -6   2  -5  180.78   16.60
   6  -2   6   97.24   11.78
  -6   2  -6  123.12   14.01
   6  -2   7    2.28    2.37
  -6   2  -7    7.92    3.78
  -6   2  -8   11.51    6.11
  -6   2  -8    3.07    2.42
  -6   1  14  107.37   22.78
  -6   1  13  119.51   17.90
   6  -1 -13   99.03   13.42
   6  -1 -12  102.85   13.68
  -6   1  12  108.18   16.10
   6  -1 -11  302.23   23.48
  -6   1  11  288.37   25.21
   6  -1 -10  123.79   14.74
  -6   1  10  137.44   12.41
  -6   1  10  128.39   15.59
  -6   1   9   23.09    4.49
   6  -1  -9   19.81    5.94
  -6   1   9   28.09    7.12
  -6   1   9   28.64    5.28
   6  -1  -8   76.89   11.38
  -6   1   8   65.32    6.98
  -6   1   8   72.53   10.26
  -6   1   8   59.36    7.74
   6  -1  -7  201.75   17.98
  -6   1   7  172.09   10.58
  -6   1   7  152.68   13.73
  -6   1   7  160.61   13.34
   6  -1  -6  109.10   12.94
  -6   1   6  108.29    7.85
  -6   1   6  126.05   10.91
  -6   1   6  105.36   10.94
   6  -1  -5  114.16   13.03
  -6   1   5  122.72    9.31
  -6   1   5  119.58   11.91
   6  -1  -4   66.20    9.74
  -6   1   4   70.67    5.26
   6  -1  -4   68.03    3.47
  -6   1   4   71.10    9.24
   6  -1  -3   37.58    7.21
  -6   1   3   38.64    6.89
   6  -1  -2  241.38   17.91
  -6   1   2  269.89   18.80
   6  -1  -1   26.39    5.97
  -6   1   1   27.19    6.07
   6  -1   0  155.37   13.59
  -6   1   0  208.39   18.84
  -6   1   0  198.87   16.34
   6  -1   1  254.95   16.79
  -6   1  -1  295.76   22.48
  -6   1  -1  246.66   10.56
  -6   1  -1  307.53   20.82
   6  -1   2   85.43    9.34
  -6   1  -2  107.65   13.25
  -6   1  -2   84.74   10.95
   6  -1   3    1.69    1.82
  -6   1  -3    1.07    2.30
  -6   1  -3    1.03    2.44
   6  -1   4   15.39    3.86
  -6   1  -4   13.46    4.73
   6  -1   4    6.34    3.14
  -6   1  -4   10.85    4.11
   6  -1   5  177.21   15.83
  -6   1  -5  172.56   16.23
   6  -1   6  115.59   13.09
  -6   1  -6  122.87   13.61
  -6   1  -7  121.51   14.62
   6  -1   7  154.51   15.67
  -6   1  -7  149.96   15.07
  -6   1  -8   22.86    5.84
   6   0 -13  106.72   13.69
   6   0 -12  117.29   14.24
  -6   0  12  127.36   14.00
  -6   0  11   65.08   11.97
  -6   0  11   58.03    8.61
   6   0 -11   50.38    9.41
   6   0 -10  254.32   20.63
  -6   0  10  276.24   17.78
  -6   0  10  228.86   20.13
  -6   0   9   40.86    6.53
   6   0  -9   37.52    7.70
  -6   0   9   41.28    7.87
  -6   0   9   37.10    5.63
   6   0  -8  150.00   15.28
  -6   0   8  160.17   11.51
  -6   0   8  160.99   14.13
  -6   0   8  139.52   11.66
  -6   0   7   94.00    8.17
   6   0  -7   96.85   12.12
  -6   0   7   91.30    9.68
   6   0  -6   -0.48    2.57
  -6   0   6    0.10    1.66
   6   0  -5  335.36   22.15
  -6   0   5  338.64   20.20
   6   0  -4   23.01    5.92
  -6   0   4   19.30    4.44
  -6   0   4   22.30    5.18
  -6   0   3  242.59   14.81
   6   0  -3  230.85   17.45
  -6   0   3  238.46   17.26
   6   0  -2   90.64   10.59
  -6   0   2   98.89   11.06
   6   0  -1  873.68   35.90
  -6   0   1  934.35   37.89
   6   0   0   79.92    9.96
  -6   0   0  102.88   12.02
   6   0   1  126.32   12.01
  -6   0  -1  168.46   15.08
   6   0   2   14.05    4.07
  -6   0  -2    8.53    4.11
   6   0   3   58.16    7.85
  -6   0  -3   70.96   10.15
   6   0   4   18.44    4.51
   6   0   4   12.41    4.63
  -6   0  -4   13.29    4.46
   6   0   5   18.02    5.11
  -6   0  -5   14.00    4.56
   6   0   6   35.71    7.62
  -6   0  -6   36.40    7.40
   6   0   7    6.90    3.39
  -6   0  -7    6.58    3.52
  -6   0  -8    0.86    1.94
  -6  -1  13   73.11   11.65
   6   1 -13   76.07   11.67
  -6  -1  12    5.63    2.51
   6   1 -12   10.24    4.30
  -6  -1  11   50.72    8.41
   6   1 -11   54.63    9.67
  -6  -1  10    2.16    2.81
   6   1 -10    3.46    2.08
   6   1  -9    8.43    3.93
  -6  -1   9    5.85    1.94
  -6  -1   8  184.40   12.96
   6   1  -8  167.80   16.27
  -6  -1   8  208.26   13.82
  -6  -1   7  158.06   11.53
   6   1  -7  158.76   15.33
  -6  -1   7  156.07   12.50
   6   1  -6   99.42   11.86
  -6  -1   6  113.88   11.02
  -6  -1   5   66.91    7.82
   6   1  -5   52.21    8.57
  -6  -1   5   72.40    9.02
  -6  -1   4   49.00    6.17
   6   1  -4   48.76    8.23
  -6  -1   4   51.00    7.55
  -6  -1   3  147.67    9.88
   6   1  -3  134.51   13.32
  -6  -1   3  155.52   13.76
  -6  -1   2   10.14    2.54
   6   1  -2   16.90    4.78
  -6  -1   2   16.18    4.65
   6   1  -1  287.86   19.33
  -6  -1   1  304.98   20.07
   6   1   0  128.33   12.48
  -6  -1   0  121.07   12.68
   6   1   1 1032.76   39.64
  -6  -1  -1 1079.53   42.21
   6   1   2    7.15    3.80
  -6  -1  -2    9.76    4.06
   6   1   3   41.28    7.08
   6   1   3   44.42    7.59
  -6  -1  -3   40.22    7.47
   6   1   4  107.49   11.50
   6   1   4  101.51   11.82
  -6  -1  -4  110.12   12.40
   6   1   5  147.30   14.49
  -6  -1  -5  127.40   13.38
   6   1   6   42.07    8.33
  -6  -1  -6   44.68    8.03
   6   1   7    1.90    3.21
  -6  -1  -7    2.66    2.58
  -6  -1  -8    0.73    2.48
  -6  -2  13   47.02    9.35
   6   2 -13   49.94    9.69
  -6  -2  12  177.26   16.91
   6   2 -12  193.61   18.63
  -6  -2  11   48.72    8.41
   6   2 -11   51.80    9.37
  -6  -2  10   17.51    5.51
   6   2 -10   10.92    4.62
  -6  -2   9  150.93   13.19
   6   2  -9  166.57   16.52
  -6  -2   9  182.54   11.83
  -6  -2   8  173.48   13.10
   6   2  -8  145.73   15.08
  -6  -2   8  139.47   10.93
   6   2  -7  112.72   13.26
  -6  -2   7  133.86   11.18
   6   2  -6  258.46   19.81
  -6  -2   6  235.45   15.81
   6   2  -5   61.06    9.51
  -6  -2   5   62.16    8.13
   6   2  -4  209.79   17.41
  -6  -2   4  240.61   16.52
   6   2  -3  176.82   15.83
  -6  -2   3  162.24   13.98
   6   2  -2    0.39    1.93
  -6  -2   2    1.31    2.09
   6   2  -1   11.03    4.23
  -6  -2   1   18.63    4.84
   6   2   0   99.78   11.72
  -6  -2   0  113.72   11.99
   6   2   1   13.78    4.71
  -6  -2  -1   15.54    4.84
   6   2   2  114.21   12.59
  -6  -2  -2  107.99   12.05
   6   2   3   90.26   11.25
   6   2   3   77.27   10.15
  -6  -2  -3   91.17   11.13
   6   2   4    9.04    3.87
   6   2   4    5.73    3.47
  -6  -2  -4   11.26    4.25
   6   2   5    5.83    3.51
  -6  -2  -5    6.05    3.02
   6   2   6   87.26   11.51
  -6  -2  -6   78.48   10.60
  -6  -2  -7   16.02    5.02
  -6  -2  -8   46.45    8.72
  -6  -3  13   19.64    6.37
  -6  -3  12   61.09   10.14
   6   3 -12   84.05   12.78
  -6  -3  11    9.31    4.39
   6   3 -11    9.98    4.94
  -6  -3  10   55.58    8.76
   6   3 -10   26.45    6.93
  -6  -3   9   10.53    4.79
   6   3  -9    6.65    3.70
  -6  -3   9    3.96    1.98
   6   3  -8    1.74    2.72
  -6  -3   8    2.13    1.69
   6   3  -7   45.57    8.92
  -6  -3   7   47.50    6.51
   6   3  -6  292.68   21.77
  -6  -3   6  259.65   16.47
   6   3  -5   18.57    5.86
  -6  -3   5   18.19    4.32
   6   3  -4   54.62    9.15
  -6  -3   4   42.42    6.76
   6   3  -3  132.26   14.53
  -6  -3   3  158.16   13.51
   6   3  -2  172.49   16.28
  -6  -3   2  181.75   14.65
   6   3  -1   78.06   11.13
  -6  -3   1   94.79   10.63
   6   3   0  196.29   17.67
  -6  -3   0  227.46   17.03
   6   3   1    3.22    3.48
  -6  -3  -1    2.93    2.43
   6   3   2   32.02    7.26
   6   3   2   34.57    6.58
  -6  -3  -2   37.63    7.23
   6   3   3    2.49    3.66
   6   3   3    5.74    3.56
  -6  -3  -3    5.43    2.82
   6   3   4  298.69   22.05
   6   3   4  310.20   20.88
  -6  -3  -4  308.88   20.85
   6   3   5  120.21   13.30
  -6  -3  -5  128.44   13.38
   6   3   6   53.51    9.39
  -6  -3  -6   51.85    8.42
   6   4 -12    5.79    3.92
  -6  -4  11  142.45   15.25
   6   4 -11  129.21   16.17
  -6  -4  10    2.60    3.85
   6   4 -10    3.70    3.14
  -6  -4   9   56.69    9.32
   6   4  -9   62.41   10.99
  -6  -4   9   47.22    5.97
   6   4  -8  435.10   29.06
  -6  -4   8  433.28   20.18
   6   4  -7  158.31   16.78
  -6  -4   7  123.68   10.61
   6   4  -6  302.00   23.45
  -6  -4   6  298.91   17.62
   6   4  -5   94.11   12.90
  -6  -4   5  109.28   10.53
   6   4  -4    1.67    3.26
  -6  -4   4    2.38    2.34
   6   4  -3  189.76   18.39
  -6  -4   3  199.43   15.17
   6   4  -2  111.20   14.38
  -6  -4   2  102.87   11.17
   6   4  -1   35.27    8.03
  -6  -4   1   45.19    7.53
   6   4   0  155.34   16.96
  -6  -4   0  190.33   15.43
   6   4   1   32.67    7.93
  -6  -4  -1   39.73    7.22
   6   4   2    2.23    3.73
   6   4   2    8.90    3.75
  -6  -4  -2    0.93    2.16
   6   4   3   51.61    9.84
   6   4   3   61.72    8.98
  -6  -4  -3   61.45    9.16
   6   4   4   18.42    5.98
   6   4   4   26.89    6.50
  -6  -4  -4   32.20    6.67
   6   4   5   36.73    7.50
   6   4   6   13.04    4.98
   6   5 -11   52.69   11.37
  -6  -5  10   22.09    6.94
   6   5 -10    3.30    4.02
  -6  -5   9  147.54   14.67
   6   5  -9  136.62   17.20
   6   5  -8   62.51   11.75
  -6  -5   8   51.94    6.75
   6   5  -7  134.03   16.73
  -6  -5   7  125.08   10.85
   6   5  -6  113.83   15.22
  -6  -5   6  103.42   10.13
   6   5  -5   66.05   12.04
  -6  -5   5   85.17    9.42
   6   5  -4  132.86   16.44
  -6  -5   4  119.08   11.38
   6   5  -3    2.37    3.96
  -6  -5   3    2.15    2.40
   6   5  -2   17.82    6.08
  -6  -5   2   17.04    4.73
   6   5  -1   -0.09    3.05
  -6  -5   1   -0.79    2.64
   6   5   0   23.60    7.37
  -6  -5   0   14.87    4.60
   6   5   1   52.70   10.82
   6   5   1   60.81    8.44
  -6  -5  -1   75.34    9.79
   6   5   2   62.27   11.32
   6   5   2   86.34   10.56
  -6  -5  -2   87.37   10.77
   6   5   3  130.70   15.94
   6   5   3  102.38   11.54
   6   6  -8   30.89    8.95
  -6  -6   8   31.63    5.61
   6   6  -7   99.24   15.25
  -6  -6   7   99.76    9.97
   6   6  -6   10.82    6.06
  -6  -6   6    7.53    3.22
   6   6  -5   37.62    9.95
  -6  -6   5   59.82    8.05
   6   6  -4  142.20   18.13
  -6  -6   4  154.21   13.26
   6   6  -3  190.96   20.92
  -6  -6   3  204.96   15.56
   6   6  -2  129.84   17.17
  -6  -6   2  147.77   13.44
   6   6  -1   14.18    5.91
  -6  -6   1    8.51    4.03
   6   6   0   49.84   11.18
   6   6   1   15.50    6.49
   6   6   2    8.71    6.04
   6   6   3    4.84    4.20
  -6  -7   8   32.63    6.04
  -6  -7   7   34.04    6.24
  -6  -7   6   21.28    4.94
  -6  -7   5    0.46    2.26
   7 -10  -3    6.80    4.25
   7 -10  -2   50.21    8.20
   7 -10  -1   36.03    7.16
   7 -10   0  105.76   16.73
   7 -10   0  105.88   12.32
   7 -10   1    4.64    4.84
   7 -10   2   42.58   10.47
   7 -10   3   26.79    8.14
  -7   9   8   32.00   10.40
  -7   9   7    3.49    5.30
  -7   9   7  -11.90    7.62
  -7   9   6  116.91   20.71
  -7   9   6   86.05   16.45
   7  -9  -5   35.93    7.59
  -7   9   5   40.23   11.85
  -7   9   5   39.73   11.55
   7  -9  -4   89.58   15.11
  -7   9   4  100.38   17.65
   7  -9  -3    2.25    4.05
   7  -9  -3    8.45    3.96
  -7   9   3   11.78    6.27
   7  -9  -2   75.97   13.64
   7  -9  -2  100.95   10.84
  -7   9   2   91.56   16.68
   7  -9  -1   25.57    8.54
   7  -9  -1   16.02    4.94
  -7   9   1   18.74    7.89
   7  -9   0  261.52   24.76
  -7   9   0  253.14   28.08
   7  -9   0  256.66   18.52
   7  -9   1   19.32    7.68
   7  -9   1   11.75    4.27
  -7   9  -1   12.87    7.17
   7  -9   2  460.32   32.49
   7  -9   2  464.54   24.94
   7  -9   2  458.35   28.22
   7  -9   3   17.44    6.34
   7  -9   3    3.90    3.72
  -7   8   9    7.61    5.53
  -7   8   9   23.80   10.44
  -7   8   8   73.37   14.66
  -7   8   8   77.06   17.22
   7  -8  -7   -2.17    3.81
  -7   8   7    5.10    4.96
  -7   8   7    1.52    4.87
   7  -8  -7    0.14    4.07
   7  -8  -6   76.16   10.55
   7  -8  -6  103.19   16.30
  -7   8   6   92.44   16.28
  -7   8   6   52.36   13.09
   7  -8  -5    0.44    2.50
  -7   8   5   -3.62    3.68
  -7   8   5   -0.03    4.05
   7  -8  -4  289.40   26.60
  -7   8   4  320.24   31.01
  -7   8   4  344.43   31.27
   7  -8  -3   33.76    9.19
  -7   8   3    8.27    5.79
   7  -8  -2  186.65   20.54
  -7   8   2  204.99   24.08
   7  -8  -2  239.27   15.57
   7  -8  -1    3.39    4.46
   7  -8  -1    2.89    2.76
  -7   8   1    5.54    5.65
   7  -8   0  223.58   21.86
   7  -8   0  218.80   16.23
   7  -8   1  152.32   17.86
  -7   8  -1  164.71   21.85
   7  -8   1  128.71   13.19
   7  -8   2   57.75    9.69
  -7   8  -2   68.41   14.20
   7  -8   3   -0.44    2.53
   7  -8   3    2.30    2.91
   7  -8   3   -4.77    3.98
  -7   8  -3   -6.70    5.04
   7  -8   4  121.11   13.00
  -7   8  -4  105.94   17.72
   7  -8   5   19.89    5.85
  -7   8  -5   21.55    8.05
  -7   7  10   59.37   15.29
  -7   7   9    0.97    3.81
  -7   7   9    4.75    4.92
   7  -7  -9    1.80    4.76
   7  -7  -8   11.20    3.67
  -7   7   8   20.90    8.16
  -7   7   8    4.43    5.95
   7  -7  -8   12.75    6.37
  -7   7   7   51.29   12.28
  -7   7   7   52.47   13.19
   7  -7  -7   55.21   12.16
   7  -7  -6  260.97   25.39
  -7   7   6  289.92   29.07
  -7   7   6  266.49   27.03
   7  -7  -5   88.07   14.30
  -7   7   5   62.91   13.64
  -7   7   5   65.98   13.53
   7  -7  -4   17.49    7.02
  -7   7   4   11.14    6.07
  -7   7   4    2.91    5.27
   7  -7  -3   38.87    9.02
  -7   7   3   33.55    9.52
   7  -7  -2  165.48   18.77
  -7   7   2  162.71   20.65
   7  -7  -2  179.55   12.72
   7  -7  -1   18.54    6.62
   7  -7  -1   19.27    4.75
  -7   7   1   19.38    7.59
   7  -7   0   94.69   13.68
  -7   7   0  110.70   17.17
   7  -7   0   97.19   10.11
   7  -7   1   43.13    9.01
   7  -7   1   45.43    7.45
  -7   7  -1   39.71   10.39
   7  -7   2   27.03    6.91
   7  -7   2   13.57    4.42
  -7   7  -2   27.86    8.88
   7  -7   3   82.29   11.93
   7  -7   3   76.07   10.09
  -7   7  -3   93.72   15.91
   7  -7   4    3.46    3.21
  -7   7  -4    5.86    5.30
   7  -7   5   45.58    8.32
  -7   7  -5   47.72   11.71
   7  -7   6   65.68   10.19
  -7   7  -6   52.40   12.21
  -7   7  -7   54.60   13.84
  -7   6  11    4.88    4.67
  -7   6  10   66.82   15.49
   7  -6 -10   71.50   13.80
   7  -6  -9    6.44    2.85
  -7   6   9    6.29    4.60
   7  -6  -8   -7.09    5.02
  -7   6   8    7.36    6.11
  -7   6   8    2.20    4.23
   7  -6  -8    3.90    2.79
  -7   6   7    8.46    5.57
  -7   6   7    5.59    4.19
   7  -6  -7    0.78    3.72
  -7   6   6    3.91    4.67
  -7   6   6    0.76    3.16
   7  -6  -6    1.47    3.49
  -7   6   5    2.36    4.48
  -7   6   5   -0.31    2.71
   7  -6  -5   -1.37    3.48
   7  -6  -4  118.74   16.22
  -7   6   4  149.37   17.78
  -7   6   4  169.40   20.56
   7  -6  -3   33.05    8.19
   7  -6  -3   52.28    6.28
  -7   6   3   35.96    9.57
   7  -6  -2   -0.25    2.44
   7  -6  -2    2.44    2.08
  -7   6   2   -0.49    2.46
   7  -6  -1  302.23   23.98
  -7   6   1  259.58   25.66
   7  -6  -1  311.01   16.65
   7  -6   0   34.54    7.90
   7  -6   0   39.44    6.25
  -7   6   0   55.77   11.76
   7  -6   1   75.16   11.39
  -7   6  -1   76.89   14.13
   7  -6   1   74.69    9.51
   7  -6   2   15.58    5.42
  -7   6  -2    7.08    5.35
   7  -6   3   18.52    5.72
  -7   6  -3   14.03    6.39
   7  -6   4    1.50    2.32
  -7   6  -4    9.96    5.56
   7  -6   5   23.91    6.70
  -7   6  -5   22.43    8.10
   7  -6   6    4.44    2.84
  -7   6  -6    0.59    3.41
  -7   6  -7   33.55    8.68
  -7   5  12    5.74    6.99
  -7   5  11   63.22   15.21
   7  -5 -11   51.28   11.51
   7  -5 -10   92.53   11.70
  -7   5  10  110.91   18.51
   7  -5 -10  113.16   16.19
   7  -5  -9   29.76    6.42
  -7   5   9   35.70   10.26
   7  -5  -9   22.96    7.58
   7  -5  -8  399.77   30.23
  -7   5   8  366.43   30.43
  -7   5   8  332.84   29.90
   7  -5  -7  576.86   36.12
  -7   5   7  589.39   38.59
  -7   5   7  473.05   34.83
   7  -5  -6  319.12   25.97
  -7   5   6  296.32   27.18
  -7   5   6  288.55   25.25
   7  -5  -5  241.09   22.33
  -7   5   5  251.01   24.64
  -7   5   5  220.81   20.98
   7  -5  -4  102.32   14.03
  -7   5   4  119.70   16.94
  -7   5   4  128.80   15.10
   7  -5  -3   23.36    7.12
  -7   5   3   36.29    8.17
  -7   5   3   25.69    8.02
   7  -5  -3   28.83    4.47
   7  -5  -2  171.71   17.90
  -7   5   2  182.05   20.88
   7  -5  -2  201.66   11.79
   7  -5  -1   47.13    9.13
   7  -5  -1   39.49    5.54
  -7   5   1   40.61    9.98
   7  -5   0   -0.47    2.05
   7  -5   0    4.23    2.69
  -7   5   0    1.43    3.21
   7  -5   1  138.92   14.87
  -7   5  -1  147.90   18.50
   7  -5   2    4.19    2.83
  -7   5  -2   -0.11    2.37
   7  -5   3   15.29    5.43
  -7   5  -3    3.73    3.58
   7  -5   4    5.98    3.69
  -7   5  -4   -1.75    2.76
   7  -5   5   19.29    5.60
  -7   5  -5   16.71    6.32
  -7   5  -5   22.48    6.50
   7  -5   6   13.49    5.03
  -7   5  -6   12.11    6.09
  -7   5  -6    1.22    2.91
  -7   5  -7   -3.77    4.00
  -7   4  12   59.65   14.03
   7  -4 -12   56.92   11.88
  -7   4  11   33.97   10.38
   7  -4 -11   15.17    6.10
  -7   4  10   88.24   15.53
   7  -4 -10  100.97   15.21
  -7   4   9   45.61   10.55
   7  -4  -9   40.97    9.81
  -7   4   8   11.31    5.25
   7  -4  -8    8.83    5.46
  -7   4   7    6.12    4.68
   7  -4  -7    3.63    3.85
   7  -4  -6  234.54   21.74
  -7   4   6  225.10   23.01
  -7   4   6  248.88   21.41
   7  -4  -5  147.22   16.85
  -7   4   5  150.46   18.63
  -7   4   5  143.36   15.33
   7  -4  -4  166.17   17.29
  -7   4   4  153.54   18.77
  -7   4   4  133.24   13.91
   7  -4  -3   11.75    4.83
  -7   4   3   11.45    5.55
  -7   4   3   10.84    4.05
   7  -4  -3   13.93    2.92
   7  -4  -2   77.86   11.44
  -7   4   2   84.15   13.88
   7  -4  -2   82.18    6.99
   7  -4  -1   37.88    8.04
  -7   4   1   41.98    9.90
   7  -4  -1   43.31    5.54
   7  -4   0  151.25   15.57
  -7   4   0  168.43   19.58
  -7   4  -1    9.26    5.82
   7  -4   1    8.79    4.04
   7  -4   2  226.02   18.08
  -7   4  -2  225.53   22.74
   7  -4   3    1.55    1.99
  -7   4  -3    1.39    2.54
  -7   4  -4   82.54   13.83
   7  -4   4   73.14   10.33
  -7   4  -4  101.49   13.77
  -7   4  -5   12.28    6.09
   7  -4   5    9.32    4.62
  -7   4  -5    2.41    2.70
   7  -4   6   59.90   10.10
  -7   4  -6   74.33   11.94
  -7   4  -7   21.05    7.11
  -7   3  13   48.56   12.49
   7  -3 -13   52.16   11.48
  -7   3  12   46.11   11.51
   7  -3 -12   58.74   11.65
  -7   3  11   47.76   11.48
   7  -3 -11   50.74   10.64
  -7   3  10    9.98    5.15
   7  -3 -10    8.28    5.08
  -7   3   9   30.96    8.44
   7  -3  -9    9.46    5.03
   7  -3  -8  199.79   20.15
  -7   3   8  208.69   20.01
   7  -3  -7  173.66   18.41
  -7   3   7  151.93   16.12
   7  -3  -6   70.76   11.78
  -7   3   6   62.51    9.82
   7  -3  -5   66.60   11.02
  -7   3   5   67.01    9.29
  -7   3   5   66.56   12.40
   7  -3  -4   87.53   12.39
  -7   3   4   98.38   10.25
  -7   3   4   88.86   14.14
   7  -3  -4   98.97    6.37
   7  -3  -3  215.42   19.22
  -7   3   3  197.43   20.85
  -7   3   3  218.32   14.03
   7  -3  -3  203.42    9.91
   7  -3  -2  186.18   17.22
  -7   3   2  164.21   19.12
  -7   3   2  169.83   11.37
   7  -3  -2  158.32    9.49
  -7   3   1   19.98    6.68
   7  -3  -1   24.10    6.19
   7  -3   0  207.54   17.62
  -7   3   0  209.22   21.36
   7  -3   1    5.92    3.42
  -7   3  -1   10.21    5.67
  -7   3  -1    1.64    3.54
   7  -3   2  112.55   12.07
  -7   3  -2   93.38   14.28
  -7   3  -2  118.36   14.17
   7  -3   3   17.13    4.68
  -7   3  -3   14.82    5.96
  -7   3  -3   23.38    6.60
  -7   3  -4  200.26   21.11
   7  -3   4  203.96   17.61
  -7   3  -4  215.34   20.00
  -7   3  -5    4.89    4.19
   7  -3   5    9.54    4.62
  -7   3  -5    1.46    3.58
   7  -3   6  156.26   16.03
  -7   3  -6  125.46   15.27
  -7   3  -7    7.44    4.87
   7  -2 -13   -2.25    3.98
   7  -2 -12   93.65   14.29
  -7   2  11    8.70    5.05
   7  -2 -11   15.75    6.34
   7  -2 -10  186.46   19.54
  -7   2  10  165.82   18.34
   7  -2  -9   30.66    7.93
  -7   2   9   26.79    7.27
  -7   2   9   28.33    6.13
   7  -2  -8    0.24    3.41
  -7   2   8    2.04    2.90
  -7   2   8    0.52    1.93
   7  -2  -7   16.68    5.65
  -7   2   7    9.06    3.91
  -7   2   7    5.34    3.31
   7  -2  -6 1061.27   46.92
  -7   2   6 1030.51   37.30
  -7   2   6  984.24   41.44
   7  -2  -5   96.82   13.05
  -7   2   5   96.98    8.75
  -7   2   5   86.40   11.22
   7  -2  -4    3.73    3.12
   7  -2  -4    1.09    1.00
  -7   2   4   -1.63    2.57
   7  -2  -3    7.13    4.31
   7  -2  -3    6.22    1.65
  -7   2   3    5.78    3.33
   7  -2  -2    6.39    3.49
  -7   2   2    5.27    2.79
  -7   2   2    2.32    3.30
   7  -2  -1   14.94    5.10
  -7   2   1   22.57    7.35
  -7   2   1   14.40    4.98
   7  -2   0   46.03    8.11
  -7   2   0   67.88   11.94
  -7   2   0   61.73   10.02
   7  -2   1   18.01    4.85
  -7   2  -1   19.69    6.52
  -7   2  -1   17.21    5.90
   7  -2   2   47.54    7.58
  -7   2  -2   48.45   10.11
  -7   2  -2   54.03    9.84
   7  -2   3   46.33    7.32
  -7   2  -3   33.78    8.52
  -7   2  -3   50.89    9.38
   7  -2   4   -1.08    2.69
  -7   2  -4   -0.71    2.71
  -7   2  -4    1.77    2.69
   7  -2   5   11.01    4.63
  -7   2  -5   15.17    5.28
  -7   2  -6  107.25   14.12
  -7   2  -7    0.80    3.32
   7  -1 -13   12.74    6.00
   7  -1 -12   55.70   10.85
   7  -1 -11  128.53   16.27
   7  -1 -10  147.07   16.96
   7  -1  -9  112.88   14.71
  -7   1   9   91.71   10.33
   7  -1  -8  379.02   27.07
  -7   1   8  394.21   23.09
  -7   1   7  213.50   11.85
   7  -1  -7  164.39   17.33
  -7   1   7  190.48   16.07
   7  -1  -6   32.22    7.68
  -7   1   6   27.68    6.17
   7  -1  -5   61.67   10.06
  -7   1   5   64.56    9.58
   7  -1  -4  466.13   28.31
  -7   1   4  461.92   26.94
   7  -1  -3  248.22   19.75
  -7   1   3  247.30   19.47
   7  -1  -2  383.99   24.42
  -7   1   2  381.41   24.78
   7  -1  -1    7.37    3.30
  -7   1   1   12.41    5.13
   7  -1   0   15.24    4.50
  -7   1   0   13.61    4.67
   7  -1   1    2.30    3.13
  -7   1  -1    4.95    3.30
   7  -1   2    4.70    2.90
  -7   1  -2    7.83    3.81
   7  -1   3    1.42    2.34
  -7   1  -3    4.35    3.75
   7  -1   4   46.46    8.56
  -7   1  -4   49.35    9.26
   7  -1   5   82.73   11.62
  -7   1  -5   76.72   11.56
  -7   1  -6   -2.64    3.22
  -7   1  -7   43.99    8.93
   7   0 -13   82.46   13.14
   7   0 -12   43.48    9.53
   7   0 -11  198.13   19.66
   7   0 -10    4.18    4.06
  -7   0   9    7.29    3.74
   7   0  -9    5.28    4.03
  -7   0   9    3.01    2.03
   7   0  -8   73.84   11.55
  -7   0   8   84.36    8.56
  -7   0   8   69.48    9.00
  -7   0   7  140.81   10.54
   7   0  -7  120.14   14.50
  -7   0   7  136.32   13.35
   7   0  -6  180.62   17.31
  -7   0   6  157.25   14.47
   7   0  -5   83.46   11.44
  -7   0   5   79.29   10.41
   7   0  -4  174.79   16.43
  -7   0   4  196.17   16.75
   7   0  -3  202.46   17.51
  -7   0   3  198.88   17.11
   7   0  -2  265.24   20.13
  -7   0   2  310.47   21.82
   7   0  -1   21.54    5.73
  -7   0   1   21.05    6.03
   7   0   0  433.44   25.26
  -7   0   0  491.13   28.72
   7   0   1   18.00    5.39
  -7   0  -1   13.65    5.20
   7   0   2  107.63   11.74
  -7   0  -2  107.86   13.16
   7   0   3   19.98    5.32
   7   0   3   14.99    4.99
  -7   0  -3   26.35    6.71
   7   0   4   40.15    8.04
  -7   0  -4   36.59    8.07
   7   0   5    4.38    3.19
  -7   0  -5    2.85    3.09
  -7   0  -6   20.26    6.43
  -7   0  -7   28.27    7.45
   7   1 -13   52.42   10.69
   7   1 -12   26.30    8.03
   7   1 -11  112.73   14.97
  -7  -1  10  210.50   16.03
   7   1 -10  174.52   18.43
  -7  -1   9   41.20    7.43
   7   1  -9   41.14    8.93
  -7  -1   9   34.47    5.99
  -7  -1   8   39.46    6.92
   7   1  -8   35.19    7.81
  -7  -1   8   43.87    6.98
   7   1  -7    9.00    4.30
  -7  -1   7   10.02    3.58
   7   1  -6  326.42   23.59
  -7  -1   6  299.92   19.96
   7   1  -5  131.31   14.71
  -7  -1   5  130.30   13.30
   7   1  -4  196.28   17.87
  -7  -1   4  194.67   16.68
   7   1  -3   57.08    9.28
  -7  -1   3   51.66    8.78
   7   1  -2    8.54    3.85
  -7  -1   2    8.09    4.35
   7   1  -1  371.70   24.19
  -7  -1   1  386.89   24.80
   7   1   0   40.27    7.73
  -7  -1   0   43.53    8.32
   7   1   1   15.10    4.92
  -7  -1  -1   24.14    6.38
   7   1   2   67.16   10.09
  -7  -1  -2   63.78   10.33
   7   1   3   11.87    4.16
   7   1   3   15.40    5.28
  -7  -1  -3   11.75    4.86
   7   1   4   76.41   10.91
  -7  -1  -4   67.90   10.55
   7   1   5    8.42    4.45
  -7  -1  -5    7.15    3.71
  -7  -1  -6    7.53    4.30
   7   2 -12  198.67   20.33
  -7  -2  11   18.46    5.55
   7   2 -11   12.84    5.24
  -7  -2  10  153.56   14.16
   7   2 -10  119.05   15.20
   7   2  -9    0.97    2.22
  -7  -2   9    2.08    2.10
  -7  -2   8  142.91   12.67
   7   2  -8  110.59   14.24
  -7  -2   8  116.24   11.16
   7   2  -7    4.50    3.91
  -7  -2   7    0.77    1.56
   7   2  -6   -2.14    2.19
  -7  -2   6   -0.68    1.74
   7   2  -5  416.87   27.34
  -7  -2   5  452.48   25.07
   7   2  -4   17.20    5.81
  -7  -2   4   19.50    5.11
   7   2  -3   28.69    7.14
  -7  -2   3   19.65    5.17
   7   2  -2  203.49   18.34
  -7  -2   2  219.83   17.87
   7   2  -1    2.85    3.14
  -7  -2   1    3.11    2.71
   7   2   0   26.96    7.04
  -7  -2   0   30.24    6.82
   7   2   1  101.53   12.93
  -7  -2  -1  115.77   13.25
   7   2   2   -2.67    2.27
  -7  -2  -2    0.88    2.80
   7   2   3  146.08   15.68
   7   2   3  141.64   14.71
  -7  -2  -3  162.75   15.86
   7   2   4   30.37    6.80
  -7  -2  -4   32.68    7.64
  -7  -3  12    9.36    4.80
  -7  -3  11   30.35    7.87
   7   3 -11   20.44    8.21
  -7  -3  10  138.42   14.02
   7   3 -10  132.37   16.35
  -7  -3   9   42.04    7.70
   7   3  -9   25.12    7.62
  -7  -3   9   32.97    5.49
   7   3  -8   21.98    6.64
  -7  -3   8   20.74    4.80
   7   3  -7  214.25   20.42
  -7  -3   7  237.57   16.51
   7   3  -6  337.01   25.51
  -7  -3   6  353.48   21.06
   7   3  -5   15.36    5.93
  -7  -3   5   27.09    6.09
   7   3  -4   66.31   11.00
  -7  -3   4   76.62   10.06
   7   3  -3    6.05    4.86
  -7  -3   3   12.80    4.23
   7   3  -2  160.72   16.96
  -7  -3   2  185.71   16.20
   7   3  -1   22.73    6.65
  -7  -3   1   21.74    5.80
   7   3   0   78.45   12.19
  -7  -3   0   86.97   11.37
   7   3   1   22.22    7.06
  -7  -3  -1   42.30    7.99
   7   3   2  205.67   20.09
   7   3   2  211.83   17.57
  -7  -3  -2  243.88   19.57
   7   3   3   -3.02    3.61
   7   3   3    1.95    2.44
  -7  -3  -3    0.67    3.05
   7   3   4    5.33    4.43
  -7  -4  10   92.01   11.99
  -7  -4   9   55.45    9.79
   7   4  -9   17.08    7.44
   7   4  -8   93.33   13.92
  -7  -4   8   76.16    8.88
   7   4  -7   15.95    6.36
  -7  -4   7    7.50    3.77
   7   4  -6    6.72    4.35
  -7  -4   6    5.74    3.18
   7   4  -5  100.94   14.48
  -7  -4   5  121.34   12.30
   7   4  -4    7.52    4.46
  -7  -4   4    9.38    4.18
   7   4  -3  113.64   15.29
  -7  -4   3  120.60   12.77
   7   4  -2   34.92    8.77
  -7  -4   2   34.61    7.28
   7   4  -1    2.48    4.33
  -7  -4   1   12.24    4.73
   7   4   0    4.66    4.01
  -7  -4   0    4.96    3.76
   7   4   1    0.81    2.47
   7   4   1   -2.37    2.53
  -7  -4  -1    2.65    2.52
   7   4   2   13.33    5.45
   7   4   2   36.03    7.31
   7   4   3    0.97    3.59
   7   4   3    1.87    2.56
   7   4   4  112.71   13.65
  -7  -5   8   10.54    3.59
  -7  -5   7   70.00    9.02
  -7  -5   6  149.30   13.48
   7   5  -5    9.90    5.92
  -7  -5   5    4.45    3.00
   7   5  -4    7.48    4.89
  -7  -5   4    6.55    3.23
   7   5  -3  185.65   21.14
  -7  -5   3  227.01   17.57
   7   5  -2   63.82   12.18
  -7  -5   2   53.86    8.51
   7   5  -1  132.34   17.63
   7   5   0   14.16    6.46
   7   5   1   14.85    6.44
   7   5   2   23.55    8.52
  -7  -6   8   12.55    4.17
  -7  -6   7    1.58    2.14
  -8  10   4    2.29    7.28
  -8   9   7   37.44   13.47
  -8   9   6   15.06   10.26
  -8   9   5   94.02   18.16
  -8   9   4   69.82   15.66
   8  -9  -4   94.91   10.48
   8  -9  -3    3.59    3.45
   8  -9  -2   28.20    6.11
   8  -9  -1   40.03    7.38
   8  -9   0   50.83   11.92
   8  -9   0   56.80    9.20
   8  -9   1    0.50    3.52
   8  -9   1   -4.61    4.06
   8  -9   2   50.47   11.03
   8  -9   2   38.27    8.71
  -8   8   8   55.12   15.67
  -8   8   7   -7.32    6.42
  -8   8   6   70.69   15.09
  -8   8   5   -1.92    4.02
  -8   8   5    1.20    4.30
   8  -8  -4   19.97    9.01
  -8   8   4   16.01    7.23
   8  -8  -4    9.20    3.79
  -8   8   4   10.42    6.61
   8  -8  -3   20.63    7.18
   8  -8  -3   22.31    5.08
  -8   8   3   16.27    7.45
   8  -8  -2   15.39    6.58
   8  -8  -2   21.66    4.91
  -8   8   2   15.34    7.35
   8  -8  -1   12.58    6.00
   8  -8  -1   13.01    4.35
   8  -8   0  133.14   17.51
  -8   8   0  121.76   19.77
   8  -8   0  136.10   13.74
   8  -8   1   57.67   11.71
   8  -8   1   52.88    9.25
   8  -8   2  114.95   15.71
   8  -8   3    5.84    3.68
  -8   7   8   68.94   14.73
  -8   7   7    4.21    4.63
   8  -7  -6   49.49   11.95
  -8   7   6   86.22   16.29
   8  -7  -5   19.12    7.38
  -8   7   5   28.45    9.52
   8  -7  -4   40.32   10.22
  -8   7   4   30.36   10.40
   8  -7  -4   54.43    6.98
   8  -7  -3    6.59    3.83
   8  -7  -3   23.53    4.81
  -8   7   3   13.85    7.01
   8  -7  -2    0.64    3.09
   8  -7  -2    1.00    1.77
  -8   7   2   -1.07    3.06
   8  -7  -1   22.45    7.40
   8  -7  -1   14.21    3.99
  -8   7   1    7.32    5.50
   8  -7   0    0.23    2.59
   8  -7   0   -1.49    2.31
  -8   7   0    2.76    4.12
   8  -7   1   10.86    4.81
   8  -7   1    3.67    2.65
  -8   7  -1    7.04    6.07
   8  -7   2    3.99    3.57
  -8   7  -2    5.04    5.09
   8  -7   3  146.13   15.35
  -8   7  -3  143.09   21.20
  -8   7  -4   -2.59    4.43
   8  -6  -8    6.43    4.60
  -8   6   8    2.57    4.54
   8  -6  -7    5.94    4.30
  -8   6   7    8.59    5.35
   8  -6  -6   29.12    8.79
  -8   6   6   17.60    7.70
   8  -6  -5    9.63    5.07
  -8   6   5    4.66    3.60
   8  -6  -4   -0.45    2.40
  -8   6   4    5.29    5.38
   8  -6  -4    5.59    2.57
   8  -6  -3   94.36   14.51
  -8   6   3  100.91   16.94
   8  -6  -3   77.98    7.92
   8  -6  -2   58.56   11.39
   8  -6  -2   75.07    8.12
   8  -6  -1  152.56   17.79
  -8   6   1  145.50   20.46
   8  -6  -1  150.92   12.56
   8  -6   0  150.41   17.54
  -8   6   0  147.10   20.36
   8  -6   0  141.38   12.99
   8  -6   1   23.09    6.83
  -8   6  -1   33.57   10.40
   8  -6   2    8.36    4.18
  -8   6  -2    5.52    3.26
   8  -6   3   55.75    9.36
  -8   6  -3   69.34   13.83
  -8   6  -4    1.91    3.60
  -8   6  -5  198.97   24.41
   8  -5  -9    9.76    5.87
   8  -5  -8  132.65   18.14
   8  -5  -7  195.34   21.62
  -8   5   7  191.21   23.08
   8  -5  -6  144.05   18.26
  -8   5   6  192.25   23.11
   8  -5  -5  159.65   18.94
  -8   5   5  159.88   20.95
   8  -5  -4    6.96    4.33
  -8   5   4    2.03    3.43
   8  -5  -3    1.71    3.99
  -8   5   3    9.40    6.28
   8  -5  -2   60.64   10.98
  -8   5   2   57.64   12.34
   8  -5  -2   42.37    5.76
   8  -5  -1  140.70   16.62
  -8   5   1  151.49   20.40
  -8   5   0    7.38    5.30
   8  -5   0   11.54    5.02
   8  -5   1  115.25   14.34
  -8   5  -1  160.87   21.00
   8  -5   2   14.84    5.33
  -8   5  -2    4.03    4.41
  -8   5  -3    7.03    4.86
  -8   5  -4   22.34    8.58
  -8   5  -4   21.50    7.15
  -8   5  -5    0.70    3.13
   8  -4 -10   22.88   10.17
   8  -4  -9   23.12    7.57
   8  -4  -8   40.63    9.85
   8  -4  -7   35.19    8.69
   8  -4  -6   61.84   11.71
   8  -4  -5  128.44   16.56
  -8   4   5  152.36   20.07
   8  -4  -4   50.32   10.13
  -8   4   4   63.73   13.21
   8  -4  -3   17.71    6.43
  -8   4   3   12.44    6.89
   8  -4  -2   78.50   12.33
  -8   4   2   82.02   14.74
   8  -4  -1   12.65    5.36
  -8   4   1   22.50    7.89
   8  -4   0   72.68   11.50
  -8   4   0   94.15   15.83
   8  -4   1   99.74   12.99
  -8   4  -1   72.08   13.64
  -8   4  -1   93.47   13.66
   8  -4   2   19.99    5.67
  -8   4  -2   42.24   11.12
  -8   4  -2   49.90   10.33
  -8   4  -3  367.09   31.49
  -8   4  -3  316.20   26.23
  -8   4  -4  244.59   25.49
  -8   4  -4  245.82   23.16
  -8   4  -5   25.47    7.94
   8  -3 -10   46.55   10.60
   8  -3  -9    3.09    3.09
  -8   3   9    4.77    3.25
   8  -3  -8   41.52    9.37
  -8   3   8   33.52    7.55
   8  -3  -7   18.59    6.47
  -8   3   7   17.16    5.22
   8  -3  -6  122.34   15.95
  -8   3   6  115.91   14.06
   8  -3  -5   -2.53    3.09
   8  -3  -4  226.94   21.31
  -8   3   4  235.45   20.56
   8  -3  -3  132.15   15.97
  -8   3   3  145.35   19.24
  -8   3   3  131.93   15.53
   8  -3  -2  110.35   14.16
  -8   3   2  110.10   16.58
  -8   3   2  112.79   14.44
   8  -3  -1  167.26   17.06
  -8   3   1  169.98   20.49
  -8   3   1  157.61   17.41
   8  -3   0   21.54    5.92
  -8   3   0   26.43    8.16
  -8   3   0   20.10    6.46
   8  -3   1    7.45    3.52
  -8   3  -1   18.28    7.34
  -8   3  -1    8.71    4.66
   8  -3   2    1.95    2.80
  -8   3  -2    0.60    3.24
  -8   3  -2    2.52    3.79
  -8   3  -3   33.40    9.59
  -8   3  -3   30.09    7.95
  -8   3  -4    8.60    5.07
  -8   3  -4    4.17    3.30
  -8   3  -5   43.05    9.88
   8  -2 -11   19.79    7.63
   8  -2 -10   35.37    9.83
   8  -2  -9  145.67   18.22
  -8   2   9  144.73   14.77
   8  -2  -8    1.67    3.25
  -8   2   8    5.44    2.87
   8  -2  -7  120.23   15.94
  -8   2   7  119.14   14.08
   8  -2  -6   14.15    5.61
  -8   2   6   17.50    5.67
   8  -2  -5   67.56   11.53
  -8   2   5   78.55   11.74
   8  -2  -4   -1.67    3.14
  -8   2   4   -1.39    2.91
   8  -2  -3    0.03    3.28
  -8   2   3   -0.88    2.47
   8  -2  -2    4.10    3.48
  -8   2   2    0.57    2.35
   8  -2  -1  117.74   13.84
  -8   2   1  101.94   13.80
   8  -2   0    0.54    2.63
  -8   2   0   -3.48    4.00
   8  -2   1   24.67    6.07
  -8   2  -1   20.66    6.62
   8  -2   2    6.16    3.49
  -8   2  -2   10.70    4.98
  -8   2  -3   19.05    6.56
  -8   2  -4    6.44    3.99
   8  -1 -11    5.57    4.60
   8  -1 -10  112.10   15.59
   8  -1  -9   89.96   13.89
  -8   1   9   85.49   11.09
   8  -1  -8   68.64   11.78
  -8   1   8   64.57    9.69
   8  -1  -7  262.03   23.16
  -8   1   7  266.18   20.74
   8  -1  -6    8.14    4.74
  -8   1   6    1.60    3.15
   8  -1  -5  138.20   16.20
  -8   1   5  151.96   15.87
   8  -1  -4   23.59    6.76
  -8   1   4   37.93    8.20
   8  -1  -3  158.80   16.57
  -8   1   3  151.72   16.40
   8  -1  -2   -0.73    2.10
  -8   1   2    0.64    2.91
   8  -1  -1  133.96   14.82
  -8   1   1  177.05   17.97
   8  -1   0    1.61    3.21
  -8   1   0    2.30    2.93
   8  -1   1    7.78    3.57
  -8   1  -1    4.18    3.28
   8  -1   2    5.06    3.65
  -8   1  -2    4.08    3.36
   8  -1   3   26.22    6.66
  -8   1  -3   82.36   14.42
  -8   1  -4    2.34    3.43
   8   0 -10   -2.42    3.35
   8   0  -9   79.47   13.03
  -8   0   9   86.14   10.76
   8   0  -8  110.32   14.96
  -8   0   8  117.85   12.97
   8   0  -7   52.10   10.07
  -8   0   7   45.38    8.34
   8   0  -6  145.64   16.79
  -8   0   6  151.81   15.44
   8   0  -5  201.91   19.41
  -8   0   5  188.33   17.65
   8   0  -4    5.35    3.93
  -8   0   4   11.31    4.89
   8   0  -3   47.66    9.14
  -8   0   3   45.00    8.93
   8   0  -2   90.00   12.49
  -8   0   2   93.26   12.90
   8   0  -1    3.90    2.79
  -8   0   1    2.66    3.44
   8   0   0   76.12   11.23
  -8   0   0   76.76   11.97
   8   0   1   58.36    9.72
  -8   0  -1   76.59   11.75
   8   0   2   11.43    4.96
  -8   0  -2   26.20    7.28
   8   0   3   54.38    9.72
  -8   0  -3   31.84    8.47
   8   1  -9  159.37   18.29
  -8  -1   9  143.00   13.45
   8   1  -8    8.26    5.35
  -8  -1   8    2.17    3.10
   8   1  -7   22.57    6.91
  -8  -1   7   19.47    5.37
   8   1  -6   54.31   10.30
  -8  -1   6   45.59    8.16
   8   1  -5   46.97    9.69
  -8  -1   5   44.80    8.56
   8   1  -4   89.48   12.74
  -8  -1   4  122.93   14.08
   8   1  -3   76.82   11.81
  -8  -1   3   82.74   11.73
   8   1  -2   -1.24    2.99
  -8  -1   2    1.30    2.59
   8   1  -1    1.73    2.16
  -8  -1   1    2.86    2.54
   8   1   0    6.19    4.60
  -8  -1   0   16.94    5.56
   8   1   1   79.60   11.76
  -8  -1  -1  100.69   13.45
   8   1   2   16.16    5.53
  -8  -1  -2   26.98    6.82
   8   2  -8   44.33    9.85
  -8  -2   8   55.33    8.56
   8   2  -7    2.30    3.11
  -8  -2   7    6.53    3.63
   8   2  -6   33.41    8.49
  -8  -2   6   25.86    6.25
   8   2  -5    2.73    3.13
  -8  -2   5   11.12    4.91
   8   2  -4    3.68    3.97
  -8  -2   4    7.19    3.26
   8   2  -3   14.32    5.22
  -8  -2   3    9.54    4.34
   8   2  -2   58.46   10.65
  -8  -2   2   64.85   10.28
   8   2  -1   49.93    9.83
  -8  -2   1   55.29    9.63
   8   2   0    4.19    3.95
  -8  -2   0    4.11    3.63
   8   2   1   60.54   11.06
   8   2   2    2.45    3.22
   8   2   2   -0.36    2.86
  -8  -3   9   24.81    7.03
  -8  -3   8  153.94   14.08
  -8  -3   7   49.49    8.36
   8   3  -6   79.45   13.25
  -8  -3   6  103.50   12.10
   8   3  -5   41.50    9.48
  -8  -3   5   39.09    7.77
   8   3  -4   35.03    9.06
  -8  -3   4   33.18    7.30
   8   3  -3    2.26    3.95
  -8  -3   3    2.32    2.57
   8   3  -2   32.23    8.90
  -8  -3   2   44.08    8.56
   8   3  -1    3.80    4.21
   8   3   0   49.32   10.58
   8   3   1   21.54    7.61
   8   3   2   -2.50    3.95
  -8  -4   8  174.23   14.75
  -8  -4   7   -0.38    1.92
  -8  -4   6   27.46    6.34
  -8  -4   5   43.90    8.15
   8   4   1   -1.50    4.08
   9  -7  -2   12.31    6.36
   9  -7  -1   30.16    8.65
   9  -7   0   36.68    9.79
   9  -7   1   28.07    8.53
   9  -6  -4   13.71    6.44
  -9   6   3   22.26    9.14
   9  -6  -3   10.75    5.26
  -9   6   2    8.14    5.53
   9  -6  -2   15.75    7.00
  -9   6   1  103.63   18.36
   9  -6  -1   61.68   12.13
   9  -6   0   27.13    8.13
   9  -6   1    8.21    4.70
  -9   5   6   38.92   11.75
   9  -5  -5  151.17   19.09
  -9   5   5  111.99   19.08
   9  -5  -4    5.38    4.49
  -9   5   4    9.82    6.07
   9  -5  -3   47.94   10.60
  -9   5   3   89.40   16.62
   9  -5  -2    2.74    3.67
  -9   5   2   12.89    7.57
   9  -5  -1    1.23    2.74
  -9   5   1    9.17    5.94
   9  -5   0   54.29   10.81
  -9   5   0   57.43   13.48
   9  -5   1   21.27    6.76
  -9   5  -1   21.31    8.69
  -9   5  -2   19.48    9.03
  -9   5  -3   59.87   14.04
  -9   4   9   15.58    5.70
  -9   4   8   19.31    6.40
  -9   4   7   14.84    5.39
   9  -4  -6   67.35   12.93
   9  -4  -5   24.65    7.79
   9  -4  -4   16.41    6.69
  -9   4   4   27.17    9.16
   9  -4  -3   91.01   14.78
  -9   4   3  108.05   17.66
  -9   4   3  101.39   14.55
   9  -4  -2   89.97   13.87
  -9   4   2   85.65   15.99
  -9   4   2   81.65   13.56
   9  -4  -1   35.94    8.76
  -9   4   1   42.72   11.68
  -9   4   1   36.06    9.18
   9  -4   0   32.28    8.32
  -9   4   0   61.73   13.50
  -9   4   0   57.39   11.57
   9  -4   1   28.10    7.80
  -9   4  -1   27.71    9.88
  -9   4  -2   24.97    9.05
  -9   4  -3   21.94    8.61
  -9   3   9    8.40    4.25
  -9   3   8    3.87    3.09
   9  -3  -7    1.25    4.49
  -9   3   7    2.73    2.97
   9  -3  -6   19.66    6.75
  -9   3   6   22.17    6.66
   9  -3  -5    7.72    4.34
  -9   3   5    9.94    5.31
   9  -3  -4   45.48    9.96
  -9   3   4   35.79    8.73
   9  -3  -3    4.35    4.20
  -9   3   3    0.82    3.31
   9  -3  -2   21.52    6.98
  -9   3   2   47.74   10.49
   9  -3  -1    4.16    3.27
  -9   3   1    4.09    3.00
   9  -3   0   31.02    7.72
  -9   3   0   38.56    9.51
   9  -3   1   10.45    4.51
  -9   2   9    5.70    4.35
  -9   2   8  247.57   21.44
   9  -2  -7   84.07   14.07
  -9   2   7   72.58   11.70
   9  -2  -6    2.67    3.64
  -9   2   6   -2.59    3.76
   9  -2  -5   19.62    7.01
  -9   2   5    3.50    2.30
   9  -2  -4   84.33   13.29
  -9   2   4  107.97   14.69
   9  -2  -3   88.85   13.28
  -9   2   3   85.69   13.30
   9  -2  -2   19.00    6.40
  -9   2   2   20.85    6.87
   9  -2  -1   24.75    6.85
  -9   2   1   32.26    8.38
   9  -2   0   10.60    5.00
  -9   2   0    0.95    3.00
   9  -2   1   15.31    5.65
  -9   1   9   28.97    6.94
  -9   1   8   31.93    7.83
  -9   1   7  124.62   14.93
   9  -1  -6    4.44    3.56
  -9   1   6    5.34    4.31
   9  -1  -5   80.25   13.27
  -9   1   5   83.14   12.60
   9  -1  -4    0.22    2.46
  -9   1   4    3.38    3.65
   9  -1  -3   61.65   11.02
  -9   1   3   63.77   11.20
   9  -1  -2   11.61    5.33
  -9   1   2   22.82    7.23
   9  -1  -1   56.49   10.53
  -9   1   1   53.27   10.44
   9  -1   0   -1.20    2.47
   9  -1   1  107.42   13.76
  -9   0   8   43.08    8.62
  -9   0   7   42.34    8.62
  -9   0   6   16.21    5.71
   9   0  -5  253.43   23.29
  -9   0   5  287.97   23.28
   9   0  -4   54.04   10.78
  -9   0   4   67.28   11.39
   9   0  -3  320.68   25.71
  -9   0   3  377.76   27.56
   9   0  -2    0.79    2.48
  -9   0   2    6.13    4.42
   9   0  -1   56.63   10.36
   9   0   0    7.57    4.83
   9   0   1   12.25    5.30
  -9  -1   8    9.70    4.52
  -9  -1   7   33.31    7.51
  -9  -1   6    4.75    3.11
  -9  -1   5   83.19   12.40
  -9  -1   4   15.51    5.60
   9   1  -3   46.93   10.32
   9   1  -2    0.99    2.56
   9   1  -1    8.11    5.12
   9   1   0    3.20    3.88
   9   1   1   10.73    5.62
  -9  -2   8   12.55    4.72
  -9  -2   7   71.53   10.66
   0   0   0    0.00    0.00



TITL duS in P-1
REM P-1 (#2 in standard setting)
CELL 0.71073   7.795083   9.351084  11.335189  93.3450 105.4995 104.9127
ZERR    3.00   0.000344   0.000432   0.000431   0.0034   0.0036   0.0039
LATT  1
SFAC C H N O
UNIT 33.00 30.00 3.00 3.00
TREF
HKLF 4
END
;
_olex2_submission_special_instructions 'No special instructions were received'
_oxdiff_exptl_absorpt_empirical_details
;
Empirical correction (ABSPACK) includes:
- Absorption correction using spherical harmonics
- Frame scaling
;
_oxdiff_exptl_absorpt_empirical_full_max 1.854
_oxdiff_exptl_absorpt_empirical_full_min 0.491
loop_
_space_group_symop_operation_xyz
'x, y, z'
'-x, -y, -z'
loop_
_atom_site_label
_atom_site_type_symbol
_atom_site_fract_x
_atom_site_fract_y
_atom_site_fract_z
_atom_site_U_iso_or_equiv
_atom_site_adp_type
_atom_site_occupancy
_atom_site_site_symmetry_order
_atom_site_calc_flag
_atom_site_refinement_flags_posn
_atom_site_refinement_flags_adp
_atom_site_refinement_flags_occupancy
_atom_site_disorder_assembly
_atom_site_disorder_group
C1 C 0.3262(3) 0.7465(2) 0.63020(19) 0.0254(5) Uani 1 1 d . . . . .
H1 H 0.3471 0.8277 0.6889 0.031 Uiso 1 1 calc R . . . .
C2 C 0.2413(3) 0.6054(2) 0.65125(18) 0.0220(4) Uani 1 1 d . . . . .
C3 C 0.2094(3) 0.4835(2) 0.56603(18) 0.0237(4) Uani 1 1 d . . . . .
H3A H 0.1517 0.3879 0.5787 0.028 Uiso 1 1 calc R . . . .
C4 C 0.2652(3) 0.5068(2) 0.46082(18) 0.0217(4) Uani 1 1 d . . . . .
C5 C 0.3488(3) 0.6514(2) 0.44464(18) 0.0242(5) Uani 1 1 d . . . . .
H5 H 0.3850 0.6665 0.3735 0.029 Uiso 1 1 calc R . . . .
C6 C 0.2345(3) 0.3734(2) 0.37034(18) 0.0232(4) Uani 1 1 d . . . . .
C7 C 0.2025(3) 0.4783(2) 0.82234(17) 0.0218(4) Uani 1 1 d . . . . .
C8 C 0.0676(3) 0.4248(2) 0.87936(19) 0.0270(5) Uani 1 1 d . . . . .
H8 H -0.0342 0.4624 0.8681 0.032 Uiso 1 1 calc R . . . .
C9 C 0.0868(3) 0.3141(2) 0.9537(2) 0.0273(5) Uani 1 1 d . . . . .
H9 H -0.0020 0.2793 0.9940 0.033 Uiso 1 1 calc R . . . .
C10 C 0.2347(3) 0.2540(2) 0.96931(17) 0.0204(4) Uani 1 1 d . . . . .
C11 C 0.2349(3) 0.1250(2) 1.04346(18) 0.0216(4) Uani 1 1 d . . . . .
C12 C 0.3685(3) 0.3075(2) 0.90871(17) 0.0202(4) Uani 1 1 d . . . . .
C13 C 0.3520(3) 0.4218(2) 0.83614(18) 0.0225(4) Uani 1 1 d . . . . .
H13 H 0.4419 0.4595 0.7973 0.027 Uiso 1 1 calc R . . . .
C14 C 0.5278(3) 0.2461(2) 0.91323(18) 0.0242(5) Uani 1 1 d . . . . .
Co1 Co 0.5000 1.0000 0.5000 0.02458(13) Uani 1 2 d DS T P . .
N1 N 0.3795(3) 0.77070(19) 0.52806(15) 0.0247(4) Uani 1 1 d . . . . .
O1 O 0.2541(2) 0.15340(17) 1.15780(13) 0.0334(4) Uani 1 1 d . . . . .
O2 O 0.2086(2) -0.00127(16) 0.98920(13) 0.0271(3) Uani 1 1 d . . . . .
O3 O 0.5723(2) 0.17569(19) 1.00879(14) 0.0333(4) Uani 1 1 d . . . . .
H3 H 0.6406 0.1263 0.9971 0.050 Uiso 1 1 calc GR . . . .
O4 O 0.6086(2) 0.2603(2) 0.83498(15) 0.0403(4) Uani 1 1 d . . . . .
O5 O 0.1661(2) 0.24835(16) 0.39192(14) 0.0346(4) Uani 1 1 d . . . . .
O6 O 0.2861(2) 0.39998(18) 0.27250(14) 0.0324(4) Uani 1 1 d . . . . .
H6 H 0.264(5) 0.308(4) 0.220(3) 0.095(13) Uiso 1 1 d . . . . .
O7 O 0.6730(2) 1.04588(18) 0.68233(14) 0.0361(4) Uani 1 1 d . . . . .
H7A H 0.6677 0.9648 0.7132 0.054 Uiso 1 1 d GR . . . .
H7B H 0.6300 1.0962 0.7261 0.054 Uiso 1 1 d GR . . . .
O8 O 0.3075(3) 1.0771(2) 0.56010(16) 0.0384(4) Uani 1 1 d . . . . .
H8A H 0.2525 1.0465 0.6132 0.058 Uiso 1 1 d DG . . . .
H8B H 0.2419 1.1271 0.5185 0.058 Uiso 1 1 d DG . . . .
O9 O 0.1820(2) 0.59623(16) 0.75530(13) 0.0282(4) Uani 1 1 d . . . . .
O10 O 0.1419(3) 0.9888(2) 0.73233(16) 0.0518(5) Uani 1 1 d . . . . .
H10A H 0.0442 0.9166 0.7021 0.078 Uiso 1 1 d G . . . .
H10B H 0.1606 0.9937 0.8100 0.078 Uiso 1 1 d G . . . .
loop_
_atom_site_aniso_label
_atom_site_aniso_U_11
_atom_site_aniso_U_22
_atom_site_aniso_U_33
_atom_site_aniso_U_23
_atom_site_aniso_U_13
_atom_site_aniso_U_12
Co1 0.0372(3) 0.0181(2) 0.0229(2) 0.00856(16) 0.01467(18) 0.00814(17)
O9 0.0461(10) 0.0258(8) 0.0266(8) 0.0148(6) 0.0225(7) 0.0193(7)
O2 0.0334(9) 0.0218(8) 0.0292(8) 0.0052(6) 0.0115(7) 0.0101(6)
O5 0.0515(11) 0.0206(8) 0.0270(8) 0.0052(6) 0.0123(7) 0.0010(7)
O3 0.0350(9) 0.0397(10) 0.0360(9) 0.0166(7) 0.0144(7) 0.0224(8)
O6 0.0510(11) 0.0239(8) 0.0266(8) 0.0051(7) 0.0207(7) 0.0079(7)
O1 0.0604(11) 0.0266(8) 0.0192(8) 0.0087(6) 0.0156(7) 0.0174(8)
O7 0.0579(11) 0.0274(9) 0.0265(8) 0.0083(7) 0.0119(8) 0.0177(8)
O8 0.0501(11) 0.0431(10) 0.0395(10) 0.0224(8) 0.0269(8) 0.0251(9)
O4 0.0474(11) 0.0511(11) 0.0425(10) 0.0202(8) 0.0297(8) 0.0284(9)
N1 0.0355(11) 0.0186(9) 0.0235(9) 0.0078(7) 0.0134(8) 0.0074(8)
O10 0.0577(13) 0.0521(12) 0.0342(10) -0.0052(8) 0.0236(9) -0.0121(9)
C2 0.0258(11) 0.0234(10) 0.0221(10) 0.0097(8) 0.0115(8) 0.0101(9)
C12 0.0241(11) 0.0193(10) 0.0169(9) 0.0016(8) 0.0064(8) 0.0056(8)
C13 0.0275(11) 0.0216(10) 0.0207(10) 0.0054(8) 0.0126(8) 0.0047(9)
C10 0.0263(11) 0.0195(10) 0.0163(9) 0.0028(8) 0.0073(8) 0.0066(8)
C4 0.0235(11) 0.0225(11) 0.0199(10) 0.0063(8) 0.0056(8) 0.0077(8)
C11 0.0234(11) 0.0214(11) 0.0238(10) 0.0065(8) 0.0099(8) 0.0089(8)
C7 0.0324(12) 0.0183(10) 0.0179(10) 0.0061(8) 0.0101(8) 0.0088(9)
C5 0.0307(12) 0.0236(11) 0.0216(10) 0.0089(8) 0.0110(9) 0.0084(9)
C6 0.0228(11) 0.0227(11) 0.0225(10) 0.0063(8) 0.0036(8) 0.0061(9)
C3 0.0261(11) 0.0200(10) 0.0252(11) 0.0089(8) 0.0081(9) 0.0045(8)
C1 0.0343(12) 0.0219(11) 0.0237(10) 0.0057(8) 0.0115(9) 0.0106(9)
C14 0.0259(11) 0.0220(11) 0.0240(11) 0.0041(8) 0.0072(9) 0.0055(9)
C8 0.0319(12) 0.0297(12) 0.0292(11) 0.0126(9) 0.0159(9) 0.0164(10)
C9 0.0317(12) 0.0293(12) 0.0298(11) 0.0124(9) 0.0191(9) 0.0116(10)
loop_
_atom_type_symbol
_atom_type_description
_atom_type_scat_dispersion_real
_atom_type_scat_dispersion_imag
_atom_type_scat_source
C C 0.0033 0.0016 'International Tables Vol C Tables 4.2.6.8 and 6.1.1.4'
H H 0.0000 0.0000 'International Tables Vol C Tables 4.2.6.8 and 6.1.1.4'
Co Co 0.3494 0.9721 'International Tables Vol C Tables 4.2.6.8 and 6.1.1.4'
N N 0.0061 0.0033 'International Tables Vol C Tables 4.2.6.8 and 6.1.1.4'
O O 0.0106 0.0060 'International Tables Vol C Tables 4.2.6.8 and 6.1.1.4'
loop_
_geom_angle_atom_site_label_1
_geom_angle_atom_site_label_2
_geom_angle_atom_site_label_3
_geom_angle
_geom_angle_site_symmetry_1
_geom_angle_site_symmetry_3
O7 Co1 O7 180.00(10) 2_676 .
O7 Co1 N1 89.67(6) . 2_676
O7 Co1 N1 89.67(6) 2_676 .
O7 Co1 N1 90.33(6) 2_676 2_676
O7 Co1 N1 90.33(6) . .
O8 Co1 O7 88.82(7) . .
O8 Co1 O7 91.18(7) . 2_676
O8 Co1 O7 88.82(7) 2_676 2_676
O8 Co1 O7 91.18(7) 2_676 .
O8 Co1 O8 180.0 . 2_676
O8 Co1 N1 92.57(7) . .
O8 Co1 N1 87.43(7) . 2_676
O8 Co1 N1 87.43(7) 2_676 .
O8 Co1 N1 92.57(7) 2_676 2_676
N1 Co1 N1 180.0 . 2_676
C2 O9 C7 118.42(16) . .
C14 O3 H3 109.5 . .
C6 O6 H6 111(2) . .
Co1 O7 H7A 109.4 . .
Co1 O7 H7B 109.2 . .
H7A O7 H7B 104.5 . .
Co1 O8 H8A 129.6 . .
Co1 O8 H8B 123.2 . .
H8A O8 H8B 104.5 . .
C5 N1 Co1 122.88(13) . .
C1 N1 Co1 119.23(14) . .
C1 N1 C5 117.83(18) . .
H10A O10 H10B 104.5 . .
O9 C2 C1 116.86(18) . .
C3 C2 O9 123.14(18) . .
C3 C2 C1 119.87(18) . .
C13 C12 C10 119.63(19) . .
C13 C12 C14 116.65(18) . .
C10 C12 C14 123.69(18) . .
C12 C13 H13 120.1 . .
C7 C13 C12 119.79(19) . .
C7 C13 H13 120.1 . .
C12 C10 C11 123.32(18) . .
C9 C10 C12 118.89(18) . .
C9 C10 C11 117.61(18) . .
C5 C4 C6 122.96(18) . .
C3 C4 C5 119.08(19) . .
C3 C4 C6 117.95(18) . .
O2 C11 O1 124.35(18) . .
O2 C11 C10 118.90(17) . .
O1 C11 C10 116.67(18) . .
C13 C7 O9 122.51(18) . .
C13 C7 C8 121.32(18) . .
C8 C7 O9 116.11(18) . .
N1 C5 C4 122.52(18) . .
N1 C5 H5 118.7 . .
C4 C5 H5 118.7 . .
O5 C6 O6 124.05(19) . .
O5 C6 C4 119.89(18) . .
O6 C6 C4 116.06(18) . .
C2 C3 C4 118.31(19) . .
C2 C3 H3A 120.8 . .
C4 C3 H3A 120.8 . .
N1 C1 C2 122.39(19) . .
N1 C1 H1 118.8 . .
C2 C1 H1 118.8 . .
O3 C14 C12 114.15(18) . .
O4 C14 O3 123.4(2) . .
O4 C14 C12 122.43(19) . .
C7 C8 H8 120.6 . .
C7 C8 C9 118.7(2) . .
C9 C8 H8 120.6 . .
C10 C9 C8 121.6(2) . .
C10 C9 H9 119.2 . .
C8 C9 H9 119.2 . .
loop_
_geom_bond_atom_site_label_1
_geom_bond_atom_site_label_2
_geom_bond_distance
_geom_bond_site_symmetry_2
Co1 O7 2.0935(15) .
Co1 O7 2.0935(15) 2_676
Co1 O8 2.0693(16) .
Co1 O8 2.0693(16) 2_676
Co1 N1 2.1872(17) .
Co1 N1 2.1872(17) 2_676
O9 C2 1.376(2) .
O9 C7 1.394(2) .
O2 C11 1.240(2) .
O5 C6 1.222(2) .
O3 H3 0.8200 .
O3 C14 1.314(2) .
O6 C6 1.293(2) .
O6 H6 0.96(4) .
O1 C11 1.268(2) .
O7 H7A 0.8499 .
O7 H7B 0.8502 .
O8 H8A 0.8502 .
O8 H8B 0.8502 .
O4 C14 1.212(3) .
N1 C5 1.347(3) .
N1 C1 1.343(3) .
O10 H10A 0.8500 .
O10 H10B 0.8501 .
C2 C3 1.375(3) .
C2 C1 1.381(3) .
C12 C13 1.397(3) .
C12 C10 1.402(3) .
C12 C14 1.487(3) .
C13 H13 0.9300 .
C13 C7 1.375(3) .
C10 C11 1.510(3) .
C10 C9 1.383(3) .
C4 C5 1.388(3) .
C4 C6 1.494(3) .
C4 C3 1.385(3) .
C7 C8 1.380(3) .
C5 H5 0.9300 .
C3 H3A 0.9300 .
C1 H1 0.9300 .
C8 H8 0.9300 .
C8 C9 1.385(3) .
C9 H9 0.9300 .
loop_
_geom_torsion_atom_site_label_1
_geom_torsion_atom_site_label_2
_geom_torsion_atom_site_label_3
_geom_torsion_atom_site_label_4
_geom_torsion
_geom_torsion_site_symmetry_1
_geom_torsion_site_symmetry_2
_geom_torsion_site_symmetry_3
_geom_torsion_site_symmetry_4
Co1 N1 C5 C4 -177.25(15) . . . .
Co1 N1 C1 C2 176.95(16) . . . .
O9 C2 C3 C4 176.11(19) . . . .
O9 C2 C1 N1 -175.80(19) . . . .
O9 C7 C8 C9 -175.98(19) . . . .
C2 O9 C7 C13 35.7(3) . . . .
C2 O9 C7 C8 -147.11(19) . . . .
C12 C13 C7 O9 177.37(18) . . . .
C12 C13 C7 C8 0.3(3) . . . .
C12 C10 C11 O2 -65.5(3) . . . .
C12 C10 C11 O1 117.6(2) . . . .
C12 C10 C9 C8 0.3(3) . . . .
C13 C12 C10 C11 176.29(18) . . . .
C13 C12 C10 C9 1.3(3) . . . .
C13 C12 C14 O3 159.80(18) . . . .
C13 C12 C14 O4 -20.3(3) . . . .
C13 C7 C8 C9 1.3(3) . . . .
C10 C12 C13 C7 -1.6(3) . . . .
C10 C12 C14 O3 -22.2(3) . . . .
C10 C12 C14 O4 157.7(2) . . . .
C11 C10 C9 C8 -175.0(2) . . . .
C7 O9 C2 C3 42.7(3) . . . .
C7 O9 C2 C1 -141.5(2) . . . .
C7 C8 C9 C10 -1.6(3) . . . .
C5 N1 C1 C2 -0.4(3) . . . .
C5 C4 C6 O5 177.4(2) . . . .
C5 C4 C6 O6 -1.8(3) . . . .
C5 C4 C3 C2 -0.7(3) . . . .
C6 C4 C5 N1 -178.53(19) . . . .
C6 C4 C3 C2 178.42(18) . . . .
C3 C2 C1 N1 0.2(3) . . . .
C3 C4 C5 N1 0.6(3) . . . .
C3 C4 C6 O5 -1.7(3) . . . .
C3 C4 C6 O6 179.04(19) . . . .
C1 N1 C5 C4 0.0(3) . . . .
C1 C2 C3 C4 0.4(3) . . . .
C14 C12 C13 C7 176.50(18) . . . .
C14 C12 C10 C11 -1.6(3) . . . .
C14 C12 C10 C9 -176.67(19) . . . .
C9 C10 C11 O2 109.6(2) . . . .
C9 C10 C11 O1 -67.3(3) . . . .
