#------------------------------------------------------------------------------
#$Date: 2022-02-25 10:43:35 +0200 (Fri, 25 Feb 2022) $
#$Revision: 273157 $
#$URL: file:///home/coder/svn-repositories/cod/cif/8/10/46/8104609.cif $
#------------------------------------------------------------------------------
#
# This file is available in the Crystallography Open Database (COD),
# http://www.crystallography.net/
#
# All data on this site have been placed in the public domain by the
# contributors.
#
data_8104609
loop_
_publ_author_name
'Yan, Wei-Hong'
'Zeng, Xian-Cai'
_publ_section_title
;
 Crystal structure of
 1,1&#x2032;-(1,4-phenylenebis(methylene))bis(pyridin-1-ium)
 bis(1,2-dicyanoethene-1,2-dithiolato-\k2 S,S) platinum(II), C26H18N6PtS4
;
_journal_issue                   6
_journal_name_full
'Zeitschrift f\"ur Kristallographie - New Crystal Structures'
_journal_page_first              1367
_journal_page_last               1369
_journal_paper_doi               10.1515/ncrs-2021-0345
_journal_volume                  236
_journal_year                    2021
_chemical_formula_moiety         'C8 N4 Pt S4, C18 H18 N2'
_chemical_formula_sum            'C26 H18 N6 Pt S4'
_chemical_formula_weight         737.815
_space_group_crystal_system      triclinic
_space_group_IT_number           2
_space_group_name_Hall           '-P 1'
_space_group_name_H-M_alt        'P -1'
_symmetry_Int_Tables_number      2
_cell_angle_alpha                70.473(1)
_cell_angle_beta                 80.770(1)
_cell_angle_gamma                83.340(1)
_cell_formula_units_Z            1
_cell_length_a                   8.2661(5)
_cell_length_b                   9.1519(6)
_cell_length_c                   9.4673(6)
_cell_measurement_reflns_used    2500
_cell_measurement_temperature    296(2)
_cell_measurement_theta_max      25.95
_cell_measurement_theta_min      2.50
_cell_volume                     664.77(7)
_computing_cell_refinement       'SAINT v7.68A (Bruker, 2009)'
_computing_data_reduction        'SAINT v7.68A (Bruker, 2009)'
_computing_molecular_graphics    'Olex2 1.3 (Dolomanov et al., 2009)'
_computing_publication_material  'Olex2 1.3 (Dolomanov et al., 2009)'
_computing_structure_refinement  'olex2.refine 1.3 (Bourhis et al., 2015)'
_computing_structure_solution    'SHELXT 2014/4 (Sheldrick, 2014)'
_diffrn_ambient_temperature      296.15
_diffrn_measured_fraction_theta_full 0.9933
_diffrn_measured_fraction_theta_max 0.9852
_diffrn_measurement_device_type  'CCD area detector'
_diffrn_measurement_method       'phi and omega scans'
_diffrn_radiation_monochromator  graphite
_diffrn_radiation_type           'Mo K\a'
_diffrn_radiation_wavelength     0.71073
_diffrn_reflns_av_R_equivalents  0.1161
_diffrn_reflns_av_unetI/netI     0.0961
_diffrn_reflns_Laue_measured_fraction_full 0.9933
_diffrn_reflns_Laue_measured_fraction_max 0.9852
_diffrn_reflns_limit_h_max       11
_diffrn_reflns_limit_h_min       -10
_diffrn_reflns_limit_k_max       11
_diffrn_reflns_limit_k_min       -12
_diffrn_reflns_limit_l_max       8
_diffrn_reflns_limit_l_min       -12
_diffrn_reflns_number            4773
_diffrn_reflns_point_group_measured_fraction_full 0.9933
_diffrn_reflns_point_group_measured_fraction_max 0.9852
_diffrn_reflns_theta_full        25.2417
_diffrn_reflns_theta_max         28.27
_diffrn_reflns_theta_min         2.30
_exptl_absorpt_coefficient_mu    5.618
_exptl_absorpt_correction_type   none
_exptl_crystal_colour            red
_exptl_crystal_density_diffrn    1.843
_exptl_crystal_density_meas      .
_exptl_crystal_density_method    'not measured'
_exptl_crystal_description       block
_exptl_crystal_F_000             357.371
_refine_diff_density_max         2.4117
_refine_diff_density_min         -2.2531
_refine_diff_density_rms         0.2038
_refine_ls_d_res_high            0.7503
_refine_ls_d_res_low             8.8471
_refine_ls_goodness_of_fit_ref   0.8995
_refine_ls_hydrogen_treatment    constr
_refine_ls_matrix_type           full
_refine_ls_number_constraints    17
_refine_ls_number_parameters     169
_refine_ls_number_reflns         3258
_refine_ls_number_restraints     0
_refine_ls_restrained_S_all      0.8995
_refine_ls_R_factor_all          0.0496
_refine_ls_R_factor_gt           0.0477
_refine_ls_shift/su_max          0.0000
_refine_ls_shift/su_mean         0.0000
_refine_ls_structure_factor_coef Fsqd
_refine_ls_weighting_details
'w=1/[\s^2^(Fo^2^)+(0.0739P)^2^] where P=(Fo^2^+2Fc^2^)/3'
_refine_ls_weighting_scheme      calc
_refine_ls_wR_factor_gt          0.1155
_refine_ls_wR_factor_ref         0.1168
_reflns_Friedel_coverage         0.0
_reflns_limit_h_max              11
_reflns_limit_h_min              -10
_reflns_limit_k_max              12
_reflns_limit_k_min              -11
_reflns_limit_l_max              12
_reflns_limit_l_min              0
_reflns_number_gt                3048
_reflns_number_total             3258
_reflns_threshold_expression     I>=2u(I)
_iucr_refine_instructions_details
;
TITL 1_a.res in P-1
REM Old TITL 1 in P1
REM SHELXT solution in P-1
REM R1 0.122, Rweak 0.138, Alpha 0.059, Orientation as input
REM Formula found by SHELXT: C26 N6 S4 Pt
CELL 0.71073 8.2661 9.1519 9.4673 70.473 80.77 83.34
ZERR 1 0.0005 0.0006 0.0006 0.001 0.001 0.001
LATT 1
SFAC C H N Pt S
UNIT 26 18 6 1 4

L.S. 5
PLAN  1
TEMP 23
CONF
BOND $H
list 4
MORE -1
fmap 2
acta 
WGHT 0.073905 0
FVAR 0.429992
REM <olex2.extras>
REM <HklSrc "%.\\1.hkl">
REM </olex2.extras>

Pt1   4     0.00000  0.50000  1.00000  10.50000  0.03250  0.05000  0.03671 =
 -0.00483 -0.00311  0.00209 
S1    5     0.16665  0.59649  0.77777  11.00000  0.05094  0.05508  0.04434 =
 -0.00827  0.00461 -0.00990 
S2    5    -0.08178  0.31850  0.91352  11.00000  0.04574  0.07045  0.04633 =
 -0.01578  0.00226 -0.01566 

N3    3     0.31054  0.18451  0.14736  11.00000  0.03888  0.05643  0.03985 =
 0.00404 -0.00593  0.00632 

C3    1     0.03919  0.35208  0.74017  11.00000  0.03721  0.05908  0.04200 =
 -0.01176 -0.00536  0.00086 
C2    1     0.14186  0.46983  0.68114  11.00000  0.04243  0.05877  0.03561 =
 -0.00461 -0.00473  0.00239 
C4    1     0.02485  0.24668  0.66053  11.00000  0.04316  0.06828  0.04817 =
 -0.01185 -0.00233 -0.00500 

C7    1     0.38358  0.08859  0.40799  11.00000  0.03724  0.05978  0.03906 =
 -0.00558 -0.00365  0.00478 

N1    3     0.31803  0.51586  0.42266  11.00000  0.06242  0.08901  0.04586 =
 -0.00939  0.00531  0.00191 
N2    3     0.01229  0.15502  0.60543  11.00000  0.06605  0.08194  0.07010 =
 -0.03150  0.00002 -0.01727 
C1    1     0.23928  0.49449  0.53631  11.00000  0.04744  0.05577  0.04521 =
 -0.00158 -0.00488  0.00036 

C9    1     0.24152  0.09126  0.09543  11.00000  0.05825  0.06738  0.05392 =
 -0.00083 -0.01806 -0.00305 
AFIX 43
H9    2     0.16041  0.02819  0.15756  11.00000 -1.20000 
AFIX 0
C8    1     0.26106  0.18311  0.30852  11.00000  0.04257  0.07731  0.04995 =
 -0.01018 -0.00808  0.00959 
AFIX 23
H8a   2     0.25163  0.28877  0.31133  11.00000 -1.20000 
H8b   2     0.15446  0.14056  0.34594  11.00000 -1.20000 
AFIX 0
C5    1     0.63021  0.06781  0.52201  11.00000  0.04850  0.06679  0.06030 =
 -0.00109 -0.01358 -0.01462 
AFIX 43
H5    2     0.71832  0.11448  0.53514  11.00000 -1.20000 
AFIX 0
C6    1     0.51531  0.15697  0.43238  11.00000  0.05779  0.05367  0.06167 =
 0.00248 -0.01562 -0.00801 
AFIX 43
H6    2     0.52531  0.26330  0.38778  11.00000 -1.20000 
AFIX 0
C13   1     0.42338  0.27879  0.05727  11.00000  0.05724  0.07408  0.05832 =
 0.00849 -0.00405 -0.00990 
AFIX 43
H13   2     0.46898  0.34536  0.09347  11.00000 -1.20000 
AFIX 0
C10   1     0.28891  0.08789 -0.04734  11.00000  0.08816  0.08643  0.07002 =
 -0.01577 -0.03352  0.02168 
AFIX 43
H10   2     0.24428  0.01887 -0.08116  11.00000 -1.20000 
AFIX 0
C11   1     0.40163  0.18528 -0.14126  11.00000  0.06925  0.12205  0.04725 =
 -0.00886 -0.01006  0.04478 
AFIX 43
H11   2     0.42998  0.18808 -0.24120  11.00000 -1.20000 
AFIX 0
C12   1     0.47218  0.27865 -0.08600  11.00000  0.05980  0.10553  0.06602 =
 0.02037  0.01006  0.00500 
AFIX 43
H12   2     0.55369  0.34212 -0.14668  11.00000 -1.20000 
AFIX 0
HKLF 4

END
Q1 1 -0.074074 0.4375 1 11 0.05 2.41

  REM The information below was added by Olex2.
  REM
  REM R1 = 0.0477 for 3048 Fo > 4sig(Fo) and 0.0496 for all 3258 data
  REM 169 parameters refined using 0 restraints
  REM Highest difference peak 2.4117, deepest hole -2.2531
  REM Mean Shift 0.0000, Max Shift 0.0000.

  REM +++ Tabular Listing of Refinement Information +++
  REM R1_all = 0.0496
  REM R1_gt = 0.0477
  REM wR_ref = 0.1168
  REM GOOF = 0.8995
  REM Shift_max = 0.0000
  REM Shift_mean = 0.0000
  REM Reflections_all = 3258
  REM Reflections_gt = 3048
  REM Parameters = 169
  REM Hole = -2.2531
  REM Peak = 2.4117
  REM Flack = n/a

  
;
_cod_data_source_file            suppl_j_ncrs-2021-0345_suppl.cif
_cod_data_source_block           1
_cod_database_code               8104609
_olex2_refinement_description
;
1. Fixed Uiso
 At 1.2 times of:
  All C(H) groups, All C(H,H) groups
2.a Secondary CH2 refined with riding coordinates:
 C8(H8a,H8b)
2.b Aromatic/amide H refined with riding coordinates:
 C9(H9), C5(H5), C6(H6), C13(H13), C10(H10), C11(H11), C12(H12)
;
_iucr_refine_fcf_details
;
data_1
_computing_structure_refinement   'olex2.refine 1.3 (Bourhis et al., 2015)'
_shelx_refln_list_code            4
loop_
  _space_group_symop_id
  _space_group_symop_operation_xyz
  1  x,y,z
  2  -x,-y,-z

_space_group_crystal_system       triclinic
_space_group_IT_number            2
_space_group_name_H-M_alt         'P -1'
_space_group_name_Hall            '-P 1'
_symmetry_space_group_name_H-M    'P -1'
_symmetry_space_group_name_Hall   '-P 1'
_symmetry_Int_Tables_number       2
_cell_length_a                    8.2661(5)
_cell_length_b                    9.1519(6)
_cell_length_c                    9.4673(6)
_cell_angle_alpha                 70.473(1)
_cell_angle_beta                  80.770(1)
_cell_angle_gamma                 83.340(1)
_cell_volume                      664.77(7)
loop_
  _refln_index_h
  _refln_index_k
  _refln_index_l
  _refln_F_squared_calc
  _refln_F_squared_meas
  _refln_F_squared_sigma
  _refln_F_squared_weight
  _refln_observed_status
-10 -4 1 74.276 80.371 28.341 147.167 o
-10 -3 1 169.153 179.725 37.265 79.203 o
-10 -3 2 146.109 156.090 36.508 84.470 o
-10 -2 1 326.798 303.959 45.053 47.515 o
-10 -2 2 151.662 176.264 36.886 81.913 o
-10 -1 1 397.855 357.558 43.863 44.994 o
-10 -1 2 208.629 226.347 40.348 65.388 o
-10 -1 3 119.873 114.931 32.235 110.168 o
-10 0 1 243.462 244.952 41.538 59.931 o
-10 0 2 350.247 324.566 46.189 44.345 o
-10 0 3 81.292 47.379 24.447 196.808 o
-10 1 1 195.668 191.029 37.265 77.068 o
-10 1 2 182.573 161.499 34.939 88.466 o
-10 1 3 149.781 110.280 31.045 115.306 o
-10 2 1 175.307 147.923 34.182 93.148 o
-10 2 2 207.020 189.461 38.022 73.729 o
-10 2 3 151.325 155.657 36.129 85.767 o
-10 3 1 189.470 185.945 38.022 74.960 o
-10 3 2 204.841 179.725 37.265 76.827 o
-9 -6 1 45.636 47.757 26.394 173.479 o
-9 -5 1 91.517 104.060 29.098 137.040 o
-9 -5 2 37.424 48.893 24.825 196.433 o
-9 -4 1 105.829 111.037 29.098 135.055 o
-9 -4 2 133.453 143.650 34.182 96.706 o
-9 -4 3 86.594 85.401 28.341 145.637 o
-9 -3 1 454.504 450.314 44.620 39.483 o
-9 -3 2 354.561 379.679 43.485 47.076 o
-9 -3 3 155.892 180.537 36.886 81.505 o
-9 -3 4 214.771 194.491 38.833 70.447 o
-9 -2 1 575.344 573.033 48.136 29.824 o
-9 -2 2 696.540 678.986 53.166 22.621 o
-9 -2 3 194.792 165.014 34.182 90.685 o
-9 -2 4 162.807 177.778 36.129 84.220 o
-9 -1 1 274.174 251.172 38.022 67.018 o
-9 -1 2 394.458 426.246 43.485 44.091 o
-9 -1 3 245.383 267.506 41.159 60.149 o
-9 -1 4 42.318 53.599 24.447 201.705 o
-9 -1 5 47.384 46.567 24.825 195.548 o
-9 0 1 170.821 174.317 32.235 102.349 o
-9 0 2 382.415 401.042 41.916 47.595 o
-9 0 3 152.366 130.075 30.288 119.064 o
-9 0 4 75.650 53.166 24.447 197.245 o
-9 0 5 93.373 84.265 28.719 141.349 o
-9 1 1 92.106 66.795 23.689 205.005 o
-9 1 2 621.877 615.328 50.083 26.680 o
-9 1 3 181.268 171.613 33.749 93.650 o
-9 1 4 203.751 197.628 37.643 74.964 o
-9 1 5 170.645 136.241 33.749 96.199 o
-9 2 1 239.416 210.013 35.696 78.661 o
-9 2 2 320.731 315.209 38.833 59.553 o
-9 2 3 564.975 511.647 47.757 31.378 o
-9 2 4 351.875 322.619 46.189 44.319 o
-9 2 5 186.654 170.423 35.696 84.535 o
-9 3 1 213.590 214.286 37.643 73.727 o
-9 3 2 397.492 408.776 43.106 44.889 o
-9 3 3 267.369 213.907 38.455 67.560 o
-9 3 4 455.923 407.641 45.053 39.815 o
-9 3 5 144.081 145.598 34.182 95.810 o
-9 4 1 238.381 194.112 36.886 75.217 o
-9 4 2 233.125 211.582 37.643 72.462 o
-9 4 3 115.138 101.302 29.909 127.834 o
-9 4 4 120.447 104.439 29.531 130.115 o
-9 5 1 162.678 146.733 33.749 96.436 o
-9 5 2 107.243 87.348 27.962 146.786 o
-9 5 3 94.208 78.045 27.962 148.957 o
-8 -7 1 126.458 160.309 34.939 92.787 o
-8 -7 2 57.456 75.341 29.098 141.466 o
-8 -6 1 149.066 188.271 35.696 86.672 o
-8 -6 2 34.898 29.531 21.742 256.697 o
-8 -6 3 34.774 53.599 27.151 164.643 o
-8 -5 1 204.246 241.058 38.022 72.212 o
-8 -5 2 117.820 115.688 29.909 126.755 o
-8 -5 3 56.512 78.424 28.341 148.872 o
-8 -5 4 112.981 139.756 33.371 102.852 o
-8 -4 1 473.720 463.132 42.295 41.011 o
-8 -4 2 442.972 421.595 43.106 42.437 o
-8 -4 3 248.978 251.551 39.969 63.393 o
-8 -4 4 180.231 159.552 34.560 90.454 o
-8 -4 5 200.548 224.400 41.538 62.607 o
-8 -3 1 548.560 515.162 43.106 35.767 o
-8 -3 2 731.346 762.440 52.787 21.219 o
-8 -3 3 324.815 298.551 41.538 54.111 o
-8 -3 4 186.853 183.241 35.696 84.025 o
-8 -3 5 175.996 178.968 36.129 83.233 o
-8 -2 1 860.999 852.113 52.787 18.051 o
-8 -2 2 648.068 574.169 46.189 28.871 o
-8 -2 3 369.539 335.058 38.455 56.396 o
-8 -2 4 159.742 168.097 32.992 99.683 o
-8 -2 5 44.293 34.939 21.742 254.954 o
-8 -2 6 150.307 124.612 32.992 102.557 o
-8 -1 1 349.241 343.550 35.318 64.462 o
-8 -1 2 555.181 555.942 44.242 33.737 o
-8 -1 3 564.613 485.253 43.106 35.722 o
-8 -1 4 129.985 100.545 26.772 154.450 o
-8 -1 5 41.257 32.613 20.985 274.040 o
-8 -1 6 253.682 284.975 44.242 52.552 o
-8 0 1 36.993 48.514 19.417 318.261 o
-8 0 2 429.332 413.049 38.833 49.361 o
-8 0 3 644.696 547.397 45.432 29.888 o
-8 0 4 270.709 229.808 36.508 72.551 o
-8 0 5 187.460 198.763 36.886 78.756 o
-8 0 6 230.521 194.869 36.886 75.776 o
-8 1 1 293.179 286.868 38.455 63.293 o
-8 1 2 353.240 342.414 36.129 62.283 o
-8 1 3 583.190 575.738 45.810 31.185 o
-8 1 4 666.313 609.487 48.514 26.468 o
-8 1 5 322.615 289.627 41.538 54.476 o
-8 1 6 265.162 270.702 29.624 96.989 o
-8 1 7 164.071 202.858 32.208 101.687 o
-8 2 1 424.278 414.618 38.833 49.623 o
-8 2 2 615.392 555.942 44.620 31.281 o
-8 2 3 470.680 438.686 41.159 43.119 o
-8 2 4 453.100 396.391 40.780 45.635 o
-8 2 5 266.067 237.597 38.455 66.846 o
-8 2 6 153.866 118.014 29.909 122.326 o
-8 2 7 94.514 108.712 21.498 238.166 o
-8 3 1 593.585 526.033 44.242 32.869 o
-8 3 2 327.548 325.701 36.886 63.199 o
-8 3 3 540.258 506.995 44.242 35.243 o
-8 3 4 412.847 338.520 38.455 53.397 o
-8 3 5 265.008 223.210 37.265 70.909 o
-8 3 6 111.146 93.946 27.584 149.578 o
-8 4 1 430.299 339.710 38.833 51.580 o
-8 4 2 262.327 254.309 38.022 67.745 o
-8 4 3 152.669 131.968 29.531 124.363 o
-8 4 4 359.092 312.126 37.643 59.616 o
-8 4 5 278.266 237.975 38.455 66.001 o
-8 4 6 107.719 57.438 24.447 191.164 o
-8 5 1 297.983 308.232 42.295 53.778 o
-8 5 2 228.929 165.393 32.992 92.798 o
-8 5 3 89.025 60.197 22.878 220.281 o
-8 5 4 85.914 85.779 26.015 171.374 o
-8 5 5 180.250 140.135 31.424 107.836 o
-8 5 6 131.826 112.173 29.909 125.357 o
-8 6 1 195.916 212.339 38.455 72.273 o
-8 6 2 156.847 140.135 32.613 103.383 o
-8 6 3 136.376 105.574 29.098 131.631 o
-8 6 4 125.612 103.627 28.341 139.703 o
-8 6 5 128.609 104.060 29.531 129.180 o
-8 7 1 94.310 53.599 25.258 182.439 o
-8 7 2 164.029 151.006 34.182 93.971 o
-8 7 3 108.658 100.923 29.531 131.636 o
-7 -8 1 165.819 168.231 25.902 149.393 o
-7 -8 2 60.549 41.916 25.258 187.873 o
-7 -7 1 291.390 292.798 31.640 83.803 o
-7 -7 2 50.377 53.599 24.068 206.972 o
-7 -7 3 26.470 17.848 22.500 241.297 o
-7 -6 1 317.624 337.014 27.192 93.586 o
-7 -6 2 94.566 125.370 30.288 125.729 o
-7 -6 3 82.409 107.900 29.531 133.979 o
-7 -6 4 32.037 22.878 22.500 240.566 o
-7 -5 1 321.694 340.467 36.129 64.924 o
-7 -5 2 286.955 279.513 38.833 63.017 o
-7 -5 3 169.593 176.642 34.182 92.403 o
-7 -5 4 175.895 178.968 36.129 83.240 o
-7 -5 5 182.761 199.142 38.833 72.220 o
-7 -4 1 810.849 813.713 49.704 20.244 o
-7 -4 2 694.139 709.653 48.893 24.278 o
-7 -4 3 774.766 791.592 53.599 19.823 o
-7 -4 4 124.055 118.393 29.098 132.389 o
-7 -4 5 357.473 379.679 43.863 46.351 o
-7 -4 6 207.537 196.816 39.212 69.631 o
-7 -3 1 1028.410 986.840 52.787 14.614 o
-7 -3 2 1199.850 1156.510 59.007 11.014 o
-7 -3 3 1036.550 1055.580 59.386 12.980 o
-7 -3 4 327.733 320.672 38.022 60.715 o
-7 -3 5 117.837 103.627 27.962 144.274 o
-7 -3 6 163.500 152.575 33.371 98.058 o
-7 -2 1 762.769 808.250 47.000 22.284 o
-7 -2 2 451.391 475.950 38.833 46.169 o
-7 -2 3 773.299 733.721 48.514 22.305 o
-7 -2 4 326.192 316.020 36.129 65.558 o
-7 -2 5 62.356 71.068 24.447 197.915 o
-7 -2 6 37.222 40.348 22.121 247.088 o
-7 -2 7 291.524 293.088 45.053 49.240 o
-7 -1 1 349.590 350.148 32.992 69.951 o
-7 -1 2 87.156 85.401 22.121 231.740 o
-7 -1 3 918.192 902.196 52.409 16.838 o
-7 -1 4 254.701 263.233 36.886 71.325 o
-7 -1 5 160.020 130.454 28.719 129.630 o
-7 -1 6 184.997 196.059 35.696 83.670 o
-7 -1 7 265.058 223.210 38.833 66.337 o
-7 0 1 227.781 234.460 28.341 112.516 o
-7 0 2 310.717 338.141 32.992 74.598 o
-7 0 3 946.402 965.097 53.166 15.788 o
-7 0 4 472.568 465.079 40.348 43.348 o
-7 0 5 410.770 367.618 38.455 52.583 o
-7 0 6 316.707 340.070 26.761 95.165 o
-7 0 7 379.380 364.156 42.727 47.430 o
-7 0 8 289.978 267.073 43.863 52.083 o
-7 1 1 510.556 528.359 39.212 41.035 o
-7 1 2 510.750 510.132 39.212 41.497 o
-7 1 3 1210.150 1104.100 56.303 11.476 o
-7 1 4 1106.830 984.893 55.113 13.290 o
-7 1 5 938.892 826.152 52.787 17.012 o
-7 1 6 253.563 245.084 36.508 73.312 o
-7 1 7 229.844 237.488 32.803 89.631 o
-7 1 8 120.453 133.976 23.048 199.329 o
-7 2 1 1466.750 1394.100 60.954 8.148 o
-7 2 2 500.843 494.610 39.212 42.428 o
-7 2 3 957.291 899.113 51.219 16.543 o
-7 2 4 927.385 821.880 50.462 17.824 o
-7 2 5 881.904 789.266 51.219 18.678 o
-7 2 6 302.337 281.460 39.212 61.012 o
-7 2 7 55.383 36.832 15.020 514.534 o
-7 2 8 63.495 65.792 18.390 340.655 o
-7 3 1 1319.060 1295.500 60.575 9.409 o
-7 3 2 718.005 647.941 44.620 26.560 o
-7 3 3 409.796 390.171 36.508 55.328 o
-7 3 4 120.853 107.522 25.258 172.597 o
-7 3 5 380.253 304.338 34.560 65.275 o
-7 3 6 130.099 137.052 29.098 130.387 o
-7 3 7 73.495 82.750 18.193 338.518 o
-7 3 8 66.607 66.065 18.167 346.980 o
-7 4 1 786.135 747.296 48.893 21.727 o
-7 4 2 332.222 298.172 33.371 73.322 o
-7 4 3 261.845 206.119 32.235 90.202 o
-7 4 4 145.493 142.461 27.962 137.164 o
-7 4 5 297.811 273.293 38.022 64.544 o
-7 4 6 245.616 229.430 36.129 75.832 o
-7 4 7 111.479 91.597 19.679 274.717 o
-7 4 8 109.680 115.162 26.772 156.608 o
-7 5 1 352.572 305.528 35.318 65.811 o
-7 5 2 227.982 196.438 32.992 91.243 o
-7 5 3 205.762 181.294 31.856 100.061 o
-7 5 4 164.654 114.120 26.772 146.977 o
-7 5 5 433.932 364.535 38.455 51.191 o
-7 5 6 252.164 216.611 35.318 78.632 o
-7 5 7 217.307 225.453 37.833 72.467 o
-7 6 1 228.344 224.400 36.508 76.121 o
-7 6 2 397.982 328.027 37.643 56.273 o
-7 6 3 370.378 362.209 38.455 55.427 o
-7 6 4 114.565 102.492 26.394 160.978 o
-7 6 5 209.642 211.960 35.318 82.519 o
-7 6 6 231.920 251.976 28.583 108.944 o
-7 6 7 185.682 175.885 37.265 78.250 o
-7 7 1 177.304 139.378 31.045 110.519 o
-7 7 2 283.966 267.506 39.969 60.801 o
-7 7 3 357.231 316.777 38.455 57.851 o
-7 7 4 121.995 83.454 25.258 174.793 o
-7 7 5 85.717 71.068 24.447 194.031 o
-7 7 6 142.131 146.355 34.182 95.933 o
-7 8 1 75.211 73.772 26.394 169.000 o
-7 8 2 157.098 149.870 32.992 100.794 o
-7 8 3 165.233 142.082 31.856 106.825 o
-7 8 4 51.979 66.795 25.258 187.423 o
-6 -9 1 160.813 176.563 26.476 144.295 o
-6 -8 1 309.888 355.748 29.768 83.955 o
-6 -8 2 121.900 133.473 23.452 193.106 o
-6 -8 3 42.106 47.757 25.636 184.015 o
-6 -7 1 294.209 288.058 27.177 101.996 o
-6 -7 2 129.910 165.282 23.809 181.638 o
-6 -7 3 38.611 38.022 22.121 247.057 o
-6 -7 4 45.700 47.000 25.258 189.175 o
-6 -6 1 168.026 156.781 20.856 211.002 o
-6 -6 2 439.098 435.698 29.503 64.064 o
-6 -6 3 130.405 148.302 31.856 110.073 o
-6 -6 4 100.918 117.635 30.666 122.595 o
-6 -6 5 166.395 160.309 34.939 89.808 o
-6 -5 1 494.201 454.089 27.155 61.435 o
-6 -5 2 631.653 595.154 44.620 30.067 o
-6 -5 3 959.181 930.970 56.681 15.097 o
-6 -5 4 279.743 299.308 37.265 66.921 o
-6 -5 5 218.581 192.544 35.318 82.584 o
-6 -5 6 260.037 238.732 41.916 58.339 o
-6 -4 1 649.598 627.483 29.069 39.668 o
-6 -4 2 1196.080 1173.970 57.438 11.154 o
-6 -4 3 823.916 779.531 50.462 20.072 o
-6 -4 4 608.653 630.851 48.514 27.761 o
-6 -4 5 112.784 98.219 27.151 153.454 o
-6 -4 6 140.550 137.052 32.235 107.304 o
-6 -4 7 115.971 115.310 32.613 108.095 o
-6 -3 1 949.844 902.629 46.567 17.721 o
-6 -3 2 1034.580 1000.850 51.219 14.729 o
-6 -3 3 916.592 892.894 51.219 17.227 o
-6 -3 4 322.965 328.027 35.696 66.427 o
-6 -3 5 228.097 202.657 34.182 85.823 o
-6 -3 6 16.255 10.114 16.712 438.239 o
-6 -3 7 176.954 151.006 33.749 94.985 o
-6 -2 1 1187.600 1199.990 51.651 11.787 o
-6 -2 2 334.474 335.437 30.666 79.145 o
-6 -2 3 670.129 652.593 42.727 29.011 o
-6 -2 4 885.612 818.743 49.704 18.785 o
-6 -2 5 91.945 75.341 22.878 217.807 o
-6 -2 6 120.584 136.241 29.909 125.264 o
-6 -2 7 343.910 378.921 42.295 49.561 o
-6 -2 8 342.637 360.641 45.053 45.620 o
-6 -1 1 459.193 479.087 33.749 52.871 o
-6 -1 2 94.189 119.961 22.121 224.639 o
-6 -1 3 739.753 752.759 44.242 24.668 o
-6 -1 4 1466.750 1408.060 62.090 8.035 o
-6 -1 5 574.237 633.131 94.325 11.354 o
-6 -1 6 300.250 284.164 39.212 61.060 o
-6 -1 7 436.274 438.307 43.863 41.420 o
-6 -1 8 330.637 313.316 45.432 46.539 o
-6 0 1 394.080 398.338 31.424 66.720 o
-6 0 2 401.526 375.027 31.424 67.160 o
-6 0 3 1079.500 1104.100 52.030 13.402 o
-6 0 4 1319.470 1248.500 57.060 9.888 o
-6 0 5 1712.430 1579.290 66.795 6.251 o
-6 0 6 597.457 606.885 53.977 25.162 o
-6 0 7 311.974 332.143 26.082 99.497 o
-6 0 8 226.199 187.514 35.318 82.150 o
-6 0 9 147.853 160.309 35.696 87.748 o
-6 1 1 2251.650 2339.400 70.257 3.684 o
-6 1 2 1695.600 1606.060 59.764 6.562 o
-6 1 3 745.625 757.031 43.485 24.782 o
-6 1 4 1117.160 1041.570 52.030 13.328 o
-6 1 5 651.551 571.843 41.538 31.845 o
-6 1 6 467.804 457.866 88.132 13.737 o
-6 1 7 181.768 171.876 21.925 187.701 o
-6 1 8 76.701 78.816 17.935 346.742 o
-6 1 9 179.982 239.165 40.348 66.576 o
-6 2 1 2962.600 3065.390 81.507 2.206 o
-6 2 2 1282.250 1281.500 54.356 10.299 o
-6 2 3 916.338 805.167 44.620 19.776 o
-6 2 4 707.339 632.798 41.538 28.782 o
-6 2 5 706.653 617.275 42.727 28.393 o
-6 2 6 367.374 332.993 24.900 93.670 o
-6 2 7 144.964 135.993 20.217 236.855 o
-6 2 8 34.992 42.347 20.769 279.920 o
-6 2 9 123.817 154.203 23.476 189.305 o
-6 3 1 1517.040 1474.850 59.386 7.746 o
-6 3 2 1117.780 1022.160 50.083 13.732 o
-6 3 3 332.577 311.747 30.288 82.113 o
-6 3 4 400.073 345.118 32.235 66.963 o
-6 3 5 580.992 536.526 39.969 36.700 o
-6 3 6 603.979 601.096 89.863 12.213 o
-6 3 7 198.464 198.619 24.257 152.905 o
-6 3 8 69.947 74.297 17.495 368.002 o
-6 3 9 164.483 200.710 39.590 70.718 o
-6 4 1 942.301 952.712 50.462 16.534 o
-6 4 2 857.629 817.986 46.567 20.267 o
-6 4 3 465.596 402.989 34.560 54.022 o
-6 4 4 119.148 85.779 21.364 236.250 o
-6 4 5 283.349 237.975 29.531 97.141 o
-6 4 6 453.374 495.157 47.352 35.775 o
-6 4 7 371.952 383.505 35.913 59.621 o
-6 4 8 167.601 174.101 38.644 74.441 o
-6 4 9 183.326 196.059 38.455 73.543 o
-6 5 1 430.717 438.686 37.265 50.895 o
-6 5 2 500.331 463.511 38.022 44.739 o
-6 5 3 563.356 475.950 39.212 39.687 o
-6 5 4 393.552 341.224 34.182 63.308 o
-6 5 5 227.550 217.801 31.856 95.288 o
-6 5 6 444.749 452.802 43.674 40.950 o
-6 5 7 392.079 422.457 29.684 69.633 o
-6 5 8 197.566 186.756 37.265 77.085 o
-6 6 1 188.075 180.537 30.666 108.892 o
-6 6 2 389.036 370.376 36.508 57.605 o
-6 6 3 463.591 413.428 37.643 49.002 o
-6 6 4 394.085 376.163 36.508 57.009 o
-6 6 5 228.326 192.922 31.045 100.736 o
-6 6 6 209.351 209.935 24.418 146.975 o
-6 6 7 293.351 351.716 41.916 53.629 o
-6 6 8 66.579 55.924 25.258 186.286 o
-6 7 1 217.245 187.892 32.992 92.844 o
-6 7 2 342.678 286.111 34.939 68.517 o
-6 7 3 636.365 604.457 46.189 28.765 o
-6 7 4 215.438 177.400 31.045 103.409 o
-6 7 5 88.297 72.961 22.878 218.967 o
-6 7 6 144.672 165.771 34.939 91.266 o
-6 7 7 105.665 101.302 29.909 128.827 o
-6 8 1 140.970 135.105 30.666 117.483 o
-6 8 2 203.456 144.408 30.666 109.241 o
-6 8 3 243.049 227.483 36.508 74.846 o
-6 8 4 147.558 119.583 27.584 142.027 o
-6 8 5 43.285 43.106 23.311 221.975 o
-6 8 6 61.915 47.757 23.689 212.216 o
-6 9 1 65.011 76.477 26.772 165.472 o
-6 9 2 62.130 45.432 21.742 250.681 o
-6 9 3 72.263 38.833 22.121 241.074 o
-5 -10 1 126.150 131.852 24.146 182.703 o
-5 -9 1 235.425 252.928 28.399 109.284 o
-5 -9 2 136.185 176.264 26.162 152.349 o
-5 -8 1 199.172 207.460 24.631 148.158 o
-5 -8 2 279.657 250.639 28.406 101.976 o
-5 -8 3 34.007 56.236 18.053 366.528 o
-5 -8 4 28.691 33.749 24.068 210.308 o
-5 -7 1 89.544 95.656 17.515 348.506 o
-5 -7 2 352.643 354.982 27.455 85.572 o
-5 -7 3 159.984 173.338 23.878 171.182 o
-5 -7 4 83.682 74.151 26.015 172.547 o
-5 -7 5 54.379 60.197 26.772 167.401 o
-5 -6 1 182.725 189.496 21.108 194.300 o
-5 -6 2 351.817 336.662 25.393 94.412 o
-5 -6 3 396.904 420.837 40.348 48.700 o
-5 -6 4 299.008 303.581 37.643 64.326 o
-5 -6 5 114.315 127.749 31.045 118.060 o
-5 -6 6 187.548 188.649 38.022 74.996 o
-5 -5 1 244.320 276.935 20.983 154.377 o
-5 -5 2 1451.610 1430.370 60.386 8.168 o
-5 -5 3 700.481 745.403 48.514 23.863 o
-5 -5 4 810.491 757.031 52.030 20.017 o
-5 -5 5 144.655 135.484 30.288 119.670 o
-5 -5 6 199.436 171.613 34.560 88.283 o
-5 -5 7 178.000 160.741 36.508 82.205 o
-5 -4 1 1373.530 1321.590 38.008 10.694 o
-5 -4 2 1026.970 1053.250 36.083 17.160 o
-5 -4 3 1724.430 1695.740 67.174 5.973 o
-5 -4 4 958.035 945.302 53.977 15.590 o
-5 -4 5 263.054 250.415 36.886 71.174 o
-5 -4 6 144.516 130.454 29.531 125.540 o
-5 -4 7 101.868 115.310 30.288 125.505 o
-5 -3 1 1359.640 1345.720 36.224 10.836 o
-5 -3 2 981.885 936.378 45.810 17.060 o
-5 -3 3 328.470 317.589 29.909 83.542 o
-5 -3 4 1368.980 1293.560 59.764 9.146 o
-5 -3 5 341.612 309.043 33.749 70.764 o
-5 -3 6 64.104 73.394 22.878 224.212 o
-5 -3 7 96.730 82.696 26.015 169.950 o
-5 -3 8 296.934 300.119 45.053 48.864 o
-5 -2 1 1153.610 1137.470 45.810 13.214 o
-5 -2 2 331.720 296.982 27.151 94.748 o
-5 -2 3 77.239 64.037 17.091 382.724 o
-5 -2 4 1392.450 1310.650 57.871 9.083 o
-5 -2 5 621.761 604.457 43.485 31.005 o
-5 -2 6 291.306 269.020 32.613 81.716 o
-5 -2 7 230.717 224.021 36.129 77.264 o
-5 -2 8 398.071 408.776 44.242 43.293 o
-5 -2 9 249.795 259.339 43.863 54.050 o
-5 -1 1 2905.770 3081.290 71.825 2.312 o
-5 -1 2 172.916 183.619 21.742 191.156 o
-5 -1 3 653.824 589.692 36.508 34.935 o
-5 -1 4 1375.240 1230.280 53.977 9.807 o
-5 -1 5 614.961 636.920 86.185 12.877 o
-5 -1 6 800.948 844.053 124.234 6.446 o
-5 -1 7 345.172 334.247 36.508 62.381 o
-5 -1 8 392.478 420.459 43.106 44.849 o
-5 -1 9 351.954 364.535 43.485 47.561 o
-5 0 1 1605.950 1670.100 53.166 7.107 o
-5 0 2 1998.300 1991.580 60.197 4.841 o
-5 0 3 853.096 821.880 41.159 22.051 o
-5 0 4 2458.790 2261.740 69.878 3.398 o
-5 0 5 1715.470 1855.910 176.832 2.548 o
-5 0 6 1183.250 1256.280 156.063 3.802 o
-5 0 7 318.448 327.996 27.178 94.261 o
-5 0 8 202.507 174.695 31.856 100.827 o
-5 0 9 98.495 71.825 25.258 180.232 o
-5 1 1 3341.620 3455.510 76.477 1.801 o
-5 1 2 3124.310 3120.880 74.529 2.089 o
-5 1 3 1188.350 1187.550 48.514 12.211 o
-5 1 4 1756.700 1615.360 58.628 6.334 o
-5 1 5 1650.760 1528.400 59.386 6.949 o
-5 1 6 1460.240 1520.480 225.373 1.958 o
-5 1 7 290.484 294.215 23.452 121.090 o
-5 1 8 72.957 67.687 15.760 445.108 o
-5 1 9 58.471 50.762 15.903 455.184 o
-5 1 10 124.560 139.756 32.613 106.356 o
-5 2 1 4331.100 4539.430 89.295 1.080 o
-5 2 2 3516.160 3742.050 82.318 1.591 o
-5 2 3 1060.080 987.218 44.620 15.652 o
-5 2 4 548.599 539.987 35.318 42.757 o
-5 2 5 119.598 122.665 22.121 216.041 o
-5 2 6 701.754 702.225 95.893 10.338 o
-5 2 7 261.856 261.839 23.324 133.784 o
-5 2 8 93.257 94.956 17.741 338.683 o
-5 2 9 146.133 182.535 38.833 74.709 o
-5 2 10 279.487 333.868 47.757 44.450 o
-5 3 1 2301.840 2457.800 68.310 3.518 o
-5 3 2 1386.090 1438.340 53.166 9.045 o
-5 3 3 867.590 879.318 43.485 20.347 o
-5 3 4 336.733 316.020 28.719 86.600 o
-5 3 5 179.887 156.090 24.447 161.874 o
-5 3 6 623.092 593.300 66.390 19.019 o
-5 3 7 461.313 455.242 56.303 28.431 o
-5 3 8 305.017 305.703 25.366 106.639 o
-5 3 9 143.353 129.264 31.856 109.735 o
-5 3 10 253.353 288.437 45.432 50.203 o
-5 4 1 543.963 530.306 35.318 43.321 o
-5 4 2 777.228 821.068 42.727 23.405 o
-5 4 3 342.779 323.376 29.098 83.911 o
-5 4 4 661.218 635.880 38.833 32.039 o
-5 4 5 277.373 235.271 26.772 112.169 o
-5 4 6 874.965 887.036 111.010 7.428 o
-5 4 7 553.951 544.666 61.549 22.566 o
-5 4 8 372.939 398.348 28.341 76.910 o
-5 4 9 154.349 216.233 39.969 69.633 o
-5 4 10 55.617 89.673 29.909 133.708 o
-5 5 1 377.463 349.391 31.424 71.132 o
-5 5 2 664.364 618.411 39.590 31.767 o
-5 5 3 1313.990 1223.250 53.599 10.349 o
-5 5 4 848.059 768.281 43.485 22.035 o
-5 5 5 375.029 336.573 31.424 72.114 o
-5 5 6 460.524 495.035 60.170 25.403 o
-5 5 7 485.144 471.329 41.132 41.612 o
-5 5 8 391.232 422.785 44.242 43.286 o
-5 5 9 62.468 78.424 29.098 140.958 o
-5 6 1 510.721 520.625 39.212 41.226 o
-5 6 2 432.277 388.603 34.560 57.222 o
-5 6 3 1055.620 1016.750 51.651 14.279 o
-5 6 4 1110.050 1003.170 51.219 13.763 o
-5 6 5 185.574 171.991 27.962 127.884 o
-5 6 6 218.438 203.965 41.565 62.162 o
-5 6 7 253.979 282.217 41.538 58.397 o
-5 6 8 202.997 244.195 40.780 64.016 o
-5 6 9 43.520 53.977 26.015 178.391 o
-5 7 1 240.130 229.051 33.749 85.079 o
-5 7 2 294.940 290.762 32.235 81.394 o
-5 7 3 370.038 356.368 34.560 63.869 o
-5 7 4 525.869 522.950 39.969 39.610 o
-5 7 5 115.613 116.966 18.386 298.535 o
-5 7 6 117.674 91.620 26.394 161.371 o
-5 7 7 77.374 60.575 25.258 184.485 o
-5 7 8 72.646 101.302 29.909 131.927 o
-5 7 9 61.872 88.916 31.424 121.082 o
-5 8 2 124.594 111.037 26.015 162.646 o
-5 8 3 295.132 281.081 33.749 76.813 o
-5 8 4 127.840 102.870 24.068 186.957 o
-5 8 5 112.473 84.265 26.015 167.234 o
-5 8 6 101.224 79.181 26.772 160.657 o
-5 8 7 33.134 33.749 21.742 256.652 o
-5 8 8 90.620 97.462 29.909 130.493 o
-5 9 2 103.605 102.492 26.772 158.569 o
-5 9 3 48.193 64.848 22.500 235.410 o
-5 9 4 125.385 110.658 29.531 129.171 o
-5 9 5 63.871 86.591 27.584 155.801 o
-5 9 6 72.872 109.469 30.288 128.423 o
-5 9 7 36.731 52.787 26.015 179.013 o
-5 10 2 41.832 42.727 21.742 254.724 o
-5 10 4 72.219 79.559 28.341 147.406 o
-4 -10 1 156.699 162.710 24.649 164.913 o
-4 -10 2 130.606 143.035 24.562 174.933 o
-4 -9 1 161.839 160.864 23.305 179.239 o
-4 -9 2 214.787 238.707 28.128 115.689 o
-4 -9 3 97.569 111.777 22.696 214.726 o
-4 -8 1 83.611 78.629 16.751 387.313 o
-4 -8 2 170.374 157.228 22.384 188.606 o
-4 -8 3 140.230 150.802 23.317 187.163 o
-4 -8 4 37.343 40.348 23.689 215.884 o
-4 -8 5 40.485 41.159 24.447 202.551 o
-4 -7 1 102.426 103.472 16.748 363.363 o
-4 -7 2 257.207 265.618 23.310 134.648 o
-4 -7 3 347.930 356.730 27.297 86.691 o
-4 -7 4 196.392 222.074 37.265 75.944 o
-4 -7 5 89.428 103.249 29.098 137.304 o
-4 -7 6 136.258 149.870 35.318 90.649 o
-4 -6 1 53.137 57.575 14.765 524.461 o
-4 -6 2 586.829 548.800 28.903 46.618 o
-4 -6 3 985.834 950.723 38.700 18.394 o
-4 -6 4 746.385 687.153 50.083 22.789 o
-4 -6 5 360.466 349.012 39.969 53.608 o
-4 -6 6 127.414 104.817 30.288 123.397 o
-4 -6 7 225.794 220.127 41.159 62.445 o
-4 -5 1 1023.390 969.192 32.772 18.635 o
-4 -5 2 663.480 636.106 38.833 31.945 o
-4 -5 3 1187.220 1210.560 46.784 12.303 o
-4 -5 4 1036.140 1003.550 55.924 13.855 o
-4 -5 5 405.341 406.451 39.969 49.221 o
-4 -5 6 129.277 110.658 27.962 142.127 o
-4 -5 7 61.257 78.802 27.584 156.452 o
-4 -4 1 1879.710 1830.830 81.128 4.810 o
-4 -4 2 1122.470 1142.100 37.860 14.637 o
-4 -4 3 762.975 689.858 42.295 25.770 o
-4 -4 4 651.515 636.692 43.106 29.671 o
-4 -4 5 507.788 475.193 40.348 41.282 o
-4 -4 6 111.362 77.666 23.689 199.505 o
-4 -4 7 33.344 44.620 21.742 255.879 o
-4 -4 8 133.201 136.241 33.371 101.391 o
-4 -3 1 3119.990 3078.690 82.696 2.064 o
-4 -3 2 1036.440 1009.670 68.147 11.804 o
-4 -3 3 325.184 394.978 27.773 85.663 o
-4 -3 4 508.137 435.981 34.182 50.191 o
-4 -3 5 805.111 785.751 47.379 21.451 o
-4 -3 6 160.744 152.575 28.719 127.847 o
-4 -3 7 110.597 88.538 25.636 171.759 o
-4 -3 8 433.504 430.519 44.620 40.789 o
-4 -3 9 302.781 288.437 45.053 48.864 o
-4 -2 1 3385.000 3373.080 131.211 1.543 o
-4 -2 2 519.409 532.632 31.045 49.903 o
-4 -2 3 102.037 93.567 17.848 330.050 o
-4 -2 4 1399.300 1505.150 159.362 3.354 o
-4 -2 5 2027.930 2165.980 189.650 2.067 o
-4 -2 6 668.321 687.153 45.432 27.009 o
-4 -2 7 506.277 470.920 41.538 40.146 o
-4 -2 8 352.143 408.398 41.916 48.991 o
-4 -2 9 334.835 355.611 42.727 49.880 o
-4 -1 1 1637.370 1555.980 46.189 7.541 o
-4 -1 2 916.661 843.622 36.886 21.523 o
-4 -1 3 992.479 930.537 40.780 18.014 o
-4 -1 4 1711.460 1671.670 57.438 6.450 o
-4 -1 5 2776.890 2886.450 307.664 0.891 o
-4 -1 6 2484.690 2565.180 183.619 1.803 o
-4 -1 7 652.834 647.908 31.045 37.465 o
-4 -1 8 349.040 272.536 38.022 60.912 o
-4 -1 9 134.025 149.438 31.856 109.660 o
-4 -1 10 131.859 157.604 34.939 92.501 o
-4 0 1 4530.340 4983.150 80.371 0.974 o
-4 0 2 4806.090 4978.120 84.265 0.902 o
-4 0 3 3519.730 3317.700 72.582 1.746 o
-4 0 4 849.127 813.334 39.590 22.774 o
-4 0 5 1285.240 1403.360 165.393 3.327 o
-4 0 6 894.276 983.112 91.025 9.491 o
-4 0 7 548.588 575.528 41.159 36.227 o
-4 0 8 128.747 133.136 22.337 207.730 o
-4 0 9 96.351 106.007 26.772 159.404 o
-4 0 10 163.305 196.438 36.129 83.519 o
-4 1 1 4362.850 4659.770 78.424 1.070 o
-4 1 2 7046.340 7489.510 102.113 0.419 o
-4 1 3 2303.190 2183.310 58.250 3.917 o
-4 1 4 1126.070 1046.230 43.106 14.524 o
-4 1 5 822.935 970.892 116.473 6.934 o
-4 1 6 516.621 557.131 44.052 35.356 o
-4 1 7 569.621 563.774 48.136 30.139 o
-4 1 8 153.747 177.551 21.174 207.882 o
-4 1 9 35.661 49.439 14.482 562.175 o
-4 1 10 229.330 257.392 38.833 67.549 o
-4 2 1 3815.740 4266.890 77.234 1.337 o
-4 2 2 2553.510 2719.080 62.901 2.988 o
-4 2 3 1765.530 1651.490 51.219 6.494 o
-4 2 4 449.818 388.603 27.584 69.504 o
-4 2 5 425.760 439.674 67.552 22.041 o
-4 2 6 977.629 1067.390 115.688 6.492 o
-4 2 7 702.591 740.138 114.309 7.748 o
-4 2 8 396.005 447.960 43.485 43.514 o
-4 2 9 103.896 128.720 19.735 268.201 o
-4 2 10 202.012 222.831 38.022 72.966 o
-4 3 1 652.016 669.684 33.749 35.078 o
-4 3 2 2192.140 2330.100 60.575 3.960 o
-4 3 3 1710.090 1643.330 51.651 6.742 o
-4 3 4 643.973 627.335 34.182 36.200 o
-4 3 5 392.917 363.345 27.962 77.611 o
-4 3 6 426.871 413.047 29.125 67.439 o
-4 3 7 1232.260 1299.080 150.411 3.936 o
-4 3 8 528.868 579.311 61.549 22.695 o
-4 3 9 343.334 398.338 41.538 50.366 o
-4 3 10 202.419 219.748 38.833 70.430 o
-4 4 1 659.865 694.130 36.129 32.625 o
-4 4 2 637.670 701.919 36.129 33.411 o
-4 4 3 1654.060 1605.680 53.166 7.030 o
-4 4 4 1528.870 1471.340 51.651 8.129 o
-4 4 5 841.876 788.455 39.969 23.157 o
-4 4 6 541.037 540.365 46.378 32.783 o
-4 4 7 757.321 815.993 57.060 18.754 o
-4 4 8 871.214 933.916 42.511 19.968 o
-4 4 9 205.490 273.293 42.295 59.279 o
-4 4 10 87.579 96.650 30.288 127.714 o
-4 5 2 461.029 427.436 30.666 60.071 o
-4 5 3 855.871 875.045 41.916 21.122 o
-4 5 4 1502.180 1448.840 53.166 8.268 o
-4 5 5 896.473 867.690 42.727 20.073 o
-4 5 6 317.080 321.442 21.738 119.684 o
-4 5 7 360.691 377.367 24.123 93.477 o
-4 5 8 374.321 409.966 41.916 47.785 o
-4 5 9 117.020 139.756 32.992 104.737 o
-4 5 10 17.464 26.394 21.364 267.904 o
-4 6 1 567.687 559.837 38.455 38.130 o
-4 6 2 672.528 628.903 39.212 31.490 o
-4 6 3 1005.020 948.818 46.189 16.502 o
-4 6 4 1244.120 1202.690 50.840 11.323 o
-4 6 5 587.790 631.611 38.238 35.678 o
-4 6 6 96.466 97.824 21.364 242.036 o
-4 6 7 240.694 277.566 34.560 79.588 o
-4 6 8 156.324 147.545 31.045 112.499 o
-4 6 9 85.793 121.530 32.235 112.612 o
-4 6 10 79.466 116.878 31.856 115.821 o
-4 7 1 952.021 924.371 50.462 16.603 o
-4 7 2 255.117 226.725 31.045 95.009 o
-4 7 3 510.529 464.701 35.696 47.012 o
-4 7 4 581.347 569.896 38.455 37.231 o
-4 7 5 189.514 201.303 27.584 127.310 o
-4 7 6 105.244 108.333 26.394 162.050 o
-4 7 7 82.564 93.946 26.394 166.655 o
-4 7 8 98.990 92.810 26.772 159.991 o
-4 7 9 129.273 173.560 38.455 77.185 o
-4 8 1 205.823 197.195 31.045 103.373 o
-4 8 3 84.541 90.863 21.364 247.046 o
-4 8 4 172.797 174.510 30.856 110.088 o
-4 8 5 243.455 317.589 36.886 70.084 o
-4 8 6 160.613 180.915 33.371 97.017 o
-4 8 7 77.165 81.507 25.636 177.841 o
-4 8 8 63.608 77.666 26.394 170.177 o
-4 9 1 183.237 138.188 29.098 122.731 o
-4 9 3 76.359 68.868 15.732 443.176 o
-4 9 4 59.116 86.969 25.636 179.977 o
-4 9 5 179.113 211.203 35.696 83.538 o
-4 9 6 149.131 139.756 32.235 106.346 o
-4 9 7 88.417 123.044 31.856 114.910 o
-4 9 8 46.949 60.954 27.584 158.479 o
-4 10 1 138.718 123.044 30.288 121.106 o
-4 10 4 81.473 94.325 27.584 153.411 o
-4 10 5 61.078 78.424 26.015 175.250 o
-4 10 6 84.929 114.120 31.045 121.340 o
-3 -10 1 103.786 131.901 22.616 211.351 o
-3 -10 2 111.598 104.080 21.890 225.814 o
-3 -9 1 145.992 136.490 20.777 226.267 o
-3 -9 2 113.955 106.498 20.172 258.817 o
-3 -9 3 167.939 173.877 25.015 156.850 o
-3 -9 4 37.626 63.679 19.195 323.258 o
-3 -8 1 25.578 35.336 12.574 755.571 o
-3 -8 2 118.701 121.745 19.417 269.907 o
-3 -8 3 266.838 270.350 31.234 89.834 o
-3 -8 4 171.935 153.295 23.573 174.136 o
-3 -8 5 93.711 80.371 28.341 145.131 o
-3 -7 1 77.929 80.025 14.839 483.883 o
-3 -7 2 97.676 99.809 16.751 368.509 o
-3 -7 3 503.564 451.581 28.682 58.129 o
-3 -7 4 297.191 336.004 28.367 92.392 o
-3 -7 5 316.858 317.589 44.242 49.025 o
-3 -7 6 70.957 60.197 25.636 180.178 o
-3 -6 1 627.889 606.696 27.107 43.270 o
-3 -6 2 478.810 450.819 37.860 46.596 o
-3 -6 3 875.425 850.377 76.287 12.380 o
-3 -6 4 720.258 611.055 45.810 26.410 o
-3 -6 5 443.278 396.769 40.780 46.153 o
-3 -6 6 125.606 104.439 28.341 139.648 o
-3 -6 7 91.980 79.181 27.584 153.056 o
-3 -5 1 1776.540 1640.900 57.844 6.232 o
-3 -5 2 1286.990 1247.410 39.023 11.833 o
-3 -5 3 1125.860 1139.090 66.011 10.841 o
-3 -5 4 881.441 821.068 48.893 19.074 o
-3 -5 5 795.171 752.759 50.083 21.041 o
-3 -5 6 115.733 110.280 26.772 156.018 o
-3 -5 7 129.735 133.915 31.045 116.180 o
-3 -5 8 72.748 81.507 27.962 151.121 o
-3 -4 1 3100.450 2858.280 64.632 2.276 o
-3 -4 2 1288.460 1287.510 97.435 6.622 o
-3 -4 3 590.759 565.155 49.109 28.824 o
-3 -4 4 427.973 418.512 34.182 57.046 o
-3 -4 5 1106.830 1065.640 54.734 12.905 o
-3 -4 6 416.193 372.702 37.265 54.134 o
-3 -4 7 60.532 55.492 21.742 249.946 o
-3 -4 8 130.644 149.438 32.613 105.389 o
-3 -4 9 263.376 271.778 43.863 53.175 o
-3 -3 1 1976.530 1899.390 78.424 4.562 o
-3 -3 2 1284.180 1202.720 49.488 11.091 o
-3 -3 3 219.942 236.935 12.243 287.186 o
-3 -3 4 80.128 85.779 18.659 319.254 o
-3 -3 5 2255.650 2119.280 71.825 3.859 o
-3 -3 6 772.296 776.827 48.136 21.992 o
-3 -3 7 480.727 430.519 40.348 43.827 o
-3 -3 8 224.228 244.195 38.022 70.752 o
-3 -3 9 317.636 317.589 45.053 47.615 o
-3 -2 1 4231.060 4173.630 203.631 0.888 o
-3 -2 2 3831.030 3710.950 70.635 1.472 o
-3 -2 3 352.128 372.182 24.068 95.818 o
-3 -2 4 846.515 919.677 85.969 10.655 o
-3 -2 5 1206.280 1222.410 67.958 9.724 o
-3 -2 6 887.528 824.963 47.000 19.470 o
-3 -2 7 771.565 724.797 47.757 22.747 o
-3 -2 8 300.425 317.589 36.129 67.622 o
-3 -2 9 308.979 333.490 40.348 56.438 o
-3 -2 10 223.474 247.278 40.780 62.840 o
-3 -1 1 4239.710 4247.860 65.984 1.197 o
-3 -1 2 3445.880 3308.770 62.901 1.831 o
-3 -1 3 3414.240 3157.010 66.795 1.891 o
-3 -1 4 1480.520 1616.480 156.063 3.315 o
-3 -1 5 2647.400 2757.230 234.865 1.300 o
-3 -1 6 1342.000 1446.640 88.700 6.744 o
-3 -1 7 1190.230 1287.680 44.242 12.139 o
-3 -1 8 191.193 199.142 31.856 100.721 o
-3 -1 9 145.032 149.438 29.909 121.453 o
-3 -1 10 84.782 92.810 27.584 153.103 o
-3 0 1 990.833 998.901 31.856 19.182 o
-3 0 2 7456.920 7128.440 88.538 0.406 o
-3 0 3 6020.510 5846.180 86.158 0.610 o
-3 0 4 1187.080 1187.380 176.832 3.154 o
-3 0 5 2532.210 2664.280 273.320 1.108 o
-3 0 6 1687.540 1885.520 143.245 3.293 o
-3 0 7 1289.480 1303.680 44.837 11.012 o
-3 0 8 322.575 319.602 22.926 112.690 o
-3 0 9 48.980 57.708 15.144 503.536 o
-3 0 10 59.084 80.749 25.258 185.634 o
-3 1 1 2725.790 3005.950 54.734 2.648 o
-3 1 2 10113.900 10886.800 107.522 0.205 o
-3 1 3 4314.960 4240.500 71.447 1.163 o
-3 1 4 1844.570 1727.590 49.326 6.071 o
-3 1 5 256.553 292.319 42.727 55.370 o
-3 1 6 229.159 264.958 18.083 190.673 o
-3 1 7 1038.780 1117.120 120.529 5.930 o
-3 1 8 316.436 311.743 23.284 113.398 o
-3 1 9 219.104 261.886 25.241 131.488 o
-3 1 10 149.022 163.892 22.220 197.177 o
-3 2 1 1945.210 2201.970 48.893 4.932 o
-3 2 2 2928.640 3211.310 59.764 2.298 o
-3 2 3 3063.180 3184.540 61.711 2.178 o
-3 2 4 907.890 815.281 33.749 23.011 o
-3 2 5 870.228 906.466 118.798 6.691 o
-3 2 6 96.139 116.051 21.174 242.831 o
-3 2 7 1276.190 1267.700 98.029 6.655 o
-3 2 8 765.954 797.446 67.931 15.540 o
-3 2 9 407.537 461.589 27.778 69.791 o
-3 2 10 236.353 229.808 37.265 72.791 o
-3 2 11 217.935 231.755 39.969 65.783 o
-3 3 1 1081.320 1177.060 38.833 14.847 o
-3 3 2 757.931 827.667 32.613 27.949 o
-3 3 3 726.743 753.137 31.424 31.169 o
-3 3 4 988.666 887.052 35.318 19.735 o
-3 3 5 939.808 961.366 148.085 4.581 o
-3 3 6 744.995 760.365 81.344 12.681 o
-3 3 7 904.059 948.345 72.014 12.543 o
-3 3 8 924.115 1049.020 104.817 7.642 o
-3 3 9 494.614 597.859 46.567 33.237 o
-3 3 10 116.737 150.249 32.235 108.897 o
-3 3 11 79.920 86.591 29.909 131.934 o
-3 4 1 580.925 660.760 32.235 40.223 o
-3 4 2 1153.020 1264.410 41.916 12.944 o
-3 4 3 1377.220 1443.810 44.620 9.685 o
-3 4 4 2867.000 2760.620 61.711 2.582 o
-3 4 5 2080.340 2207.980 181.889 2.130 o
-3 4 6 492.732 528.278 55.519 27.473 o
-3 4 7 954.885 1042.230 81.534 10.295 o
-3 4 8 476.628 560.594 45.053 35.925 o
-3 4 9 584.080 733.342 52.787 24.672 o
-3 4 10 48.377 51.651 23.311 220.715 o
-3 4 11 31.649 22.500 21.364 266.634 o
-3 5 1 1601.630 1728.730 53.977 6.952 o
-3 5 2 982.436 1043.140 41.159 17.102 o
-3 5 3 1421.510 1439.530 47.379 9.187 o
-3 5 4 2377.210 2307.930 59.386 3.636 o
-3 5 5 2180.360 2355.600 264.585 1.262 o
-3 5 6 279.526 277.631 19.021 156.212 o
-3 5 7 228.244 255.823 19.021 183.482 o
-3 5 8 449.721 533.822 45.432 37.117 o
-3 5 9 195.076 174.695 34.182 90.222 o
-3 5 10 75.954 91.242 28.341 146.452 o
-3 5 11 43.813 59.007 26.394 173.157 o
-3 6 1 1621.860 1562.960 55.924 7.166 o
-3 6 2 788.441 754.327 39.212 25.412 o
-3 6 3 386.030 370.376 27.584 79.130 o
-3 6 4 1097.290 1097.880 44.242 14.396 o
-3 6 5 935.310 952.025 73.935 11.929 o
-3 6 6 180.490 183.684 18.632 233.088 o
-3 6 7 162.066 177.400 30.288 114.845 o
-3 6 8 73.810 83.075 25.258 183.340 o
-3 6 9 155.707 174.695 35.318 88.359 o
-3 6 10 89.053 68.310 26.394 167.538 o
-3 6 11 70.779 82.696 29.531 136.149 o
-3 7 1 922.201 926.073 75.909 11.793 o
-3 7 2 586.625 600.563 38.022 36.625 o
-3 7 3 268.817 241.869 26.015 117.532 o
-3 7 4 351.324 366.919 44.242 46.344 o
-3 7 5 311.357 325.998 21.532 121.685 o
-3 7 6 199.896 229.430 34.182 87.234 o
-3 7 7 217.815 230.620 35.318 81.019 o
-3 7 8 49.863 67.174 24.447 199.962 o
-3 7 9 171.509 204.983 37.643 76.838 o
-3 7 10 145.956 179.725 37.265 80.651 o
-3 8 1 635.255 588.804 64.848 19.495 o
-3 8 2 308.458 296.228 32.992 77.067 o
-3 8 3 195.363 200.645 20.438 195.076 o
-3 8 4 89.371 107.026 21.932 231.615 o
-3 8 5 174.153 215.476 33.371 94.056 o
-3 8 6 207.939 260.907 37.265 73.732 o
-3 8 7 134.602 174.695 33.371 99.648 o
-3 8 8 91.089 106.764 30.288 126.945 o
-3 8 9 99.365 79.992 27.584 152.086 o
-3 8 10 107.478 107.143 31.424 116.988 o
-3 9 1 124.759 128.352 18.528 285.821 o
-3 9 2 274.499 275.558 25.137 117.648 o
-3 9 3 78.402 98.597 24.068 198.568 o
-3 9 4 95.725 128.507 27.151 153.741 o
-3 9 5 247.570 299.686 36.129 72.769 o
-3 9 6 213.814 267.884 39.590 66.032 o
-3 9 7 202.580 248.089 39.969 66.191 o
-3 9 8 43.210 55.113 25.258 189.020 o
-3 9 9 41.310 49.326 25.636 184.016 o
-3 10 1 117.718 99.409 26.394 160.703 o
-3 10 3 109.043 113.741 27.962 144.791 o
-3 10 4 79.254 94.145 18.640 318.195 o
-3 10 5 76.672 65.227 24.825 190.436 o
-3 10 6 117.310 172.370 34.560 94.895 o
-3 10 7 100.782 140.946 33.749 101.540 o
-3 10 8 24.369 24.447 22.121 249.469 o
-3 11 4 56.785 47.379 25.636 182.606 o
-3 11 5 27.449 27.151 22.878 232.960 o
-2 -11 1 55.664 73.479 19.549 304.995 o
-2 -10 1 76.154 69.947 19.795 291.314 o
-2 -10 2 96.010 85.387 19.398 290.519 o
-2 -10 3 85.692 102.693 22.629 220.362 o
-2 -9 1 78.896 75.830 16.582 398.872 o
-2 -9 2 48.021 34.771 14.543 553.796 o
-2 -9 3 110.135 96.285 25.420 173.813 o
-2 -9 4 83.835 98.452 21.271 248.024 o
-2 -8 1 196.408 181.846 30.856 106.626 o
-2 -8 2 45.996 41.157 13.367 648.640 o
-2 -8 3 245.346 218.144 24.571 135.238 o
-2 -8 4 233.772 270.056 28.813 105.903 o
-2 -8 5 124.041 104.817 30.288 123.760 o
-2 -7 1 316.074 293.526 20.931 128.256 o
-2 -7 2 227.677 226.850 22.462 156.149 o
-2 -7 3 382.241 379.148 40.780 50.019 o
-2 -7 4 825.691 834.852 92.405 9.999 o
-2 -7 6 205.536 235.649 40.348 65.303 o
-2 -6 1 1297.950 1152.530 92.594 7.186 o
-2 -6 2 675.092 693.054 43.674 27.670 o
-2 -6 3 716.480 681.206 76.666 14.305 o
-2 -6 4 676.772 717.816 69.500 16.530 o
-2 -6 5 774.105 795.053 52.787 20.083 o
-2 -6 6 252.692 252.740 38.455 67.239 o
-2 -6 7 73.523 66.795 26.015 174.420 o
-2 -5 1 2860.860 2517.770 45.686 2.839 o
-2 -5 2 1705.740 1667.700 103.654 4.655 o
-2 -5 3 499.718 480.598 41.916 39.816 o
-2 -5 4 530.799 511.153 30.477 50.569 o
-2 -5 5 385.713 359.883 35.696 59.916 o
-2 -5 6 542.857 521.761 43.863 35.189 o
-2 -5 7 99.556 89.673 26.015 168.938 o
-2 -5 8 33.281 57.438 25.258 189.845 o
-2 -4 1 5805.890 5183.650 117.825 0.664 o
-2 -4 2 2349.360 2481.860 62.901 3.486 o
-2 -4 3 1000.220 972.964 71.636 11.706 o
-2 -4 4 108.011 119.204 22.121 220.408 o
-2 -4 5 361.448 354.421 33.371 67.595 o
-2 -4 6 630.828 613.381 44.620 29.793 o
-2 -4 7 144.957 143.650 29.531 124.612 o
-2 -4 8 150.395 175.074 34.182 94.105 o
-2 -4 9 259.967 327.649 47.000 46.459 o
-2 -3 1 1333.250 1276.020 27.297 12.073 o
-2 -3 2 3956.850 4112.570 223.805 0.891 o
-2 -3 3 430.967 402.414 38.188 50.601 o
-2 -3 4 348.764 297.634 41.348 53.181 o
-2 -3 5 1265.470 1264.030 53.977 10.545 o
-2 -3 6 1685.870 1718.610 66.795 6.087 o
-2 -3 7 590.410 618.844 45.053 30.757 o
-2 -3 8 352.768 335.437 37.265 60.052 o
-2 -3 9 276.320 325.701 44.242 50.663 o
-2 -3 10 157.100 175.453 36.886 81.591 o
-2 -2 1 1399.160 1321.010 97.651 6.196 o
-2 -2 2 2374.940 2703.830 183.163 1.827 o
-2 -2 3 1745.390 1775.590 101.924 4.514 o
-2 -2 4 1415.720 1320.620 27.644 10.946 o
-2 -2 5 2359.500 2265.540 40.070 3.937 o
-2 -2 6 2941.450 2616.660 199.737 1.467 o
-2 -2 7 2006.260 1966.700 71.447 4.585 o
-2 -2 8 586.320 586.230 44.242 32.044 o
-2 -2 9 160.136 162.688 31.856 106.267 o
-2 -2 10 105.833 122.287 31.045 119.135 o
-2 -1 1 6725.850 7067.590 826.315 0.131 o
-2 -1 2 5049.180 4589.130 65.984 0.908 o
-2 -1 3 8194.890 8762.350 904.549 0.102 o
-2 -1 4 4149.910 4443.310 343.360 0.568 o
-2 -1 5 481.304 453.973 19.359 77.159 o
-2 -1 6 1413.090 1445.240 35.468 9.966 o
-2 -1 7 718.740 728.425 33.965 30.716 o
-2 -1 8 489.796 467.927 25.340 64.212 o
-2 -1 9 129.625 95.515 24.447 182.317 o
-2 -1 10 59.002 70.635 24.825 192.644 o
-2 0 1 1445.280 1407.680 31.045 10.092 o
-2 0 2 10618.600 10464.000 92.378 0.199 o
-2 0 3 7940.450 9046.980 1195.720 0.068 o
-2 0 4 3224.690 3350.640 338.141 0.712 o
-2 0 5 955.624 985.287 26.888 21.134 o
-2 0 6 397.972 440.660 20.727 90.513 o
-2 0 7 517.547 526.822 24.838 58.586 o
-2 0 8 560.747 607.043 28.120 47.190 o
-2 0 9 177.575 181.292 20.962 200.119 o
-2 0 10 67.969 82.696 24.068 202.021 o
-2 1 1 5743.240 6709.930 67.174 0.598 o
-2 1 2 3021.640 3295.580 50.462 2.215 o
-2 1 3 4683.070 4688.490 65.227 0.990 o
-2 1 4 850.002 811.714 97.245 9.250 o
-2 1 5 593.854 617.414 48.136 28.614 o
-2 1 6 474.649 489.264 21.932 70.748 o
-2 1 7 686.680 795.390 28.755 33.380 o
-2 1 8 1003.360 1014.460 34.540 18.253 o
-2 1 9 365.654 412.058 25.651 84.668 o
-2 1 10 148.500 162.351 21.484 208.408 o
-2 1 11 200.089 228.294 38.022 72.912 o
-2 2 1 2144.870 2446.930 43.863 4.170 o
-2 2 2 1228.860 1352.940 32.992 12.411 o
-2 2 3 1788.420 1803.640 39.969 6.411 o
-2 2 4 4269.170 4459.590 628.525 0.247 o
-2 2 5 397.641 388.764 38.617 52.468 o
-2 2 6 1087.060 1140.670 112.200 6.381 o
-2 2 7 689.584 724.515 27.009 35.981 o
-2 2 8 1386.480 1565.920 41.503 9.346 o
-2 2 9 804.513 919.428 35.146 24.024 o
-2 2 10 289.152 334.247 38.022 62.984 o
-2 2 11 168.717 163.824 34.182 93.032 o
-2 3 1 1129.330 1273.330 34.939 13.977 o
-2 3 2 748.970 795.053 27.584 31.096 o
-2 3 3 1866.240 1992.720 42.727 5.658 o
-2 3 4 2576.120 2740.670 328.406 0.844 o
-2 3 5 4349.560 4553.750 483.333 0.361 o
-2 3 6 956.009 963.640 76.287 11.338 o
-2 3 7 933.162 976.720 96.461 8.648 o
-2 3 8 1084.040 1217.890 36.280 14.852 o
-2 3 9 831.618 890.189 53.599 17.993 o
-2 3 10 274.438 335.058 38.455 62.923 o
-2 3 11 41.350 20.985 19.417 320.405 o
-2 4 1 3421.520 3710.570 65.227 1.710 o
-2 4 3 798.477 817.174 29.909 27.730 o
-2 4 4 2147.350 2275.510 182.862 2.061 o
-2 4 5 2544.710 2654.630 252.524 1.227 o
-2 4 6 1940.820 1976.410 160.714 2.634 o
-2 4 7 156.518 174.612 15.647 315.782 o
-2 4 8 462.416 517.866 41.159 41.554 o
-2 4 9 399.428 405.315 39.212 50.830 o
-2 4 10 79.376 71.825 24.825 189.475 o
-2 4 11 41.520 44.242 23.689 215.203 o
-2 5 1 3989.010 4221.080 76.477 1.278 o
-2 5 2 1890.110 2087.420 52.409 5.198 o
-2 5 3 1145.750 1113.780 37.265 14.584 o
-2 5 4 1872.630 2082.220 189.244 2.178 o
-2 5 5 1977.880 2048.300 205.767 1.914 o
-2 5 6 788.545 839.508 128.507 6.126 o
-2 5 7 138.774 154.143 26.772 148.081 o
-2 5 8 207.953 209.634 32.235 96.262 o
-2 5 9 185.118 190.218 33.371 94.220 o
-2 5 10 134.094 134.726 31.424 113.157 o
-2 5 11 84.529 111.037 31.045 121.499 o
-2 6 1 3049.670 3087.080 71.825 2.180 o
-2 6 2 1759.300 1802.500 53.166 6.141 o
-2 6 4 569.983 615.531 76.855 15.801 o
-2 6 5 883.211 974.736 71.636 12.679 o
-2 6 6 194.453 222.074 31.424 101.224 o
-2 6 7 133.434 170.044 29.531 124.389 o
-2 6 8 157.783 170.423 30.288 115.854 o
-2 6 9 112.785 120.718 27.962 143.783 o
-2 6 10 242.007 265.559 41.538 59.469 o
-2 6 11 147.214 159.173 35.696 87.832 o
-2 7 1 1100.270 1040.390 64.064 11.727 o
-2 7 2 560.910 541.177 33.749 43.616 o
-2 7 3 264.838 283.596 33.208 81.694 o
-2 7 4 238.900 231.890 21.526 159.791 o
-2 7 5 222.773 286.336 18.641 182.711 o
-2 7 6 619.206 766.713 47.000 26.432 o
-2 7 7 289.212 336.573 35.696 68.946 o
-2 7 8 137.166 178.968 32.235 105.590 o
-2 7 9 133.645 156.847 32.235 107.018 o
-2 7 10 142.604 157.226 33.749 97.698 o
-2 7 11 127.028 140.946 34.939 93.418 o
-2 8 1 344.609 318.856 21.805 112.513 o
-2 8 2 352.898 387.255 36.919 58.849 o
-2 8 3 358.579 391.807 43.295 46.888 o
-2 8 4 64.515 77.523 15.712 450.535 o
-2 8 5 185.305 204.983 30.666 107.653 o
-2 8 6 405.796 541.556 43.106 41.384 o
-2 8 7 360.132 398.338 39.590 52.813 o
-2 8 8 182.716 216.233 36.129 81.346 o
-2 8 9 63.286 101.302 28.341 147.219 o
-2 8 10 88.110 99.409 30.288 127.546 o
-2 9 1 162.612 111.391 17.419 293.209 o
-2 9 2 346.447 323.412 23.462 104.379 o
-2 9 3 272.377 316.637 52.598 38.200 o
-2 9 4 149.389 163.446 27.584 137.993 o
-2 9 5 139.359 144.029 27.962 138.020 o
-2 9 6 152.743 181.672 32.613 101.754 o
-2 9 7 172.381 206.119 35.318 85.843 o
-2 9 8 105.703 130.454 30.666 121.505 o
-2 9 9 20.775 21.742 21.364 267.817 o
-2 10 1 110.412 97.230 17.784 325.380 o
-2 10 2 143.240 124.234 28.719 132.537 o
-2 10 3 192.584 191.029 33.749 91.671 o
-2 10 4 141.787 144.408 30.288 119.478 o
-2 10 5 110.058 146.355 29.531 128.869 o
-2 10 6 86.510 123.044 29.098 136.556 o
-2 10 7 96.948 129.264 30.666 122.419 o
-2 10 8 43.414 38.455 23.311 222.248 o
-2 11 2 59.788 59.386 24.447 199.142 o
-2 11 3 103.383 77.666 26.772 160.455 o
-2 11 4 72.735 69.121 25.636 179.348 o
-2 11 5 26.873 22.121 21.364 267.198 o
-2 11 7 23.788 18.227 21.742 258.511 o
-1 -11 1 26.901 28.140 15.836 482.166 o
-1 -10 1 133.264 150.069 21.872 210.523 o
-1 -10 2 53.712 46.928 16.800 414.153 o
-1 -10 3 69.011 42.295 24.447 199.046 o
-1 -9 1 157.234 144.546 20.059 231.754 o
-1 -9 2 25.114 16.639 12.373 788.729 o
-1 -9 3 76.135 87.245 19.047 309.076 o
-1 -9 4 199.867 203.793 38.833 71.070 o
-1 -8 1 237.033 227.237 22.826 149.945 o
-1 -8 2 121.922 131.201 18.925 277.064 o
-1 -8 3 84.800 88.724 17.419 357.319 o
-1 -8 4 324.904 299.779 46.405 45.501 o
-1 -8 5 217.602 203.415 38.455 71.185 o
-1 -8 6 175.074 156.090 36.508 82.565 o
-1 -7 1 1183.130 1041.140 61.738 11.318 o
-1 -7 2 368.003 375.048 23.452 94.586 o
-1 -7 3 409.619 383.547 25.255 81.068 o
-1 -7 4 423.891 438.421 32.613 59.433 o
-1 -7 5 359.901 338.520 39.590 54.685 o
-1 -7 6 252.644 274.483 42.295 56.948 o
-1 -7 7 69.612 61.711 26.772 165.779 o
-1 -6 1 2231.460 1989.200 60.575 4.247 o
-1 -6 2 1717.490 1620.460 41.029 7.147 o
-1 -6 3 742.275 771.701 31.146 30.270 o
-1 -6 4 624.737 660.586 30.734 38.903 o
-1 -6 5 348.617 343.550 36.886 60.895 o
-1 -6 6 331.407 328.406 38.833 58.397 o
-1 -6 7 84.127 103.627 28.719 141.302 o
-1 -6 8 73.635 64.470 27.584 155.933 o
-1 -5 1 3055.120 2663.370 44.874 2.522 o
-1 -5 2 1970.450 1903.140 40.609 5.492 o
-1 -5 3 939.206 965.627 31.661 20.788 o
-1 -5 4 353.595 355.749 34.560 65.360 o
-1 -5 5 260.302 247.656 30.288 96.339 o
-1 -5 6 816.627 842.811 52.787 18.884 o
-1 -5 7 219.268 203.793 34.939 83.531 o
-1 -5 8 81.626 68.310 26.394 168.528 o
-1 -4 1 1151.690 954.454 24.838 17.410 o
-1 -4 2 1511.900 1494.360 62.901 7.518 o
-1 -4 3 944.272 937.981 57.249 15.122 o
-1 -4 4 175.537 188.649 26.015 143.966 o
-1 -4 5 291.600 287.301 29.909 90.727 o
-1 -4 6 1767.740 1907.320 72.582 5.286 o
-1 -4 7 908.359 854.493 53.599 17.060 o
-1 -4 8 302.923 303.202 37.643 64.051 o
-1 -4 9 200.327 205.740 38.455 72.204 o
-1 -3 1 2170.420 2095.050 31.990 4.697 o
-1 -3 2 3223.380 3175.980 115.093 1.770 o
-1 -3 3 3720.040 2872.830 697.066 0.223 o
-1 -3 4 526.594 347.466 120.340 7.841 o
-1 -3 5 639.728 445.740 139.946 5.745 o
-1 -3 6 1118.560 1125.030 53.166 12.686 o
-1 -3 7 566.341 575.359 42.295 34.524 o
-1 -3 8 744.119 865.310 53.599 19.710 o
-1 -3 9 117.436 131.589 30.666 120.248 o
-1 -3 10 227.837 275.997 42.727 57.142 o
-1 -2 1 1063.990 954.102 29.693 18.488 o
-1 -2 2 5735.880 5423.140 497.387 0.292 o
-1 -2 3 3755.420 3041.400 446.636 0.460 o
-1 -2 4 4187.260 3404.510 563.866 0.306 o
-1 -2 5 1299.150 1052.250 225.346 2.087 o
-1 -2 6 1435.310 1129.670 281.460 1.382 o
-1 -2 7 909.265 769.547 151.195 4.564 o
-1 -2 8 555.106 618.032 44.242 32.595 o
-1 -2 9 199.840 277.944 34.560 83.419 o
-1 -2 10 48.409 59.764 24.068 206.826 o
-1 -1 1 4799.350 5045.930 460.049 0.360 o
-1 -1 2 1936.290 1950.960 140.919 3.039 o
-1 -1 3 10016.000 10565.900 253.498 0.194 o
-1 -1 4 4434.170 4552.580 203.036 0.816 o
-1 -1 5 1251.570 1137.590 62.117 10.324 o
-1 -1 6 1658.340 1510.440 174.128 2.764 o
-1 -1 7 961.184 917.725 126.181 5.903 o
-1 -1 8 912.882 806.014 118.014 6.778 o
-1 -1 9 168.155 176.264 29.909 116.588 o
-1 -1 10 85.055 98.976 26.015 170.502 o
-1 -1 11 27.468 27.584 21.742 257.696 o
-1 0 1 5774.090 5963.820 48.514 0.652 o
-1 0 2 998.104 1139.110 137.052 4.965 o
-1 0 3 13666.200 15710.400 1308.080 0.043 o
-1 0 4 4256.330 4663.720 191.976 0.864 o
-1 0 5 1035.470 1033.130 44.458 15.706 o
-1 0 6 389.904 416.014 19.338 98.957 o
-1 0 7 210.485 213.563 16.744 234.186 o
-1 0 8 1095.420 1121.620 100.166 7.362 o
-1 0 9 384.921 342.100 70.662 21.395 o
-1 0 10 208.286 201.330 22.926 162.263 o
-1 1 1 90.150 114.120 8.167 1030.010 o
-1 1 2 6433.240 7009.670 57.438 0.506 o
-1 1 3 1046.650 1190.440 176.237 3.268 o
-1 1 4 4804.240 5111.000 427.625 0.391 o
-1 1 5 1602.810 1813.300 77.829 5.757 o
-1 1 6 663.602 665.438 22.981 41.828 o
-1 1 7 394.074 400.897 27.178 76.963 o
-1 1 8 1248.420 1264.250 62.685 9.820 o
-1 1 9 964.385 1063.180 109.685 7.037 o
-1 1 10 409.015 438.307 41.159 46.337 o
-1 1 11 180.858 155.657 32.235 102.273 o
-1 2 1 8931.830 11217.200 74.529 0.237 o
-1 2 2 61.431 68.688 7.788 1481.880 o
-1 2 3 2216.850 2414.690 298.172 1.047 o
-1 2 4 147.808 141.188 9.524 595.085 o
-1 2 5 2186.120 2053.940 169.449 2.285 o
-1 2 6 1751.300 1849.780 84.265 5.018 o
-1 2 7 554.765 590.070 23.211 53.619 o
-1 2 8 1163.570 1214.700 66.173 10.247 o
-1 2 9 666.445 787.235 39.023 28.909 o
-1 2 10 505.469 515.162 43.863 36.820 o
-1 2 11 69.351 65.605 24.068 203.250 o
-1 2 12 64.530 45.810 24.447 199.426 o
-1 3 1 2887.780 3246.250 47.379 2.380 o
-1 3 3 1457.700 1563.080 56.898 7.975 o
-1 3 4 3181.050 3324.130 354.637 0.673 o
-1 3 5 3451.090 3479.690 338.141 0.684 o
-1 3 6 3196.440 3332.110 196.438 1.280 o
-1 3 7 711.853 774.060 25.278 34.418 o
-1 3 8 636.446 759.091 27.314 37.789 o
-1 3 9 566.412 603.267 44.242 32.453 o
-1 3 10 387.064 442.201 41.916 46.287 o
-1 3 11 44.306 27.962 19.795 307.136 o
-1 3 12 24.088 22.121 21.364 267.486 o
-1 4 1 3409.060 3757.200 59.007 1.722 o
-1 4 2 5287.610 5842.290 67.931 0.731 o
-1 4 3 1882.740 2138.130 186.351 2.199 o
-1 4 4 2161.550 2351.360 189.055 1.957 o
-1 4 5 4094.500 4374.850 551.670 0.307 o
-1 4 6 2158.050 2191.720 120.150 3.061 o
-1 4 7 262.272 306.886 16.443 178.122 o
-1 4 8 257.893 290.762 31.424 88.903 o
-1 4 9 325.068 393.633 37.643 59.130 o
-1 4 10 255.607 267.884 39.969 62.508 o
-1 4 11 65.663 59.386 25.258 186.180 o
-1 4 12 60.373 96.650 29.909 133.101 o
-1 5 1 3727.350 3972.620 68.688 1.463 o
-1 5 2 2497.100 2557.960 51.651 3.296 o
-1 5 3 1893.180 1994.020 146.165 2.951 o
-1 5 4 431.942 451.287 25.826 71.582 o
-1 5 5 1744.480 1828.640 154.900 2.986 o
-1 5 6 1432.550 1479.090 107.927 5.319 o
-1 5 7 141.138 191.029 28.341 130.847 o
-1 5 8 203.113 249.225 34.182 85.986 o
-1 5 9 102.162 140.514 28.719 137.001 o
-1 5 10 160.717 162.256 32.235 104.045 o
-1 5 11 167.436 175.453 34.939 89.125 o
-1 5 12 85.881 117.635 33.371 105.532 o
-1 6 1 1924.250 1808.520 173.343 2.484 o
-1 6 2 2421.950 2806.940 215.070 1.503 o
-1 6 3 623.970 653.395 46.784 28.039 o
-1 6 4 401.508 437.920 28.151 71.152 o
-1 6 5 364.609 400.203 54.545 32.775 o
-1 6 6 426.031 519.435 36.886 49.112 o
-1 6 7 472.256 517.866 38.833 43.795 o
-1 6 8 295.087 328.406 33.749 74.426 o
-1 6 9 83.674 99.787 26.015 170.652 o
-1 6 10 275.938 340.845 39.590 59.913 o
-1 6 11 156.018 194.491 37.643 78.135 o
-1 7 1 731.369 817.527 59.922 18.215 o
-1 7 2 962.266 991.149 78.715 10.822 o
-1 7 3 755.681 876.755 73.177 13.939 o
-1 7 4 211.320 237.242 15.854 238.330 o
-1 7 5 120.080 125.802 22.878 203.220 o
-1 7 6 264.096 280.270 29.909 95.169 o
-1 7 7 372.384 408.019 36.886 56.705 o
-1 7 8 287.274 345.118 36.508 66.564 o
-1 7 9 128.002 154.143 31.045 115.289 o
-1 7 10 135.540 134.726 31.856 110.234 o
-1 7 11 148.322 153.710 34.560 93.270 o
-1 8 1 62.112 62.768 22.716 228.738 o
-1 8 2 327.354 355.530 23.221 106.065 o
-1 8 3 556.727 570.420 46.144 31.918 o
-1 8 4 222.745 277.187 28.719 107.628 o
-1 8 5 216.016 284.164 30.288 100.016 o
-1 8 6 530.347 668.115 44.242 32.585 o
-1 8 7 394.286 490.716 41.159 45.728 o
-1 8 8 318.562 347.065 38.022 60.429 o
-1 8 9 70.437 59.764 23.689 209.838 o
-1 8 10 36.904 38.833 22.878 231.375 o
-1 8 11 47.365 61.711 27.151 163.406 o
-1 9 1 94.958 89.950 15.900 409.158 o
-1 9 2 273.695 263.493 21.271 144.312 o
-1 9 3 410.797 388.603 36.508 55.313 o
-1 9 4 237.002 265.191 29.693 101.284 o
-1 9 5 202.818 263.612 30.666 101.369 o
-1 9 6 139.370 169.665 29.909 120.880 o
-1 9 7 210.382 279.134 38.455 69.190 o
-1 9 8 167.618 175.453 33.749 94.724 o
-1 9 9 21.950 32.235 22.121 249.334 o
-1 9 10 22.779 25.258 21.364 267.460 o
-1 10 1 84.203 81.802 16.744 385.979 o
-1 10 2 180.633 171.180 31.856 103.537 o
-1 10 3 174.611 156.090 31.045 109.841 o
-1 10 4 270.335 284.975 40.780 59.172 o
-1 10 5 95.575 106.203 18.796 301.978 o
-1 10 6 41.514 28.341 19.038 332.145 o
-1 10 7 37.656 22.500 20.552 286.974 o
-1 10 8 54.955 46.189 23.311 220.153 o
-1 10 9 27.931 44.620 24.825 197.432 o
-1 11 1 76.816 64.037 25.258 184.314 o
-1 11 2 46.406 34.939 21.742 254.614 o
-1 11 3 73.616 70.257 26.394 169.419 o
-1 11 4 75.513 72.961 26.015 173.755 o
-1 11 5 67.374 109.847 31.045 122.873 o
-1 11 6 18.117 25.636 22.121 249.940 o
-1 11 8 33.355 15.523 22.500 240.794 o
0 -11 1 43.710 34.939 21.742 255.046 o
0 -10 1 143.871 118.055 20.168 242.527 o
0 -10 2 47.653 36.129 21.742 254.308 o
0 -10 3 21.625 10.492 19.038 337.411 o
0 -9 1 295.790 285.329 23.597 120.066 o
0 -9 2 115.138 88.568 17.247 342.151 o
0 -9 3 43.222 59.007 24.068 207.538 o
0 -9 4 123.508 85.401 27.962 144.751 o
0 -8 1 482.159 443.275 36.859 47.982 o
0 -8 2 286.789 258.183 21.890 136.684 o
0 -8 3 190.658 180.853 22.361 177.628 o
0 -8 4 244.919 227.104 37.643 71.074 o
0 -8 5 349.045 378.921 43.863 46.761 o
0 -8 6 144.040 145.976 35.318 90.245 o
0 -7 1 894.744 796.955 39.590 21.837 o
0 -7 2 930.357 919.666 45.810 18.098 o
0 -7 3 446.734 493.673 51.814 31.898 o
0 -7 4 355.011 401.292 43.890 45.923 o
0 -7 5 358.249 351.716 39.590 54.376 o
0 -7 6 331.613 378.489 43.485 48.200 o
0 -7 7 115.306 143.272 34.182 98.054 o
0 -6 1 1502.150 1403.410 35.483 9.417 o
0 -6 2 1508.510 1399.300 53.572 8.356 o
0 -6 3 717.383 756.422 50.651 22.427 o
0 -6 4 327.755 328.968 22.877 110.551 o
0 -6 5 199.431 208.877 33.371 91.859 o
0 -6 6 314.036 347.444 38.833 58.922 o
0 -6 7 394.275 441.768 45.432 41.200 o
0 -6 8 67.034 57.060 25.636 180.873 o
0 -5 1 1617.410 1409.280 36.697 8.512 o
0 -5 2 2931.170 2820.560 47.529 2.559 o
0 -5 3 1572.760 1669.880 39.135 7.875 o
0 -5 4 375.173 397.644 27.556 78.814 o
0 -5 5 129.846 116.067 24.447 179.834 o
0 -5 6 130.402 135.862 27.962 140.060 o
0 -5 7 491.813 541.556 46.189 34.663 o
0 -5 8 108.439 121.097 30.666 121.698 o
0 -5 9 98.835 91.620 29.531 133.159 o
0 -4 1 628.447 646.794 45.026 29.073 o
0 -4 2 1373.720 1371.170 40.348 10.307 o
0 -4 3 2308.280 2670.040 102.548 2.875 o
0 -4 4 750.515 781.478 41.159 25.306 o
0 -4 5 218.227 221.263 29.531 108.308 o
0 -4 6 1097.640 1222.110 58.250 11.725 o
0 -4 7 627.031 701.919 48.514 26.282 o
0 -4 8 399.573 433.656 42.727 44.718 o
0 -4 9 180.944 194.869 36.886 79.346 o
0 -3 1 85.770 97.193 8.659 1034.300 o
0 -3 2 1857.290 1980.380 60.680 5.259 o
0 -3 3 2466.380 2476.630 164.575 2.034 o
0 -3 4 1599.630 1385.220 233.513 1.826 o
0 -3 5 1764.020 1469.390 316.588 1.065 o
0 -3 6 1230.300 1298.590 55.492 10.543 o
0 -3 7 2281.360 2503.230 81.128 3.332 o
0 -3 8 710.415 829.992 52.409 21.110 o
0 -3 9 404.048 443.716 43.106 43.745 o
0 -3 10 62.492 75.719 27.151 161.348 o
0 -2 1 1177.360 1198.140 79.162 8.823 o
0 -2 2 4413.050 4021.860 577.784 0.283 o
0 -2 3 4900.700 3294.070 1349.430 0.064 o
0 -2 4 6714.630 4557.800 1912.940 0.032 o
0 -2 5 2415.660 1213.190 36.886 5.222 o
0 -2 6 451.421 314.096 106.764 9.993 o
0 -2 7 684.564 555.870 164.203 4.207 o
0 -2 8 664.956 769.850 47.757 24.793 o
0 -2 9 226.626 283.407 34.182 82.047 o
0 -2 10 143.048 152.953 31.424 111.266 o
0 -1 1 5832.860 4606.890 1325.730 0.064 o
0 -1 2 2387.370 1835.720 625.631 0.294 o
0 -1 3 6382.290 5327.920 1288.500 0.066 o
0 -1 4 7778.710 6868.050 1610.900 0.042 o
0 -1 5 2057.890 1698.840 419.485 0.625 o
0 -1 6 609.827 520.060 142.839 5.525 o
0 -1 7 289.427 263.687 64.037 27.118 o
0 -1 8 316.695 302.461 90.268 14.157 o
0 -1 9 664.230 604.660 172.775 3.826 o
0 -1 10 110.935 141.325 29.531 129.066 o
0 0 1 6806.930 7524.930 107.549 0.435 o
0 0 2 6838.250 7027.480 219.748 0.398 o
0 0 3 2680.030 2930.400 145.570 1.954 o
0 0 4 1448.980 1408.060 118.014 4.880 o
0 0 5 1233.140 1113.390 126.965 5.142 o
0 0 6 281.725 278.483 58.033 32.354 o
0 0 7 533.141 508.018 79.208 15.799 o
0 0 8 429.595 407.569 54.166 31.445 o
0 0 9 769.729 771.971 233.702 2.124 o
0 0 10 348.196 353.278 107.927 9.977 o
0 1 0 7607.520 7353.390 1088.360 0.082 o
0 1 1 4734.700 5800.020 171.991 0.718 o
0 1 2 720.250 745.567 64.253 17.483 o
0 1 3 1160.350 1139.670 18.086 16.182 o
0 1 4 2627.780 2748.440 35.507 3.061 o
0 1 5 2425.560 2519.820 111.037 2.713 o
0 1 6 1218.920 1221.660 100.355 6.752 o
0 1 7 902.463 921.637 119.393 6.548 o
0 1 8 852.390 895.959 104.249 8.207 o
0 1 9 1015.520 1045.080 135.673 5.088 o
0 1 10 586.427 481.792 41.159 36.620 o
0 1 11 227.646 200.332 35.318 81.477 o
0 2 0 2423.050 2517.110 357.747 0.764 o
0 2 1 267.833 273.480 13.954 207.556 o
0 2 2 4720.700 5391.870 161.309 0.770 o
0 2 3 388.974 350.434 33.371 65.145 o
0 2 4 3163.310 3501.380 36.508 2.050 o
0 2 5 4382.130 4746.970 46.014 1.088 o
0 2 6 3758.340 3981.070 163.229 1.150 o
0 2 7 1614.160 1660.500 79.992 5.879 o
0 2 8 576.402 591.985 55.519 24.927 o
0 2 9 1079.560 1024.920 53.977 13.554 o
0 2 10 539.876 505.481 43.485 35.973 o
0 2 11 187.789 141.325 30.288 113.834 o
0 2 12 29.471 23.689 21.364 266.821 o
0 3 0 5690.420 5710.110 700.756 0.184 o
0 3 1 1339.840 1530.980 101.897 5.812 o
0 3 2 5351.060 6253.450 185.756 0.588 o
0 3 3 2332.650 2575.540 175.669 1.961 o
0 3 4 907.990 824.236 79.181 11.703 o
0 3 5 3358.830 3504.980 101.329 1.668 o
0 3 6 3845.730 4175.430 70.662 1.358 o
0 3 7 1485.030 1655.540 44.620 8.205 o
0 3 8 159.674 188.649 27.962 130.938 o
0 3 9 276.407 322.619 34.182 75.227 o
0 3 10 331.569 347.822 38.022 59.481 o
0 3 11 62.035 74.908 25.258 185.630 o
0 3 12 49.978 57.438 25.636 182.793 o
0 4 0 1473.150 1313.830 124.639 4.629 o
0 4 1 4033.200 4451.540 352.533 0.560 o
0 4 2 7717.850 9147.150 498.666 0.200 o
0 4 3 2963.090 3547.940 60.954 2.112 o
0 4 4 1855.810 1957.740 135.862 3.237 o
0 4 5 1713.980 1772.810 89.106 5.046 o
0 4 6 2123.010 2265.130 30.238 4.612 o
0 4 7 956.041 1130.490 50.083 15.122 o
0 4 8 61.656 80.749 20.985 263.902 o
0 4 9 267.140 290.384 31.856 86.081 o
0 4 10 129.338 131.589 28.341 137.205 o
0 4 11 166.893 178.590 34.939 89.043 o
0 4 12 90.615 112.173 31.856 115.161 o
0 5 0 2734.950 3068.160 337.303 0.778 o
0 5 1 2060.400 2174.970 212.507 1.775 o
0 5 2 7540.840 8693.630 555.347 0.189 o
0 5 3 2536.750 2784.430 145.381 2.097 o
0 5 4 761.549 851.454 51.246 20.318 o
0 5 5 555.662 663.843 34.939 39.220 o
0 5 6 609.506 679.365 37.643 34.095 o
0 5 7 158.107 183.619 27.151 138.261 o
0 5 8 232.063 253.876 28.719 108.015 o
0 5 9 152.296 157.983 29.098 125.836 o
0 5 10 169.670 155.657 30.666 112.829 o
0 5 11 271.593 282.596 42.295 55.788 o
0 5 12 155.197 156.469 35.318 89.072 o
0 6 0 1410.860 1490.190 159.995 3.332 o
0 6 1 538.425 598.042 51.928 27.935 o
0 6 2 1422.050 1496.210 93.237 6.106 o
0 6 3 927.840 1029.100 49.488 16.386 o
0 6 4 355.585 446.474 28.719 75.016 o
0 6 5 303.839 354.042 27.962 91.487 o
0 6 6 399.308 463.943 33.749 58.338 o
0 6 7 907.159 1033.030 51.651 16.194 o
0 6 8 417.812 486.821 39.590 46.746 o
0 6 9 250.779 270.589 32.613 86.207 o
0 6 10 127.439 129.642 29.098 131.228 o
0 6 11 177.240 223.210 39.212 70.619 o
0 6 12 123.103 167.340 36.886 83.916 o
0 7 0 768.290 679.042 27.037 33.121 o
0 7 1 160.363 172.518 11.664 433.150 o
0 7 2 566.269 628.571 46.490 30.390 o
0 7 3 489.006 535.498 25.840 59.713 o
0 7 4 697.597 831.940 39.212 27.021 o
0 7 5 98.375 137.809 22.878 207.809 o
0 7 6 328.323 368.050 31.856 74.383 o
0 7 7 844.020 960.825 51.651 17.742 o
0 7 8 503.546 518.678 42.295 38.382 o
0 7 9 254.923 292.331 35.696 73.816 o
0 7 10 75.204 75.341 25.636 178.571 o
0 7 11 69.215 80.749 28.341 147.636 o
0 8 0 256.920 233.324 19.462 171.254 o
0 8 1 38.943 37.385 10.780 988.771 o
0 8 2 264.599 311.797 33.870 77.950 o
0 8 3 765.546 810.195 45.931 22.604 o
0 8 4 582.562 638.358 52.030 26.252 o
0 8 5 286.475 373.080 31.856 78.875 o
0 8 6 272.142 357.936 32.992 77.653 o
0 8 7 188.672 173.938 29.531 116.313 o
0 8 8 308.335 371.512 38.022 60.288 o
0 8 9 119.773 130.832 29.909 125.673 o
0 8 10 17.740 29.909 20.174 300.028 o
0 8 11 42.263 38.833 23.689 215.428 o
0 9 0 389.471 328.930 40.375 51.741 o
0 9 1 39.130 43.295 12.612 731.323 o
0 9 2 310.395 286.287 21.602 127.213 o
0 9 3 301.134 303.959 33.749 75.048 o
0 9 4 431.536 503.307 26.860 66.263 o
0 9 5 335.475 398.537 34.533 65.131 o
0 9 6 139.733 158.416 28.341 133.634 o
0 9 7 130.253 163.446 29.909 122.439 o
0 9 8 91.011 92.378 26.394 165.542 o
0 9 9 70.265 90.863 27.584 154.895 o
0 9 10 11.709 -0.757 17.470 402.217 o
0 10 0 220.907 170.215 37.481 75.290 o
0 10 1 213.203 185.970 27.178 127.181 o
0 10 2 162.471 178.211 32.235 103.028 o
0 10 3 133.378 119.583 27.962 140.848 o
0 10 4 204.223 170.044 32.613 97.009 o
0 10 5 120.981 112.984 28.341 139.696 o
0 10 6 44.362 52.268 15.708 474.804 o
0 10 7 19.856 32.613 19.417 323.228 o
0 10 8 36.501 40.348 21.742 255.730 o
0 10 9 40.370 29.909 21.742 255.926 o
0 11 0 82.686 65.633 17.898 348.368 o
0 11 1 88.977 105.196 29.098 137.249 o
0 11 2 68.466 40.780 22.500 233.891 o
0 11 3 28.733 22.121 20.985 276.631 o
0 11 4 81.029 91.999 28.341 145.880 o
0 11 5 66.242 68.310 26.394 170.415 o
0 11 6 36.054 19.038 22.121 248.566 o
0 11 7 6.311 1.568 18.659 352.816 o
0 11 8 22.163 19.417 20.552 289.231 o
0 12 3 5.945 -1.190 19.038 338.962 o
0 12 4 16.333 3.083 19.417 325.280 o
0 12 5 43.951 38.022 24.825 196.329 o
1 -11 0 103.695 55.492 23.311 209.940 o
1 -11 1 95.775 75.719 26.015 170.641 o
1 -10 0 63.279 48.910 15.224 490.621 o
1 -10 1 114.221 123.855 29.098 133.279 o
1 -10 2 85.576 68.310 25.258 182.658 o
1 -10 3 22.938 26.015 21.742 258.235 o
1 -9 0 117.394 116.391 17.515 321.992 o
1 -9 1 302.250 279.950 23.194 121.344 o
1 -9 2 145.208 135.484 29.098 128.437 o
1 -9 3 87.688 110.280 28.719 140.549 o
1 -9 4 56.813 71.068 27.962 153.112 o
1 -8 0 195.338 168.167 18.784 226.567 o
1 -8 1 522.248 453.893 25.756 60.655 o
1 -8 2 497.058 503.719 27.960 57.333 o
1 -8 3 215.604 210.824 34.939 83.544 o
1 -8 4 190.613 203.793 35.696 82.922 o
1 -8 5 151.712 126.181 32.235 106.755 o
1 -8 6 159.134 161.120 36.508 83.466 o
1 -7 0 424.675 398.485 27.178 72.989 o
1 -7 1 944.437 875.108 31.439 21.847 o
1 -7 2 1363.590 1281.530 38.464 10.941 o
1 -7 3 728.918 744.045 31.448 31.258 o
1 -7 4 369.171 361.019 38.022 56.391 o
1 -7 5 232.709 238.354 38.022 70.370 o
1 -7 6 81.421 98.976 29.098 138.339 o
1 -7 7 148.067 198.385 39.212 72.886 o
1 -6 0 1244.800 1131.680 42.295 12.607 o
1 -6 1 1045.290 952.493 41.348 16.765 o
1 -6 2 1094.810 1023.020 31.430 16.946 o
1 -6 3 1314.120 1344.020 48.893 10.269 o
1 -6 4 341.191 382.209 23.425 99.376 o
1 -6 5 241.037 269.831 37.265 70.959 o
1 -6 6 137.349 142.461 31.045 114.910 o
1 -6 7 313.804 340.088 41.159 54.317 o
1 -6 8 131.994 119.204 32.992 104.353 o
1 -5 0 1398.860 1305.060 109.090 5.556 o
1 -5 1 673.177 663.694 72.014 16.088 o
1 -5 2 742.938 694.820 24.047 35.472 o
1 -5 3 533.815 541.113 22.991 58.537 o
1 -5 4 1007.020 1110.960 48.541 14.836 o
1 -5 5 78.750 72.204 20.985 260.131 o
1 -5 6 452.073 474.003 41.159 43.167 o
1 -5 7 1000.930 1075.000 62.090 12.800 o
1 -5 8 423.884 458.102 46.567 38.360 o
1 -5 9 200.578 270.589 44.242 55.076 o
1 -4 0 1402.860 1416.940 169.071 3.118 o
1 -4 1 646.103 609.964 90.268 11.880 o
1 -4 2 817.872 911.741 55.957 17.382 o
1 -4 3 2614.200 2824.880 96.950 2.520 o
1 -4 4 1500.170 1622.880 33.098 8.736 o
1 -4 5 933.050 967.423 48.893 16.919 o
1 -4 6 222.410 223.210 32.613 92.085 o
1 -4 7 781.057 812.902 52.030 20.045 o
1 -4 8 331.729 351.338 39.969 55.291 o
1 -4 9 307.882 368.807 43.106 50.230 o
1 -3 0 2169.400 2285.220 209.445 1.743 o
1 -3 1 547.422 589.598 108.306 9.135 o
1 -3 2 1337.210 1368.490 35.306 11.005 o
1 -3 3 3199.610 3504.090 89.296 1.821 o
1 -3 4 3479.970 3014.120 53.977 1.942 o
1 -3 5 2060.440 1859.560 259.312 1.382 o
1 -3 6 1106.400 1028.220 188.298 2.938 o
1 -3 7 368.482 373.080 35.318 61.592 o
1 -3 8 506.179 603.700 45.432 33.676 o
1 -3 9 271.141 334.247 39.212 61.325 o
1 -3 10 90.745 142.839 32.992 106.642 o
1 -2 0 14837.200 18172.100 142.839 0.087 o
1 -2 1 14488.600 15047.800 1718.140 0.030 o
1 -2 2 5420.510 5765.050 181.623 0.613 o
1 -2 3 1488.430 1238.770 206.146 2.306 o
1 -2 4 5574.170 4682.940 1212.020 0.076 o
1 -2 5 2335.710 1461.650 42.727 4.984 o
1 -2 6 514.388 399.168 134.699 6.340 o
1 -2 7 971.654 868.025 227.510 2.173 o
1 -2 8 258.479 273.911 80.939 17.731 o
1 -2 9 507.270 599.427 45.432 33.714 o
1 -2 10 113.074 116.067 28.719 137.168 o
1 -2 11 45.157 60.575 26.015 177.939 o
1 -1 0 8356.980 10985.000 91.242 0.259 o
1 -1 1 14306.200 14304.100 1246.410 0.046 o
1 -1 2 1574.890 1438.900 352.690 0.896 o
1 -1 3 2652.880 2058.310 877.371 0.153 o
1 -1 4 5457.660 4452.830 1946.120 0.031 o
1 -1 5 2745.370 2283.500 948.223 0.131 o
1 -1 6 552.507 487.782 186.161 3.395 o
1 -1 7 285.520 268.941 71.230 22.335 o
1 -1 8 310.101 310.069 92.215 13.610 o
1 -1 9 580.745 588.364 149.248 5.092 o
1 -1 10 340.914 387.845 38.833 55.795 o
1 0 0 6983.850 8793.790 340.656 0.285 o
1 0 1 6048.890 6277.070 1788.140 0.036 o
1 0 2 713.124 621.857 298.145 1.344 o
1 0 3 1774.960 1031.080 28.341 9.076 o
1 0 4 2378.930 2314.770 757.031 0.204 o
1 0 5 2400.810 2218.760 665.790 0.260 o
1 0 6 2105.270 1997.290 605.241 0.315 o
1 0 7 539.148 520.443 164.203 4.310 o
1 0 8 496.045 467.470 145.787 5.450 o
1 0 9 1078.290 998.650 289.600 1.367 o
1 0 10 583.020 574.026 161.093 4.422 o
1 0 11 298.521 247.278 38.022 65.423 o
1 1 0 18997.900 18901.200 1244.460 0.035 o
1 1 1 7621.820 6551.940 1201.520 0.071 o
1 1 2 5088.030 6769.740 38.455 0.699 o
1 1 3 284.792 255.963 45.053 50.293 o
1 1 4 675.129 674.192 121.719 7.102 o
1 1 5 1072.370 1038.390 166.150 3.640 o
1 1 6 1858.250 1732.620 321.645 1.012 o
1 1 7 2197.340 2200.610 424.894 0.594 o
1 1 8 360.569 345.692 91.215 13.637 o
1 1 9 723.479 724.009 158.199 4.406 o
1 1 10 455.656 298.551 34.560 59.001 o
1 1 11 256.124 211.960 35.696 77.163 o
1 1 12 49.089 37.265 22.878 229.889 o
1 2 0 117.932 87.416 9.909 760.395 o
1 2 1 5950.530 5214.820 208.295 0.556 o
1 2 2 2875.560 2600.260 39.212 2.801 o
1 2 3 2693.230 2590.580 46.189 3.015 o
1 2 4 2722.190 3134.670 369.186 0.679 o
1 2 5 2021.330 2180.890 312.342 1.015 o
1 2 6 4217.760 4471.410 662.896 0.227 o
1 2 7 2286.850 2489.280 343.360 0.829 o
1 2 8 673.484 762.947 152.169 4.752 o
1 2 9 298.616 262.043 31.045 87.036 o
1 2 10 348.817 273.671 34.182 70.584 o
1 2 11 249.391 199.142 35.318 79.642 o
1 2 12 21.143 15.523 19.417 324.205 o
1 3 0 645.984 604.812 40.375 32.223 o
1 3 1 3403.700 3258.140 110.676 1.667 o
1 3 2 8549.840 8871.110 225.373 0.267 o
1 3 3 8528.070 9029.910 88.916 0.292 o
1 3 4 2154.370 2222.960 50.462 4.321 o
1 3 5 2490.900 2557.960 60.197 3.223 o
1 3 6 2607.340 2967.390 257.770 1.148 o
1 3 7 1642.750 1844.100 184.593 2.456 o
1 3 8 112.804 106.386 21.742 227.725 o
1 3 9 212.020 191.029 29.909 109.313 o
1 3 10 227.353 198.006 32.613 92.940 o
1 3 11 180.368 174.317 33.371 95.456 o
1 3 12 84.210 51.651 25.258 184.138 o
1 4 0 1796.240 1578.010 36.508 6.999 o
1 4 1 1885.320 1726.500 95.009 4.490 o
1 4 2 5165.330 5130.580 143.541 0.742 o
1 4 3 3958.630 4173.330 63.658 1.325 o
1 4 4 2034.770 2071.900 50.840 4.824 o
1 4 5 363.796 355.989 25.258 90.990 o
1 4 6 2096.180 2192.240 63.280 4.275 o
1 4 7 1007.540 1040.440 48.136 15.393 o
1 4 8 178.926 203.415 29.531 115.576 o
1 4 9 203.089 196.059 31.045 103.796 o
1 4 10 105.079 115.310 27.151 153.327 o
1 4 11 173.070 137.431 30.666 113.536 o
1 4 12 147.144 120.718 32.235 107.453 o
1 5 0 1515.220 1261.970 78.018 7.116 o
1 5 1 2581.410 2556.140 137.377 2.233 o
1 5 2 2065.430 2077.080 108.725 3.490 o
1 5 3 2796.020 2925.080 58.060 2.593 o
1 5 4 703.242 748.865 32.613 31.647 o
1 5 5 289.253 343.982 25.636 104.700 o
1 5 6 318.223 367.618 29.098 84.253 o
1 5 7 665.352 672.388 40.780 29.986 o
1 5 8 591.144 605.214 40.780 34.114 o
1 5 9 393.251 443.337 39.212 50.045 o
1 5 10 114.228 114.499 27.584 147.657 o
1 5 12 143.824 109.469 30.666 118.599 o
1 6 0 1603.510 1404.380 34.418 8.721 o
1 6 1 423.826 443.532 21.552 83.240 o
1 6 2 896.332 956.971 43.557 18.947 o
1 6 3 1336.350 1379.290 51.416 9.747 o
1 6 4 878.687 927.036 19.873 25.772 o
1 6 5 367.902 404.504 29.098 75.121 o
1 6 6 95.903 112.173 21.364 239.782 o
1 6 7 338.236 369.565 32.992 70.118 o
1 6 8 611.643 636.313 43.485 30.801 o
1 6 9 313.062 301.255 34.182 72.698 o
1 6 10 162.309 159.552 31.045 111.102 o
1 6 11 120.002 102.870 29.531 130.257 o
1 6 12 115.225 126.181 33.371 103.196 o
1 7 0 838.698 764.663 28.635 27.681 o
1 7 1 254.598 224.357 28.719 106.730 o
1 7 2 57.200 59.117 8.083 1469.910 o
1 7 3 519.549 541.061 27.296 54.364 o
1 7 4 1196.640 1260.400 34.927 13.183 o
1 7 5 326.321 353.285 29.098 84.122 o
1 7 6 521.752 569.896 37.643 41.005 o
1 7 7 655.160 711.978 44.620 27.473 o
1 7 8 440.646 480.980 39.969 45.115 o
1 7 9 400.057 435.170 41.538 46.346 o
1 7 10 45.120 45.432 21.364 262.811 o
1 7 11 32.539 17.091 20.174 298.931 o
1 7 12 37.600 12.818 21.364 266.498 o
1 8 0 687.102 593.165 31.451 36.812 o
1 8 1 257.161 204.944 18.747 184.670 o
1 8 2 136.278 129.661 15.560 361.117 o
1 8 3 676.903 721.110 75.124 14.883 o
1 8 4 632.374 676.044 49.704 25.835 o
1 8 5 544.451 617.019 28.453 47.709 o
1 8 6 256.763 277.187 30.288 94.760 o
1 8 7 217.091 257.392 30.666 99.850 o
1 8 8 213.530 220.127 34.182 86.380 o
1 8 9 154.800 203.793 34.560 90.731 o
1 8 10 26.252 34.939 20.552 287.758 o
1 8 11 13.899 12.061 19.795 312.831 o
1 9 0 198.422 200.818 52.409 41.467 o
1 9 1 189.210 183.018 31.424 104.251 o
1 9 2 209.693 189.453 23.662 156.567 o
1 9 3 316.586 373.080 36.129 64.009 o
1 9 4 365.142 378.921 36.886 58.315 o
1 9 5 399.020 463.667 41.916 45.127 o
1 9 6 168.049 195.851 23.662 167.959 o
1 9 7 24.020 24.825 17.470 398.449 o
1 9 8 60.014 71.825 24.068 204.262 o
1 9 9 58.157 99.787 27.962 151.668 o
1 9 10 37.182 44.242 24.068 209.057 o
1 9 11 18.526 26.394 22.500 241.580 o
1 10 0 225.173 198.389 34.182 86.307 o
1 10 1 225.133 207.160 23.095 154.442 o
1 10 2 180.563 166.150 31.856 103.827 o
1 10 3 63.839 42.295 20.552 279.325 o
1 10 4 107.504 84.643 26.394 163.603 o
1 10 5 132.683 137.809 30.288 120.950 o
1 10 6 76.938 61.333 23.311 215.021 o
1 10 7 29.400 36.524 14.369 579.709 o
1 10 8 5.686 1.947 17.470 402.514 o
1 10 9 66.595 93.567 28.341 147.273 o
1 10 10 35.163 29.098 23.311 223.674 o
1 11 0 105.411 141.703 33.749 101.187 o
1 11 1 152.642 192.165 36.508 82.863 o
1 11 2 74.042 87.348 27.584 154.671 o
1 11 3 37.464 35.318 22.121 247.397 o
1 11 4 13.308 -0.757 17.091 420.075 o
1 11 5 51.857 40.348 22.500 236.853 o
1 11 6 51.578 63.280 25.258 187.676 o
1 11 7 14.360 10.871 20.985 278.445 o
1 11 8 16.829 21.364 21.742 258.942 o
1 12 3 15.328 8.167 20.552 290.290 o
1 12 4 10.451 30.288 22.878 234.067 o
1 12 5 33.608 37.265 24.825 197.274 o
1 12 6 42.334 48.136 27.151 164.313 o
2 -11 0 69.066 43.863 23.311 218.077 o
2 -10 0 25.848 28.341 19.417 322.623 o
2 -10 1 163.683 139.378 31.045 112.121 o
2 -10 2 111.416 130.454 32.235 110.227 o
2 -9 0 28.445 22.136 11.642 882.036 o
2 -9 1 178.224 148.302 29.531 119.692 o
2 -9 2 277.007 233.702 36.886 70.739 o
2 -9 3 146.281 102.113 28.719 133.667 o
2 -9 4 111.233 115.310 31.424 116.293 o
2 -8 0 204.674 186.569 19.834 201.807 o
2 -8 1 330.228 305.524 22.341 115.339 o
2 -8 2 432.585 404.936 39.590 48.258 o
2 -8 3 442.755 435.170 42.295 43.157 o
2 -8 4 171.885 168.097 34.182 92.575 o
2 -8 5 173.152 185.188 37.643 77.361 o
2 -7 0 299.219 283.616 34.371 74.316 o
2 -7 1 883.518 783.975 66.200 14.749 o
2 -7 2 394.104 367.936 22.824 92.245 o
2 -7 3 612.360 572.601 43.863 31.635 o
2 -7 4 291.204 298.172 36.886 67.107 o
2 -7 5 123.273 155.657 31.856 110.409 o
2 -7 6 137.095 147.923 33.371 100.582 o
2 -7 7 152.093 151.006 36.129 85.870 o
2 -6 0 1274.280 1190.330 106.548 6.195 o
2 -6 1 738.997 675.650 76.071 14.286 o
2 -6 2 1063.520 1008.950 30.875 17.754 o
2 -6 3 761.568 752.279 28.157 31.229 o
2 -6 4 803.092 797.379 49.326 20.691 o
2 -6 5 207.372 213.907 34.182 87.261 o
2 -6 6 45.479 48.893 22.878 229.572 o
2 -6 7 127.721 123.855 31.856 111.497 o
2 -6 8 192.396 230.998 41.159 63.863 o
2 -5 0 1381.950 1303.580 135.673 4.320 o
2 -5 1 1039.360 954.054 97.056 8.191 o
2 -5 2 116.581 118.743 15.712 381.611 o
2 -5 3 1414.380 1470.780 33.947 9.933 o
2 -5 4 778.581 790.781 46.189 22.428 o
2 -5 5 647.622 601.753 43.485 30.157 o
2 -5 6 198.665 182.484 32.235 98.853 o
2 -5 7 347.211 360.641 40.780 52.546 o
2 -5 8 311.457 345.497 42.727 51.313 o
2 -5 9 106.932 149.438 35.318 92.573 o
2 -4 0 2012.290 2217.120 53.166 4.642 o
2 -4 1 3080.460 2970.850 456.939 0.474 o
2 -4 2 341.401 382.145 26.294 89.069 o
2 -4 3 900.415 904.043 19.716 25.448 o
2 -4 4 2045.130 2233.590 42.443 4.713 o
2 -4 5 707.910 768.055 36.886 28.880 o
2 -4 6 1074.650 1220.920 58.628 11.895 o
2 -4 7 593.632 566.435 44.620 31.857 o
2 -4 8 704.756 868.068 56.681 19.319 o
2 -4 9 301.866 355.232 47.757 43.287 o
2 -3 0 995.411 1077.700 34.182 17.854 o
2 -3 1 2177.090 1952.030 351.338 0.833 o
2 -3 2 1630.510 1645.590 106.066 4.752 o
2 -3 3 2545.600 2744.220 76.605 2.849 o
2 -3 4 2191.670 2220.010 164.608 2.294 o
2 -3 5 3885.150 3951.400 431.898 0.455 o
2 -3 6 733.348 765.797 92.973 10.531 o
2 -3 7 303.493 318.574 48.352 42.999 o
2 -3 8 363.505 415.375 39.590 52.083 o
2 -3 9 231.253 263.612 39.212 66.154 o
2 -3 10 188.175 235.649 39.212 69.628 o
2 -2 0 881.543 985.271 29.098 22.627 o
2 -2 1 8104.640 9626.560 63.462 0.300 o
2 -2 2 1919.710 1967.430 55.371 5.222 o
2 -2 3 2247.250 2343.670 254.282 1.321 o
2 -2 4 2828.420 2753.520 477.492 0.454 o
2 -2 5 3535.740 3347.240 813.118 0.169 o
2 -2 6 1326.830 1235.650 310.179 1.166 o
2 -2 7 230.948 210.404 43.485 56.754 o
2 -2 8 250.707 253.199 48.163 46.106 o
2 -2 9 262.680 315.209 35.696 72.157 o
2 -2 10 347.462 430.519 43.106 46.781 o
2 -2 11 120.130 177.021 34.939 92.644 o
2 -1 0 11862.200 14379.200 159.552 0.136 o
2 -1 1 43997.200 50555.700 3507.160 0.005 o
2 -1 2 5517.870 5953.170 898.924 0.125 o
2 -1 3 1305.930 1071.790 263.801 1.579 o
2 -1 4 1771.710 1728.630 553.968 0.380 o
2 -1 5 549.072 464.233 154.305 4.859 o
2 -1 6 840.847 686.616 226.725 2.242 o
2 -1 7 393.335 371.843 115.310 8.708 o
2 -1 8 282.876 273.561 53.382 37.497 o
2 -1 9 270.699 301.624 60.548 29.991 o
2 -1 10 469.342 465.475 95.109 11.998 o
2 0 0 4873.410 6000.750 227.510 0.608 o
2 0 1 10377.700 11573.100 541.268 0.133 o
2 0 2 1393.010 1323.750 392.875 0.747 o
2 0 3 2650.480 2743.660 1125.840 0.094 o
2 0 4 213.973 195.534 54.545 38.269 o
2 0 5 2507.710 2347.380 906.307 0.144 o
2 0 6 1223.820 1123.270 371.133 0.845 o
2 0 7 1172.970 1072.850 331.921 1.048 o
2 0 8 810.843 774.656 203.036 2.749 o
2 0 9 424.240 445.252 117.230 8.326 o
2 0 10 536.053 371.512 38.833 44.318 o
2 0 11 303.772 241.869 38.833 63.151 o
2 1 0 343.490 284.428 10.173 181.737 o
2 1 1 1846.350 1815.470 179.285 2.431 o
2 1 2 2393.730 2108.900 419.208 0.601 o
2 1 3 3311.110 3432.500 1380.880 0.062 o
2 1 4 1619.240 1630.110 580.768 0.349 o
2 1 5 1959.000 1856.890 646.589 0.280 o
2 1 6 3605.140 3583.380 1199.960 0.081 o
2 1 7 2155.620 1995.470 637.828 0.285 o
2 1 8 1048.540 990.736 287.680 1.388 o
2 1 9 377.155 372.084 104.222 10.564 o
2 1 10 510.582 369.565 37.643 47.431 o
2 1 11 281.002 198.385 35.318 76.888 o
2 1 12 107.771 89.673 30.288 126.180 o
2 2 0 136.413 159.669 10.086 570.912 o
2 2 1 4321.830 3547.750 317.025 0.644 o
2 2 2 721.127 616.119 85.573 12.420 o
2 2 3 7334.130 8764.030 54.734 0.365 o
2 2 4 1881.840 1992.680 573.196 0.352 o
2 2 5 1526.800 1648.210 438.496 0.597 o
2 2 6 2658.240 2769.800 712.952 0.224 o
2 2 7 3020.460 3271.080 845.542 0.160 o
2 2 8 854.934 931.995 285.732 1.431 o
2 2 9 63.412 43.106 17.848 365.640 o
2 2 10 226.695 190.218 32.235 95.224 o
2 2 11 146.957 116.446 29.531 126.132 o
2 2 12 58.279 46.567 25.258 187.866 o
2 3 0 1046.650 1002.450 81.544 9.858 o
2 3 1 2807.870 2158.900 148.775 2.089 o
2 3 2 4728.200 3602.170 393.395 0.476 o
2 3 3 7736.180 6557.940 732.369 0.148 o
2 3 4 3326.190 2514.860 55.113 2.274 o
2 3 5 1182.730 928.211 38.022 15.304 o
2 3 6 1200.110 1437.130 295.819 1.274 o
2 3 7 1613.790 1843.780 429.167 0.615 o
2 3 8 635.775 518.678 37.643 36.550 o
2 3 9 82.596 85.401 22.121 232.981 o
2 3 10 175.993 152.953 29.531 119.679 o
2 3 11 132.420 87.726 25.258 172.253 o
2 3 12 108.754 97.462 29.098 135.501 o
2 4 0 2517.760 1991.680 34.393 3.945 o
2 4 1 3703.270 2840.010 217.827 1.105 o
2 4 2 3360.250 2540.590 162.681 1.565 o
2 4 3 8277.350 6795.760 480.130 0.219 o
2 4 4 2050.430 1674.750 46.189 5.491 o
2 4 5 753.656 630.472 31.856 32.437 o
2 4 6 201.018 176.264 20.985 191.011 o
2 4 7 318.174 267.073 27.584 97.825 o
2 4 8 171.779 143.650 25.636 153.360 o
2 4 9 223.521 180.915 29.909 108.376 o
2 4 10 207.790 151.006 30.288 110.491 o
2 4 11 117.244 66.795 25.258 177.311 o
2 4 12 258.879 187.514 38.022 70.319 o
2 5 0 2840.070 2504.380 51.246 2.839 o
2 5 1 2129.430 1535.670 148.355 2.899 o
2 5 2 250.758 211.309 9.475 308.636 o
2 5 3 1820.870 1514.220 54.766 6.423 o
2 5 4 839.242 741.509 32.613 26.611 o
2 5 5 403.451 354.421 26.394 81.106 o
2 5 7 374.228 385.898 32.235 67.519 o
2 5 8 975.783 870.016 48.514 17.102 o
2 5 9 461.183 398.338 38.022 49.071 o
2 5 10 222.759 154.522 30.288 108.187 o
2 5 11 123.250 93.567 27.584 147.870 o
2 5 12 99.783 76.477 27.151 156.858 o
2 6 0 1611.150 1299.970 110.821 4.977 o
2 6 1 880.866 714.120 69.495 14.373 o
2 6 2 187.476 158.192 13.677 341.764 o
2 6 3 397.467 387.564 13.230 120.047 o
2 6 4 844.884 809.127 50.867 19.269 o
2 6 5 915.866 847.841 39.590 20.740 o
2 6 6 130.980 162.688 24.447 173.794 o
2 6 7 628.833 588.934 39.212 34.068 o
2 6 8 833.249 819.554 48.893 20.009 o
2 6 9 509.956 432.087 39.969 42.712 o
2 6 10 231.181 187.514 33.371 89.703 o
2 6 11 39.969 45.432 23.311 222.243 o
2 6 12 54.984 36.508 22.878 229.080 o
2 7 0 466.533 388.079 22.115 79.365 o
2 7 1 446.305 371.945 48.514 36.967 o
2 7 2 19.029 19.126 5.335 4035.910 o
2 7 3 599.423 523.059 44.261 32.696 o
2 7 4 964.183 908.527 50.272 16.580 o
2 7 5 1055.820 1046.020 34.113 17.032 o
2 7 6 394.488 394.822 32.235 65.033 o
2 7 7 301.852 301.634 31.424 82.758 o
2 7 8 244.828 256.635 31.856 90.835 o
2 7 9 256.781 228.672 36.129 74.946 o
2 7 10 116.430 115.688 28.341 140.132 o
2 7 11 12.695 18.227 19.417 324.954 o
2 7 12 31.730 28.341 21.742 257.166 o
2 8 0 565.906 472.063 71.447 18.435 o
2 8 1 586.097 474.248 56.303 25.520 o
2 8 2 136.696 159.552 27.584 140.503 o
2 8 3 446.209 458.859 37.643 48.664 o
2 8 4 619.140 636.438 27.236 42.746 o
2 8 5 499.721 499.881 26.248 59.850 o
2 8 6 562.596 605.901 35.913 39.533 o
2 8 7 112.192 144.029 26.772 153.774 o
2 8 8 92.554 82.696 23.689 203.212 o
2 8 9 93.888 77.234 25.258 180.559 o
2 8 10 53.770 55.924 23.311 219.591 o
2 8 11 17.314 10.492 19.417 324.885 o
2 9 0 385.086 355.428 46.027 42.559 o
2 9 1 490.861 425.894 89.484 13.343 o
2 9 2 421.653 380.814 37.265 53.473 o
2 9 3 320.620 353.285 36.129 64.487 o
2 9 4 115.638 121.530 27.151 151.204 o
2 9 5 357.996 343.191 23.816 98.461 o
2 9 6 86.240 93.901 16.641 384.029 o
2 9 7 69.819 98.012 17.804 349.828 o
2 9 8 11.161 8.545 15.901 484.900 o
2 9 9 30.037 14.387 18.659 349.562 o
2 9 10 64.106 51.651 24.447 199.079 o
2 9 11 22.977 33.371 24.068 210.749 o
2 10 0 64.339 62.638 17.659 367.865 o
2 10 1 233.512 255.066 39.212 66.281 o
2 10 2 168.721 178.590 32.992 98.301 o
2 10 3 101.103 95.136 25.636 172.862 o
2 10 4 41.155 40.348 20.552 284.764 o
2 10 5 77.886 93.567 26.394 167.337 o
2 10 6 119.008 138.188 31.045 117.068 o
2 10 7 33.414 27.988 13.710 635.341 o
2 10 8 16.379 23.041 13.698 648.352 o
2 10 9 32.567 37.436 16.993 416.333 o
2 10 10 61.908 84.265 29.098 140.767 o
2 11 0 38.690 59.386 27.584 159.136 o
2 11 1 86.413 90.431 29.531 134.430 o
2 11 2 64.760 63.280 26.015 175.715 o
2 11 3 39.554 31.856 22.121 247.349 o
2 11 4 7.450 19.417 20.174 301.411 o
2 11 5 24.799 22.878 20.985 277.041 o
2 11 6 70.736 82.318 28.719 143.693 o
2 11 7 48.184 50.462 25.258 188.751 o
2 11 8 14.385 26.772 22.878 233.942 o
2 12 3 32.577 32.235 25.258 190.899 o
2 12 4 5.979 23.689 22.500 242.377 o
2 12 5 22.989 48.514 26.015 180.130 o
2 12 6 31.144 33.749 24.825 197.600 o
3 -10 0 56.088 47.757 23.311 219.863 o
3 -10 1 41.764 24.447 20.552 286.126 o
3 -10 2 123.425 147.545 34.939 93.438 o
3 -9 0 67.482 52.409 21.742 248.737 o
3 -9 1 120.977 104.060 26.772 155.666 o
3 -9 2 179.274 116.067 29.098 124.960 o
3 -9 3 176.712 145.976 34.182 93.111 o
3 -9 4 78.448 67.174 27.962 151.271 o
3 -8 0 291.738 287.567 21.602 132.549 o
3 -8 1 258.499 255.823 35.696 75.081 o
3 -8 2 441.246 366.103 39.212 49.476 o
3 -8 3 392.818 385.087 41.916 47.469 o
3 -8 4 301.885 322.997 45.810 46.906 o
3 -8 5 110.496 111.037 31.424 116.551 o
3 -7 0 1307.380 1213.660 112.389 5.709 o
3 -7 1 309.967 278.755 31.424 83.166 o
3 -7 2 478.171 473.625 39.969 43.292 o
3 -7 3 427.335 435.603 41.159 45.439 o
3 -7 4 388.904 418.890 41.916 46.794 o
3 -7 5 223.835 213.529 37.643 73.044 o
3 -7 6 78.417 75.341 27.584 154.852 o
3 -6 0 1313.810 1179.740 107.170 6.059 o
3 -6 1 1100.970 1010.380 83.670 9.265 o
3 -6 2 187.753 228.672 31.424 101.644 o
3 -6 3 353.155 395.958 36.508 59.360 o
3 -6 4 352.463 350.959 36.886 60.320 o
3 -6 5 331.270 309.422 36.129 65.412 o
3 -6 6 148.106 157.983 32.992 101.250 o
3 -6 7 188.370 180.158 36.129 82.278 o
3 -5 0 1467.790 1542.020 53.166 8.196 o
3 -5 1 361.804 309.985 38.049 58.626 o
3 -5 2 763.300 709.147 32.992 29.811 o
3 -5 3 251.823 290.762 29.909 96.187 o
3 -5 4 1294.900 1417.890 74.746 8.014 o
3 -5 5 776.300 814.470 50.462 20.664 o
3 -5 6 349.696 409.966 39.969 52.416 o
3 -5 7 203.847 239.922 38.833 69.720 o
3 -5 8 227.790 253.119 41.916 59.602 o
3 -4 0 1406.060 1497.730 48.514 9.018 o
3 -4 1 1008.940 929.826 137.431 5.086 o
3 -4 2 435.807 450.948 46.241 38.404 o
3 -4 3 1234.850 1283.000 33.695 12.692 o
3 -4 4 1163.100 1277.120 35.401 13.455 o
3 -4 5 1736.070 1873.870 44.472 6.360 o
3 -4 6 1048.550 1136.050 37.348 15.879 o
3 -4 7 309.253 364.535 38.455 59.502 o
3 -4 8 214.716 274.861 40.348 63.705 o
3 -4 9 137.450 153.332 34.560 94.112 o
3 -3 0 4273.160 4941.230 79.559 1.053 o
3 -3 1 8316.420 9894.520 116.067 0.279 o
3 -3 2 6042.330 5939.320 532.930 0.255 o
3 -3 3 1868.430 1890.960 125.775 3.507 o
3 -3 4 1146.950 1174.190 32.296 14.730 o
3 -3 5 1632.150 1680.470 106.764 4.684 o
3 -3 6 921.613 977.558 100.572 8.223 o
3 -3 7 292.477 277.371 57.655 32.549 o
3 -3 8 255.436 285.732 35.318 75.276 o
3 -3 9 144.371 154.900 31.856 108.338 o
3 -3 10 150.128 159.930 34.939 91.075 o
3 -2 1 3884.740 4323.200 49.374 1.348 o
3 -2 2 9482.680 10902.500 561.351 0.143 o
3 -2 3 738.167 750.717 80.939 12.853 o
3 -2 4 1326.980 1329.530 173.533 3.092 o
3 -2 5 2114.910 2144.460 409.182 0.640 o
3 -2 6 891.055 909.807 155.468 4.301 o
3 -2 7 311.455 292.721 50.083 40.729 o
3 -2 8 265.828 296.771 53.004 38.093 o
3 -2 9 144.628 165.806 24.636 167.738 o
3 -2 10 319.074 364.913 41.538 52.605 o
3 -1 0 1711.290 1948.850 43.485 6.334 o
3 -1 1 6034.100 7298.880 283.596 0.399 o
3 -1 2 1885.610 1943.000 226.320 1.730 o
3 -1 3 1708.900 1881.720 295.441 1.178 o
3 -1 4 758.449 854.766 186.919 3.204 o
3 -1 5 1314.710 1286.830 394.417 0.745 o
3 -1 6 1496.210 1424.930 384.141 0.771 o
3 -1 7 1012.530 1022.790 284.570 1.419 o
3 -1 8 428.458 427.043 71.420 20.141 o
3 -1 9 412.499 402.931 99.192 11.427 o
3 -1 10 455.108 463.075 84.643 14.789 o
3 0 0 4509.940 5519.870 158.984 0.800 o
3 0 1 3346.370 3929.420 237.570 0.984 o
3 0 2 3855.640 4179.010 361.038 0.569 o
3 0 3 1155.590 1079.510 307.853 1.208 o
3 0 4 871.451 860.586 305.933 1.258 o
3 0 5 509.562 426.643 148.870 5.245 o
3 0 6 1125.210 1049.350 312.505 1.179 o
3 0 7 1687.400 1649.410 499.450 0.464 o
3 0 8 1144.340 1187.640 348.228 0.956 o
3 0 9 223.400 217.705 34.750 83.282 o
3 0 10 340.547 275.619 38.833 59.551 o
3 0 11 167.702 194.112 35.696 85.077 o
3 1 0 419.032 452.638 14.811 99.874 o
3 1 1 452.384 492.603 37.072 48.013 o
3 1 2 3807.620 3449.270 547.549 0.328 o
3 1 3 2774.200 2165.840 32.992 3.303 o
3 1 4 2442.740 3038.190 51.651 3.014 o
3 1 5 1988.100 2146.360 712.195 0.232 o
3 1 6 1379.590 1362.070 459.049 0.556 o
3 1 7 2293.510 2376.020 720.335 0.224 o
3 1 8 1526.520 1632.610 467.405 0.530 o
3 1 9 271.550 222.074 33.749 82.233 o
3 1 10 132.742 100.923 25.636 166.352 o
3 1 11 196.777 192.165 36.129 81.192 o
3 1 12 88.778 83.832 29.531 134.518 o
3 2 0 2318.980 2384.660 139.041 2.494 o
3 2 1 762.750 742.173 35.571 28.017 o
3 2 2 5661.020 4987.610 757.151 0.167 o
3 2 3 7462.670 6864.270 1127.740 0.079 o
3 2 4 6617.830 6946.020 2035.800 0.028 o
3 2 5 1752.400 1794.800 553.590 0.380 o
3 2 6 1107.830 1177.580 340.845 0.998 o
3 2 7 1273.030 1368.740 428.788 0.636 o
3 2 8 548.092 601.061 174.695 3.808 o
3 2 9 105.075 86.158 22.500 219.629 o
3 2 10 103.153 88.538 24.825 183.671 o
3 2 11 145.991 112.173 29.531 126.531 o
3 2 12 126.028 109.847 31.424 115.176 o
3 3 0 3102.840 3149.320 256.410 1.034 o
3 3 1 2314.410 1986.360 83.850 3.659 o
3 3 2 1882.900 1462.980 112.036 4.216 o
3 3 3 4987.270 4423.400 461.843 0.362 o
3 3 4 3106.680 3004.240 347.378 0.713 o
3 3 5 1250.950 1264.310 305.338 1.207 o
3 3 6 423.973 294.657 26.394 82.532 o
3 3 7 1070.440 724.418 40.780 18.491 o
3 3 8 719.250 548.533 38.833 31.475 o
3 3 9 96.516 76.098 21.742 237.833 o
3 3 10 254.310 187.892 32.992 88.861 o
3 3 11 64.479 48.136 22.878 226.541 o
3 3 12 122.403 76.098 27.962 145.533 o
3 4 0 3677.420 3624.060 391.651 0.542 o
3 4 1 2451.150 2052.170 50.302 3.854 o
3 4 2 2420.430 2102.530 66.156 3.653 o
3 4 3 1041.570 853.159 68.580 12.368 o
3 4 4 2485.800 2148.500 197.526 1.761 o
3 4 5 371.959 235.649 22.500 112.887 o
3 4 6 238.247 170.044 24.068 147.529 o
3 4 7 368.609 264.369 27.962 88.362 o
3 4 8 531.077 374.649 33.749 51.376 o
3 4 9 708.419 547.776 42.295 29.745 o
3 4 10 237.297 139.378 29.098 114.262 o
3 4 11 152.274 97.029 27.584 143.102 o
3 4 12 112.009 83.832 29.098 135.904 o
3 5 0 2813.080 2394.890 44.181 2.997 o
3 5 1 1067.700 934.941 26.015 19.207 o
3 5 2 487.909 429.426 22.702 71.703 o
3 5 3 567.887 467.343 35.756 43.296 o
3 5 4 1006.850 827.903 142.082 4.898 o
3 5 5 1121.980 936.107 212.744 2.391 o
3 5 6 310.860 261.286 26.015 106.859 o
3 5 7 123.090 83.832 19.795 268.339 o
3 5 8 420.016 271.778 31.424 70.720 o
3 5 9 497.471 363.777 36.508 50.092 o
3 5 10 333.312 227.861 36.129 68.617 o
3 5 11 83.446 57.871 23.689 207.630 o
3 5 12 99.902 131.968 33.371 104.104 o
3 6 0 1231.790 1062.990 32.935 14.235 o
3 6 1 1257.340 1158.230 96.867 6.994 o
3 6 2 123.251 112.847 9.447 733.178 o
3 6 3 108.891 92.589 9.190 859.803 o
3 6 4 719.954 612.898 98.029 10.100 o
3 6 5 1360.030 1177.750 223.237 2.081 o
3 6 6 605.640 503.155 34.560 41.261 o
3 6 7 512.488 391.307 33.749 52.151 o
3 6 8 575.154 469.731 39.212 39.256 o
3 6 9 332.326 254.688 36.508 66.578 o
3 6 10 261.496 223.588 36.508 73.536 o
3 6 11 38.581 43.485 22.121 246.674 o
3 6 12 11.780 -0.757 17.091 420.208 o
3 7 0 527.760 443.752 32.613 50.615 o
3 7 1 843.971 696.139 37.643 25.251 o
3 7 2 711.956 571.415 120.556 7.250 o
3 7 3 113.048 105.829 9.957 740.236 o
3 7 4 1247.170 1024.000 176.832 3.169 o
3 7 5 705.302 631.278 85.996 12.381 o
3 7 6 584.569 563.331 39.969 35.941 o
3 7 7 342.665 258.960 29.909 85.591 o
3 7 8 121.795 99.409 24.825 178.693 o
3 7 9 163.540 152.953 30.288 116.236 o
3 7 10 92.811 76.477 25.258 180.806 o
3 7 11 19.826 10.492 17.470 400.653 o
3 7 12 14.624 16.712 20.552 290.039 o
3 8 0 195.061 195.075 35.913 82.057 o
3 8 1 459.941 419.451 43.485 41.243 o
3 8 2 273.761 252.955 79.019 18.527 o
3 8 3 576.767 577.685 41.916 34.365 o
3 8 4 288.370 269.235 48.325 44.368 o
3 8 5 526.463 501.982 53.193 28.599 o
3 8 6 420.489 422.749 41.727 45.339 o
3 8 7 126.495 130.408 28.909 132.860 o
3 8 8 34.873 40.348 19.038 332.298 o
3 8 9 34.626 40.348 20.985 274.502 o
3 8 10 68.260 85.022 27.584 155.425 o
3 8 11 37.427 15.901 20.552 287.517 o
3 9 0 216.993 197.593 22.925 160.076 o
3 9 1 335.969 313.729 23.852 106.068 o
3 9 2 441.491 452.261 41.538 43.772 o
3 9 3 188.822 201.468 33.749 91.531 o
3 9 4 107.845 139.756 28.341 139.662 o
3 9 5 63.548 69.121 22.500 232.036 o
3 9 6 175.720 151.436 22.148 190.814 o
3 9 7 76.569 82.177 16.704 393.059 o
3 9 8 21.934 25.123 12.949 720.497 o
3 9 9 13.142 7.258 12.872 738.654 o
3 9 10 65.818 42.295 23.689 212.036 o
3 9 11 51.833 59.007 26.394 172.425 o
3 10 0 70.408 71.082 17.393 372.656 o
3 10 1 145.882 167.718 33.749 96.978 o
3 10 2 246.914 249.225 38.833 66.673 o
3 10 3 82.518 109.090 28.341 144.775 o
3 10 4 30.855 36.508 19.417 320.965 o
3 10 5 15.232 18.227 18.227 368.301 o
3 10 6 49.153 60.954 24.068 206.647 o
3 10 7 92.623 101.302 27.962 147.749 o
3 10 8 21.961 33.858 15.057 533.407 o
3 10 9 22.043 30.180 15.817 484.699 o
3 10 10 44.010 55.619 19.606 309.608 o
3 11 0 20.670 44.242 26.015 180.387 o
3 11 1 32.214 60.197 27.151 164.594 o
3 11 2 44.114 60.197 26.772 168.307 o
3 11 3 68.820 110.280 30.666 125.684 o
3 11 4 18.601 11.628 19.795 312.447 o
3 11 5 14.269 3.894 18.659 352.294 o
3 11 6 59.244 79.181 28.341 148.607 o
3 11 7 56.302 61.711 27.962 153.544 o
3 11 8 40.001 60.575 26.015 178.410 o
3 12 4 30.477 50.840 26.394 174.500 o
3 12 5 14.493 34.182 25.636 186.288 o
4 -10 0 56.974 57.871 24.068 205.774 o
4 -10 1 27.877 32.613 23.311 224.189 o
4 -9 0 200.905 183.619 34.560 87.623 o
4 -9 1 78.989 53.166 23.311 215.418 o
4 -9 2 157.992 139.756 32.613 103.292 o
4 -9 3 128.369 97.029 30.666 120.904 o
4 -8 0 515.357 449.178 40.780 41.069 o
4 -8 1 215.455 201.468 34.182 87.084 o
4 -8 2 230.684 243.005 38.833 67.925 o
4 -8 3 168.142 152.953 33.371 97.616 o
4 -8 4 138.653 153.710 35.318 90.351 o
4 -8 5 112.745 113.741 32.235 110.814 o
4 -7 0 790.130 791.971 48.514 21.301 o
4 -7 1 451.607 420.837 38.455 48.328 o
4 -7 2 325.568 352.095 37.265 61.458 o
4 -7 3 241.339 265.126 38.833 66.518 o
4 -7 4 342.781 360.262 41.159 52.117 o
4 -7 5 213.422 170.423 34.939 85.501 o
4 -7 6 120.612 149.438 35.318 91.708 o
4 -6 0 1632.200 1533.850 112.578 4.612 o
4 -6 1 305.821 310.179 31.856 80.289 o
4 -6 2 393.873 423.920 37.265 53.905 o
4 -6 3 128.874 137.052 27.584 143.650 o
4 -6 4 427.523 420.026 40.348 46.999 o
4 -6 5 471.652 517.109 45.810 36.218 o
4 -6 6 207.663 210.013 38.022 73.016 o
4 -6 7 144.272 137.809 33.371 100.403 o
4 -5 0 1254.430 1319.570 53.166 10.483 o
4 -5 1 1661.810 1330.440 37.265 8.455 o
4 -5 2 1115.110 1191.820 54.734 12.164 o
4 -5 3 353.822 343.982 33.749 67.885 o
4 -5 4 580.183 602.605 29.121 44.942 o
4 -5 5 550.605 584.662 45.432 32.433 o
4 -5 6 445.486 529.116 45.810 36.986 o
4 -5 7 289.178 302.823 42.727 53.501 o
4 -5 8 249.088 260.096 42.727 56.510 o
4 -4 0 636.987 576.116 34.560 37.560 o
4 -4 1 783.078 793.106 40.780 24.377 o
4 -4 2 1981.410 2163.520 67.552 4.495 o
4 -4 3 871.266 927.249 31.884 23.002 o
4 -4 4 972.600 1022.870 34.630 18.774 o
4 -4 5 1005.360 1118.990 40.564 16.190 o
4 -4 6 1026.790 1111.070 52.030 13.988 o
4 -4 7 322.612 358.693 39.212 57.176 o
4 -4 8 93.382 93.946 29.098 137.377 o
4 -4 9 172.519 258.960 42.727 60.031 o
4 -3 0 1762.770 1895.260 55.492 5.876 o
4 -3 1 677.901 690.236 36.129 31.952 o
4 -3 2 3310.630 3615.490 76.098 1.771 o
4 -3 3 1355.220 1468.660 56.871 8.883 o
4 -3 4 821.697 907.495 31.154 24.978 o
4 -3 5 1065.210 1190.830 64.443 11.329 o
4 -3 6 1432.450 1537.200 171.207 2.992 o
4 -3 7 396.624 437.759 54.166 31.888 o
4 -3 8 174.386 177.293 22.038 188.007 o
4 -3 9 131.396 129.264 31.045 116.250 o
4 -3 10 153.392 207.309 38.833 73.653 o
4 -2 0 1763.750 1947.660 52.787 5.857 o
4 -2 1 5826.250 6905.000 69.999 0.574 o
4 -2 2 8947.490 10304.600 674.335 0.131 o
4 -2 3 1461.150 1556.280 121.908 4.545 o
4 -2 4 684.020 684.633 120.150 7.231 o
4 -2 5 507.167 529.251 27.746 55.458 o
4 -2 6 347.754 345.991 66.200 24.378 o
4 -2 7 562.731 564.046 93.567 11.718 o
4 -2 8 226.694 237.919 41.727 60.500 o
4 -2 9 192.692 215.374 24.229 152.452 o
4 -2 10 116.164 175.885 34.560 94.851 o
4 -1 1 1764.000 1861.890 49.704 6.113 o
4 -1 2 4707.450 5444.100 391.523 0.428 o
4 -1 3 847.940 875.687 159.146 4.188 o
4 -1 4 1159.100 1204.140 266.343 1.566 o
4 -1 5 389.361 395.640 100.923 11.149 o
4 -1 6 975.966 913.305 219.343 2.314 o
4 -1 7 681.387 709.320 188.866 3.210 o
4 -1 8 807.317 752.091 191.786 3.058 o
4 -1 9 358.280 375.404 63.280 25.991 o
4 -1 10 189.611 233.485 34.750 85.611 o
4 0 0 3038.380 3385.530 60.548 2.119 o
4 0 1 454.796 537.420 18.926 75.440 o
4 0 2 1537.190 1608.730 165.961 3.008 o
4 0 3 2520.610 2635.150 551.264 0.362 o
4 0 4 2509.870 2434.610 714.520 0.226 o
4 0 5 1072.890 1030.110 358.531 0.913 o
4 0 6 1364.190 1247.120 395.769 0.739 o
4 0 7 1292.200 1384.070 369.970 0.839 o
4 0 8 873.481 914.167 253.119 1.797 o
4 0 9 507.893 536.840 155.874 4.770 o
4 0 10 116.636 81.128 24.825 181.708 o
4 0 11 217.628 196.438 37.265 75.351 o
4 1 0 1630.340 1814.950 102.870 4.687 o
4 1 1 79.642 76.844 7.069 1466.250 o
4 1 2 2204.330 2231.420 211.178 1.722 o
4 1 3 1357.410 1104.040 194.802 2.626 o
4 1 4 3976.330 2467.040 31.952 1.837 o
4 1 5 1715.500 1517.070 280.159 1.316 o
4 1 6 798.101 844.767 204.983 2.693 o
4 1 7 1657.520 1786.470 500.018 0.462 o
4 1 8 1243.100 1433.830 355.205 0.907 o
4 1 9 332.053 321.429 35.318 66.902 o
4 1 10 51.028 14.765 17.848 375.980 o
4 1 11 97.533 71.825 26.772 161.694 o
4 2 0 1102.810 1080.880 44.398 14.413 o
4 2 1 2036.700 2014.820 116.214 3.413 o
4 2 2 2379.770 2276.380 280.517 1.130 o
4 2 3 2816.980 2446.280 462.576 0.485 o
4 2 4 5001.190 4554.700 803.538 0.159 o
4 2 5 1374.670 1367.510 205.017 2.349 o
4 2 6 874.700 960.004 220.316 2.319 o
4 2 7 396.749 505.620 123.639 7.534 o
4 2 8 1133.070 921.613 51.219 13.979 o
4 2 9 277.702 236.407 34.939 76.743 o
4 2 10 82.403 54.356 22.878 222.393 o
4 2 11 149.819 118.393 30.288 120.075 o
4 2 12 56.605 59.764 27.151 162.691 o
4 3 0 5400.160 5461.720 405.981 0.378 o
4 3 1 1979.250 1761.420 116.384 3.679 o
4 3 2 3488.850 3163.480 295.354 0.821 o
4 3 3 2177.520 1881.100 217.268 1.735 o
4 3 4 4231.680 4160.850 509.301 0.345 o
4 3 5 1379.070 1378.990 157.215 3.501 o
4 3 6 236.844 258.057 23.307 141.542 o
4 3 7 200.074 161.499 25.636 144.797 o
4 3 8 67.914 64.848 20.174 284.836 o
4 3 9 270.883 231.755 34.182 80.237 o
4 3 10 153.591 142.461 31.045 113.102 o
4 3 11 159.785 164.581 34.182 93.758 o
4 3 12 94.760 102.113 31.424 118.266 o
4 4 0 3873.100 4137.540 382.100 0.530 o
4 4 1 2921.860 2797.230 135.220 1.932 o
4 4 2 1293.350 1103.790 50.389 11.373 o
4 4 3 267.469 243.062 11.454 246.489 o
4 4 4 1042.660 946.399 56.350 14.039 o
4 4 5 659.352 664.558 59.001 20.941 o
4 4 6 555.367 516.342 54.545 26.820 o
4 4 7 293.482 208.499 29.909 96.111 o
4 4 8 467.127 330.785 32.613 60.390 o
4 4 9 483.433 342.792 36.886 51.169 o
4 4 10 423.507 326.513 38.022 53.862 o
4 4 11 117.875 90.431 27.151 153.273 o
4 4 12 63.229 37.265 23.689 212.804 o
4 5 0 889.861 815.457 28.390 25.112 o
4 5 1 2150.590 2030.690 126.626 3.044 o
4 5 2 797.627 787.146 19.395 32.162 o
4 5 3 86.532 86.442 8.628 1065.710 o
4 5 4 512.196 498.929 15.295 74.829 o
4 5 5 758.695 658.291 41.727 26.634 o
4 5 6 934.155 847.711 146.165 4.755 o
4 5 7 206.819 214.144 37.643 74.197 o
4 5 8 517.177 387.034 35.696 49.147 o
4 5 9 637.498 475.193 41.538 34.283 o
4 5 10 227.678 178.590 32.992 92.230 o
4 5 11 171.897 121.908 29.909 119.750 o
4 5 12 12.290 17.091 20.552 290.195 o
4 6 0 386.768 379.937 26.610 81.082 o
4 6 1 213.820 205.057 17.894 218.210 o
4 6 2 695.611 656.397 18.713 42.451 o
4 6 3 35.905 42.946 7.349 1981.860 o
4 6 4 621.690 593.249 24.971 46.012 o
4 6 5 1312.400 1176.300 113.363 5.684 o
4 6 6 864.742 755.091 137.431 5.429 o
4 6 7 453.337 413.369 88.700 13.768 o
4 6 8 234.615 176.264 29.531 109.238 o
4 6 9 165.388 118.014 27.151 142.989 o
4 6 10 183.427 104.817 28.719 128.030 o
4 6 11 53.974 59.386 24.447 199.934 o
4 6 12 16.201 12.818 20.174 301.023 o
4 7 0 122.544 120.851 17.069 329.772 o
4 7 1 1040.520 1000.800 34.539 17.663 o
4 7 2 500.217 443.766 28.341 59.393 o
4 7 3 334.444 322.579 15.932 144.504 o
4 7 4 580.653 569.465 29.098 46.116 o
4 7 5 503.274 447.235 68.526 20.555 o
4 7 6 603.673 558.016 31.451 42.661 o
4 7 7 374.003 373.989 39.185 53.441 o
4 7 8 94.535 104.404 29.314 134.802 o
4 7 9 42.071 36.808 18.849 337.454 o
4 7 10 65.721 43.485 22.878 226.734 o
4 7 11 48.616 50.840 24.447 201.140 o
4 8 0 203.562 201.254 22.541 167.706 o
4 8 1 511.614 462.488 34.939 47.995 o
4 8 2 904.167 866.706 111.605 7.315 o
4 8 3 440.875 447.231 39.590 46.560 o
4 8 4 396.701 439.064 38.455 51.189 o
4 8 5 83.272 100.239 15.668 425.676 o
4 8 6 244.533 215.885 34.750 81.427 o
4 8 7 99.675 109.983 17.686 331.333 o
4 8 8 38.018 44.288 20.390 289.450 o
4 8 9 14.710 11.884 11.982 849.777 o
4 8 10 20.829 14.689 15.333 518.428 o
4 8 11 67.347 62.090 26.772 166.004 o
4 9 0 151.335 175.340 22.616 189.008 o
4 9 1 102.907 139.587 19.985 260.468 o
4 9 2 328.779 380.814 39.590 55.310 o
4 9 3 278.689 324.944 37.643 65.036 o
4 9 4 67.951 86.969 24.825 190.096 o
4 9 5 46.733 57.060 21.742 252.601 o
4 9 6 64.440 81.939 25.258 184.808 o
4 9 7 103.719 100.523 18.718 301.261 o
4 9 8 59.642 70.372 19.795 297.052 o
4 9 9 15.409 14.408 13.409 678.810 o
4 9 10 49.179 58.946 22.310 239.653 o
4 10 0 53.477 42.988 16.412 434.222 o
4 10 1 59.260 72.582 26.394 170.961 o
4 10 2 85.719 94.703 28.341 145.223 o
4 10 3 75.282 93.946 27.962 150.196 o
4 10 4 57.971 87.726 26.772 165.629 o
4 10 5 5.294 25.258 19.417 325.277 o
4 10 6 40.437 42.295 23.311 222.376 o
4 10 7 95.812 132.401 31.856 113.936 o
4 10 8 53.176 48.893 24.825 194.772 o
4 10 9 27.552 38.623 16.671 433.819 o
4 11 1 10.205 3.516 22.121 250.948 o
4 11 2 24.467 13.575 22.121 249.915 o
4 11 3 34.398 35.696 23.689 216.418 o
4 11 4 53.056 83.454 29.098 141.491 o
4 11 5 12.228 19.038 22.500 242.197 o
4 11 6 35.828 39.590 26.015 179.579 o
4 11 7 48.586 63.280 29.098 142.506 o
4 11 8 53.806 69.121 29.098 141.958 o
5 -9 0 166.907 168.097 33.749 95.120 o
5 -9 1 143.375 115.688 31.045 115.702 o
5 -9 2 76.240 72.582 27.151 160.025 o
5 -8 0 389.988 382.383 40.780 49.491 o
5 -8 1 312.162 319.482 39.590 58.294 o
5 -8 2 139.623 122.287 31.424 113.228 o
5 -8 3 111.277 122.665 31.856 113.034 o
5 -8 4 150.988 147.112 34.560 93.319 o
5 -7 0 610.799 588.934 45.432 30.316 o
5 -7 1 610.649 587.366 46.567 29.584 o
5 -7 2 292.979 305.528 37.643 64.698 o
5 -7 3 168.238 157.604 32.613 101.408 o
5 -7 4 79.238 88.916 28.719 142.567 o
5 -7 5 187.266 186.324 38.022 75.087 o
5 -6 0 394.509 362.588 34.939 60.666 o
5 -6 1 472.400 482.549 40.780 42.382 o
5 -6 2 283.580 279.891 33.371 79.330 o
5 -6 3 254.646 285.732 35.318 75.346 o
5 -6 4 221.851 208.066 34.939 83.112 o
5 -6 5 347.310 345.497 41.538 51.590 o
5 -6 6 313.343 309.800 45.810 46.710 o
5 -6 7 102.563 109.469 31.856 114.324 o
5 -5 1 439.782 446.474 36.886 50.617 o
5 -5 2 377.282 431.330 37.643 54.122 o
5 -5 3 448.680 449.557 39.212 46.572 o
5 -5 4 386.551 396.428 26.476 80.259 o
5 -5 5 546.053 654.985 33.308 41.489 o
5 -5 6 490.090 508.185 47.000 34.582 o
5 -5 7 395.359 413.049 45.810 41.264 o
5 -5 8 84.136 88.916 31.424 119.586 o
5 -4 0 718.274 678.986 39.969 28.487 o
5 -4 1 2087.110 2206.620 70.635 4.138 o
5 -4 2 2496.210 2779.230 81.128 2.842 o
5 -4 3 1909.060 2029.200 49.476 5.297 o
5 -4 4 668.131 663.826 33.965 34.312 o
5 -4 5 314.382 334.541 24.478 105.723 o
5 -4 6 528.373 622.648 32.792 44.093 o
5 -4 7 276.164 316.777 43.485 52.306 o
5 -4 8 131.653 160.309 34.560 94.285 o
5 -3 0 1033.580 1058.660 46.567 15.174 o
5 -3 1 1147.260 1250.450 50.840 12.034 o
5 -3 2 2415.600 2664.800 57.060 3.289 o
5 -3 3 2813.500 2962.710 111.226 2.150 o
5 -3 4 303.209 314.119 22.073 122.702 o
5 -3 5 606.431 630.757 57.060 23.105 o
5 -3 6 526.052 563.099 29.695 49.849 o
5 -3 7 337.702 382.699 29.503 79.284 o
5 -3 8 151.704 150.049 21.823 204.458 o
5 -3 9 141.421 203.415 37.643 78.746 o
5 -2 0 1873.560 2079.310 60.954 5.053 o
5 -2 1 974.397 1069.910 45.053 16.254 o
5 -2 2 1905.580 2023.380 61.711 5.022 o
5 -2 3 1458.850 1509.130 128.885 4.311 o
5 -2 4 727.165 763.775 131.400 6.068 o
5 -2 5 453.128 492.278 33.587 53.080 o
5 -2 6 673.644 675.514 96.299 10.452 o
5 -2 7 506.222 551.056 94.514 11.797 o
5 -2 8 404.213 436.293 53.761 32.081 o
5 -2 9 226.397 254.653 27.459 116.176 o
5 -2 10 162.242 198.006 37.643 77.642 o
5 -1 0 766.556 764.008 36.886 26.931 o
5 -1 1 1693.770 1820.930 39.117 6.829 o
5 -1 2 944.183 1008.030 76.882 11.169 o
5 -1 3 1075.910 942.977 43.106 16.020 o
5 -1 4 854.945 830.605 185.783 3.197 o
5 -1 5 570.225 599.001 124.234 7.115 o
5 -1 6 356.288 354.499 90.458 13.848 o
5 -1 7 792.224 819.483 193.328 3.006 o
5 -1 8 694.898 765.884 133.942 5.919 o
5 -1 9 471.286 522.225 118.014 8.069 o
5 -1 10 101.339 79.992 26.772 160.582 o
5 0 0 1807.430 2042.800 56.681 5.428 o
5 0 1 513.659 560.156 33.398 46.463 o
5 0 2 345.963 362.064 33.776 67.704 o
5 0 3 2377.450 2532.270 317.562 0.923 o
5 0 4 1128.580 867.257 41.538 16.064 o
5 0 5 1830.020 1798.100 536.904 0.401 o
5 0 6 803.648 833.917 222.263 2.318 o
5 0 7 635.161 692.647 223.994 2.340 o
5 0 8 1083.970 1172.240 301.066 1.262 o
5 0 9 559.555 654.371 205.957 2.772 o
5 0 10 118.282 109.090 28.719 136.948 o
5 0 11 58.825 72.582 27.151 161.876 o
5 1 0 2718.970 3005.950 68.310 2.563 o
5 1 1 1313.330 1437.790 32.944 11.060 o
5 1 2 1301.260 1347.330 74.718 8.165 o
5 1 3 2780.200 2789.000 300.149 0.928 o
5 1 4 4617.800 4422.330 1354.700 0.063 o
5 1 5 2329.600 2235.580 685.206 0.247 o
5 1 6 1077.620 1031.870 315.425 1.163 o
5 1 7 290.358 300.993 48.325 43.776 o
5 1 8 364.712 369.645 80.939 16.870 o
5 1 9 243.439 183.241 33.371 88.653 o
5 1 10 37.999 38.022 21.742 255.681 o
5 1 11 83.302 113.741 31.856 115.654 o
5 2 0 2768.640 2951.460 55.140 2.627 o
5 2 1 3085.480 2924.540 140.615 1.756 o
5 2 2 1586.450 1475.970 130.943 4.061 o
5 2 3 1851.390 1567.330 265.756 1.405 o
5 2 4 1829.410 1437.130 269.385 1.391 o
5 2 5 2335.210 2192.680 431.624 0.572 o
5 2 6 288.013 305.633 66.390 25.185 o
5 2 7 476.262 447.231 36.508 48.727 o
5 2 8 379.591 347.444 36.129 59.987 o
5 2 9 292.248 246.142 36.508 70.158 o
5 2 10 113.209 78.424 25.636 172.198 o
5 2 11 116.293 166.907 35.696 89.626 o
5 3 0 2479.950 2258.490 59.602 3.494 o
5 3 1 3680.750 3451.460 195.681 1.125 o
5 3 2 1756.740 1547.750 123.631 3.986 o
5 3 3 1241.380 1094.670 124.786 5.265 o
5 3 4 620.836 570.876 60.988 21.508 o
5 3 5 910.226 923.417 121.378 6.366 o
5 3 6 456.800 503.509 54.517 29.322 o
5 3 7 88.500 97.840 22.500 222.589 o
5 3 8 430.043 371.512 35.696 55.990 o
5 3 9 309.290 286.111 35.318 70.459 o
5 3 10 388.249 344.739 39.969 52.059 o
5 3 11 170.522 141.703 33.371 97.914 o
5 4 0 1196.770 1135.490 33.629 14.142 o
5 4 1 1411.540 1397.380 102.805 5.748 o
5 4 2 864.324 812.115 64.882 15.120 o
5 4 3 226.071 229.864 12.626 278.207 o
5 4 4 302.920 306.131 23.739 115.030 o
5 4 5 749.819 812.645 60.327 17.850 o
5 4 6 714.904 657.929 26.533 36.691 o
5 4 7 404.699 402.864 32.613 62.840 o
5 4 8 66.213 67.552 21.742 247.254 o
5 4 9 433.945 382.383 39.212 49.426 o
5 4 10 261.022 255.066 39.590 63.542 o
5 4 11 173.646 165.014 35.318 87.362 o
5 4 12 58.028 51.651 25.636 182.242 o
5 5 0 623.888 621.320 40.564 32.633 o
5 5 1 978.223 1040.740 76.394 10.887 o
5 5 2 717.370 711.832 33.345 31.442 o
5 5 3 234.975 243.729 13.456 250.700 o
5 5 4 67.513 90.469 9.827 964.400 o
5 5 5 868.363 861.882 54.924 17.272 o
5 5 6 1030.100 982.142 36.480 17.686 o
5 5 7 515.084 515.969 51.056 30.285 o
5 5 8 425.942 455.666 49.488 35.244 o
5 5 9 241.673 204.983 34.182 84.402 o
5 5 10 209.874 141.325 31.424 104.273 o
5 5 11 113.875 84.643 27.151 154.302 o
5 6 0 26.105 40.618 11.713 862.867 o
5 6 1 778.079 783.515 66.363 15.905 o
5 6 2 1071.400 1039.880 44.060 15.192 o
5 6 3 644.005 603.817 19.774 47.944 o
5 6 4 313.375 297.734 20.304 132.000 o
5 6 5 913.967 888.031 37.265 20.951 o
5 6 6 612.405 557.732 41.538 33.633 o
5 6 7 376.908 379.924 34.371 62.650 o
5 6 8 234.102 258.017 40.564 62.521 o
5 6 9 64.638 73.487 16.287 423.435 o
5 6 10 58.713 52.030 22.500 234.668 o
5 6 11 57.641 54.734 25.636 182.114 o
5 7 0 91.237 90.051 16.168 400.962 o
5 7 1 181.991 222.391 34.182 89.236 o
5 7 2 713.763 723.119 30.380 32.945 o
5 7 3 461.829 397.527 36.129 51.968 o
5 7 4 536.916 540.586 26.575 53.709 o
5 7 5 365.138 383.461 24.053 92.302 o
5 7 6 279.207 304.162 22.926 125.757 o
5 7 7 360.562 402.783 26.334 84.163 o
5 7 8 60.112 64.581 15.374 477.982 o
5 7 9 35.019 43.923 14.543 560.114 o
5 7 10 25.510 46.567 23.689 216.741 o
5 7 11 46.385 52.030 25.636 183.423 o
5 8 0 207.027 219.757 24.209 148.077 o
5 8 1 337.489 370.085 25.817 92.441 o
5 8 2 280.485 289.627 36.129 70.445 o
5 8 3 544.619 561.730 44.620 33.712 o
5 8 4 181.342 220.506 34.560 87.722 o
5 8 5 54.412 66.538 14.533 534.556 o
5 8 6 69.760 95.561 16.910 384.612 o
5 8 7 97.538 112.599 21.742 231.780 o
5 8 8 88.291 106.884 20.390 264.539 o
5 8 9 15.466 20.316 13.594 659.305 o
5 8 10 20.614 23.998 14.804 554.199 o
5 8 11 59.154 47.379 26.394 172.280 o
5 9 0 142.255 141.956 22.157 204.362 o
5 9 1 79.054 83.075 26.772 163.399 o
5 9 2 161.738 222.831 37.265 78.281 o
5 9 3 197.386 198.385 35.318 84.118 o
5 9 4 67.258 76.855 25.258 184.769 o
5 9 5 29.883 45.053 21.742 256.333 o
5 9 6 6.966 5.841 17.091 420.351 o
5 9 7 77.318 83.915 17.707 353.054 o
5 9 8 87.338 97.002 19.297 294.559 o
5 9 9 36.346 44.866 16.641 430.704 o
5 9 10 22.159 23.006 15.817 485.842 o
5 10 0 82.407 86.969 29.098 138.827 o
5 10 1 15.281 11.250 21.742 259.366 o
5 10 2 39.063 45.810 24.825 196.424 o
5 10 3 46.338 41.538 24.447 201.925 o
5 10 4 76.490 65.984 26.015 174.087 o
5 10 5 25.222 22.878 22.121 249.463 o
5 10 6 21.781 17.091 20.985 277.638 o
5 10 7 62.003 103.627 29.909 132.704 o
5 10 8 69.986 125.802 32.992 108.618 o
5 10 9 40.377 65.754 19.838 302.237 o
5 11 2 4.620 13.197 22.500 242.600 o
5 11 3 35.238 40.348 24.825 197.012 o
5 11 4 52.792 70.257 29.098 141.989 o
5 11 5 50.561 57.438 27.962 154.158 o
5 11 6 23.872 30.666 24.447 204.343 o
5 11 7 35.779 50.462 28.719 147.373 o
6 -9 0 108.572 111.037 30.666 122.177 o
6 -8 0 202.871 193.355 36.129 80.679 o
6 -8 1 264.179 281.838 43.485 53.678 o
6 -8 2 94.258 86.969 29.098 137.648 o
6 -8 3 136.793 131.211 33.749 99.224 o
6 -7 0 247.878 240.301 38.022 69.251 o
6 -7 1 308.803 319.103 39.212 59.363 o
6 -7 2 130.054 104.439 29.098 132.513 o
6 -7 3 94.725 91.242 29.531 133.589 o
6 -7 4 97.106 126.938 33.371 104.477 o
6 -6 0 253.488 227.861 34.939 79.360 o
6 -6 2 508.161 481.792 44.242 37.020 o
6 -6 3 473.643 409.155 42.727 41.765 o
6 -6 4 138.386 138.188 32.613 105.197 o
6 -6 5 222.265 249.225 41.916 59.971 o
6 -6 6 135.493 117.635 33.371 101.957 o
6 -5 0 304.835 315.209 33.749 74.110 o
6 -5 1 317.269 320.672 34.939 69.251 o
6 -5 2 533.216 546.207 43.863 35.087 o
6 -5 3 724.176 725.986 51.219 22.373 o
6 -5 4 415.995 421.216 42.295 44.816 o
6 -5 5 267.002 294.914 27.810 103.232 o
6 -5 6 295.467 308.232 44.620 49.517 o
6 -5 7 249.139 278.755 44.620 52.127 o
6 -4 0 660.262 663.464 43.485 28.713 o
6 -4 1 613.889 617.654 42.727 31.570 o
6 -4 3 1347.260 1442.620 65.227 8.393 o
6 -4 4 462.047 539.091 30.319 55.390 o
6 -4 5 318.005 360.459 29.125 84.697 o
6 -4 6 359.422 371.039 28.162 81.166 o
6 -4 7 385.371 449.262 32.251 63.230 o
6 -4 8 138.954 191.029 38.022 77.818 o
6 -3 0 1396.590 1458.140 59.007 8.504 o
6 -3 1 935.991 1003.170 49.704 16.412 o
6 -3 2 1555.940 1734.950 66.363 6.585 o
6 -3 3 1839.210 1935.550 63.875 5.295 o
6 -3 4 500.711 519.608 39.401 41.564 o
6 -3 5 209.993 230.016 24.016 147.490 o
6 -3 6 209.220 252.028 25.680 131.813 o
6 -3 7 202.047 217.489 25.458 139.230 o
6 -3 8 207.750 237.943 27.625 120.210 o
6 -3 9 145.120 198.006 38.833 74.354 o
6 -2 0 1772.310 1820.350 63.280 5.723 o
6 -2 1 528.657 596.290 38.455 39.157 o
6 -2 2 931.922 1004.740 63.685 13.579 o
6 -2 3 1264.920 1420.180 106.954 5.877 o
6 -2 4 344.038 380.799 24.146 96.275 o
6 -2 5 582.156 603.215 65.227 19.979 o
6 -2 6 216.936 249.279 29.503 106.514 o
6 -2 7 381.149 408.132 77.639 17.915 o
6 -2 8 323.748 346.488 38.644 58.713 o
6 -2 9 293.839 298.156 44.647 49.759 o
6 -1 0 1737.800 1902.290 62.523 5.726 o
6 -1 1 1482.070 1645.750 70.852 6.859 o
6 -1 2 172.906 192.353 18.083 244.417 o
6 -1 3 1201.330 1247.690 100.950 6.723 o
6 -1 4 1259.390 1339.730 251.956 1.695 o
6 -1 5 1123.850 1110.450 210.987 2.393 o
6 -1 6 692.945 585.458 147.707 5.083 o
6 -1 7 419.674 423.182 99.571 11.293 o
6 -1 8 365.971 388.268 77.261 18.257 o
6 -1 9 270.830 284.445 59.981 30.631 o
6 -1 10 140.869 130.454 32.992 103.127 o
6 0 0 1496.210 1687.190 58.250 7.366 o
6 0 1 802.612 872.646 76.098 12.912 o
6 0 2 547.339 521.010 76.882 16.395 o
6 0 3 675.989 688.760 74.719 15.152 o
6 0 4 1376.780 1328.940 249.603 1.697 o
6 0 5 1611.950 1522.760 437.901 0.598 o
6 0 6 723.437 681.130 177.021 3.605 o
6 0 7 485.539 460.068 130.075 6.766 o
6 0 8 479.682 499.607 115.120 8.449 o
6 0 9 438.062 382.004 42.295 44.694 o
6 0 10 100.911 82.318 27.962 147.898 o
6 1 0 1816.780 1936.040 61.711 5.429 o
6 1 1 1442.460 1518.330 66.390 7.597 o
6 1 2 1098.130 1091.480 110.064 6.581 o
6 1 3 2024.790 2133.390 327.081 0.944 o
6 1 4 773.308 762.808 172.370 3.730 o
6 1 5 2358.010 2284.120 640.559 0.279 o
6 1 6 489.052 497.841 133.753 6.396 o
6 1 7 285.737 317.133 78.424 18.536 o
6 1 8 287.120 337.174 84.833 15.957 o
6 1 9 374.321 317.156 38.455 56.677 o
6 1 10 156.849 175.453 36.129 84.718 o
6 1 11 50.040 38.455 24.068 207.957 o
6 2 0 1957.770 2012.130 63.280 4.852 o
6 2 1 2692.020 2732.420 125.062 2.209 o
6 2 2 1504.790 1501.450 90.635 5.976 o
6 2 3 1209.300 1089.480 131.620 4.957 o
6 2 4 1416.790 1217.540 215.792 2.174 o
6 2 5 976.300 1014.980 221.885 2.252 o
6 2 6 802.310 893.725 196.248 2.905 o
6 2 7 94.824 85.779 23.689 202.371 o
6 2 8 83.282 63.658 22.121 235.637 o
6 2 9 87.280 56.303 23.311 213.439 o
6 2 10 123.348 123.855 31.045 117.355 o
6 2 11 127.257 141.325 34.939 93.389 o
6 3 0 1846.810 1836.590 43.219 6.015 o
6 3 1 2222.680 2173.870 120.261 2.993 o
6 3 2 1677.450 1591.770 142.743 3.488 o
6 3 3 645.862 583.578 77.037 15.229 o
6 3 4 97.961 97.300 13.691 512.800 o
6 3 5 722.422 710.960 109.661 8.277 o
6 3 6 254.278 304.417 52.977 38.310 o
6 3 7 577.600 549.344 41.538 35.224 o
6 3 8 171.260 149.870 29.531 120.571 o
6 3 9 235.338 203.415 35.318 80.680 o
6 3 10 286.265 313.695 45.053 49.028 o
6 3 11 148.602 152.575 35.696 87.963 o
6 4 0 504.027 519.038 69.500 19.676 o
6 4 1 877.123 931.180 82.873 10.928 o
6 4 2 1254.130 1233.690 96.374 6.909 o
6 4 3 672.718 642.119 52.989 23.608 o
6 4 4 74.517 79.781 10.095 919.256 o
6 4 5 358.224 370.971 25.853 88.661 o
6 4 6 703.727 668.258 27.960 36.179 o
6 4 7 454.195 445.663 39.212 46.367 o
6 4 8 239.207 229.430 34.939 80.590 o
6 4 9 273.661 272.536 39.590 62.210 o
6 4 10 230.797 190.218 36.508 77.255 o
6 4 11 112.769 108.711 30.666 121.882 o
6 5 0 31.264 32.184 11.377 911.089 o
6 5 1 120.893 149.024 13.466 448.457 o
6 5 2 365.194 412.245 34.966 60.985 o
6 5 3 465.373 482.426 45.514 37.425 o
6 5 4 163.336 162.698 13.718 368.441 o
6 5 5 493.460 465.614 24.900 64.661 o
6 5 6 981.084 1028.190 35.371 18.401 o
6 5 7 559.459 589.880 28.965 47.063 o
6 5 8 244.382 229.808 35.696 77.403 o
6 5 9 154.923 147.545 32.235 105.385 o
6 5 10 78.969 78.802 27.151 159.346 o
6 5 11 69.500 100.545 30.666 126.003 o
6 6 0 131.453 149.910 19.987 244.351 o
6 6 1 165.132 185.919 20.985 204.102 o
6 6 2 729.365 723.945 33.965 30.380 o
6 6 3 650.864 666.062 39.824 31.221 o
6 6 4 251.739 259.991 20.426 159.391 o
6 6 5 616.265 637.896 29.639 40.939 o
6 6 6 244.211 258.317 21.807 150.970 o
6 6 7 402.788 442.066 26.838 73.805 o
6 6 8 196.415 264.369 38.022 71.955 o
6 6 9 42.684 67.552 24.825 194.906 o
6 6 10 26.279 35.318 22.500 240.520 o
6 6 11 39.286 47.379 26.015 179.025 o
6 7 0 103.006 108.842 18.657 300.996 o
6 7 1 315.234 336.811 25.015 102.955 o
6 7 2 583.966 607.089 29.927 43.766 o
6 7 3 645.312 669.305 46.189 27.524 o
6 7 4 491.826 583.465 59.386 24.493 o
6 7 5 174.199 208.364 22.043 182.315 o
6 7 6 69.037 72.782 15.903 439.061 o
6 7 7 100.098 113.256 18.395 308.741 o
6 7 8 80.463 117.285 20.390 265.563 o
6 7 9 30.608 39.969 22.878 232.024 o
6 7 10 11.087 27.584 22.878 234.107 o
6 8 0 268.427 298.946 38.238 65.152 o
6 8 1 168.128 185.423 23.207 174.616 o
6 8 2 115.773 159.173 32.235 108.581 o
6 8 3 346.405 368.429 39.590 54.594 o
6 8 4 182.349 234.081 36.508 79.260 o
6 8 5 67.352 101.302 27.151 159.390 o
6 8 6 18.543 25.937 12.898 728.144 o
6 8 7 55.968 64.149 16.287 432.578 o
6 8 8 74.985 102.815 19.905 282.508 o
6 8 9 62.128 68.264 17.741 364.379 o
6 8 10 20.511 50.840 25.258 191.088 o
6 9 0 211.019 239.595 28.162 116.064 o
6 9 1 49.034 63.658 26.772 167.732 o
6 9 2 45.908 75.341 26.772 167.484 o
6 9 3 66.892 94.703 29.098 139.901 o
6 9 4 75.937 62.901 24.825 190.731 o
6 9 5 50.952 62.090 25.636 182.444 o
6 9 6 12.482 4.651 19.417 325.490 o
6 9 7 41.393 33.749 21.742 255.494 o
6 9 8 93.373 128.336 22.233 221.584 o
6 9 9 46.423 64.558 19.194 320.485 o
6 10 1 27.569 8.924 22.878 233.667 o
6 10 2 7.778 19.795 23.689 218.678 o
6 10 3 19.148 54.356 26.772 170.209 o
6 10 4 38.619 66.795 27.962 154.675 o
6 10 5 70.314 69.500 27.962 151.958 o
6 10 6 19.557 5.409 22.500 242.171 o
6 10 7 48.576 90.431 31.045 124.738 o
6 10 8 48.604 72.961 28.719 145.879 o
7 -8 0 109.164 108.711 29.909 128.076 o
7 -8 1 156.754 123.855 32.992 102.016 o
7 -7 0 127.747 105.196 28.719 135.972 o
7 -7 1 152.469 115.310 31.424 112.262 o
7 -7 2 130.620 132.779 32.613 106.131 o
7 -7 3 135.812 129.264 33.749 99.377 o
7 -6 0 207.447 177.778 33.371 92.619 o
7 -6 1 128.662 104.817 28.719 135.876 o
7 -6 2 166.605 157.983 34.182 93.461 o
7 -6 3 127.085 131.968 31.856 111.177 o
7 -6 4 207.641 211.582 39.212 69.190 o
7 -6 5 141.026 134.348 34.560 94.552 o
7 -5 0 266.878 238.354 36.886 71.346 o
7 -5 1 435.365 396.391 40.348 47.221 o
7 -5 2 573.330 592.017 48.893 29.084 o
7 -5 4 506.427 499.640 47.379 33.824 o
7 -5 5 147.003 135.105 33.371 100.285 o
7 -5 6 113.988 111.037 22.462 213.983 o
7 -4 0 916.019 826.531 51.651 17.663 o
7 -4 1 386.519 375.027 38.022 54.723 o
7 -4 2 522.517 536.147 44.620 35.027 o
7 -4 3 730.426 768.660 53.599 20.865 o
7 -4 4 703.844 723.517 42.511 26.927 o
7 -4 5 116.122 121.509 20.727 243.077 o
7 -4 6 167.685 177.400 24.971 156.914 o
7 -4 7 187.031 213.630 27.584 126.619 o
7 -3 0 1802.280 1837.820 71.825 5.312 o
7 -3 1 664.918 742.645 48.136 24.957 o
7 -3 2 334.364 362.966 36.886 61.242 o
7 -3 3 731.140 726.778 34.393 30.037 o
7 -3 4 528.545 583.632 49.488 30.098 o
7 -3 5 294.814 326.131 26.280 102.438 o
7 -3 6 264.547 251.222 27.375 109.823 o
7 -3 7 192.832 183.538 25.072 148.911 o
7 -3 8 189.306 229.206 46.027 52.455 o
7 -2 0 833.549 842.432 48.514 19.898 o
7 -2 1 600.235 631.229 43.106 31.555 o
7 -2 2 549.711 582.715 42.295 35.049 o
7 -2 3 252.818 276.830 40.753 60.463 o
7 -2 4 526.531 547.266 54.924 26.884 o
7 -2 5 326.773 342.650 56.681 32.210 o
7 -2 6 326.496 306.827 42.890 51.231 o
7 -2 7 202.812 205.566 34.533 86.583 o
7 -2 8 260.692 273.597 43.485 54.028 o
7 -1 0 940.802 944.924 49.704 16.790 o
7 -1 1 488.847 488.390 36.886 46.110 o
7 -1 2 519.810 518.645 27.592 54.983 o
7 -1 3 262.595 264.099 26.988 111.061 o
7 -1 4 761.998 819.899 142.488 5.199 o
7 -1 5 638.397 633.838 102.492 9.661 o
7 -1 6 605.303 602.582 130.454 6.463 o
7 -1 7 322.980 348.615 44.242 48.046 o
7 -1 8 233.598 260.195 74.529 20.914 o
7 -1 9 328.769 383.807 80.344 17.276 o
7 0 0 985.014 1012.100 50.840 15.396 o
7 0 1 1787.800 1963.240 67.931 5.289 o
7 0 2 392.984 404.533 24.303 84.703 o
7 0 3 1059.730 1069.360 162.066 3.788 o
7 0 4 1173.730 1224.450 264.369 1.583 o
7 0 5 1346.030 1245.530 320.672 1.095 o
7 0 6 999.436 925.925 242.248 1.924 o
7 0 7 235.923 235.751 55.113 36.778 o
7 0 8 110.379 78.424 25.258 177.507 o
7 0 9 88.587 64.848 25.636 177.380 o
7 0 10 86.990 64.037 27.584 154.527 o
7 1 0 1129.370 1234.550 55.113 11.767 o
7 1 1 1450.850 1582.840 44.242 8.677 o
7 1 2 2256.430 2365.210 142.461 2.508 o
7 1 3 482.237 493.981 46.973 35.136 o
7 1 4 1093.910 1132.770 227.293 2.106 o
7 1 5 618.844 591.623 162.283 4.332 o
7 1 6 721.484 800.782 243.979 1.964 o
7 1 7 205.856 259.555 67.552 25.406 o
7 1 8 155.490 119.583 29.098 128.112 o
7 1 9 187.648 160.309 34.560 89.793 o
7 1 10 84.817 84.643 29.098 138.707 o
7 2 0 996.339 1026.430 50.840 15.140 o
7 2 1 1613.060 1757.080 44.309 7.214 o
7 2 2 1703.810 1821.550 96.272 4.751 o
7 2 3 1229.440 1264.850 133.155 4.700 o
7 2 4 284.462 288.353 59.602 30.733 o
7 2 5 369.590 388.205 87.726 14.513 o
7 2 6 346.859 399.864 107.738 9.964 o
7 2 7 186.930 170.423 31.045 107.456 o
7 2 8 149.325 121.908 29.098 128.806 o
7 2 9 151.253 137.809 32.992 101.883 o
7 2 10 189.152 188.271 38.022 74.907 o
7 3 0 583.912 633.176 41.538 33.267 o
7 3 1 585.390 593.210 46.020 30.673 o
7 3 2 535.350 555.085 50.620 29.493 o
7 3 3 399.524 369.694 38.851 52.551 o
7 3 4 220.918 229.163 29.946 105.029 o
7 3 5 93.538 113.754 18.443 311.046 o
7 3 6 546.805 474.815 39.969 39.763 o
7 3 7 418.429 442.580 41.159 45.724 o
7 3 8 194.167 200.710 34.939 85.854 o
7 3 9 97.082 76.098 25.636 175.161 o
7 3 10 162.459 195.248 38.455 74.794 o
7 4 0 263.949 259.314 21.397 147.360 o
7 4 1 195.747 234.403 22.589 164.283 o
7 4 2 636.807 636.740 53.607 24.149 o
7 4 3 330.054 331.724 35.269 66.751 o
7 4 4 220.263 221.394 16.707 225.462 o
7 4 5 103.417 125.370 26.015 165.221 o
7 4 6 527.226 560.215 43.863 35.047 o
7 4 7 581.099 598.616 46.567 30.341 o
7 4 8 295.420 314.073 37.643 64.204 o
7 4 9 165.652 140.135 31.424 109.491 o
7 4 10 120.850 132.779 32.992 104.709 o
7 5 0 72.444 72.273 19.985 287.113 o
7 5 1 102.282 112.028 17.019 350.636 o
7 5 2 476.577 480.329 48.838 33.832 o
7 5 3 1048.720 1067.990 86.374 9.075 o
7 5 4 376.310 384.051 27.244 80.507 o
7 5 5 330.536 324.478 42.727 50.882 o
7 5 6 505.742 557.889 43.485 36.296 o
7 5 7 256.867 268.263 38.022 67.638 o
7 5 8 193.030 211.203 36.508 79.317 o
7 5 9 111.365 114.499 31.045 118.981 o
7 5 10 19.847 27.962 22.121 249.709 o
7 6 0 150.261 135.753 20.059 237.283 o
7 6 1 80.109 97.924 17.019 372.294 o
7 6 2 347.841 367.332 25.106 93.370 o
7 6 3 489.872 582.456 26.972 55.640 o
7 6 4 539.554 590.604 58.250 24.166 o
7 6 5 305.059 326.439 37.860 62.515 o
7 6 6 234.461 255.626 24.974 130.409 o
7 6 7 120.285 164.203 32.613 105.655 o
7 6 8 158.160 186.756 35.318 87.716 o
7 6 9 37.668 34.939 22.878 231.514 o
7 6 10 28.446 19.417 22.121 249.326 o
7 7 0 247.500 262.404 27.711 110.105 o
7 7 1 283.338 348.371 49.677 41.292 o
7 7 2 221.496 248.071 24.433 138.572 o
7 7 3 258.645 297.739 36.129 71.928 o
7 7 4 331.585 401.042 39.590 54.501 o
7 7 5 140.640 185.079 26.204 150.105 o
7 7 6 25.001 37.454 14.533 569.325 o
7 7 7 43.284 60.290 16.555 427.928 o
7 7 8 64.021 82.696 27.584 155.984 o
7 7 9 53.888 69.500 27.151 162.494 o
7 7 10 17.477 29.909 24.068 211.207 o
7 8 0 257.268 318.522 30.348 91.558 o
7 8 1 135.058 126.812 21.331 223.167 o
7 8 2 64.155 54.734 24.825 193.026 o
7 8 3 84.021 116.067 30.666 124.200 o
7 8 4 128.103 153.710 32.613 105.425 o
7 8 5 36.942 65.984 24.825 195.626 o
7 8 6 29.154 27.584 20.552 287.868 o
7 8 7 9.090 17.679 14.129 613.144 o
7 8 8 69.919 79.516 19.462 301.218 o
7 8 9 79.349 105.574 31.856 116.235 o
7 9 0 124.529 141.325 36.508 86.217 o
7 9 1 66.209 97.840 32.613 112.140 o
7 9 2 11.732 22.121 22.878 234.214 o
7 9 3 34.444 85.779 29.098 142.689 o
7 9 4 32.699 40.780 25.636 185.048 o
7 9 5 70.817 118.771 32.235 113.757 o
7 9 6 31.088 55.924 26.015 179.329 o
7 9 7 22.079 21.364 22.878 233.616 o
7 9 8 59.053 51.651 26.394 172.080 o
7 10 3 5.492 3.516 23.311 226.091 o
7 10 4 46.655 59.007 29.531 138.675 o
7 10 5 57.592 79.992 31.045 124.515 o
7 10 6 57.295 76.855 29.909 134.036 o
8 -7 0 88.459 62.090 25.636 177.606 o
8 -6 0 155.628 140.514 33.371 99.304 o
8 -6 1 141.664 121.530 32.613 105.652 o
8 -6 2 137.255 124.612 33.371 101.534 o
8 -6 3 166.934 213.907 42.295 62.348 o
8 -5 0 441.935 376.163 41.916 45.170 o
8 -5 1 265.203 264.369 41.159 59.153 o
8 -5 2 191.410 155.279 34.182 91.423 o
8 -5 3 149.109 121.530 32.613 104.979 o
8 -5 4 342.930 337.762 50.083 39.083 o
8 -5 5 188.449 256.635 45.053 54.054 o
8 -4 0 517.508 515.162 45.432 34.886 o
8 -4 1 534.536 577.685 48.514 30.726 o
8 -4 2 275.502 258.960 40.780 59.619 o
8 -4 3 379.816 373.459 43.485 46.023 o
8 -4 4 415.488 441.768 47.000 38.496 o
8 -4 5 108.250 133.537 35.318 92.975 o
8 -4 6 116.257 133.537 32.992 105.048 o
8 -3 0 905.497 888.242 55.492 16.382 o
8 -3 1 421.739 460.806 42.295 43.557 o
8 -3 2 277.509 282.596 40.780 58.830 o
8 -3 3 270.739 278.755 40.780 59.326 o
8 -3 4 341.939 369.009 29.693 79.054 o
8 -3 5 139.923 144.095 23.452 186.457 o
8 -3 6 173.359 158.427 26.204 146.026 o
8 -3 7 144.761 191.786 38.833 74.538 o
8 -2 0 869.148 846.326 52.787 17.964 o
8 -2 1 593.348 625.442 46.189 29.780 o
8 -2 2 396.901 432.087 40.780 47.721 o
8 -2 3 199.975 225.513 36.129 79.654 o
8 -2 4 417.792 398.894 63.658 24.689 o
8 -2 5 518.929 526.927 76.693 16.679 o
8 -2 6 397.075 381.695 86.780 14.682 o
8 -2 7 221.810 225.739 78.207 19.236 o
8 -2 8 134.668 144.708 40.564 70.241 o
8 -1 0 114.882 106.007 25.258 173.964 o
8 -1 1 933.327 1002.360 55.492 15.218 o
8 -1 2 481.700 512.836 41.916 39.904 o
8 -1 3 252.625 264.583 38.238 67.451 o
8 -1 4 461.637 435.949 68.715 21.031 o
8 -1 5 438.431 419.427 99.192 11.316 o
8 -1 6 596.702 569.690 94.135 11.433 o
8 -1 7 226.681 231.870 52.787 40.009 o
8 -1 8 164.405 219.093 37.860 76.064 o
8 0 0 563.898 606.404 44.242 32.487 o
8 0 1 628.518 725.554 47.000 26.746 o
8 0 2 1047.100 1061.560 39.809 16.108 o
8 0 3 617.770 614.232 111.037 8.530 o
8 0 4 616.819 660.417 92.188 11.511 o
8 0 5 406.511 358.154 57.060 30.058 o
8 0 6 508.942 511.168 137.025 6.085 o
8 0 7 225.121 256.128 87.348 15.491 o
8 0 8 77.304 41.916 23.311 216.792 o
8 0 9 139.667 98.597 30.288 122.391 o
8 1 0 610.527 636.692 45.053 29.795 o
8 1 1 1109.750 1264.410 60.197 11.182 o
8 1 2 711.805 735.849 81.723 12.923 o
8 1 3 765.499 807.614 81.723 12.291 o
8 1 4 453.636 480.819 54.356 29.798 o
8 1 5 347.179 349.563 48.325 41.007 o
8 1 6 416.449 448.946 134.726 6.417 o
8 1 7 189.104 204.842 65.605 27.245 o
8 1 8 93.913 128.885 31.424 117.221 o
8 1 9 30.942 12.818 20.985 276.916 o
8 2 0 617.789 616.085 44.242 30.431 o
8 2 1 810.727 840.106 50.083 19.866 o
8 2 2 1011.840 1066.340 120.745 6.031 o
8 2 3 467.684 497.653 41.916 40.917 o
8 2 4 298.815 330.756 43.295 51.254 o
8 2 5 73.792 80.499 15.760 438.936 o
8 2 6 213.031 170.423 32.235 97.915 o
8 2 7 232.715 192.165 35.318 81.393 o
8 2 8 213.037 197.628 37.265 75.633 o
8 2 9 121.972 123.855 33.749 100.634 o
8 3 0 494.788 508.564 41.538 39.801 o
8 3 1 193.327 202.279 31.045 104.646 o
8 3 2 483.353 553.103 29.104 54.644 o
8 3 3 679.238 730.089 86.942 12.040 o
8 3 4 319.740 365.050 49.488 40.139 o
8 3 5 82.923 98.530 18.254 327.152 o
8 3 6 233.681 215.097 34.939 81.738 o
8 3 7 292.698 310.936 37.265 65.495 o
8 3 8 247.053 187.514 36.508 76.101 o
8 3 9 92.584 89.295 28.719 141.163 o
8 4 0 176.855 195.248 32.235 100.562 o
8 4 1 49.635 66.795 20.552 279.831 o
8 4 2 50.110 50.257 11.137 891.930 o
8 4 3 361.672 375.033 33.398 66.509 o
8 4 4 361.551 439.758 26.802 79.846 o
8 4 5 157.476 186.324 32.992 99.023 o
8 4 6 334.210 380.057 39.590 54.993 o
8 4 7 471.759 489.904 45.810 36.731 o
8 4 8 185.864 261.286 40.780 64.465 o
8 4 9 126.023 122.287 32.235 109.316 o
8 4 10 55.246 51.219 26.015 177.412 o
8 5 0 219.285 249.603 35.696 78.690 o
8 5 1 71.778 79.433 30.261 129.915 o
8 5 2 224.522 230.305 30.037 103.938 o
8 5 3 391.391 436.267 64.157 24.489 o
8 5 4 448.626 422.229 39.780 46.564 o
8 5 5 203.045 219.748 34.560 85.805 o
8 5 6 307.179 377.731 39.969 55.988 o
8 5 7 110.085 101.302 28.341 141.913 o
8 5 8 171.147 187.892 36.886 80.255 o
8 5 9 65.350 85.779 28.719 144.021 o
8 6 0 229.331 221.682 25.939 128.843 o
8 6 1 174.527 171.854 31.829 104.336 o
8 6 2 235.590 242.628 33.398 86.257 o
8 6 3 406.616 382.383 38.833 51.729 o
8 6 4 309.479 354.731 49.867 40.131 o
8 6 5 264.809 279.222 42.322 56.159 o
8 6 6 82.048 105.574 28.341 145.026 o
8 6 7 26.099 9.681 19.038 336.882 o
8 6 8 48.689 46.189 25.258 188.918 o
8 6 9 53.314 110.280 32.613 112.512 o
8 7 0 331.150 394.018 31.428 73.809 o
8 7 1 226.676 254.586 34.939 80.585 o
8 7 2 149.942 127.749 31.424 111.874 o
8 7 3 74.682 105.574 29.531 134.816 o
8 7 4 206.763 242.248 37.643 73.232 o
8 7 5 95.633 114.120 28.719 139.420 o
8 7 6 32.046 51.651 24.068 209.202 o
8 7 7 17.633 15.901 21.364 268.309 o
8 7 8 27.253 37.643 25.636 185.520 o
8 7 9 55.634 78.045 30.288 130.854 o
8 8 0 149.271 181.603 26.956 141.815 o
8 8 1 177.151 158.416 37.265 79.373 o
8 8 2 28.086 56.303 26.394 174.478 o
8 8 3 29.453 66.795 27.584 159.500 o
8 8 4 47.795 63.280 27.584 158.322 o
8 8 5 48.299 80.749 28.341 149.443 o
8 8 6 56.035 63.280 25.636 181.812 o
8 8 8 46.214 63.280 28.719 146.376 o
8 9 2 25.993 30.288 27.151 165.775 o
8 9 3 7.188 21.742 24.447 205.347 o
8 9 4 14.668 -2.326 22.500 242.496 o
8 9 5 45.763 69.500 30.666 128.519 o
8 9 6 53.999 69.121 29.909 134.506 o
9 -5 0 237.669 262.043 42.295 57.997 o
9 -5 1 271.526 224.021 41.538 59.009 o
9 -5 2 134.661 98.219 32.613 107.265 o
9 -4 0 493.054 427.057 45.810 37.119 o
9 -4 1 441.930 362.209 43.863 42.872 o
9 -4 2 192.076 186.756 38.022 74.771 o
9 -4 3 123.427 124.234 34.182 98.153 o
9 -4 4 184.115 168.854 37.643 77.185 o
9 -3 0 350.588 315.209 43.863 48.173 o
9 -3 1 324.245 321.050 44.242 48.613 o
9 -3 2 201.479 209.256 38.022 73.446 o
9 -3 3 210.275 231.755 40.348 65.151 o
9 -3 4 96.445 89.673 31.424 118.627 o
9 -3 5 161.199 148.467 24.746 164.518 o
9 -2 0 181.272 177.400 32.992 97.111 o
9 -2 1 247.662 285.732 40.780 60.437 o
9 -2 2 325.032 336.194 39.590 56.951 o
9 -2 3 190.761 169.287 34.182 90.856 o
9 -2 4 180.149 157.334 23.864 167.850 o
9 -2 5 212.263 196.503 26.988 127.679 o
9 -2 6 195.076 208.315 68.147 25.277 o
9 -1 0 185.225 191.029 34.560 88.677 o
9 -1 1 423.517 443.337 42.727 43.328 o
9 -1 2 476.165 464.701 43.863 39.103 o
9 -1 3 283.257 324.944 38.833 61.741 o
9 -1 4 299.594 276.938 74.529 20.411 o
9 -1 5 464.370 475.071 110.442 9.175 o
9 -1 6 283.777 246.115 56.303 34.404 o
9 -1 7 284.453 252.169 69.662 23.354 o
9 0 0 185.762 221.263 36.129 80.922 o
9 0 1 667.257 703.812 50.840 24.066 o
9 0 2 669.390 705.380 50.840 23.998 o
9 0 3 596.224 572.178 103.249 9.792 o
9 0 4 296.318 279.318 66.011 25.501 o
9 0 5 242.590 261.380 101.518 11.545 o
9 0 6 243.061 223.419 68.337 24.698 o
9 0 7 162.549 143.680 25.826 153.542 o
9 1 0 552.456 549.344 46.189 32.388 o
9 1 1 398.905 452.261 42.295 44.894 o
9 1 2 714.877 796.622 53.166 21.061 o
9 1 3 704.616 707.056 118.609 7.321 o
9 1 4 348.083 356.551 56.681 31.628 o
9 1 5 173.888 183.842 60.170 32.407 o
9 1 6 82.541 81.829 17.667 351.985 o
9 1 7 168.202 132.779 32.992 100.554 o
9 1 8 62.169 51.651 25.258 187.109 o
9 2 0 505.026 547.018 46.567 33.760 o
9 2 1 257.559 264.747 38.022 67.713 o
9 2 2 155.463 194.491 32.992 98.822 o
9 2 3 207.923 279.670 52.787 39.897 o
9 2 4 229.996 264.903 46.973 48.660 o
9 2 5 94.417 122.941 29.503 132.212 o
9 2 6 96.221 81.507 26.772 161.203 o
9 2 7 208.275 176.642 36.129 80.906 o
9 2 8 201.435 191.786 38.022 74.015 o
9 3 0 321.868 330.785 38.455 59.794 o
9 3 1 142.889 143.272 29.098 128.218 o
9 3 2 93.444 113.363 26.772 159.288 o
9 3 3 235.057 269.024 31.640 92.211 o
9 3 4 185.515 192.571 27.584 128.860 o
9 3 5 163.897 169.647 26.204 146.844 o
9 3 6 63.838 104.439 29.098 139.739 o
9 3 7 289.307 291.952 43.863 51.547 o
9 3 8 189.502 210.824 39.212 70.272 o
9 4 0 238.074 246.521 38.455 68.432 o
9 4 1 44.189 25.258 18.659 345.171 o
9 4 2 109.493 144.029 29.098 132.610 o
9 4 3 316.748 359.888 27.548 90.504 o
9 4 4 486.659 567.323 32.360 49.398 o
9 4 5 193.052 205.740 36.886 78.113 o
9 4 6 194.981 203.415 36.508 79.460 o
9 4 7 169.061 178.211 35.696 85.573 o
9 4 8 91.828 106.386 31.856 115.290 o
9 5 0 196.991 232.567 37.643 74.239 o
9 5 1 167.396 198.763 34.182 91.625 o
9 5 2 92.011 86.700 17.399 353.941 o
9 5 3 262.793 318.190 27.256 104.585 o
9 5 4 301.009 385.898 41.916 52.308 o
9 5 5 258.211 345.118 40.780 58.143 o
9 5 6 142.591 153.710 34.182 95.607 o
9 5 7 96.821 109.469 31.856 114.783 o
9 5 8 32.970 38.022 25.636 185.127 o
9 6 0 250.229 275.240 42.295 57.049 o
9 6 1 208.358 229.245 29.125 111.562 o
9 6 2 212.394 247.481 27.155 121.464 o
9 6 3 131.173 117.257 29.098 131.549 o
9 6 5 188.336 245.331 38.833 70.509 o
9 6 6 53.835 77.666 28.719 145.315 o
9 6 7 19.153 17.470 22.500 241.844 o
9 6 8 24.498 18.659 24.447 204.667 o
9 7 0 123.507 189.839 38.455 77.064 o
9 7 1 180.064 224.529 28.259 122.152 o
9 7 2 93.968 82.696 29.531 134.080 o
9 7 3 23.900 37.643 24.447 204.105 o
9 7 4 50.683 54.356 25.258 188.279 o
9 7 7 17.897 36.508 26.015 180.725 o
9 8 3 14.331 15.144 24.068 211.713 o
9 8 4 15.485 20.985 23.689 218.336 o
9 8 5 34.891 38.022 25.636 184.989 o
10 -3 0 179.362 175.885 36.886 80.105 o
10 -3 1 184.771 197.628 38.455 73.408 o
10 -3 2 193.572 244.195 43.485 57.616 o
10 -3 3 109.607 67.931 28.719 140.466 o
10 -2 0 73.321 77.666 27.962 151.259 o
10 -2 1 127.843 111.037 30.666 120.234 o
10 -2 2 269.509 258.149 42.295 56.512 o
10 -2 3 242.480 260.907 43.485 55.142 o
10 -2 4 84.887 72.204 28.719 142.834 o
10 -1 0 52.923 43.863 23.311 220.621 o
10 -1 1 205.486 190.596 37.265 76.407 o
10 -1 2 364.932 353.664 43.485 47.201 o
10 -1 3 310.021 335.437 46.567 45.135 o
10 -1 4 293.623 300.876 45.053 48.988 o
10 -1 5 145.658 137.657 32.397 105.821 o
10 0 0 210.151 180.537 35.696 82.290 o
10 0 1 320.425 357.179 43.106 49.900 o
10 0 2 258.695 257.392 41.538 58.806 o
10 0 3 267.985 310.936 44.620 50.648 o
10 0 4 181.899 158.892 25.826 147.561 o
10 0 5 192.032 183.906 44.458 56.569 o
10 0 6 79.562 69.113 19.398 301.266 o
10 1 0 352.793 315.642 45.432 45.564 o
10 1 1 283.760 255.823 40.780 59.237 o
10 1 2 297.631 326.513 40.348 57.327 o
10 1 3 217.236 203.793 38.022 72.588 o
10 1 4 177.819 197.668 46.784 51.751 o
10 1 5 85.912 85.993 21.742 239.510 o
10 1 6 56.832 47.319 17.424 384.824 o
10 2 0 249.672 276.430 42.295 57.047 o
10 2 1 189.179 182.484 35.696 83.874 o
10 2 2 85.611 93.946 28.341 145.276 o
10 2 3 228.309 235.389 35.507 79.210 o
10 2 4 221.335 239.220 27.548 118.034 o
10 2 5 168.418 174.521 42.132 63.544 o
10 2 6 44.602 41.916 24.068 208.385 o
10 3 0 190.783 151.006 34.182 91.668 o
10 3 1 106.962 109.469 29.909 128.268 o
10 3 2 31.909 43.485 22.121 247.591 o
10 3 3 50.496 60.291 17.705 373.221 o
10 3 4 242.237 343.171 40.780 59.115 o
10 3 5 165.202 177.021 37.265 79.541 o
10 3 6 102.062 128.507 33.749 101.881 o
10 3 7 144.772 155.657 36.508 84.568 o
10 4 0 106.070 107.900 31.045 119.776 o
10 4 1 138.315 170.801 34.182 95.267 o
10 4 2 80.492 107.143 29.098 138.023 o
10 4 3 131.203 177.298 27.556 140.168 o
10 4 4 192.574 216.611 39.212 69.927 o
10 4 5 205.819 251.172 42.727 58.733 o
10 4 6 93.629 94.703 31.045 121.423 o
10 5 0 101.389 139.756 34.182 99.132 o
10 5 1 171.308 176.264 36.129 83.669 o
10 5 2 109.357 116.878 30.288 124.668 o
10 5 4 135.394 168.476 36.129 86.392 o
10 5 5 117.447 152.196 35.318 91.823 o
10 5 6 102.957 120.718 33.749 102.084 o
11 1 2 66.062 75.719 28.719 144.398 o
11 2 2 77.339 119.204 32.613 110.791 o
;
_olex2_submission_special_instructions 'No special instructions were received'
loop_
_space_group_symop_id
_space_group_symop_operation_xyz
1 x,y,z
2 -x,-y,-z
loop_
_atom_site_label
_atom_site_type_symbol
_atom_site_fract_x
_atom_site_fract_y
_atom_site_fract_z
_atom_site_U_iso_or_equiv
_atom_site_adp_type
_atom_site_occupancy
_atom_site_site_symmetry_order
_atom_site_refinement_flags_posn
_atom_site_refinement_flags_adp
_atom_site_refinement_flags_occupancy
C1 C 0.2393(9) 0.4945(8) 0.5363(8) 0.0536(15) Uani 1.000000 1 . . .
C2 C 0.1419(8) 0.4698(8) 0.6811(8) 0.0488(14) Uani 1.000000 1 . . .
C3 C 0.0392(8) 0.3521(8) 0.7402(8) 0.0476(14) Uani 1.000000 1 . . .
C4 C 0.0248(9) 0.2467(9) 0.6605(9) 0.0553(16) Uani 1.000000 1 . . .
C5 C 0.6302(9) 0.0678(9) 0.5220(10) 0.0618(18) Uani 1.000000 1 . . .
H5 H 0.7183(9) 0.1145(9) 0.5351(10) 0.074(2) Uiso 1.000000 1 R . .
C6 C 0.5153(10) 0.1570(9) 0.4324(10) 0.0618(18) Uani 1.000000 1 . . .
H6 H 0.5253(10) 0.2633(9) 0.3878(10) 0.074(2) Uiso 1.000000 1 R . .
C7 C 0.3836(8) 0.0886(8) 0.4080(8) 0.0488(14) Uani 1.000000 1 . . .
C8 C 0.2611(9) 0.1831(10) 0.3085(9) 0.0601(18) Uani 1.000000 1 . . .
H8a H 0.2516(9) 0.2888(10) 0.3113(9) 0.072(2) Uiso 1.000000 1 R . .
H8b H 0.1545(9) 0.1406(10) 0.3459(9) 0.072(2) Uiso 1.000000 1 R . .
C9 C 0.2415(10) 0.0913(9) 0.0954(10) 0.0634(19) Uani 1.000000 1 . . .
H9 H 0.1604(10) 0.0282(9) 0.1576(10) 0.076(2) Uiso 1.000000 1 R . .
C10 C 0.2889(14) 0.0879(12) -0.0473(13) 0.084(3) Uani 1.000000 1 . . .
H10 H 0.2443(14) 0.0189(12) -0.0812(13) 0.100(3) Uiso 1.000000 1 R . .
C11 C 0.4016(13) 0.1853(14) -0.1413(11) 0.088(3) Uani 1.000000 1 . . .
H11 H 0.4300(13) 0.1881(14) -0.2412(11) 0.106(4) Uiso 1.000000 1 R . .
C12 C 0.4722(13) 0.2786(14) -0.0860(13) 0.092(4) Uani 1.000000 1 . . .
H12 H 0.5537(13) 0.3421(14) -0.1467(13) 0.111(4) Uiso 1.000000 1 R . .
C13 C 0.4234(11) 0.2788(10) 0.0573(11) 0.071(2) Uani 1.000000 1 . . .
H13 H 0.4690(11) 0.3454(10) 0.0935(11) 0.085(3) Uiso 1.000000 1 R . .
N1 N 0.3180(9) 0.5159(9) 0.4227(8) 0.0709(18) Uani 1.000000 1 . . .
N2 N 0.0123(9) 0.1550(9) 0.6054(9) 0.0709(19) Uani 1.000000 1 . . .
N3 N 0.3105(7) 0.1845(7) 0.1474(7) 0.0507(13) Uani 1.000000 1 . . .
Pt1 Pt 0.0 0.5 1.0 0.04262(14) Uani 1.000000 2 S T P
S1 S 0.1667(2) 0.5965(2) 0.7778(2) 0.0528(4) Uani 1.000000 1 . . .
S2 S -0.0818(2) 0.3185(2) 0.9135(2) 0.0549(4) Uani 1.000000 1 . . .
loop_
_atom_site_aniso_label
_atom_site_aniso_U_11
_atom_site_aniso_U_22
_atom_site_aniso_U_33
_atom_site_aniso_U_12
_atom_site_aniso_U_13
_atom_site_aniso_U_23
Pt1 0.03250(18) 0.0500(2) 0.03671(19) 0.00209(11) -0.00311(12) -0.00483(13)
S1 0.0509(9) 0.0551(8) 0.0443(9) -0.0099(7) 0.0046(7) -0.0083(7)
S2 0.0457(8) 0.0705(10) 0.0463(9) -0.0157(7) 0.0023(7) -0.0158(8)
N3 0.039(3) 0.056(3) 0.040(3) 0.006(2) -0.006(2) 0.004(2)
C3 0.037(3) 0.059(4) 0.042(3) 0.001(2) -0.005(2) -0.012(3)
C2 0.042(3) 0.059(3) 0.036(3) 0.002(3) -0.005(2) -0.005(3)
C4 0.043(3) 0.068(4) 0.048(4) -0.005(3) -0.002(3) -0.012(3)
C7 0.037(3) 0.060(3) 0.039(3) 0.005(2) -0.004(2) -0.006(3)
N1 0.062(4) 0.089(5) 0.046(4) 0.002(3) 0.005(3) -0.009(3)
N2 0.066(4) 0.082(4) 0.070(5) -0.017(3) 0.000(4) -0.031(4)
C1 0.047(3) 0.056(3) 0.045(4) 0.000(3) -0.005(3) -0.002(3)
C9 0.058(4) 0.067(4) 0.054(4) -0.003(3) -0.018(3) -0.001(3)
C8 0.043(3) 0.077(5) 0.050(4) 0.010(3) -0.008(3) -0.010(3)
C5 0.049(4) 0.067(4) 0.060(4) -0.015(3) -0.014(3) -0.001(3)
C6 0.058(4) 0.054(4) 0.062(5) -0.008(3) -0.016(3) 0.002(3)
C13 0.057(4) 0.074(5) 0.058(5) -0.010(4) -0.004(4) 0.008(4)
C10 0.088(7) 0.086(6) 0.070(6) 0.022(5) -0.034(5) -0.016(5)
C11 0.069(6) 0.122(8) 0.047(5) 0.045(6) -0.010(4) -0.009(5)
C12 0.060(5) 0.106(7) 0.066(6) 0.005(5) 0.010(5) 0.020(5)
loop_
_atom_type_symbol
_atom_type_scat_dispersion_real
_atom_type_scat_dispersion_imag
_atom_type_scat_Cromer_Mann_a1
_atom_type_scat_Cromer_Mann_a2
_atom_type_scat_Cromer_Mann_a3
_atom_type_scat_Cromer_Mann_a4
_atom_type_scat_Cromer_Mann_b1
_atom_type_scat_Cromer_Mann_b2
_atom_type_scat_Cromer_Mann_b3
_atom_type_scat_Cromer_Mann_b4
_atom_type_scat_Cromer_Mann_c
_atom_type_scat_source
_atom_type_scat_dispersion_source
H 0.00000 0.00000 0.49300 0.32291 0.14019 0.04081 10.51090 26.12570 3.14236
57.79970 0.0030380000826
'International Tables Volume C Table 6.1.1.4 (pp. 500-502)'
'Henke, Gullikson and Davis, At. Data and Nucl. Data Tables, 1993, 54, 2'
C 0.00347 0.00161 2.31000 1.02000 1.58860 0.86500 20.84390 10.20750 0.56870
51.65120 0.215599998832
'International Tables Volume C Table 6.1.1.4 (pp. 500-502)'
'Henke, Gullikson and Davis, At. Data and Nucl. Data Tables, 1993, 54, 2'
S 0.12424 0.12443 6.90530 5.20340 1.43790 1.58630 1.46790 22.21510 0.25360
56.17200 0.866900026798
'International Tables Volume C Table 6.1.1.4 (pp. 500-502)'
'Henke, Gullikson and Davis, At. Data and Nucl. Data Tables, 1993, 54, 2'
Pt -1.63788 8.57892 27.00590 17.76390 15.71310 5.78370 1.51293 8.81174 0.42459
38.61030 11.6883001328
'International Tables Volume C Table 6.1.1.4 (pp. 500-502)'
'Henke, Gullikson and Davis, At. Data and Nucl. Data Tables, 1993, 54, 2'
N 0.00653 0.00323 12.21260 3.13220 2.01250 1.16630 0.00570 9.89330 28.99750
0.58260 -11.5290002823
'International Tables Volume C Table 6.1.1.4 (pp. 500-502)'
'Henke, Gullikson and Davis, At. Data and Nucl. Data Tables, 1993, 54, 2'
loop_
_diffrn_refln_index_h
_diffrn_refln_index_k
_diffrn_refln_index_l
_diffrn_refln_intensity_net
_diffrn_refln_intensity_u
0 0 -1 1409.81 11.41
0 0 -1 1370.04 12.06
0 0 -2 1339.25 10.26
0 0 -2 1257.99 10.12
0 0 -3 568.34 8.33
0 0 -3 514.51 8.04
0 0 -4 281.73 6.89
0 0 -4 238.09 6.46
0 0 -5 228.62 7.03
0 0 -5 181.67 6.46
0 0 -6 61.44 4.38
0 0 -6 39.98 3.8
0 0 -7 107.67 6.17
0 0 -7 78.38 5.6
0 0 -8 84.63 6.1
0 0 -8 64.6 5.74
0 0 -9 182.68 9.26
0 0 -9 96.26 7.25
0 0 -10 81.61 7.25
0 0 -10 41.7 6.24
0 1 -10 26.13 5.46
0 1 -9 143.92 8.9
0 1 -9 80.03 6.6
0 1 -8 72.28 6.24
0 1 -8 38.9 4.67
0 1 -7 59.5 5.31
0 1 -7 35.82 4.52
0 1 -6 123.67 6.53
0 1 -6 70.85 4.74
0 1 -5 398.95 10.19
0 1 -5 243.83 7.25
0 1 -4 1607.84 18.23
0 1 -4 1012.15 12.63
0 1 -3 1263.74 14.36
0 1 -3 787.27 9.55
0 1 -2 481.71 7.68
0 1 -2 250.36 4.38
0 -1 1 1238.97 10.98
0 1 -1 1215.43 9.91
0 1 -1 562.67 4.38
0 -1 0 1178.75 11.2
0 1 0 1581.21 14.36
0 -1 -1 1056.51 4.38
0 -1 -1 1120.11 7.82
0 -1 -2 130.28 2.44
0 -1 -2 154.04 3.88
0 -1 -3 210.53 4.23
0 -1 -3 211.03 5.46
0 -1 -4 513.43 7.97
0 -1 -4 500.3 9.62
0 -1 -5 483.07 8.97
0 -1 -5 442.01 10.12
0 -1 -6 241.68 7.32
0 -1 -6 204.57 7.82
0 -1 -7 189.57 7.32
0 -1 -7 145.42 7.32
0 -1 -8 182.32 7.9
0 -1 -8 143.77 8.04
0 -1 -9 215.19 9.26
0 -1 -9 165.02 9.19
0 -1 -10 89.08 7.61
0 -1 -11 37.04 6.53
0 2 -10 28.28 5.81
0 2 -9 52.4 6.32
0 2 -8 142.34 8.83
0 2 -7 136.52 7.97
0 2 -7 75.8 5.31
0 2 -6 79.82 5.81
0 2 -6 40.34 3.73
0 2 -5 224.31 6.82
0 2 -4 1287.5 18.09
0 2 -4 580.12 9.33
0 2 -3 937.86 14
0 2 -3 438.86 6.89
0 -2 2 915.83 10.7
0 2 -2 875.49 12.06
0 2 -2 594.47 6.39
0 -2 1 185.48 4.45
0 2 -1 212.47 5.31
0 2 -1 238.52 3.16
0 -2 0 399.38 5.96
0 2 0 531.67 6.89
0 -2 -1 53.4 2.08
0 2 1 48.24 1.79
0 -2 -2 982.15 5.96
0 -2 -2 1041.8 10.7
0 -2 -3 61.59 1.94
0 -2 -3 73.93 3.59
0 -2 -4 643.28 7.46
0 -2 -4 656.78 11.41
0 -2 -5 881.08 10.48
0 -2 -5 871.04 14.57
0 -2 -6 757.91 11.27
0 -2 -6 697.55 14.36
0 -2 -7 318.2 8.4
0 -2 -7 288.62 10.26
0 -2 -8 117.29 5.96
0 -2 -8 96.76 6.89
0 -2 -9 189.5 9.98
0 -2 -10 93.46 8.04
0 -2 -11 26.13 5.6
0 -2 -12 4.38 3.95
0 3 -10 14 5.02
0 3 -9 82.04 7.97
0 3 -8 153.46 9.69
0 3 -7 462.83 15
0 3 -6 240.1 10.26
0 3 -5 348.34 11.41
0 3 -5 231.27 6.75
0 3 -4 315.25 10.05
0 3 -4 228.9 5.81
0 -3 3 507.05 10.05
0 3 -3 496.78 11.48
0 3 -3 416.82 6.6
0 -3 2 338.37 7.54
0 3 -2 359.97 8.9
0 3 -2 379.78 5.17
0 -3 1 16.94 2.23
0 3 -1 18.95 2.3
0 -3 0 925.87 11.13
0 3 0 1185 12.56
0 -3 -1 301.4 5.38
0 3 1 263.72 5.17
0 -3 -2 1201.36 12.49
0 3 2 1132.67 8.76
0 -3 -3 460.96 4.95
0 -3 -3 525.92 9.55
0 -3 -4 145.5 3.16
0 -3 -4 174.78 6.24
0 -3 -5 638.4 7.68
0 -3 -5 675.87 13.42
0 -3 -6 764.37 9.98
0 -3 -6 790.5 15.79
0 -3 -7 311.3 7.46
0 -3 -7 294.8 10.7
0 -3 -8 34.88 5.17
0 -3 -9 59.65 6.32
0 -3 -10 64.31 7.03
0 -3 -11 13.85 4.67
0 -3 -12 10.62 4.74
0 4 -9 36.03 6.82
0 4 -8 80.18 7.9
0 4 -7 129.78 8.97
0 4 -6 225.96 10.77
0 4 -5 40.91 5.46
0 4 -4 144.49 7.61
0 -4 3 485.58 10.91
0 4 -3 440.58 11.84
0 4 -3 512.93 7.03
0 -4 2 253.52 7.46
0 -4 1 111.83 4.88
0 4 -1 128.48 5.6
0 -4 0 219.64 6.53
0 4 0 265.73 7.11
0 -4 -1 933.34 10.34
0 -4 -1 705.01 11.48
0 4 1 774.85 10.62
0 -4 -2 1797.63 16.37
0 4 2 1613.23 13.28
0 -4 -3 655.99 11.27
0 -4 -4 350.93 4.88
0 -4 -4 401.17 9.83
0 -4 -5 321.21 4.81
0 -4 -5 354.16 10.12
0 -4 -6 418.9 6.32
0 -4 -6 418.47 11.99
0 -4 -7 209.02 9.26
0 -4 -8 14.93 3.88
0 -4 -9 53.69 5.89
0 -4 -10 24.33 5.24
0 -4 -11 33.02 6.46
0 -4 -12 20.74 5.89
0 5 -9 16.94 5.46
0 5 -8 22.39 5.67
0 5 -7 100.13 8.54
0 5 -6 25.12 5.17
0 5 -5 21.46 4.52
0 -5 4 77.95 5.67
0 5 -4 67.76 6.03
0 -5 3 306.93 9.62
0 5 -3 311.09 10.98
0 -5 2 517.17 11.77
0 5 -2 526.86 13.21
0 -5 1 254.24 8.04
0 5 -1 267.81 8.83
0 -5 0 646.08 8.11
0 -5 0 432.54 10.19
0 5 0 516.23 11.13
0 -5 -1 465.27 8.04
0 -5 -1 332.34 9.04
0 5 1 368.37 8.54
0 -5 -2 1715.37 17.16
0 5 2 1510.01 15.29
0 -5 -3 548.82 10.91
0 5 3 495.06 7.9
0 -5 -4 152.39 3.95
0 -5 -4 171.34 6.96
0 -5 -5 122.74 6.46
0 -5 -6 125.61 6.96
0 -5 -7 33.95 5.02
0 -5 -8 46.94 5.31
0 -5 -9 29.21 5.38
0 -5 -10 28.78 5.67
0 -5 -11 52.25 7.82
0 -5 -12 28.93 6.53
0 6 -8 10.55 4.74
0 6 -7 81.68 8.4
0 6 -6 64.24 7.18
0 6 -5 38.62 6.17
0 -6 4 62.52 5.81
0 6 -4 58.79 6.17
0 -6 3 148.08 7.61
0 6 -3 129.35 8.04
0 -6 2 267.66 9.47
0 6 -2 247.85 10.05
0 -6 1 257.26 8.97
0 6 -1 261.99 9.62
0 -6 0 311.88 6.24
0 -6 0 217.42 8.18
0 6 0 244.48 8.61
0 -6 -1 125.33 4.74
0 -6 -1 95.61 5.74
0 6 1 99.56 5.31
0 -6 -2 308.36 7.97
0 -6 -2 252.09 8.97
0 6 2 259.77 7.54
0 -6 -3 200.91 7.18
0 6 3 182.61 5.81
0 -6 -4 82.55 5.31
0 -6 -5 65.46 5.17
0 -6 -6 85.78 6.24
0 -6 -7 191 9.55
0 -6 -8 90.01 7.32
0 -6 -9 50.03 6.03
0 -6 -10 23.97 5.38
0 -6 -11 41.27 7.25
0 -6 -12 30.94 6.82
0 7 -7 26.49 6.32
0 7 -6 69.98 8.04
0 7 -5 65.03 7.32
0 -7 4 81.33 6.82
0 7 -4 65.1 6.89
0 -7 3 99.84 7.03
0 7 -3 80.68 7.03
0 -7 2 170.04 8.47
0 -7 1 140.33 7.61
0 7 -1 154.97 8.33
0 -7 0 127.34 7.11
0 7 0 123.75 7.03
0 -7 -1 33.74 3.09
0 -7 -1 30 4.45
0 7 1 29.86 4.09
0 -7 -2 131.57 5.81
0 -7 -2 104.37 6.53
0 7 2 106.95 5.67
0 -7 -3 107.45 5.74
0 -7 -3 87.71 6.24
0 7 3 98.48 5.02
0 -7 -4 153.82 7.25
0 -7 -5 25.48 4.23
0 -7 -6 68.05 5.89
0 -7 -7 177.65 9.55
0 -7 -8 95.9 7.82
0 -7 -9 54.05 6.6
0 -7 -10 13.93 4.74
0 -7 -11 14.93 5.24
0 8 -6 26.99 6.53
0 8 -5 70.06 8.11
0 8 -4 41.99 6.96
0 -8 3 34.88 5.74
0 8 -3 31.73 5.96
0 -8 2 44.65 5.46
0 8 -2 51.03 6.03
0 -8 1 88.5 6.82
0 8 -1 74.87 6.53
0 -8 0 44.43 5.24
0 8 0 41.92 4.95
0 -8 -1 6.53 3.01
0 8 1 7.25 2.66
0 -8 -2 68.12 4.67
0 -8 -2 49.53 5.38
0 8 2 49.67 4.59
0 -8 -3 166.1 7.39
0 -8 -3 138.39 8.25
0 8 3 141.48 6.68
0 -8 -4 126.19 7.03
0 -8 -4 106.95 7.54
0 -8 -5 68.98 5.89
0 -8 -6 66.18 6.1
0 -8 -7 32.16 5.46
0 -8 -8 68.69 7.03
0 -8 -9 24.19 5.53
0 -8 -10 5.53 3.73
0 -8 -11 7.18 4.38
0 9 -4 15.79 5.17
0 9 -3 10.91 4.45
0 -9 2 18.02 4.74
0 9 -2 14.71 4.31
0 -9 1 52.61 6.17
0 9 -1 52.9 6.17
0 -9 0 68.12 6.6
0 9 0 53.19 5.96
0 -9 -1 6.32 3.37
0 9 1 9.62 3.23
0 -9 -2 56.42 6.17
0 9 2 50.1 5.24
0 -9 -3 56.2 6.24
0 -9 -4 97.04 6.6
0 -9 -4 87.28 7.54
0 -9 -5 79.17 6.46
0 -9 -5 66.4 6.82
0 -9 -6 29.29 5.24
0 -9 -7 30.22 5.53
0 -9 -8 17.08 4.88
0 -9 -9 16.8 5.1
0 -9 -10 -0.14 3.23
0 10 -3 1.94 3.52
0 10 -2 6.68 4.02
0 -10 1 25.19 5.67
0 10 -1 18.3 4.95
0 -10 0 38.55 6.6
0 10 0 24.69 5.17
0 -10 -1 39.77 6.6
0 10 1 29.72 5.31
0 -10 -2 32.95 5.96
0 -10 -3 22.11 5.17
0 -10 -4 31.44 6.03
0 -10 -5 20.89 5.24
0 -10 -6 9.26 3.88
0 -10 -6 10.12 4.38
0 -10 -7 6.03 3.59
0 -10 -8 7.46 4.02
0 -10 -9 5.53 4.02
0 11 -1 6.46 4.02
0 -11 0 11.34 4.95
0 11 0 12.85 4.45
0 -11 -1 19.45 5.38
0 -11 -2 7.54 4.16
0 -11 -3 4.09 3.88
0 -11 -4 17.01 5.24
0 -11 -5 12.63 4.88
0 -11 -6 3.52 4.09
0 -11 -7 0.29 3.45
0 -11 -8 3.59 3.8
0 -12 -3 -0.22 3.52
0 -12 -4 0.57 3.59
0 -12 -5 7.03 4.59
1 -11 -8 2.87 4.16
1 -11 -6 4.74 4.09
1 -11 -5 20.31 5.74
1 -11 -4 13.49 4.81
1 -11 -3 12.99 4.88
1 -11 -2 6.46 4.02
1 -11 -1 11.84 4.67
-1 11 0 10.26 4.31
-1 11 -1 14 4.81
1 -10 -9 8.25 4.59
1 -10 -8 8.54 4.31
1 -10 -7 4.16 3.8
1 -10 -6 5.24 3.52
1 -10 -5 22.04 4.88
1 -10 -5 16.29 4.95
1 -10 -4 52.69 7.54
1 -10 -3 28.86 5.74
1 -10 -2 31.65 5.89
-1 10 1 16.15 4.31
1 -10 -1 13.85 4.45
-1 10 0 10.48 4.09
1 -10 0 7.68 3.88
-1 10 -1 22.9 5.38
-1 10 -2 12.63 4.67
-1 10 -3 4.81 4.02
1 -9 -10 4.67 3.95
1 -9 -9 5.96 4.09
1 -9 -8 32.44 6.24
1 -9 -7 51.61 7.11
1 -9 -6 31.37 5.53
1 -9 -5 48.74 5.67
1 -9 -4 53.19 5.6
1 -9 -4 42.21 6.39
1 -9 -3 71.85 6.75
-1 9 2 50.6 5.46
1 -9 -2 46.51 5.67
-1 9 1 16.22 4.02
1 -9 -1 17.08 4.31
-1 9 0 18.95 4.38
1 -9 0 23.97 4.81
-1 9 -1 49.1 6.1
1 -9 1 54.12 6.03
-1 9 -2 25.05 5.38
-1 9 -3 20.39 5.31
-1 9 -4 13.14 5.17
1 -8 -11 11.41 5.02
1 -8 -10 7.18 4.23
1 -8 -9 11.05 4.38
1 -8 -8 64.17 7.03
1 -8 -7 90.73 7.61
1 -8 -6 123.53 8.18
1 -8 -5 52.54 5.6
1 -8 -4 51.25 5.31
-1 8 3 98.7 6.03
1 -8 -3 122.6 7.03
1 -8 -3 93.17 6.89
-1 8 2 62.16 5.31
1 -8 -2 73.5 5.24
1 -8 -2 58.86 5.6
-1 8 1 7.32 2.87
1 -8 -1 15.72 3.8
-1 8 0 29.5 4.81
1 -8 0 32.66 5.02
-1 8 -1 84.34 6.96
1 -8 1 83.55 6.53
-1 8 -2 96.47 7.82
1 -8 2 90.37 6.89
-1 8 -3 38.98 6.46
-1 8 -4 37.68 6.6
-1 8 -5 23.33 5.96
-1 8 -6 29.79 6.75
1 -7 -11 28.42 6.39
1 -7 -10 24.91 5.89
1 -7 -9 28.5 5.74
1 -7 -8 63.81 6.75
1 -7 -7 75.44 6.82
1 -7 -6 51.82 5.53
1 -7 -5 23.26 4.23
1 -7 -4 42.21 3.73
1 -7 -4 46.3 4.74
-1 7 3 149.52 6.53
1 -7 -3 176.58 7.61
-1 7 2 171.98 7.32
1 -7 -2 210.46 7.68
1 -7 -2 159.99 7.82
-1 7 1 144.28 7.25
1 -7 -1 169.76 6.53
1 -7 -1 129.63 7.11
-1 7 0 78.74 5.89
1 -7 0 68.69 5.46
-1 7 -1 164.73 8.69
1 -7 1 159.35 7.82
-1 7 -2 236.58 10.77
1 -7 2 237.23 9.47
-1 7 -3 135.95 8.9
1 -7 3 138.75 7.68
-1 7 -4 66.75 7.03
-1 7 -5 44.07 7.03
-1 7 -6 18.3 5.38
-1 7 -7 36.68 7.25
1 -6 -11 35.96 6.96
1 -6 -10 63.02 7.32
1 -6 -9 18.45 4.81
1 -6 -8 60.72 6.24
1 -6 -7 95.75 7.18
1 -6 -6 96.04 6.82
1 -6 -5 67.4 3.73
1 -6 -5 87.57 6.1
1 -6 -4 77.02 4.16
1 -6 -4 87.43 5.67
-1 6 3 113.05 5.24
1 -6 -3 130.35 6.24
-1 6 2 478.98 10.77
1 -6 -2 558.51 11.56
-1 6 1 365.71 10.12
1 -6 -1 301.61 9.4
1 -6 0 209.24 7.82
-1 6 -1 184.62 8.4
1 -6 1 169.33 7.18
-1 6 -2 195.88 9.12
1 -6 2 184.26 7.54
1 -6 3 248.5 9.04
-1 6 -4 69.34 6.6
1 -6 4 71.64 5.74
-1 6 -5 49.89 6.89
-1 6 -6 26.34 5.74
-1 6 -7 62.88 7.61
-1 6 -8 22.04 6.1
1 -5 -12 21.75 6.17
1 -5 -11 32.44 6.46
1 -5 -10 30 5.96
1 -5 -9 25.98 5.31
1 -5 -8 46.08 6.32
1 -5 -7 35.32 5.24
1 -5 -6 261.99 6.46
1 -5 -6 301.9 10.91
1 -5 -5 320.49 6.96
1 -5 -5 377.77 11.34
1 -5 -4 79.96 3.8
1 -5 -4 89.51 5.31
-1 5 3 346.48 7.75
1 -5 -3 400.53 9.98
-1 5 2 472.95 9.55
-1 5 1 734.51 12.7
-1 5 0 262.78 8.33
1 -5 0 222.44 7.18
-1 5 -1 137.82 6.68
1 -5 1 111.19 5.24
-1 5 -2 133.58 7.03
1 -5 2 124.82 5.74
-1 5 -3 98.12 6.53
1 -5 3 101.42 5.6
-1 5 -4 194.52 9.47
1 -5 4 212.47 7.97
-1 5 -5 13.35 3.88
-1 5 -6 87.64 7.61
-1 5 -7 198.76 11.48
-1 5 -8 84.7 8.61
-1 5 -9 50.03 8.18
1 -4 -12 17.87 5.53
1 -4 -11 10.98 4.67
1 -4 -10 49.53 7.39
1 -4 -9 72.78 6.96
1 -4 -8 53.76 5.81
1 -4 -7 55.63 3.66
1 -4 -7 59.07 5.46
1 -4 -6 391.48 7.97
1 -4 -6 435.91 12.56
1 -4 -5 745.49 10.12
1 -4 -5 949.49 17.01
1 -4 -4 411.65 7.32
1 -4 -4 481.56 11.27
1 -4 -3 369.3 7.03
1 -4 -3 438.21 9.83
-1 4 2 1080.2 12.56
-1 4 1 694.68 10.91
-1 4 0 296.16 7.9
1 -4 0 233.64 6.39
-1 4 -1 132 5.81
1 -4 1 98.62 4.31
-1 4 -2 153.97 6.82
-1 4 -2 184.76 5.1
1 -4 2 155.47 5.53
-1 4 -3 493.69 12.7
-1 4 -3 550.11 9.12
1 -4 3 502.67 10.12
-1 4 -4 298.17 10.7
-1 4 -4 300.97 7.46
-1 4 -5 178.87 9.04
-1 4 -6 41.27 6.03
-1 4 -7 150.3 9.62
-1 4 -8 64.96 7.39
-1 4 -9 68.19 7.97
1 -3 -12 4.09 3.95
1 -3 -11 5.17 3.66
1 -3 -10 81.76 7.75
1 -3 -9 111.54 8.18
1 -3 -8 139.75 6.32
1 -3 -8 141.4 8.4
1 -3 -7 143.41 5.89
1 -3 -7 142.62 7.68
1 -3 -6 590.6 10.26
1 -3 -6 663.24 14.79
1 -3 -5 600.72 9.4
1 -3 -5 725.76 14.36
1 -3 -4 569.92 8.33
1 -3 -4 701.06 12.85
1 -3 -3 281.44 5.6
1 -3 -3 302.48 7.75
-1 3 1 600.21 8.76
-1 3 0 465.7 8.47
1 -3 0 388.25 6.89
-1 3 -1 133.36 5.24
1 -3 1 93.31 3.52
-1 3 -2 254.24 7.61
-1 3 -2 265.22 5.74
1 -3 2 238.74 5.74
-1 3 -3 668.48 13.35
-1 3 -3 618.45 9.4
1 -3 3 667.9 10.19
-1 3 -4 557.29 9.98
-1 3 -5 403.32 12.2
-1 3 -5 307.43 8.33
-1 3 -6 232.35 10.12
-1 3 -6 162.72 6.82
-1 3 -7 68.98 6.53
-1 3 -8 111.62 8.4
-1 3 -9 61.8 7.25
-1 3 -10 26.41 6.1
1 -2 -12 8.47 4.52
1 -2 -11 12.13 4.45
1 -2 -10 95.25 8.11
1 -2 -9 151.6 7.82
1 -2 -9 137.17 8.76
1 -2 -8 234.64 8.61
1 -2 -8 210.17 9.76
1 -2 -7 109.1 5.6
1 -2 -7 109.1 6.68
1 -2 -6 329.46 8.4
1 -2 -6 360.62 10.7
1 -2 -5 355.16 7.82
1 -2 -5 417.82 10.55
1 -2 -4 24.98 2.23
1 -2 -4 27.78 2.87
1 -2 -3 404.9 6.53
1 -2 -3 515.16 9.47
1 -2 -2 12.7 1.44
-1 2 1 2073.98 13.78
-1 2 0 3359.89 26.41
-1 2 -1 3216.69 25.91
-1 2 -1 3257.82 25.91
1 -2 1 2344.51 15.29
-1 2 -2 1147.81 14.07
-1 2 -2 1009.35 10.48
1 -2 2 1069.93 9.76
-1 2 -3 274.77 7.75
-1 2 -3 198.54 5.38
-1 2 -4 1131.02 17.01
-1 2 -4 682.83 10.98
-1 2 -5 270.25 7.9
-1 2 -6 101.06 6.53
-1 2 -6 51.25 4.23
-1 2 -7 206.58 9.55
-1 2 -7 122.45 6.68
-1 2 -8 65.03 6.39
-1 2 -8 35.1 4.88
-1 2 -9 110.83 8.4
-1 2 -10 21.46 5.31
-1 2 -11 11.2 4.81
1 -1 -11 28.78 5.96
1 -1 -10 81.04 7.61
1 -1 -9 214.91 9.55
1 -1 -9 174.35 9.47
1 -1 -8 244.33 9.4
1 -1 -8 221.15 9.76
1 -1 -7 78.6 5.24
1 -1 -7 68.55 5.46
1 -1 -6 122.38 5.74
1 -1 -6 123.82 6.32
1 -1 -5 322.29 8.04
1 -1 -5 351.07 9.26
1 -1 -4 874.77 11.63
1 -1 -4 1032.9 14.14
1 -1 -3 191.15 4.88
1 -1 -3 256.32 6.32
1 -1 -2 1296.04 10.62
1 -1 -1 21.1 1.51
-1 1 0 2031.05 16.87
-1 1 -1 3246.48 31.22
-1 1 -1 2821.48 24.19
1 -1 1 2445.5 13.06
-1 1 -2 336.86 6.6
-1 1 -2 206.44 4.74
-1 1 -3 555.35 9.62
-1 1 -3 230.91 5.74
-1 1 -4 1207.82 15.72
-1 1 -4 488.17 9.33
-1 1 -5 604.81 12.35
-1 1 -5 254.17 7.68
-1 1 -6 123.39 6.46
-1 1 -6 54.55 4.45
-1 1 -7 60.87 5.31
-1 1 -7 34.53 4.67
-1 1 -8 73.29 6.17
-1 1 -8 39.19 4.81
-1 1 -9 135.73 8.47
-1 1 -9 80.54 6.68
-1 1 -10 71.71 7.18
1 0 -10 37.9 6.03
1 0 -10 36.54 5.96
1 0 -9 75.87 6.6
1 0 -9 49.74 5.53
1 0 -8 225.67 9.69
1 0 -8 188.63 8.97
1 0 -7 41.56 4.45
1 0 -7 37.32 4.31
1 0 -6 76.73 5.17
1 0 -6 77.09 4.95
1 0 -5 182.53 6.75
1 0 -5 198.97 6.82
1 0 -4 825.53 12.49
1 0 -4 896.52 12.56
1 0 -3 2652.23 19.52
1 0 -3 3135.94 20.31
1 0 -2 183.39 4.52
1 0 -2 234.07 4.74
1 0 -1 1102.67 8.97
-1 0 0 1676.68 12.2
1 0 0 1550.71 14.28
-1 0 -1 1523.36 11.05
-1 0 -1 862.13 7.54
-1 0 -2 159.78 3.73
-1 0 -2 49.53 2.51
-1 0 -3 190.64 5.24
-1 0 -4 556.79 9.4
-1 0 -4 276.85 7.18
-1 0 -5 524.34 10.26
-1 0 -5 278.14 8.04
-1 0 -6 472.95 10.84
-1 0 -6 249.14 8.47
-1 0 -7 122.67 6.39
-1 0 -7 61.95 5.17
-1 0 -8 110.18 6.68
-1 0 -8 56.27 5.38
-1 0 -9 233.64 10.12
-1 0 -9 126.55 8.11
-1 0 -10 132.5 8.54
-1 0 -10 72.93 7.11
-1 0 -11 45.72 7.03
1 1 -11 5.1 4.02
1 1 -10 18.3 4.81
1 1 -9 32.59 5.53
1 1 -8 172.84 9.19
1 1 -8 129.2 7.25
1 1 -7 195.24 8.97
1 1 -7 148.58 7.11
1 1 -6 315.04 10.34
1 1 -6 250.65 8.25
1 1 -5 223.45 8.04
1 1 -5 200.48 6.6
1 1 -4 885.61 14.14
1 1 -4 810.53 11.41
1 1 -3 1896.25 18.45
1 1 -3 1989.99 15.07
1 1 -2 326.81 6.82
1 1 -2 378.92 5.38
-1 -1 1 1017.25 9.98
1 1 -1 847.13 9.19
-1 -1 0 3886.18 24.05
-1 -1 0 3221.36 27.92
1 1 0 3183.32 25.7
-1 -1 -1 614.5 6.24
-1 -1 -1 1199.5 8.4
1 1 1 1545.11 7.32
-1 -1 -2 1251.68 7.11
-1 -1 -3 52.69 2.15
-1 -1 -3 36.03 2.58
-1 -1 -4 141.12 4.16
-1 -1 -4 96.11 4.52
-1 -1 -5 215.91 5.89
-1 -1 -5 154.47 6.24
-1 -1 -6 368.37 8.61
-1 -1 -6 249.43 8.61
-1 -1 -7 471.8 10.84
-1 -1 -7 314.68 10.55
-1 -1 -8 77.16 5.38
-1 -1 -8 43.43 5.02
-1 -1 -9 158.06 7.82
-1 -1 -9 99.56 7.39
-1 -1 -10 55.2 6.39
-1 -1 -11 39.19 6.6
-1 -1 -12 6.89 4.23
1 2 -10 11.05 4.45
1 2 -9 51.39 6.39
1 2 -8 114.27 8.18
1 2 -7 175.28 9.19
1 2 -7 119.37 6.32
1 2 -6 271.9 10.41
1 2 -6 167.82 6.6
1 2 -5 246.2 9.12
1 2 -5 162.87 5.81
1 2 -4 765.66 14.43
1 2 -4 557.15 8.97
1 2 -3 677.16 12.35
1 2 -3 512 7.11
-1 -2 2 1230.22 14.14
1 2 -2 1066.92 13.78
1 2 -2 904.27 7.11
-1 -2 1 181.89 5.1
1 2 -1 170.91 4.95
-1 -2 0 14.28 0.93
-1 -2 0 15.43 1.87
1 2 0 21.32 1.79
-1 -2 -1 875.77 7.68
-1 -2 -1 970.02 10.05
1 2 1 1033.33 7.54
-1 -2 -2 480.77 7.25
-1 -2 -3 478.98 8.54
-1 -2 -4 612.49 6.24
-1 -2 -4 475.97 9.76
-1 -2 -5 437.71 6.82
-1 -2 -5 322.21 8.97
-1 -2 -6 907.43 11.48
-1 -2 -6 662.3 14
-1 -2 -7 504.96 9.91
-1 -2 -7 377.99 11.63
-1 -2 -8 161 6.53
-1 -2 -8 104.73 7.11
-1 -2 -9 48.45 5.74
-1 -2 -10 50.6 6.32
-1 -2 -11 36.82 6.53
-1 -2 -12 2.87 3.59
1 3 -10 51.03 7.9
1 3 -9 24.33 5.67
1 3 -8 159.99 9.91
1 3 -7 106.38 7.82
1 3 -6 208.01 9.83
1 3 -5 117.07 7.11
1 3 -5 65.32 3.73
1 3 -4 95.25 5.96
1 3 -4 50.75 2.87
-1 -3 3 799.83 13.78
1 3 -3 677.66 13.49
1 3 -3 399.52 5.6
-1 -3 2 607.46 11.13
1 3 -2 564.9 11.27
-1 -3 1 391.34 8.33
1 3 -1 383.23 8.4
-1 -3 0 103.86 4.23
1 3 0 118.79 4.23
-1 -3 -1 632.44 6.96
-1 -3 -1 551.05 9.19
1 3 1 596.98 7.54
-1 -3 -2 1698.36 14.21
1 3 2 1615.02 9.12
-1 -3 -3 1669.57 16.44
-1 -3 -4 411.01 9.33
-1 -3 -5 472.95 11.13
-1 -3 -6 570.64 7.32
-1 -3 -6 475.32 12.2
-1 -3 -7 359.32 7.11
-1 -3 -7 291.06 10.55
-1 -3 -8 19.67 4.02
-1 -3 -9 35.32 5.53
-1 -3 -10 36.61 6.03
-1 -3 -11 32.23 6.17
-1 -3 -12 9.55 4.67
1 4 -9 38.04 7.11
1 4 -8 56.06 6.96
1 4 -7 157.99 9.91
1 4 -6 352.65 13.42
1 4 -5 53.12 5.53
1 4 -4 34.88 4.81
-1 -4 3 183.25 7.46
1 4 -3 162.08 7.54
-1 -4 2 287.33 8.61
1 4 -2 264.07 8.69
-1 -4 1 176.65 6.46
1 4 -1 176.29 6.53
-1 -4 0 284.6 7.75
1 4 0 298.1 7.46
-1 -4 -1 344.47 5.67
-1 -4 -1 283.74 7.61
1 4 1 305.42 6.6
-1 -4 -2 1001.6 11.56
-1 -4 -2 908 13.57
1 4 2 929.61 9.47
-1 -4 -3 771.62 11.77
-1 -4 -4 383.08 9.4
-1 -4 -5 65.82 4.67
-1 -4 -6 405.33 11.7
-1 -4 -7 192.37 8.9
-1 -4 -8 37.61 5.46
-1 -4 -9 36.25 5.74
-1 -4 -10 21.32 5.02
-1 -4 -11 25.41 5.67
-1 -4 -12 22.32 5.96
1 5 -8 12.63 4.88
1 5 -7 37.68 6.46
1 5 -6 155.83 9.76
1 5 -5 45.79 5.6
-1 -5 4 71.78 5.96
1 5 -4 59 5.74
-1 -5 3 181.03 8.04
1 5 -3 175.64 8.54
-1 -5 2 355.52 10.41
1 5 -2 347.84 10.84
-1 -5 1 489.39 11.63
1 5 -1 495.56 11.84
-1 -5 0 218.14 7.68
1 5 0 246.99 7.75
-1 -5 -1 507.05 7.39
-1 -5 -1 426.01 10.48
1 5 1 445.89 9.26
-1 -5 -2 422.27 8.11
-1 -5 -2 359.83 9.76
1 5 2 361.19 7.32
-1 -5 -3 555.07 10.48
1 5 3 533.6 7.32
-1 -5 -4 138.46 6.03
-1 -5 -5 63.6 4.74
-1 -5 -6 67.97 5.38
-1 -5 -7 124.32 7.54
-1 -5 -8 111.9 7.54
-1 -5 -9 81.97 7.25
-1 -5 -10 21.17 5.1
-1 -5 -12 20.24 5.67
1 6 -8 11.92 5.1
1 6 -7 19.16 5.31
1 6 -6 60.72 7.18
1 6 -5 63.52 6.82
-1 -6 4 126.4 7.9
1 6 -4 117.21 8.18
-1 -6 3 143.13 7.97
1 6 -3 142.19 8.33
-1 -6 2 306.57 10.62
1 6 -2 292 10.84
-1 -6 1 367.79 11.2
-1 -6 0 261.99 9.26
1 6 0 257.54 8.76
-1 -6 -1 87.21 3.52
-1 -6 -1 76.73 5.31
1 6 1 75.58 4.67
-1 -6 -2 189.71 5.89
-1 -6 -2 159.06 7.32
1 6 2 173.42 6.03
-1 -6 -3 276.35 7.97
-1 -6 -3 246.56 9.12
1 6 3 244.48 6.17
-1 -6 -4 172.7 7.03
1 6 4 170.91 4.31
-1 -6 -5 74.79 5.38
-1 -6 -6 20.74 3.95
-1 -6 -7 68.33 6.1
-1 -6 -8 117.65 8.04
-1 -6 -9 55.7 6.32
-1 -6 -10 29.5 5.74
-1 -6 -11 19.02 5.46
-1 -6 -12 23.33 6.17
1 7 -7 11.41 4.95
1 7 -6 50.75 7.82
1 7 -5 62.59 7.32
-1 -7 4 86.64 7.32
1 7 -4 74.58 7.32
-1 -7 3 71.85 6.53
1 7 -3 69.91 6.68
-1 -7 2 70.7 6.03
1 7 -2 67.83 6.24
-1 -7 1 203.78 9.26
1 7 -1 180.95 8.83
-1 -7 0 143.2 7.75
1 7 0 139.75 7.25
-1 -7 -1 47.16 4.81
1 7 1 36.54 3.95
-1 -7 -2 13.06 2.3
-1 -7 -2 7.82 2.8
1 7 2 9.83 2.37
-1 -7 -3 111.19 5.6
-1 -7 -3 100.49 6.6
1 7 3 90.23 4.67
-1 -7 -4 232.13 8.47
-1 -7 -4 234.29 9.98
-1 -7 -5 65.32 5.38
-1 -7 -6 105.37 6.96
-1 -7 -7 131.64 8.25
-1 -7 -8 88.93 7.39
-1 -7 -9 80.46 7.68
-1 -7 -10 8.4 3.95
-1 -7 -11 3.16 3.73
-1 -7 -12 2.37 3.95
1 8 -6 28.86 6.75
1 8 -5 37.61 7.11
-1 -8 4 62.38 6.96
1 8 -4 45.22 7.18
-1 -8 3 16.37 4.52
1 8 -3 16.44 4.59
-1 -8 2 24.33 5.02
1 8 -2 24.19 4.88
-1 -8 1 45.72 6.32
1 8 -1 38.47 5.67
-1 -8 0 115.64 7.61
1 8 0 104.01 7.03
-1 -8 -1 40.27 5.67
1 8 1 36.32 4.38
-1 -8 -2 23.54 4.52
1 8 2 24.26 3.73
-1 -8 -3 143.56 6.53
-1 -8 -3 115.78 7.68
-1 -8 -4 132.36 6.89
-1 -8 -4 113.98 7.82
-1 -8 -5 117.43 7.11
-1 -8 -5 109.75 7.82
-1 -8 -6 51.25 5.6
-1 -8 -7 47.59 5.67
-1 -8 -8 40.7 6.32
-1 -8 -9 37.68 6.39
-1 -8 -10 6.46 3.8
-1 -8 -11 2.23 3.66
1 9 -4 37.68 7.18
-1 -9 3 17.51 5.17
1 9 -3 14.71 4.81
-1 -9 2 4.16 3.52
1 9 -2 2.15 3.01
-1 -9 1 27.78 5.6
1 9 -1 25.84 4.95
-1 -9 0 47.16 6.68
1 9 0 27.78 4.95
-1 -9 -1 40.12 6.1
1 9 1 28.5 4.74
-1 -9 -2 40.12 6.03
1 9 2 31.37 4.52
-1 -9 -3 68.98 6.68
-1 -9 -4 70.06 6.82
-1 -9 -5 92.38 6.89
-1 -9 -5 76.88 7.25
-1 -9 -6 40.05 5.81
-1 -9 -6 31.3 5.81
-1 -9 -7 4.59 3.23
-1 -9 -8 13.28 4.45
-1 -9 -9 18.45 5.17
-1 -9 -10 8.18 4.45
-1 -9 -11 4.88 4.16
1 10 -3 7.82 4.52
-1 -10 2 9.47 4.67
1 10 -2 7.97 4.16
-1 -10 1 31.8 6.24
1 10 -1 23.83 5.31
-1 -10 0 43.43 7.03
1 10 0 30.79 5.53
-1 -10 -1 40.91 6.6
1 10 1 36.18 5.6
-1 -10 -2 30.72 5.89
-1 -10 -3 7.82 3.8
-1 -10 -4 15.65 4.88
-1 -10 -5 25.48 5.6
-1 -10 -6 11.34 4.31
-1 -10 -7 7.61 3.59
-1 -10 -7 5.81 3.95
-1 -10 -8 0.36 3.23
-1 -10 -9 17.3 5.24
-1 -10 -10 5.38 4.31
-1 -11 1 7.54 4.88
1 11 -1 3.45 3.66
-1 -11 0 26.2 6.24
-1 -11 -1 35.53 6.75
-1 -11 -2 16.15 5.1
-1 -11 -3 6.53 4.09
-1 -11 -4 -0.14 3.16
-1 -11 -5 7.46 4.16
-1 -11 -6 11.7 4.67
-1 -11 -7 2.01 3.88
-1 -11 -8 3.95 4.02
-1 -12 -3 1.51 3.8
-1 -12 -4 5.6 4.23
-1 -12 -5 6.89 4.59
-1 -12 -6 8.9 5.02
2 -11 -7 3.37 4.02
2 -11 -5 4.09 3.95
2 -11 -4 12.78 4.74
2 -11 -3 14.36 4.95
2 -11 -2 10.98 4.52
-2 11 0 8.11 4.31
2 -10 -8 7.11 4.31
2 -10 -7 23.9 5.67
2 -10 -6 22.75 5.38
2 -10 -5 27.06 5.46
2 -10 -4 26.7 5.6
2 -10 -3 35.32 6.24
2 -10 -2 22.97 5.31
-2 10 1 20.1 4.88
2 -10 -1 15.72 4.45
-2 10 0 5.24 3.59
-2 10 -1 25.77 5.74
-2 10 -2 24.12 5.96
2 -9 -9 4.02 3.95
2 -9 -8 24.12 5.67
2 -9 -7 38.11 6.53
2 -9 -6 33.59 6.03
2 -9 -5 26.63 5.17
2 -9 -4 30.22 5.1
2 -9 -3 65.96 6.17
2 -9 -3 46.51 6.6
-2 9 2 61.95 6.1
2 -9 -2 57.42 6.17
-2 9 1 21.53 4.59
2 -9 -1 19.6 4.52
-2 9 0 5.02 3.16
2 -9 0 3.23 2.94
-2 9 -1 27.42 5.46
-2 9 -2 43.21 6.82
-2 9 -3 18.88 5.31
-2 9 -4 21.32 5.81
2 -8 -10 18.38 5.6
2 -8 -9 18.73 5.24
2 -8 -8 39.98 6.68
2 -8 -7 73.65 7.32
2 -8 -6 100.13 7.97
2 -8 -5 37.9 5.67
2 -8 -4 11.7 2.94
2 -8 -4 17.51 3.95
-2 8 3 64.74 5.38
2 -8 -3 80.75 6.24
-2 8 2 69.84 5.89
2 -8 -2 84.77 6.24
2 -8 -2 57.57 5.67
-2 8 1 61.73 5.89
2 -8 -1 56.27 5.53
-2 8 0 35.46 5.46
2 -8 0 33.66 4.95
-2 8 -1 52.11 6.03
2 -8 1 59.86 5.67
-2 8 -2 74.87 7.32
-2 8 -3 80.46 7.82
-2 8 -4 31.08 6.32
-2 8 -5 34.24 6.96
2 -7 -11 26.06 6.46
2 -7 -10 29.07 6.24
2 -7 -9 29 5.96
2 -7 -8 33.09 5.96
2 -7 -7 62.23 6.6
2 -7 -6 141.76 8.69
2 -7 -5 50.25 4.31
2 -7 -5 57.14 5.74
2 -7 -4 39.41 4.02
2 -7 -4 47.37 5.02
-2 7 3 46.51 4.38
2 -7 -3 58.79 5.1
-2 7 2 100.06 6.24
-2 7 1 204.57 8.97
2 -7 -1 180.88 8.18
-2 7 0 59.29 5.6
2 -7 0 46.58 4.59
-2 7 -1 158.85 8.76
2 -7 1 134.37 7.03
-2 7 -2 68.98 6.53
2 -7 2 67.33 5.53
-2 7 -3 105.87 8.11
-2 7 -4 55.13 6.82
-2 7 -5 28.78 5.89
-2 7 -6 27.35 6.17
-2 7 -7 27.92 6.68
2 -6 -11 29.43 6.6
2 -6 -10 49.1 7.68
2 -6 -9 22.32 5.17
2 -6 -8 31.51 5.6
2 -6 -7 31.44 5.46
2 -6 -6 41.06 5.81
2 -6 -5 170.33 6.6
2 -6 -5 196.82 9.19
2 -6 -4 101.93 5.38
2 -6 -4 130.35 7.18
-2 6 2 333.27 9.83
-2 6 1 570.78 13.28
-2 6 0 241.89 9.26
2 -6 0 202.49 7.61
-2 6 -1 141.33 7.68
2 -6 1 113.2 5.81
-2 6 -2 189.5 9.26
2 -6 2 184.69 7.25
-2 6 -3 137.38 8.47
2 -6 3 140.11 6.6
-2 6 -4 147.43 9.12
-2 6 -5 39.55 6.32
-2 6 -6 9.04 4.23
-2 6 -7 22.9 5.89
-2 6 -8 42.71 7.61
2 -5 -11 20.53 5.74
2 -5 -10 24.91 5.81
2 -5 -9 35.17 6.17
2 -5 -8 38.76 5.96
2 -5 -7 28.5 4.95
2 -5 -6 138.32 5.89
2 -5 -6 185.84 9.19
2 -5 -5 350.42 8.76
2 -5 -5 426.51 12.56
2 -5 -4 357.53 8.76
2 -5 -4 427.51 11.92
2 -5 -3 205.93 6.89
-2 5 2 385.95 9.69
-2 5 1 780.45 14.14
-2 5 0 269.67 8.9
2 -5 0 219.5 6.96
-2 5 -1 197.97 8.18
2 -5 1 162.08 6.03
-2 5 -2 25.55 4.16
2 -5 2 19.74 2.87
-2 5 -3 273.91 10.7
2 -5 3 270.89 7.75
-2 5 -4 146.21 8.54
-2 5 -5 111.26 8.04
-2 5 -6 33.74 5.96
-2 5 -7 66.68 7.54
-2 5 -8 63.88 7.9
-2 5 -9 27.63 6.53
2 -4 -11 8.18 4.38
2 -4 -10 13.28 4.59
2 -4 -9 74.94 7.25
2 -4 -8 95.75 7.61
2 -4 -7 30.86 3.45
2 -4 -7 35.24 5.31
2 -4 -6 343.46 8.83
2 -4 -6 402.89 12.49
2 -4 -5 455.51 9.69
2 -4 -5 548.89 13.64
2 -4 -4 393.92 8.76
2 -4 -4 461.54 11.7
2 -4 -3 151.09 5.53
-2 4 1 686.06 12.06
-2 4 0 409.93 9.83
-2 4 -1 656.78 13.21
2 -4 1 487.81 8.61
-2 4 -2 69.77 5.02
-2 4 -2 81.61 4.31
2 -4 2 61.87 3.45
-2 4 -3 168.32 7.9
-2 4 -3 171.41 6.24
2 -4 3 163.15 5.46
-2 4 -4 418.11 12.85
-2 4 -4 409.86 9.91
-2 4 -5 150.38 8.54
-2 4 -5 136.74 6.46
-2 4 -6 225.74 10.84
-2 4 -7 104.73 8.25
-2 4 -8 160.5 10.48
-2 4 -9 65.68 8.83
2 -3 -11 3.88 3.59
2 -3 -10 61.95 7.11
2 -3 -9 164.59 9.91
2 -3 -8 222.8 8.61
2 -3 -8 228.76 10.7
2 -3 -7 166.46 6.96
2 -3 -7 202.13 9.47
2 -3 -6 167.1 6.46
2 -3 -6 195.31 8.69
2 -3 -5 770.98 12.49
2 -3 -5 949.71 17.08
2 -3 -4 457.81 9.12
2 -3 -4 579.25 12.49
2 -3 -3 368.44 7.9
2 -3 -2 147 5.1
-2 3 1 235.43 6.46
-2 3 0 199.26 6.32
-2 3 -1 448.47 9.91
2 -3 1 318.55 5.81
-2 3 -2 331.26 9.19
-2 3 -2 332.62 7.68
2 -3 2 276.42 5.38
-2 3 -3 532.89 12.35
-2 3 -3 479.2 9.69
2 -3 3 513.79 7.75
-2 3 -4 446.54 12.2
-2 3 -4 385.67 9.4
-2 3 -5 825.1 17.51
-2 3 -5 665.39 13.06
-2 3 -6 161.43 8.69
-2 3 -6 127.05 6.6
-2 3 -7 68.48 6.46
-2 3 -7 50.6 5.17
-2 3 -8 76.8 7.32
-2 3 -9 48.74 7.25
-2 3 -10 43.57 7.25
2 -2 -11 30.29 6.32
2 -2 -10 61.8 7.03
2 -2 -9 175 8.76
2 -2 -9 163.44 9.69
2 -2 -8 283.38 10.12
2 -2 -8 297.45 11.77
2 -2 -7 130.28 6.53
2 -2 -7 138.82 7.75
2 -2 -6 193.08 7.18
2 -2 -6 234.57 9.12
2 -2 -5 65.68 4.16
2 -2 -5 79.96 5.24
2 -2 -4 724.03 11.56
2 -2 -4 956.45 15.22
2 -2 -3 333.48 7.39
2 -2 -2 250.15 6.1
2 -2 -1 452.42 8.11
-2 2 0 182.17 5.38
-2 2 -1 1791.02 17.44
-2 2 -1 1770.57 15.86
-2 2 -2 397.15 8.9
-2 2 -2 364.28 7.68
2 -2 2 354.23 4.45
-2 2 -3 485.51 10.62
-2 2 -3 391.48 8.54
-2 2 -4 607.1 12.85
-2 2 -4 430.53 9.69
-2 2 -5 784.76 15.72
-2 2 -5 484.08 11.13
-2 2 -6 290.27 10.48
-2 2 -6 175.57 7.54
-2 2 -7 46.44 5.17
-2 2 -7 30.36 4.45
-2 2 -8 55.13 5.96
-2 2 -8 37.32 5.24
-2 2 -9 58.28 6.6
-2 2 -10 79.6 7.97
-2 2 -11 32.73 6.46
2 -1 -11 42.21 7.03
2 -1 -10 29.07 5.38
2 -1 -10 31.08 5.89
2 -1 -9 77.38 6.6
2 -1 -9 74.87 6.82
2 -1 -8 184.97 8.76
2 -1 -8 190.43 9.33
2 -1 -7 145.21 7.25
2 -1 -7 149.16 7.82
2 -1 -6 86.64 5.38
2 -1 -6 94.75 5.96
2 -1 -5 105.59 5.31
2 -1 -5 123.39 5.96
2 -1 -4 133.08 5.31
2 -1 -4 169.04 6.32
2 -1 -3 866.87 12.06
2 -1 -2 609.33 9.33
2 -1 -1 1240.62 12.42
2 -1 0 2658.61 29.5
-2 1 -1 9999 74.15
-2 1 -1 8702.1 68.84
-2 1 -2 1272.57 14
-2 1 -2 940.16 11.63
-2 1 -3 247.42 6.89
-2 1 -3 149.87 5.31
-2 1 -4 423.06 9.69
-2 1 -4 218.21 6.89
-2 1 -5 113.05 5.74
-2 1 -5 55.99 4.23
-2 1 -6 167.39 7.46
-2 1 -6 83.55 5.46
-2 1 -7 88.36 6.17
-2 1 -7 45.72 4.81
-2 1 -8 59.94 5.74
-2 1 -8 40.2 4.95
-2 1 -9 65.39 6.53
-2 1 -9 43 6.1
-2 1 -10 102.57 8.33
-2 1 -10 67.4 7.18
2 0 -10 15.29 4.45
2 0 -9 34.81 5.67
2 0 -9 32.3 5.31
2 0 -8 114.2 7.46
2 0 -8 110.32 7.25
2 0 -7 95.18 6.53
2 0 -7 99.49 6.46
2 0 -6 78.38 5.46
2 0 -6 84.27 5.38
2 0 -5 178.44 7.18
2 0 -5 185.48 6.89
2 0 -4 552.98 11.2
2 0 -4 678.02 11.63
2 0 -3 1435.29 16.29
2 0 -3 1877.45 17.3
2 0 -2 1934.73 17.08
2 0 -1 260.27 5.74
-2 0 0 1150.83 10.84
2 0 0 1066.7 10.62
-2 0 -1 1963.08 14.79
-2 0 -1 2146.4 13.49
2 0 1 2381.05 19.52
-2 0 -2 310.73 6.1
-2 0 -2 165.45 4.88
-2 0 -3 691.52 9.83
-2 0 -3 275.2 6.96
-2 0 -4 43.43 3.09
-2 0 -4 23.26 3.01
-2 0 -5 583.35 11.05
-2 0 -5 248.21 8.04
-2 0 -6 268.31 8.4
-2 0 -6 131.07 6.6
-2 0 -7 252.52 8.9
-2 0 -7 129.78 7.18
-2 0 -8 176.79 8.25
-2 0 -8 101.71 6.96
-2 0 -9 101.28 7.11
-2 0 -9 57.93 6.1
-2 0 -10 68.69 7.18
-2 0 -11 44.72 7.18
2 1 -10 13.06 4.59
2 1 -9 17.66 4.52
2 1 -8 83.05 6.89
2 1 -8 89.29 6.39
2 1 -7 141.69 8.11
2 1 -7 129.13 6.89
2 1 -6 271.9 10.12
2 1 -6 263.72 8.61
2 1 -5 81.68 5.46
2 1 -5 85.56 4.74
2 1 -4 745.93 13.93
2 1 -4 872.9 12.42
2 1 -3 1417.49 17.37
2 1 -3 1751.98 15.58
2 1 -2 848.5 12.2
-2 -1 1 1458.83 14.14
2 1 -1 1153.27 12.63
-2 -1 0 51.9 2.66
2 1 0 53.26 2.66
-2 -1 -1 304.99 5.67
-2 -1 -1 294.8 5.02
2 1 1 404.76 6.03
-2 -1 -2 229.62 5.6
-2 -1 -2 357.17 5.24
2 1 2 525.71 6.68
-2 -1 -3 822.08 8.97
-2 -1 -3 311.45 7.25
-2 -1 -4 380.21 6.96
-2 -1 -4 165.45 6.03
-2 -1 -5 434.41 8.4
-2 -1 -5 195.31 7.18
-2 -1 -6 837.51 12.92
-2 -1 -6 393.78 10.98
-2 -1 -7 463.04 10.77
-2 -1 -7 227.18 9.26
-2 -1 -8 225.89 8.4
-2 -1 -8 119.51 7.46
-2 -1 -9 83.62 6.03
-2 -1 -9 45.08 5.6
-2 -1 -10 68.33 6.96
-2 -1 -11 36.68 6.53
-2 -1 -12 16.58 5.6
2 2 -10 22.61 5.74
2 2 -9 30.08 5.89
2 2 -8 108.39 8.18
2 2 -7 363.63 13.21
2 2 -6 529.73 14.79
2 2 -6 455.87 10.7
2 2 -5 425.94 12.35
2 2 -5 414.81 9.26
2 2 -4 240.82 8.69
2 2 -4 245.91 6.32
2 2 -3 302.4 8.83
2 2 -3 340.09 6.32
-2 -2 2 495.06 10.12
2 2 -2 402.25 9.19
2 2 -2 541.07 6.75
-2 -2 1 262.57 6.82
2 2 -1 226.46 6.24
-2 -2 0 32.01 1.79
-2 -2 0 25.34 2.44
2 2 0 28.28 2.23
-2 -2 -1 561.96 7.39
-2 -2 -1 619.59 8.83
2 2 1 774.28 8.54
-2 -2 -2 72.42 3.3
-2 -2 -2 111.04 3.8
2 2 2 136.67 3.23
2 2 3 1620.41 10.12
-2 -2 -4 425.29 5.89
-2 -2 -4 213.33 6.89
-2 -2 -5 352.58 6.32
-2 -2 -5 190.43 7.18
-2 -2 -6 596.19 9.4
-2 -2 -6 332.55 10.26
-2 -2 -7 710.18 11.56
-2 -2 -7 397.51 12.13
-2 -2 -8 208.09 7.25
-2 -2 -8 102.43 7.11
-2 -2 -9 7.97 3.3
-2 -2 -10 35.17 5.96
-2 -2 -11 21.53 5.46
-2 -2 -12 8.61 4.67
2 3 -10 32.44 6.82
2 3 -9 60.22 8.18
2 3 -8 62.02 6.89
2 3 -7 114.42 8.33
2 3 -6 317.76 12.35
2 3 -5 233.71 9.98
2 3 -4 66.11 5.31
2 3 -4 50.82 2.87
-2 -3 3 91.37 5.53
2 3 -3 80.61 5.24
2 3 -3 67.62 2.58
-2 -3 2 801.27 13.93
2 3 -2 718.51 13.35
-2 -3 1 237.8 7.25
2 3 -1 234.14 7.03
-2 -3 0 201.34 3.52
-2 -3 0 159.64 5.67
2 3 0 163.08 5.24
-2 -3 -1 351.07 5.81
-2 -3 -1 422.92 8.61
2 3 1 444.02 7.39
-2 -3 -2 505.18 8.25
-2 -3 -2 762.79 11.34
2 3 2 717 7.68
-2 -3 -3 1000.24 13.21
2 3 3 1271.06 7.82
-2 -3 -4 464.98 10.19
-2 -3 -5 171.62 7.03
-2 -3 -6 288.91 5.1
-2 -3 -6 179.52 7.75
-2 -3 -7 381.07 7.11
-2 -3 -7 222.37 9.33
-2 -3 -8 95.9 6.96
-2 -3 -9 15.79 4.09
-2 -3 -10 28.28 5.46
-2 -3 -11 16.22 4.67
-2 -3 -12 18.02 5.38
2 4 -9 60.58 8.69
2 4 -8 32.37 6.32
2 4 -7 26.56 5.46
2 4 -6 113.41 8.25
2 4 -5 65.53 6.17
2 4 -4 22.04 4.09
-2 -4 3 192.87 8.25
2 4 -3 166.38 7.82
-2 -4 2 458.88 11.63
-2 -4 1 980.71 15.86
2 4 -1 937.14 15.15
-2 -4 0 363.27 9.33
2 4 0 372.46 8.69
-2 -4 -1 467.14 6.68
-2 -4 -1 584.21 11.41
2 4 1 578.9 9.55
-2 -4 -2 413.8 7.61
-2 -4 -2 524.27 10.7
2 4 2 486.88 7.46
-2 -4 -3 1222.82 14.93
-2 -4 -3 1529.32 18.38
2 4 3 1186.36 8.9
-2 -4 -4 309.65 8.54
-2 -4 -5 116.57 5.89
-2 -4 -6 32.59 3.88
-2 -4 -7 49.38 5.1
-2 -4 -8 26.56 4.74
-2 -4 -9 33.45 5.53
-2 -4 -10 27.92 5.6
-2 -4 -11 12.35 4.67
-2 -4 -12 34.67 7.03
2 5 -8 10.62 4.67
2 5 -7 16.58 4.81
2 5 -6 96.47 8.11
2 5 -5 66.54 6.6
-2 -5 4 99.92 7.03
2 5 -4 88.65 6.89
-2 -5 3 96.54 6.75
2 5 -3 81.04 6.24
-2 -5 2 327.38 10.77
2 5 -2 289.05 10.19
-2 -5 1 468.57 12.13
2 5 -1 462.61 11.77
-2 -5 0 473.17 11.7
2 5 0 454.22 10.7
-2 -5 -1 250.08 5.1
-2 -5 -1 340.88 9.83
2 5 1 309.51 7.97
-2 -5 -2 39.05 2.73
-2 -5 -2 43.35 3.95
2 5 2 36.54 2.8
-2 -5 -3 282.95 7.61
-2 -5 -3 307.64 9.26
2 5 3 267.66 5.38
-2 -5 -4 137.1 6.03
-2 -5 -5 65.53 4.88
-2 -5 -7 71.35 5.96
-2 -5 -8 160.86 8.97
-2 -5 -9 73.65 7.03
-2 -5 -10 28.57 5.6
-2 -5 -11 17.3 5.1
-2 -5 -12 14.14 5.02
2 6 -7 12.35 4.81
2 6 -6 46.73 7.11
2 6 -5 147 9.76
-2 -6 4 144.85 8.83
2 6 -4 119.15 8.47
-2 -6 3 139.54 8.18
2 6 -3 111.19 7.61
-2 -6 2 136.09 7.75
2 6 -2 119.94 7.39
-2 -6 1 230.34 9.4
2 6 -1 196.1 8.61
-2 -6 0 262.35 9.76
2 6 0 221.37 8.33
-2 -6 -1 118.51 3.66
-2 -6 -1 165.74 7.75
2 6 1 139.32 6.17
-2 -6 -2 27.13 2.66
-2 -6 -2 35.96 4.09
2 6 2 27.35 2.87
-2 -6 -3 74.08 4.38
-2 -6 -3 70.7 5.17
2 6 3 70.41 3.59
-2 -6 -4 141.4 6.46
-2 -6 -4 160.21 7.82
-2 -6 -5 156.76 7.32
-2 -6 -6 30.08 4.52
-2 -6 -7 108.89 7.25
-2 -6 -8 151.53 9.04
-2 -6 -9 79.89 7.39
-2 -6 -10 34.67 6.17
-2 -6 -11 8.4 4.31
-2 -6 -12 6.75 4.23
2 7 -6 43.57 7.46
-2 -7 4 170.55 10.05
2 7 -4 136.38 9.47
-2 -7 3 77.31 6.89
2 7 -3 62.23 6.46
-2 -7 2 44.14 6.1
2 7 -2 39.84 5.67
-2 -7 1 57.71 5.74
2 7 -1 51.03 5.24
-2 -7 0 75.01 6.17
2 7 0 68.98 5.46
-2 -7 -1 78.81 6.17
2 7 1 60.87 4.81
-2 -7 -2 2.66 1.36
-2 -7 -2 3.8 2.23
2 7 2 4.52 1.87
-2 -7 -3 103.22 5.24
-2 -7 -3 111.69 7.11
2 7 3 83.48 4.38
-2 -7 -4 160.35 7.03
-2 -7 -4 178.94 8.9
-2 -7 -5 193.59 8.4
-2 -7 -5 193.16 9.55
-2 -7 -6 73 5.96
-2 -7 -7 55.77 5.81
-2 -7 -8 47.45 5.89
-2 -7 -9 42.28 6.68
-2 -7 -10 21.39 5.24
-2 -7 -11 3.37 3.59
-2 -7 -12 5.24 4.02
2 8 -5 19.38 5.6
-2 -8 4 51.18 7.61
2 8 -4 48.67 7.46
-2 -8 3 41.7 6.46
2 8 -3 38.9 6.39
-2 -8 2 8.83 3.73
2 8 -2 6.53 3.3
-2 -8 1 39.48 6.03
2 8 -1 28.07 4.95
-2 -8 0 101.14 7.54
2 8 0 74.72 6.17
-2 -8 -1 99.27 7.32
2 8 1 78.45 5.81
-2 -8 -2 29.5 5.1
-2 -8 -3 84.84 6.96
-2 -8 -4 116.21 6.46
-2 -8 -4 119.87 8.04
-2 -8 -5 89.94 6.39
-2 -8 -5 95.61 7.46
-2 -8 -6 106.09 7.18
-2 -8 -6 119.37 8.47
-2 -8 -7 26.63 4.95
-2 -8 -8 15.29 4.38
-2 -8 -9 14.28 4.67
-2 -8 -10 10.34 4.31
-2 -8 -11 1.94 3.59
-2 -9 4 19.45 5.67
2 9 -4 16.87 5.46
-2 -9 3 22.32 5.67
2 9 -3 12.92 4.67
-2 -9 2 4.88 3.73
2 9 -2 8.04 3.88
-2 -9 1 15.65 4.74
2 9 -1 12.56 4.02
-2 -9 0 74.51 7.18
2 9 0 57.49 6.1
-2 -9 -1 96.83 7.97
2 9 1 63.74 5.89
-2 -9 -2 70.41 6.89
-2 -9 -3 65.32 6.68
-2 -9 -4 22.47 5.02
-2 -9 -5 63.24 5.81
-2 -9 -5 63.74 6.75
-2 -9 -6 17.01 4.09
-2 -9 -6 17.8 4.67
-2 -9 -7 17.23 4.31
-2 -9 -7 19.24 5.1
-2 -9 -8 1.58 2.94
-2 -9 -9 2.66 3.45
-2 -9 -10 9.55 4.52
-2 -9 -11 6.17 4.45
-2 -10 3 16.87 5.81
2 10 -3 20.89 6.03
-2 -10 2 19.24 5.6
2 10 -2 12.49 4.67
-2 -10 1 16.94 5.24
2 10 -1 9.62 4.02
-2 -10 0 15.22 4.88
2 10 0 8.69 3.73
-2 -10 -1 47.16 7.25
-2 -10 -2 33.02 6.1
-2 -10 -3 17.59 4.74
-2 -10 -4 7.46 3.8
-2 -10 -5 17.3 4.88
-2 -10 -6 25.55 5.74
-2 -10 -7 3.37 3.23
-2 -10 -7 7.46 4.09
-2 -10 -8 4.88 3.45
-2 -10 -8 3.59 3.73
-2 -10 -9 6.82 4.31
-2 -10 -9 7.03 4.59
-2 -10 -10 15.58 5.38
-2 -11 1 14 5.38
2 11 -1 13.21 4.88
-2 -11 0 10.98 5.1
-2 -11 -1 16.72 5.46
-2 -11 -2 11.7 4.81
-2 -11 -3 5.89 4.09
-2 -11 -4 3.59 3.73
-2 -11 -5 4.23 3.88
-2 -11 -6 15.22 5.31
-2 -11 -7 9.33 4.67
-2 -11 -8 4.95 4.23
-2 -12 -3 5.96 4.67
-2 -12 -4 4.38 4.16
-2 -12 -5 8.97 4.81
-2 -12 -6 6.24 4.59
3 -11 -5 5.02 4.23
3 -11 -4 8.76 4.74
3 -10 -8 4.52 4.09
3 -10 -7 26.06 6.24
3 -10 -6 31.87 6.39
3 -10 -5 12.06 4.59
3 -10 -4 20.31 5.02
3 -10 -4 13.71 4.74
3 -10 -3 21.03 5.17
-3 10 1 18.38 4.88
-3 10 0 8.83 4.31
-3 10 -1 4.52 3.8
-3 10 -2 27.28 6.46
3 -9 -9 9.12 4.74
3 -9 -8 10.19 4.67
3 -9 -7 45.87 7.39
3 -9 -6 49.53 7.32
3 -9 -5 55.41 6.68
3 -9 -4 23.76 5.02
3 -9 -3 18.23 4.45
-3 9 2 42.35 6.17
3 -9 -2 59.43 6.17
3 -9 -2 48.31 5.89
-3 9 1 22.47 4.88
3 -9 -1 24.84 4.81
-3 9 0 9.69 4.02
-3 9 -1 19.24 4.95
-3 9 -2 21.46 5.38
-3 9 -3 26.99 6.32
-3 9 -4 12.42 5.17
3 -8 -10 19.81 5.81
3 -8 -9 14.79 5.1
3 -8 -8 19.74 5.6
3 -8 -7 32.3 6.17
3 -8 -6 48.24 6.89
3 -8 -5 39.84 6.17
3 -8 -4 16.01 3.66
3 -8 -4 24.12 4.81
3 -8 -3 34.02 5.02
3 -8 -3 40.48 5.74
-3 8 2 48.38 5.38
3 -8 -2 60.58 5.74
-3 8 1 121.74 8.11
3 -8 -1 97.76 6.75
-3 8 0 56.99 6.17
3 -8 0 50.03 5.24
-3 8 -1 47.3 6.6
-3 8 -2 67.69 7.25
-3 8 -3 71.2 7.75
-3 8 -4 59.72 8.47
-3 8 -5 20.53 5.81
3 -7 -10 33.23 6.89
3 -7 -9 37.9 6.96
3 -7 -8 12.42 4.52
3 -7 -7 42.64 6.53
3 -7 -6 42.42 6.32
3 -7 -5 60.65 5.17
3 -7 -5 59.72 6.24
3 -7 -4 60.37 5.31
3 -7 -4 76.73 6.53
3 -7 -3 44.72 4.81
-3 7 2 111.04 7.03
-3 7 1 186.27 9.12
3 -7 -1 158.2 7.82
-3 7 0 248.28 10.7
3 -7 0 206.72 8.4
-3 7 -1 51.54 5.81
-3 7 -2 87.57 7.39
-3 7 -3 80.54 7.61
-3 7 -4 77.45 7.75
-3 7 -5 39.48 6.96
-3 7 -6 13.93 5.1
3 -6 -11 15.29 5.46
3 -6 -10 12.63 4.88
3 -6 -9 32.3 6.53
3 -6 -8 15.36 4.67
3 -6 -7 32.8 5.6
3 -6 -6 31.44 3.95
3 -6 -6 38.33 5.74
3 -6 -5 164.88 7.39
3 -6 -5 192.22 9.62
3 -6 -4 202.99 8.18
3 -6 -3 68.48 5.1
-3 6 2 139.47 7.25
-3 6 1 288.98 10.34
-3 6 0 241.54 9.91
3 -6 0 201.91 7.54
-3 6 -1 206.15 9.55
3 -6 1 175.21 6.82
-3 6 -2 42.28 5.81
-3 6 -3 73.21 6.75
-3 6 -4 64.89 6.82
-3 6 -5 57.21 6.68
-3 6 -6 29.21 6.1
-3 6 -7 33.31 6.68
3 -5 -11 10.91 4.88
3 -5 -10 16.87 5.24
3 -5 -9 32.3 6.32
3 -5 -8 98.7 8.4
3 -5 -7 44.57 4.45
3 -5 -7 51.25 5.74
3 -5 -6 49.6 4.45
3 -5 -6 53.98 5.74
3 -5 -5 395.5 10.7
3 -5 -5 493.34 14.36
3 -5 -4 426.72 10.98
3 -5 -3 266.16 8.76
3 -5 -2 192.87 7.61
-3 5 1 319.63 9.98
-3 5 0 285.11 9.83
-3 5 -1 66.4 5.46
3 -5 1 52.33 3.59
-3 5 -2 139.39 7.75
3 -5 2 127.19 5.1
-3 5 -3 53.76 5.53
-3 5 -4 245.41 11.05
-3 5 -4 273.05 9.4
-3 5 -5 150.59 9.33
-3 5 -6 75.8 7.39
-3 5 -7 44.36 7.18
-3 5 -8 46.8 7.75
3 -4 -11 4.16 3.95
3 -4 -10 9.55 4.31
3 -4 -9 135.59 9.76
3 -4 -8 103.65 8.33
3 -4 -7 180.52 7.82
3 -4 -7 210.67 10.26
3 -4 -6 89.08 5.6
3 -4 -6 109.61 7.32
3 -4 -5 380.14 10.26
3 -4 -5 447.4 13.14
3 -4 -4 510.42 11.41
3 -4 -3 266.95 8.25
3 -4 -2 233.78 7.75
-3 4 1 122.17 5.96
-3 4 0 276.92 8.97
-3 4 -1 206.44 8.18
3 -4 1 155.62 4.88
-3 4 -2 94.89 6.03
-3 4 -2 96.61 5.46
3 -4 2 71.85 3.37
-3 4 -3 252.09 9.91
-3 4 -3 241.75 8.25
3 -4 3 230.19 5.46
-3 4 -4 239.1 10.19
-3 4 -4 234 8.54
-3 4 -5 351.21 12.85
-3 4 -5 343.1 10.7
-3 4 -6 211.17 10.7
-3 4 -6 209.24 9.04
-3 4 -7 67.4 7.11
-3 4 -8 50.82 7.46
-3 4 -9 28.35 6.39
3 -3 -11 16.01 5.53
3 -3 -10 27.78 5.96
3 -3 -9 110.54 8.61
3 -3 -8 177.51 8.54
3 -3 -8 216.27 10.98
3 -3 -7 164.01 7.68
3 -3 -7 190.64 9.62
3 -3 -6 127.62 6.46
3 -3 -6 157.7 8.25
3 -3 -5 154.04 6.68
3 -3 -5 208.8 8.9
3 -3 -4 164.01 6.53
3 -3 -3 139.25 5.81
3 -3 -2 153.03 6.03
3 -3 -1 217.63 7.18
-3 3 0 913.6 14.71
-3 3 -1 1829.43 21.46
-3 3 -2 1256.99 18.66
-3 3 -2 1262.09 17.01
3 -3 2 1002.89 8.61
-3 3 -3 375.47 10.98
-3 3 -3 328.96 9.19
-3 3 -4 223.16 9.12
-3 3 -4 212.32 7.9
-3 3 -5 332.91 11.7
-3 3 -5 293.43 9.69
-3 3 -6 201.2 9.76
-3 3 -6 164.01 7.97
-3 3 -7 62.16 6.32
-3 3 -7 40.84 5.02
-3 3 -8 52.83 6.53
-3 3 -9 28.64 5.89
-3 3 -10 29.57 6.46
3 -2 -11 42.85 7.39
3 -2 -10 42.49 6.89
3 -2 -9 85.99 6.96
3 -2 -9 84.56 7.61
3 -2 -8 135.81 7.9
3 -2 -8 160.93 9.26
3 -2 -7 217.92 9.04
3 -2 -7 254.17 10.7
3 -2 -6 17.8 3.3
3 -2 -6 25.63 4.23
3 -2 -5 147.29 6.6
3 -2 -5 191.22 8.11
3 -2 -4 150.74 6.24
3 -2 -3 588.8 11.41
3 -2 -2 593.75 11.05
3 -2 -1 407.13 9.04
-3 2 -1 807.8 13.21
-3 2 -1 791.43 12.63
-3 2 -2 2125.15 22.25
-3 2 -2 1917.57 20.03
-3 2 -3 154.61 6.68
-3 2 -3 124.68 5.67
-3 2 -4 279.43 9.26
-3 2 -4 215.26 7.75
-3 2 -5 476.4 12.78
-3 2 -5 325.09 9.98
-3 2 -6 197.82 9.04
-3 2 -6 140.33 7.39
-3 2 -7 63.09 5.96
-3 2 -7 44.57 5.17
-3 2 -8 63.67 6.39
-3 2 -8 44.07 5.89
-3 2 -9 35.24 5.96
-3 2 -9 26.13 5.1
-3 2 -10 67.47 7.68
3 -1 -10 31.8 5.81
3 -1 -10 28.64 5.81
3 -1 -9 48.95 6.6
3 -1 -9 47.88 6.6
3 -1 -8 53.48 5.67
3 -1 -8 62.09 6.32
3 -1 -7 184.76 8.76
3 -1 -7 229.33 9.98
3 -1 -6 46.01 4.59
3 -1 -6 51.97 4.88
3 -1 -5 46.15 4.09
3 -1 -5 61.95 4.74
3 -1 -4 319.42 9.12
3 -1 -3 784.04 13.21
3 -1 -2 2012.89 19.88
3 -1 -1 555.78 10.12
3 -1 0 360.33 8.04
-3 1 -1 1402.06 15.93
-3 1 -1 1297.19 15.29
-3 1 -2 400.81 8.9
-3 1 -2 317.12 7.97
-3 1 -3 401.46 9.4
-3 1 -3 292.21 8.18
-3 1 -4 191.86 7.11
-3 1 -4 122.74 5.81
-3 1 -5 308.29 9.55
-3 1 -5 162.44 7.18
-3 1 -6 331.62 10.48
-3 1 -6 189.57 8.25
-3 1 -7 239.6 9.76
-3 1 -7 134.37 7.61
-3 1 -8 91.23 6.82
-3 1 -8 64.82 6.17
-3 1 -9 91.45 7.39
-3 1 -9 54.77 6.17
-3 1 -10 100.35 8.4
-3 1 -10 69.05 7.39
3 0 -10 14.93 4.67
3 0 -9 13.64 4.16
3 0 -9 8.04 3.37
3 0 -8 55.92 5.96
3 0 -8 62.02 6.03
3 0 -7 232.35 10.12
3 0 -7 248.93 9.98
3 0 -6 320.28 10.98
3 0 -6 373.25 11.05
3 0 -5 438.35 11.84
3 0 -5 539.42 12.2
3 0 -4 184.04 7.32
3 0 -4 249.43 7.82
3 0 -3 1080.92 15.93
3 0 -2 1318 16.37
3 0 -1 184.69 5.89
-3 0 0 1049.48 12.85
3 0 0 990.69 12.7
-3 0 -1 681.4 10.62
3 0 1 769.25 10.98
-3 0 -2 914.82 12.2
-3 0 -2 638.47 10.84
-3 0 -2 765.81 6.03
-3 0 -3 250.51 6.82
-3 0 -3 136.67 5.6
-3 0 -4 207.23 6.6
-3 0 -4 94.1 5.17
-3 0 -5 102.14 5.24
-3 0 -5 47.09 4.16
-3 0 -6 244.19 8.4
-3 0 -6 128.63 6.96
-3 0 -7 385.67 11.13
-3 0 -7 200.98 9.12
-3 0 -8 275.56 10.26
-3 0 -8 146.79 8.54
-3 0 -9 45.29 5.38
-3 0 -9 32.44 5.67
-3 0 -10 50.96 7.18
-3 0 -11 35.89 6.6
3 1 -10 17.16 5.1
3 1 -9 27.63 5.53
3 1 -8 36.82 5.89
3 1 -7 228.76 10.62
3 1 -7 245.12 9.55
3 1 -6 248.64 10.26
3 1 -6 281.44 9.4
3 1 -5 459.1 12.78
3 1 -5 545.95 11.77
3 1 -4 264.86 9.12
3 1 -4 322.57 8.4
3 1 -3 583.71 12.35
3 1 -2 611.77 11.63
3 1 -1 785.4 12.2
-3 -1 0 83.55 3.8
3 1 0 83.84 3.95
-3 -1 -1 99.49 4.16
-3 -1 -1 78.24 3.23
3 1 1 98.91 4.02
-3 -1 -2 557.65 9.91
-3 -1 -2 521.33 7.03
3 1 2 870.75 10.98
-3 -1 -3 400.45 6.1
-3 -1 -4 561.74 9.55
-3 -1 -5 499.44 9.76
-3 -1 -5 236.08 8.4
-3 -1 -6 317.69 8.54
-3 -1 -6 147.94 7.32
-3 -1 -7 544.44 11.92
-3 -1 -7 278.07 10.55
-3 -1 -8 370.52 10.77
-3 -1 -8 197.68 9.69
-3 -1 -9 41.06 6.24
-3 -1 -10 18.66 4.74
-3 -1 -11 35.53 6.68
-3 -1 -12 15.5 5.46
3 2 -10 45.72 7.54
3 2 -9 61.66 7.46
3 2 -8 58.72 6.68
3 2 -7 134.01 8.83
3 2 -6 152.53 8.69
3 2 -5 210.02 9.33
3 2 -5 235.15 7.46
3 2 -4 149.52 7.39
3 2 -4 181.31 6.03
3 2 -3 62.95 4.67
3 2 -3 71.85 3.59
3 2 -2 686.13 13.06
-3 -2 1 809.38 13.06
3 2 -1 734.08 12.42
-3 -2 0 485.37 7.75
-3 -2 0 411.44 8.69
3 2 0 405.77 8.47
-3 -2 -1 136.74 4.59
-3 -2 -1 123.03 4.59
3 2 1 150.45 4.81
-3 -2 -2 741.83 11.13
-3 -2 -2 774.42 10.48
3 2 2 1188.01 12.2
-3 -2 -3 861.85 13.14
-3 -2 -3 1140.06 12.56
3 2 3 1617.39 13.78
-3 -2 -4 785.98 13.71
3 2 4 1538.79 13.71
-3 -2 -5 398.87 7.61
-3 -2 -5 194.16 7.61
-3 -2 -6 258.76 6.82
-3 -2 -6 132.72 7.03
-3 -2 -7 305.13 8.04
-3 -2 -7 146.57 7.97
-3 -2 -8 133.08 6.1
-3 -2 -8 68.48 6.1
-3 -2 -9 15.93 4.16
-3 -2 -10 16.37 4.59
-3 -2 -11 20.74 5.46
-3 -2 -12 20.31 5.81
3 3 -9 58.72 8.33
3 3 -8 45.15 7.03
3 3 -7 79.6 7.46
3 3 -6 143.63 8.9
3 3 -5 391.84 13.28
3 3 -4 15.86 3.45
3 3 -3 40.99 4.31
3 3 -3 44.79 2.66
-3 -3 2 231.63 8.4
3 3 -2 213.33 7.97
-3 -3 1 366.07 9.76
3 3 -1 337.07 9.12
-3 -3 0 649.45 8.33
-3 -3 0 512.5 10.77
3 3 0 518.1 10.19
-3 -3 -1 372.03 7.03
-3 -3 -1 330.11 8.25
3 3 1 391.12 8.04
-3 -3 -2 227.32 6.24
-3 -3 -2 264.15 7.25
3 3 2 308.86 6.46
-3 -3 -3 626.41 11.27
-3 -3 -3 773.34 12.06
3 3 3 944.18 10.05
-3 -3 -4 365.86 9.55
-3 -3 -4 575.59 10.62
3 3 4 618.23 7.68
-3 -3 -5 148.65 6.82
3 3 5 261.56 5.17
-3 -3 -6 54.48 4.88
-3 -3 -7 133.94 7.54
-3 -3 -8 101.42 7.18
-3 -3 -9 14.07 4.02
-3 -3 -10 34.74 6.1
-3 -3 -11 8.9 4.23
-3 -3 -12 14.07 5.17
3 4 -9 50.25 8.11
3 4 -8 27.63 6.03
3 4 -7 10.26 4.02
3 4 -6 68.91 6.89
3 4 -5 197.03 10.12
3 4 -4 77.38 6.32
-3 -4 3 113.55 7.03
3 4 -3 95.39 6.46
-3 -4 2 256.25 9.47
3 4 -2 220.22 8.69
-3 -4 1 540.85 12.78
3 4 -1 516.95 12.06
-3 -4 0 749.37 8.18
-3 -4 0 534.75 12.06
3 4 0 577.46 11.7
-3 -4 -1 385.16 7.03
-3 -4 -1 355.38 9.55
3 4 1 389.11 8.76
-3 -4 -2 362.27 7.82
-3 -4 -2 391.98 9.76
3 4 2 410.93 7.97
-3 -4 -3 128.41 5.31
-3 -4 -3 172.99 6.6
3 4 3 166.96 4.59
-3 -4 -4 307.93 8.9
-3 -4 -4 452.85 10.62
3 4 4 407.27 5.74
-3 -4 -5 43.57 4.16
-3 -4 -6 31.44 4.45
-3 -4 -7 48.88 5.17
-3 -4 -8 69.27 6.24
-3 -4 -9 101.28 7.82
-3 -4 -10 25.77 5.38
-3 -4 -11 17.94 5.1
-3 -4 -12 15.5 5.38
3 5 -8 15.07 5.17
3 5 -7 24.76 5.74
3 5 -6 20.39 4.95
3 5 -5 139.18 9.26
3 5 -4 151.81 9.04
-3 -5 3 222.73 10.05
3 5 -3 198.32 9.55
-3 -5 2 237.95 9.83
3 5 -2 223.52 9.4
-3 -5 1 314.53 10.7
3 5 -1 293.14 9.91
-3 -5 0 445.1 12.13
3 5 0 440.87 11.05
-3 -5 -1 176.22 4.81
3 5 1 166.6 6.39
-3 -5 -2 76.09 3.88
-3 -5 -2 90.3 5.46
3 5 2 75.8 4.09
-3 -5 -3 75.08 4.38
-3 -5 -3 102.57 5.89
3 5 3 85.85 3.73
-3 -5 -4 128.41 6.03
-3 -5 -4 180.95 7.61
-3 -5 -5 133.22 6.75
-3 -5 -5 211.89 8.4
-3 -5 -6 48.31 4.81
-3 -5 -7 15.5 3.66
-3 -5 -8 50.25 5.81
-3 -5 -9 67.26 6.75
-3 -5 -10 42.13 6.68
-3 -5 -11 10.7 4.38
-3 -5 -12 24.4 6.17
3 6 -7 14.64 5.1
3 6 -6 19.31 5.24
3 6 -5 73.36 7.54
3 6 -4 112.98 8.47
-3 -6 3 171.05 9.47
3 6 -3 142.84 8.83
-3 -6 2 90.44 6.96
3 6 -2 76.44 6.32
-3 -6 1 115.35 7.39
3 6 -1 109.32 6.82
-3 -6 0 201.41 9.12
3 6 0 192.44 8.18
-3 -6 -1 224.45 5.17
3 6 1 188.63 7.46
-3 -6 -2 20.17 2.58
-3 -6 -2 24.62 4.02
3 6 2 19.24 2.94
-3 -6 -3 16.51 2.73
-3 -6 -3 21.82 3.88
3 6 3 15.22 2.3
-3 -6 -4 97.4 5.53
-3 -6 -4 133.65 7.32
-3 -6 -5 178.87 7.9
-3 -6 -5 261.42 10.12
-3 -6 -6 93.03 6.39
-3 -6 -7 72.35 6.24
-3 -6 -8 86.85 7.25
-3 -6 -9 47.09 6.75
-3 -6 -10 41.34 6.75
-3 -6 -11 8.04 4.09
-3 -6 -12 -0.14 3.16
3 7 -6 11.13 4.74
3 7 -5 58.72 8.18
-3 -7 4 66.32 7.18
3 7 -4 56.49 7.68
-3 -7 3 86.06 7.54
3 7 -3 80.82 7.46
-3 -7 2 17.51 4.38
3 7 -2 19.31 4.38
-3 -7 1 12.78 3.88
3 7 -1 16.37 3.88
-3 -7 0 88.58 6.89
3 7 0 76.52 5.89
-3 -7 -1 136.45 7.97
3 7 1 122.53 6.75
-3 -7 -2 131.93 7.82
3 7 2 87.35 5.31
-3 -7 -3 18.59 3.01
-3 -7 -3 24.48 4.45
3 7 3 17.87 2.73
-3 -7 -4 161.72 7.25
-3 -7 -4 227.11 10.05
-3 -7 -5 102.14 6.46
-3 -7 -5 133.94 8.04
-3 -7 -6 97.12 6.82
-3 -7 -6 111.9 7.68
-3 -7 -7 47.88 5.53
-3 -7 -8 18.38 4.59
-3 -7 -9 28.28 5.6
-3 -7 -10 14.14 4.67
-3 -7 -11 1.94 3.23
-3 -7 -12 3.09 3.8
3 8 -5 14.86 5.24
-3 -8 4 30.58 6.39
3 8 -4 26.06 5.96
-3 -8 3 55.77 7.75
3 8 -3 44.22 6.89
-3 -8 2 26.13 5.53
3 8 -2 18.95 4.67
-3 -8 1 6.89 3.66
3 8 -1 6.24 3.01
-3 -8 0 43.28 6.39
3 8 0 30 4.88
-3 -8 -1 86.64 7.25
3 8 1 70.56 5.74
-3 -8 -2 62.09 6.32
3 8 2 32.87 4.38
-3 -8 -3 106.81 7.75
-3 -8 -4 42.42 4.38
-3 -8 -4 60.29 6.24
-3 -8 -5 84.48 6.1
-3 -8 -5 104.15 7.9
-3 -8 -6 70.92 6.24
-3 -8 -6 86.35 7.32
-3 -8 -7 18.81 4.38
-3 -8 -7 29.5 5.53
-3 -8 -8 7.46 3.52
-3 -8 -9 7.46 3.88
-3 -8 -10 15.72 5.1
-3 -8 -11 2.94 3.8
-3 -9 4 14.21 5.46
3 9 -4 9.69 4.67
-3 -9 3 34.88 6.89
3 9 -3 29.5 6.24
-3 -9 2 18.09 5.24
3 9 -2 21.1 5.31
-3 -9 1 26.56 5.74
3 9 -1 24.05 5.17
-3 -9 0 40.12 6.6
3 9 0 33.52 5.53
-3 -9 -1 60.87 6.89
3 9 1 55.84 5.74
-3 -9 -2 83.62 7.68
-3 -9 -3 37.25 6.24
-3 -9 -4 25.84 5.24
-3 -9 -5 12.78 4.16
-3 -9 -6 24.33 4.59
-3 -9 -6 32.52 5.89
-3 -9 -7 15.36 4.23
-3 -9 -7 15 4.52
-3 -9 -8 2.66 3.01
-3 -9 -8 7.25 3.95
-3 -9 -9 1.72 3.23
-3 -9 -9 0.93 3.52
-3 -9 -10 7.82 4.38
-3 -9 -11 10.91 4.88
-3 -10 2 21.82 6.03
3 10 -2 16.44 5.46
-3 -10 1 26.63 6.39
3 10 -1 22.39 5.53
-3 -10 0 13.57 4.95
3 10 0 12.78 4.23
-3 -10 -1 31.01 6.24
-3 -10 -2 46.08 7.18
-3 -10 -3 20.17 5.24
-3 -10 -4 6.75 3.59
-3 -10 -5 3.37 3.37
-3 -10 -6 11.27 4.45
-3 -10 -7 18.73 5.17
-3 -10 -8 5.74 3.8
-3 -10 -8 6.82 4.09
-3 -10 -9 5.31 3.88
-3 -10 -9 5.89 4.45
-3 -10 -10 11.13 5.02
-3 -10 -10 9.4 5.24
-3 -11 0 8.18 4.81
-3 -11 -1 11.13 5.02
-3 -11 -2 11.13 4.95
-3 -11 -3 20.39 5.67
-3 -11 -4 2.15 3.66
-3 -11 -5 0.72 3.45
-3 -11 -6 14.64 5.24
-3 -11 -7 11.41 5.17
-3 -11 -8 11.2 4.81
-3 -12 -4 9.4 4.88
-3 -12 -5 6.32 4.74
4 -10 -6 21.1 5.74
4 -10 -5 14.5 4.81
4 -10 -4 17.44 5.1
-4 10 1 22.75 5.6
-4 10 0 10.7 4.45
-4 10 -1 6.03 4.31
4 -9 -8 11.27 5.1
4 -9 -7 22.75 5.89
4 -9 -6 25.84 5.96
4 -9 -5 39.05 6.6
4 -9 -4 16.08 4.74
4 -9 -3 10.55 3.8
4 -9 -3 15.07 4.52
-4 9 1 25.55 5.38
-4 9 0 33.95 6.39
-4 9 -1 9.83 4.31
-4 9 -2 25.84 6.03
-4 9 -3 17.94 5.67
4 -8 -8 14.36 4.88
4 -8 -7 15.07 4.74
4 -8 -6 33.45 6.17
4 -8 -5 58.72 6.82
4 -8 -4 27.06 4.74
4 -8 -4 38.47 6.17
4 -8 -3 16.8 3.95
-4 8 1 36.46 5.74
-4 8 0 83.05 7.54
-4 8 -1 37.25 6.32
-4 8 -2 44.93 7.18
-4 8 -3 28.28 6.17
-4 8 -4 28.42 6.53
-4 8 -5 21.03 5.96
4 -7 -9 32.09 7.11
4 -7 -8 17.16 4.95
4 -7 -7 17.37 4.88
4 -7 -6 20.03 4.88
4 -7 -5 32.8 4.88
4 -7 -5 43 6.39
4 -7 -4 105.37 7.11
4 -7 -3 85.92 6.6
4 -7 -2 41.92 5.74
-4 7 1 170.91 9.33
-4 7 0 146.43 8.97
-4 7 -1 77.81 7.11
-4 7 -2 65.1 6.89
-4 7 -3 49.02 7.18
-4 7 -4 66.61 7.61
-4 7 -5 31.51 6.46
-4 7 -6 27.63 6.53
4 -6 -10 21.61 5.89
4 -6 -9 22.47 5.96
4 -6 -8 27.28 5.74
4 -6 -7 51.32 6.39
4 -6 -6 14.71 3.45
4 -6 -6 22.61 4.95
4 -6 -5 110.61 6.96
4 -6 -5 124.75 8.4
4 -6 -4 222.37 9.4
4 -6 -3 175.43 8.54
4 -6 -2 116.28 7.25
-4 6 1 103.51 7.11
-4 6 0 309.44 11.84
4 -6 0 267.81 8.61
-4 6 -1 57.35 5.89
-4 6 -2 78.38 6.89
-4 6 -3 25.34 5.1
-4 6 -4 77.66 7.46
-4 6 -5 95.61 8.47
-4 6 -6 38.83 7.03
-4 6 -7 25.48 6.17
4 -5 -10 4.88 3.95
4 -5 -9 25.84 6.1
4 -5 -8 75.8 7.75
4 -5 -7 68.41 5.81
4 -5 -7 71.64 6.96
4 -5 -6 56.42 5.17
4 -5 -6 63.52 6.39
4 -5 -5 160.43 7.9
4 -5 -4 267.88 9.83
4 -5 -3 161.79 7.75
4 -5 -2 79.03 5.67
-4 5 0 243.98 9.83
4 -5 1 245.99 6.89
-4 5 -2 220.36 10.12
-4 5 -3 63.6 6.24
-4 5 -4 109.25 8.04
-4 5 -4 113.12 7.25
-4 5 -5 108.1 8.4
-4 5 -6 97.83 8.47
-4 5 -7 55.99 7.9
-4 5 -8 48.09 7.9
4 -4 -10 17.87 5.6
4 -4 -9 50.53 7.82
4 -4 -8 165.95 8.9
4 -4 -8 181.67 10.77
4 -4 -7 141.69 7.82
4 -4 -7 162.79 9.55
4 -4 -6 92.38 6.24
4 -4 -6 109.53 7.68
4 -4 -5 145.78 7.39
4 -4 -4 272.04 9.55
4 -4 -3 296.88 9.83
4 -4 -2 129.78 6.68
4 -4 -1 128.34 6.68
-4 4 0 106.52 6.39
-4 4 -1 146.64 7.54
-4 4 -2 400.02 12.49
-4 4 -3 173.35 8.76
-4 4 -3 169.83 7.97
-4 4 -4 186.48 9.47
-4 4 -4 191.29 8.69
-4 4 -5 215.26 10.7
-4 4 -5 200.26 9.19
-4 4 -6 216.13 11.2
-4 4 -6 196.89 9.55
-4 4 -7 66.32 7.25
-4 4 -8 17.37 5.38
-4 4 -9 47.88 7.9
4 -3 -10 40.63 7.18
4 -3 -9 73.65 7.68
4 -3 -8 96.97 7.18
4 -3 -8 119.73 8.9
4 -3 -7 215.34 9.55
4 -3 -7 270.96 11.92
4 -3 -6 71.49 5.6
4 -3 -6 82.26 6.6
4 -3 -5 67.18 5.17
4 -3 -4 115.99 6.32
4 -3 -3 303.84 9.55
4 -3 -2 430.82 11.2
4 -3 -1 123.82 6.24
4 -3 0 350.42 10.26
-4 3 -1 127.62 6.68
-4 3 -2 668.48 14.07
-4 3 -3 282.81 10.26
-4 3 -3 261.78 9.19
-4 3 -4 173.49 8.61
-4 3 -4 162.87 7.75
-4 3 -5 232.85 10.26
-4 3 -5 209.02 9.12
-4 3 -6 317.91 12.49
-4 3 -6 254.6 10.48
-4 3 -7 91.23 7.68
-4 3 -7 71.2 6.6
-4 3 -8 36.1 6.24
-4 3 -8 29.79 5.38
-4 3 -9 23.9 5.74
-4 3 -10 38.33 7.18
4 -2 -10 41.2 7.03
4 -2 -9 21.89 4.81
4 -2 -9 25.98 5.6
4 -2 -8 75.37 6.6
4 -2 -8 91.45 7.82
4 -2 -7 116.5 7.46
4 -2 -7 158.77 9.04
4 -2 -6 177.01 8.4
4 -2 -6 219.79 9.83
4 -2 -5 69.19 5.31
4 -2 -5 94.17 6.39
4 -2 -4 71.85 5.1
4 -2 -3 305.35 9.47
4 -2 -2 502.74 11.63
4 -2 -1 788.92 14.28
4 -2 0 360.11 9.76
-4 2 -1 1284.7 18.45
-4 2 -1 1268.83 18.16
-4 2 -2 2033.13 23.9
-4 2 -2 1783.77 21.82
-4 2 -3 310.59 9.91
-4 2 -3 265.51 9.04
-4 2 -4 148.87 7.39
-4 2 -4 104.44 6.17
-4 2 -5 103 6.68
-4 2 -5 92.74 6.32
-4 2 -6 75.8 6.24
-4 2 -6 51.32 5.31
-4 2 -7 121.02 7.97
-4 2 -7 86.42 6.96
-4 2 -8 50.96 6.24
-4 2 -8 35.53 5.74
-4 2 -9 42.78 6.6
-4 2 -9 36.89 6.1
-4 2 -10 32.52 6.39
4 -1 -10 47.59 7.18
4 -1 -9 7.82 3.59
4 -1 -9 10.62 4.02
4 -1 -8 29.5 5.24
4 -1 -8 36.25 5.89
4 -1 -7 95.18 7.11
4 -1 -7 112.98 7.61
4 -1 -6 94.82 6.53
4 -1 -6 111.11 7.03
4 -1 -5 157.84 7.68
4 -1 -5 200.91 8.61
4 -1 -4 193.44 7.97
4 -1 -3 403.68 10.77
4 -1 -2 1384.76 18.88
4 -1 -1 861.56 14.5
-4 1 -1 344.25 9.19
-4 1 -2 1077.69 16.22
-4 1 -2 932.91 15.36
-4 1 -3 190.21 7.32
-4 1 -3 131.36 6.32
-4 1 -4 270.18 9.04
-4 1 -4 171.69 7.46
-4 1 -5 90.08 5.81
-4 1 -5 52.76 4.88
-4 1 -6 206.87 8.9
-4 1 -6 125.76 7.39
-4 1 -7 163.87 8.54
-4 1 -7 94.03 6.89
-4 1 -8 171.77 9.19
-4 1 -8 100.85 7.61
-4 1 -9 80.32 7.25
-4 1 -9 56.92 6.53
-4 1 -10 49.1 6.96
-4 1 -10 36.25 6.46
4 0 -10 36.32 6.68
4 0 -9 19.6 4.95
4 0 -8 19.95 4.81
4 0 -8 28.21 5.02
4 0 -7 98.48 7.32
4 0 -7 113.7 7.54
4 0 -6 163.66 8.61
4 0 -6 197.32 8.76
4 0 -5 226.39 9.4
4 0 -5 287.55 9.76
4 0 -4 150.38 7.32
4 0 -3 613.42 13.42
4 0 -2 920.42 15.58
4 0 -1 921.35 14.86
-4 0 0 636.89 11.7
4 0 0 614.5 11.77
-4 0 -1 102.57 5.1
4 0 1 96.33 4.81
-4 0 -2 265.15 8.11
4 0 2 326.52 8.54
-4 0 -3 580.69 11.48
-4 0 -3 376.84 10.05
-4 0 -4 569.42 11.92
-4 0 -4 305.2 9.62
-4 0 -5 247.35 8.4
-4 0 -5 114.77 6.6
-4 0 -6 295.08 9.69
-4 0 -6 148.73 7.75
-4 0 -7 315.32 10.62
-4 0 -7 178.51 9.12
-4 0 -8 209.31 9.4
-4 0 -8 115.71 8.04
-4 0 -9 122.96 7.9
-4 0 -9 65.32 6.89
-4 0 -10 15 4.59
-4 0 -11 36.32 6.89
4 1 -10 29.14 6.46
4 1 -9 27.63 5.89
4 1 -8 50.39 7.03
4 1 -7 113.2 8.18
4 1 -7 124.68 7.39
4 1 -6 435.05 14.21
4 1 -6 502.95 13.06
4 1 -5 467.35 13.85
4 1 -5 581.12 13.06
4 1 -4 309.08 10.62
4 1 -3 172.05 7.54
4 1 -2 155.98 6.82
4 1 -1 287.69 8.54
-4 -1 0 353.51 8.47
4 1 0 315.47 8.47
-4 -1 -1 14.57 2.44
-4 -1 -1 15.29 2.15
4 1 1 12.42 2.23
-4 -1 -2 361.19 9.04
-4 -1 -2 385.88 6.96
4 1 2 500.15 9.98
-4 -1 -3 179.81 6.96
-4 -1 -3 165.09 4.31
4 1 3 293.58 7.75
-4 -1 -4 459.46 11.48
-4 -1 -4 454.93 6.89
-4 -1 -5 385.31 9.47
-4 -1 -5 186.7 8.04
-4 -1 -5 259.34 5.53
-4 -1 -6 185.48 7.11
-4 -1 -6 109.68 6.89
-4 -1 -7 403.54 10.98
-4 -1 -7 218.64 9.98
-4 -1 -8 317.19 10.41
-4 -1 -8 185.84 9.83
-4 -1 -9 59.43 6.53
-4 -1 -10 2.73 3.3
-4 -1 -11 13.28 4.95
4 2 -9 65.75 7.9
4 2 -8 75.51 7.75
4 2 -7 87.07 7.68
4 2 -6 127.05 8.4
4 2 -5 356.67 12.7
4 2 -5 426.8 10.77
4 2 -4 241.39 9.91
4 2 -4 300.32 8.54
4 2 -3 17.3 3.3
4 2 -2 98.48 5.74
-4 -2 1 647.66 12.92
4 2 -1 599.14 12.56
-4 -2 0 215.26 6.39
-4 -2 0 182.39 6.6
4 2 0 197.89 6.89
-4 -2 -1 380.36 8.61
-4 -2 -1 327.96 8.04
4 2 1 411.29 9.26
-4 -2 -2 393.42 9.33
-4 -2 -2 339.37 7.68
4 2 2 531.95 9.98
-4 -2 -3 363.85 9.47
-4 -2 -3 352 7.54
4 2 3 626.41 10.55
-4 -2 -4 602.22 12.99
-4 -2 -4 729.7 10.7
4 2 4 1120.11 14.07
-4 -2 -5 178.87 7.9
-4 -2 -5 231.92 6.39
4 2 5 318.77 7.97
-4 -2 -6 205.86 6.75
-4 -2 -6 124.39 7.18
-4 -2 -7 108.96 5.53
-4 -2 -7 63.24 5.89
-4 -2 -8 170.4 9.47
-4 -2 -9 43.71 6.46
-4 -2 -10 10.05 4.23
-4 -2 -11 21.89 5.6
-4 -2 -12 11.05 5.02
4 3 -9 53.33 8.33
4 3 -8 79.6 8.25
4 3 -7 16.37 4.74
4 3 -6 28.21 5.31
4 3 -5 145.28 8.76
4 3 -4 80.61 6.32
4 3 -3 65.96 5.46
4 3 -3 76.23 3.95
-4 -3 2 199.55 8.47
4 3 -2 174.35 7.75
-4 -3 1 584.71 13.21
4 3 -1 554.13 12.7
-4 -3 0 1132.24 13.49
-4 -3 0 882.09 15.22
4 3 0 941.52 15.29
-4 -3 -1 349.42 8.04
-4 -3 -1 274.98 8.25
4 3 1 342.53 8.69
-4 -3 -2 561.02 10.84
-4 -3 -2 484.29 10.34
4 3 2 692.09 11.41
-4 -3 -3 288.98 8.47
-4 -3 -3 308.94 8.11
4 3 3 420.55 8.54
-4 -3 -4 605.02 13.06
-4 -3 -4 686.99 11.92
4 3 4 922.21 11.99
-4 -3 -5 192.58 8.04
-4 -3 -5 237.09 7.32
4 3 5 298.03 6.96
-4 -3 -6 38.98 4.52
-4 -3 -6 44.36 3.8
4 3 6 53.91 3.52
-4 -3 -7 29.86 4.74
-4 -3 -8 11.99 3.73
-4 -3 -9 42.85 6.32
-4 -3 -10 26.34 5.74
-4 -3 -11 30.43 6.32
-4 -3 -12 18.88 5.81
4 4 -8 25.19 6.17
4 4 -7 8.25 4.02
4 4 -6 14.36 4.38
4 4 -5 87.86 7.46
4 4 -4 117.72 7.97
4 4 -3 127.55 7.82
-4 -4 2 218.21 9.33
4 4 -2 204.21 8.97
-4 -4 1 353.94 11.2
4 4 -1 323.94 10.41
-4 -4 0 862.21 11.13
-4 -4 0 644.36 14.21
4 4 0 683.12 13.85
-4 -4 -1 551.48 9.76
-4 -4 -1 451.7 11.48
4 4 1 523.48 11.27
-4 -4 -2 207.94 6.75
-4 -4 -2 181.6 7.18
4 4 2 217.27 6.82
-4 -4 -3 40.48 3.8
-4 -4 -3 44.43 4.02
4 4 3 48.09 3.3
-4 -4 -4 156.12 6.89
-4 -4 -4 164.66 6.82
4 4 4 190 5.38
-4 -4 -5 91.45 5.96
-4 -4 -5 120.3 6.03
4 4 5 135.16 4.31
-4 -4 -6 83.84 6.17
-4 -4 -6 104.01 5.89
-4 -4 -7 38.55 5.53
-4 -4 -8 61.16 6.03
-4 -4 -9 63.38 6.82
-4 -4 -10 60.37 7.03
-4 -4 -11 16.72 5.02
-4 -4 -12 6.89 4.38
4 5 -7 14.57 5.1
4 5 -6 20.46 5.17
4 5 -5 75.15 7.39
4 5 -4 185.55 10.34
-4 -5 3 232.49 10.84
4 5 -3 215.19 10.41
-4 -5 2 124.97 7.9
4 5 -2 110.61 7.25
-4 -5 1 182.96 8.83
4 5 -1 175.71 8.33
-4 -5 0 147 7.61
4 5 0 154.04 7.25
-4 -5 -1 408.85 8.18
-4 -5 -1 327.74 10.62
4 5 1 357.24 9.98
-4 -5 -2 145.28 5.67
-4 -5 -2 140.97 7.11
4 5 2 149.01 6.1
-4 -5 -3 12.99 2.58
-4 -5 -3 17.23 3.45
4 5 3 17.44 2.51
-4 -5 -4 87.86 5.46
-4 -5 -4 93.03 5.81
4 5 4 94.1 4.02
-4 -5 -5 113.84 6.6
-4 -5 -5 129.27 6.89
-4 -5 -6 127.69 7.39
-4 -5 -6 181.74 8.18
-4 -5 -7 31.37 5.02
-4 -5 -7 45.29 5.02
-4 -5 -8 71.56 6.6
-4 -5 -9 87.86 7.68
-4 -5 -10 33.02 6.1
-4 -5 -11 22.54 5.53
-4 -5 -12 3.16 3.8
4 6 -7 40.7 7.61
4 6 -6 19.38 5.6
4 6 -5 64.53 7.39
4 6 -4 127.05 9.26
-4 -6 3 177.37 10.19
4 6 -3 174.21 10.05
-4 -6 2 106.16 7.82
4 6 -2 96.97 7.32
-4 -6 1 7.68 3.23
4 6 -1 13.14 3.45
-4 -6 0 64.74 6.03
4 6 0 74.58 5.74
-4 -6 -1 37.47 5.31
4 6 1 38.19 4.23
-4 -6 -2 119.94 5.17
-4 -6 -2 126.69 7.46
4 6 2 119.66 5.96
-4 -6 -3 7.68 2.3
-4 -6 -3 8.25 2.87
4 6 3 7.97 2.08
-4 -6 -4 106.45 6.17
-4 -6 -4 113.55 6.96
-4 -6 -5 197.46 8.61
-4 -6 -5 239.38 9.91
-4 -6 -6 112.98 7.32
-4 -6 -6 163.8 8.4
-4 -6 -7 59.15 5.89
-4 -6 -7 91.95 6.96
-4 -6 -8 32.59 5.46
-4 -6 -9 21.82 5.02
-4 -6 -10 19.38 5.31
-4 -6 -11 10.98 4.52
-4 -6 -12 2.37 3.73
4 7 -6 27.71 6.53
4 7 -5 19.09 5.38
4 7 -4 41.06 6.89
-4 -7 3 68.62 7.25
4 7 -3 63.24 7.03
-4 -7 2 49.96 6.24
4 7 -2 48.31 5.96
-4 -7 1 20.74 4.74
4 7 -1 17.73 4.09
-4 -7 0 22.97 4.74
4 7 0 21.82 4.23
-4 -7 -1 191.94 9.83
4 7 1 179.66 8.4
-4 -7 -2 88.22 6.96
4 7 2 77.74 5.46
-4 -7 -3 61.59 4.67
-4 -7 -3 65.25 6.17
4 7 3 54.7 4.23
-4 -7 -4 100.71 6.17
-4 -7 -4 111.47 7.54
-4 -7 -5 70.92 5.74
-4 -7 -5 96.26 7.18
-4 -7 -6 97.55 6.96
-4 -7 -6 109.18 7.61
-4 -7 -7 61.95 6.1
-4 -7 -7 76.44 6.82
-4 -7 -8 13.49 4.02
-4 -7 -8 24.33 5.02
-4 -7 -9 3.73 3.23
-4 -7 -9 10.7 4.09
-4 -7 -10 8.04 4.23
-4 -7 -11 9.4 4.52
4 8 -5 7.61 4.52
4 8 -4 7.46 4.38
-4 -8 3 31.44 6.53
4 8 -3 24.33 5.74
-4 -8 2 30.72 6.24
4 8 -2 27.63 5.53
-4 -8 1 12.06 4.38
4 8 -1 16.51 4.38
-4 -8 0 38.26 6.24
4 8 0 36.32 5.6
-4 -8 -1 92.59 7.75
4 8 1 79.67 6.53
-4 -8 -2 184.4 10.26
4 8 2 143.13 7.61
-4 -8 -3 82.69 7.32
-4 -8 -4 81.18 7.11
-4 -8 -5 16.72 3.66
-4 -8 -5 20.96 4.74
-4 -8 -6 34.02 5.24
-4 -8 -6 46.87 6.68
-4 -8 -7 17.37 4.31
-4 -8 -7 23.33 5.02
-4 -8 -8 4.88 3.37
-4 -8 -8 12.42 4.31
-4 -8 -9 0.86 2.94
-4 -8 -9 3.73 3.37
-4 -8 -10 0.14 3.23
-4 -8 -10 5.81 3.88
-4 -8 -11 11.48 4.95
-4 -9 3 22.61 6.24
4 9 -3 18.73 5.67
-4 -9 2 42.64 7.39
4 9 -2 45.51 7.32
-4 -9 1 29.86 6.32
4 9 -1 29.64 5.89
-4 -9 0 32.95 6.39
4 9 0 32.01 5.53
-4 -9 -1 30 5.96
4 9 1 22.61 4.52
-4 -9 -2 70.41 7.32
-4 -9 -3 60.08 6.96
-4 -9 -4 16.08 4.59
-4 -9 -5 10.55 4.02
-4 -9 -6 15.15 4.67
-4 -9 -7 16.37 4.52
-4 -9 -7 21.03 5.38
-4 -9 -8 9.55 4.02
-4 -9 -8 16.87 5.02
-4 -9 -9 1.94 3.37
-4 -9 -9 3.45 3.66
-4 -9 -10 7.11 4.45
-4 -9 -10 15.36 5.24
-4 -10 2 25.84 6.53
4 10 -2 26.99 6.32
-4 -10 1 33.66 6.96
4 10 -1 26.7 6.03
-4 -10 0 9.47 4.74
4 10 0 6.68 3.95
-4 -10 -1 13.42 4.88
-4 -10 -2 17.51 5.24
-4 -10 -3 17.37 5.17
-4 -10 -4 16.22 4.95
-4 -10 -5 4.67 3.59
-4 -10 -6 7.82 4.31
-4 -10 -7 24.48 5.89
-4 -10 -8 9.04 4.59
-4 -10 -9 5.81 4.16
-4 -10 -9 8.61 4.59
-4 -11 -1 0.65 4.09
-4 -11 -2 2.51 4.09
-4 -11 -3 6.6 4.38
-4 -11 -4 15.43 5.38
-4 -11 -5 3.52 4.16
-4 -11 -6 7.32 4.81
-4 -11 -7 11.7 5.38
-4 -11 -8 12.78 5.38
5 -10 -4 14.71 5.24
5 -10 -2 7.9 4.02
5 -9 -7 9.76 4.81
5 -9 -6 20.24 5.6
5 -9 -5 16.01 5.1
5 -9 -4 20.46 5.46
5 -9 -3 11.99 4.16
5 -9 -2 18.95 4.95
-5 9 0 31.08 6.24
-5 9 -1 21.39 5.74
-5 9 -2 13.42 5.02
5 -8 -8 18.02 5.53
5 -8 -7 6.24 4.02
5 -8 -6 14.64 4.95
5 -8 -5 15.58 4.81
5 -8 -4 19.02 4.45
5 -8 -3 51.97 6.24
5 -8 -2 20.53 4.81
-5 8 0 70.7 7.54
-5 8 -1 59.07 7.32
-5 8 -2 22.61 5.81
-5 8 -3 22.68 5.89
-5 8 -4 27.2 6.39
5 -7 -9 16.44 5.81
5 -7 -8 18.73 5.53
5 -7 -7 11.2 4.67
5 -7 -6 16.94 4.88
5 -7 -5 19.52 4.31
5 -7 -5 24.4 5.53
5 -7 -4 96.69 7.39
5 -7 -3 65.89 6.39
5 -7 -2 53.76 5.96
5 -7 -1 42.35 6.24
-5 7 0 108.89 8.4
-5 7 -1 108.6 8.61
-5 7 -2 56.49 6.96
-5 7 -3 29.14 6.03
-5 7 -4 16.44 5.31
-5 7 -5 34.45 7.03
5 -6 -9 9.98 4.81
5 -6 -8 45.15 7.54
5 -6 -7 52.18 7.68
5 -6 -6 30.86 5.1
5 -6 -6 46.23 6.96
5 -6 -5 31.8 5.17
5 -6 -4 185.48 9.47
5 -6 -3 187.99 9.55
5 -6 -2 71.85 6.39
5 -6 -1 96.26 7.25
-5 6 0 67.04 6.46
-5 6 -1 89.22 7.54
-5 6 -2 51.75 6.17
-5 6 -3 52.83 6.53
-5 6 -4 38.47 6.46
-5 6 -5 63.88 7.68
-5 6 -6 57.28 8.47
-5 6 -7 20.24 5.89
5 -5 -9 14.5 5.38
5 -5 -8 78.17 8.18
5 -5 -7 80.54 6.75
5 -5 -7 95.75 8.4
5 -5 -6 81.54 6.6
5 -5 -6 103.79 8.25
5 -5 -5 62.23 5.81
5 -5 -4 142.05 8.04
5 -5 -3 226.17 9.91
5 -5 -2 114.34 7.32
5 -5 -1 64.6 5.81
-5 5 -1 82.55 6.82
-5 5 -2 79.75 6.96
-5 5 -3 83.12 7.25
-5 5 -4 70.85 7.11
-5 5 -4 75.37 6.75
-5 5 -5 114.34 8.97
-5 5 -5 126.55 8.47
-5 5 -6 93.96 8.69
-5 5 -7 76.37 8.47
-5 5 -8 16.44 5.81
5 -4 -10 16.58 5.53
5 -4 -9 39.98 7.39
5 -4 -8 68.91 6.75
5 -4 -8 79.39 7.97
5 -4 -7 90.51 7.11
5 -4 -7 113.27 8.83
5 -4 -6 145.5 8.33
5 -4 -6 186.55 10.41
5 -4 -5 43.5 4.95
5 -4 -4 117.57 7.18
5 -4 -3 59.79 5.38
5 -4 -2 151.81 7.9
5 -4 -1 98.05 6.53
5 -4 0 125.54 7.39
-5 4 -1 407.99 13.06
-5 4 -2 513.86 15
-5 4 -3 375.26 13.35
-5 4 -3 375.12 12.56
-5 4 -4 129.42 8.54
-5 4 -4 116.86 7.61
-5 4 -5 62.52 6.75
-5 4 -5 61.3 6.1
-5 4 -6 110.75 8.76
-5 4 -6 118.87 8.4
-5 4 -7 58.57 8.04
-5 4 -8 29.64 6.39
5 -3 -10 53.33 8.4
5 -3 -9 23.9 5.89
5 -3 -8 55.27 6.24
5 -3 -8 58.07 7.11
5 -3 -7 74.22 6.68
5 -3 -7 95.04 7.9
5 -3 -6 98.34 7.03
5 -3 -6 122.89 8.47
5 -3 -5 28.86 4.52
5 -3 -4 58.43 5.31
5 -3 -3 162.58 8.04
5 -3 -2 265.94 9.83
5 -3 -1 454.43 12.63
5 -3 0 195.74 8.61
5 -3 1 231.2 9.4
-5 3 -2 503.53 14
-5 3 -2 482.43 13.35
-5 3 -3 569.28 15.36
-5 3 -3 528.15 14.14
-5 3 -4 61.23 5.96
-5 3 -4 54.98 5.6
-5 3 -5 127.48 8.25
-5 3 -5 106.38 7.32
-5 3 -6 108.67 8.11
-5 3 -6 99.92 7.46
-5 3 -7 76.23 7.39
-5 3 -7 65.32 6.82
-5 3 -8 29.86 6.1
-5 3 -8 25.84 5.38
-5 3 -9 37.61 6.96
5 -2 -10 61.73 8.83
5 -2 -9 26.41 5.67
5 -2 -9 40.77 6.89
5 -2 -8 15.36 4.38
5 -2 -8 19.74 4.95
5 -2 -7 45.22 6.17
5 -2 -7 51.11 6.03
5 -2 -6 112.62 7.54
5 -2 -6 148.08 8.9
5 -2 -5 22.68 4.09
5 -2 -4 99.84 6.53
5 -2 -3 182.53 8.25
5 -2 -2 691.88 15.22
5 -2 -1 839.31 16.51
5 -2 0 384.45 11.27
5 -2 1 197.82 8.33
-5 2 -2 374.11 11.41
-5 2 -3 302.83 10.62
-5 2 -3 255.17 9.76
-5 2 -4 165.09 8.4
-5 2 -4 116.5 7.18
-5 2 -5 97.33 7.03
-5 2 -5 84.91 6.46
-5 2 -6 142.7 8.61
-5 2 -6 107.09 7.46
-5 2 -7 118.72 8.4
-5 2 -7 83.77 7.32
-5 2 -8 90.51 7.97
-5 2 -8 70.63 7.11
-5 2 -9 48.81 7.18
-5 2 -9 45.22 7.18
-5 2 -10 36.61 6.96
5 -1 -10 25.84 6.03
5 -1 -9 10.26 4.23
5 -1 -9 8.54 4.09
5 -1 -8 11.13 4.02
5 -1 -8 13.85 4.23
5 -1 -7 52.76 5.96
5 -1 -7 56.13 6.32
5 -1 -6 238.16 10.77
5 -1 -6 321.5 12.13
5 -1 -5 282.59 10.98
5 -1 -4 298.67 10.84
5 -1 -3 219.57 8.97
5 -1 -2 577.03 13.78
5 -1 -1 638.9 14.14
5 -1 0 141.26 6.82
-5 1 -1 339.73 10.34
5 -1 1 333.7 10.12
-5 1 -2 171.98 7.61
5 -1 2 200.41 8.11
-5 1 -3 174.35 7.97
-5 1 -4 185.84 8.25
-5 1 -4 117.14 6.96
-5 1 -5 131.93 7.32
-5 1 -5 85.99 6.39
-5 1 -6 80.25 6.24
-5 1 -6 46.8 5.38
-5 1 -7 184.4 9.4
-5 1 -7 112.91 7.97
-5 1 -8 164.52 9.4
-5 1 -8 114.99 8.47
-5 1 -9 116.35 8.69
-5 1 -9 72.71 7.54
-5 1 -10 14.79 4.95
5 0 -9 13.28 4.67
5 0 -8 32.3 5.89
5 0 -7 55.2 6.39
5 0 -7 65.25 6.39
5 0 -6 200.98 10.19
5 0 -6 258.69 10.62
5 0 -5 307.72 11.77
5 0 -5 373.11 11.92
5 0 -4 418.18 12.92
5 0 -3 151.96 7.61
5 0 -2 368.23 11.13
5 0 -1 308.79 9.83
5 0 0 377.7 10.48
-5 0 -1 97.26 5.67
5 0 1 109.61 5.89
-5 0 -2 60.29 4.81
5 0 2 72.78 4.95
-5 0 -3 405.91 11.56
5 0 3 523.34 12.35
-5 0 -4 160.35 7.68
-5 0 -5 420.84 11.77
-5 0 -5 222.3 9.55
-5 0 -6 189.64 8.47
-5 0 -6 107.45 7.32
-5 0 -7 162.22 8.25
-5 0 -7 79.39 6.89
-5 0 -8 264.79 10.84
-5 0 -8 153.46 9.47
-5 0 -9 152.89 9.12
-5 0 -9 76.73 7.61
-5 0 -10 20.17 5.31
-5 0 -11 13.42 5.02
5 1 -9 67.4 8.04
5 1 -8 77.74 7.97
5 1 -7 61.8 6.75
5 1 -6 129.42 8.69
5 1 -6 175.36 8.61
5 1 -5 99.63 7.32
5 1 -5 131.5 7.32
5 1 -4 227.47 9.98
5 1 -3 109.03 6.75
5 1 -2 33.95 4.02
5 1 -1 569.71 13.28
5 1 0 555.78 12.63
-5 -1 -1 261.06 8.54
5 1 1 270.61 8.69
-5 -1 -2 228.47 8.18
-5 -1 -2 241.82 6.39
5 1 2 279.79 8.69
-5 -1 -3 430.96 11.63
-5 -1 -3 488.67 8.04
5 1 3 639.41 12.92
-5 -1 -4 536.4 13.49
5 1 4 1037.35 16.58
-5 -1 -5 267.23 10.26
5 1 5 520.61 12.27
-5 -1 -6 238.38 8.76
-5 -1 -6 121.74 7.54
-5 -1 -7 61.8 5.24
-5 -1 -7 43.93 6.1
-5 -1 -8 80.03 6.17
-5 -1 -8 50.1 6.1
-5 -1 -9 33.88 6.17
-5 -1 -10 7.03 4.02
-5 -1 -11 21.03 5.89
5 2 -9 47.95 8.11
5 2 -8 75.58 8.18
5 2 -7 41.42 6.68
5 2 -6 49.74 6.03
5 2 -5 111.76 8.04
5 2 -4 242.33 10.7
5 2 -3 11.84 3.16
5 2 -2 54.91 5.02
5 2 -1 210.31 8.47
-5 -2 0 535.97 11.99
5 2 0 556.36 12.78
-5 -2 -1 567.2 11.99
-5 -2 -1 488.1 10.77
5 2 1 571.93 12.35
-5 -2 -2 264.5 8.61
-5 -2 -2 233.35 7.11
5 2 2 327.67 9.19
-5 -2 -3 253.09 8.83
-5 -2 -3 225.74 6.68
5 2 3 397.51 9.83
-5 -2 -4 232.2 9.04
-5 -2 -4 198.97 6.1
5 2 4 376.77 9.62
-5 -2 -5 311.74 10.84
-5 -2 -5 330.04 7.61
5 2 5 574.95 11.99
-5 -2 -6 40.91 5.02
5 2 6 65.46 4.81
-5 -2 -7 82.69 6.75
-5 -2 -8 64.24 6.68
-5 -2 -9 45.51 6.75
-5 -2 -10 14.5 4.74
-5 -2 -11 30.86 6.6
5 3 -8 55.49 8.33
5 3 -7 15.29 4.81
5 3 -6 13.57 4.23
5 3 -5 57.14 6.24
5 3 -4 239.17 11.05
5 3 -3 58.72 5.53
5 3 -2 173.13 8.47
-5 -3 1 254.74 9.62
5 3 -1 242.97 9.33
-5 -3 0 406.48 11.34
5 3 0 428.52 11.56
-5 -3 -1 699.91 12.92
-5 -3 -1 555.85 12.49
5 3 1 647.59 13.35
-5 -3 -2 295.3 8.97
-5 -3 -2 237.16 7.97
5 3 2 325.01 9.19
-5 -3 -3 191.22 7.75
-5 -3 -3 162.08 6.46
5 3 3 248.79 7.75
-5 -3 -4 96.04 6.1
-5 -3 -4 88.79 4.95
5 3 4 127.12 5.67
-5 -3 -5 139.04 7.61
-5 -3 -5 146.79 6.17
5 3 5 210.31 7.03
-5 -3 -6 72.86 6.03
-5 -3 -6 87 4.95
5 3 6 109.53 5.38
-5 -3 -7 18.09 4.16
-5 -3 -8 68.69 6.6
-5 -3 -9 52.9 6.53
-5 -3 -10 63.74 7.39
-5 -3 -11 26.2 6.17
5 4 -7 21.32 5.6
5 4 -6 24.12 5.46
5 4 -5 46.3 6.82
5 4 -4 174.78 9.98
5 4 -3 313.53 12.42
-5 -4 2 198.4 9.62
5 4 -2 191.22 9.26
-5 -4 1 241.61 10.05
5 4 -1 246.92 9.83
-5 -4 0 205.14 8.9
5 4 0 214.33 8.69
-5 -4 -1 287.4 8.25
-5 -4 -1 210.74 8.61
5 4 1 262.35 9.04
-5 -4 -2 155.9 6.6
-5 -4 -2 122.31 6.46
5 4 2 167.46 6.89
-5 -4 -3 44.29 4.31
-5 -4 -3 40.2 4.16
5 4 3 42.85 3.73
-5 -4 -4 50.39 4.81
-5 -4 -4 51.47 4.45
5 4 4 63.88 4.16
-5 -4 -5 131.86 7.39
-5 -4 -5 138.6 6.6
5 4 5 167.53 5.96
-5 -4 -6 117.36 7.54
-5 -4 -6 124.61 6.46
-5 -4 -7 67.11 6.39
-5 -4 -7 79.17 5.53
-5 -4 -8 12.49 4.02
-5 -4 -9 70.7 7.25
-5 -4 -10 47.16 7.32
-5 -4 -11 30.51 6.53
-5 -4 -12 9.55 4.74
5 5 -7 29.72 6.75
5 5 -6 31.73 6.39
5 5 -5 25.05 5.6
5 5 -4 139.97 9.62
5 5 -3 137.82 8.97
-5 -5 2 275.85 11.84
5 5 -2 253.52 11.13
-5 -5 1 48.95 5.6
5 5 -1 53.12 5.38
-5 -5 0 106.74 7.25
5 5 0 121.74 7.11
-5 -5 -1 213.47 6.96
-5 -5 -1 156.69 8.18
5 5 1 189.28 8.11
-5 -5 -2 139.54 6.24
-5 -5 -2 116.14 6.96
5 5 2 134.37 6.53
-5 -5 -3 42.71 4.31
-5 -5 -3 43 4.67
5 5 3 48.24 4.02
-5 -5 -4 16.15 3.45
-5 -5 -4 17.44 3.59
5 5 4 16.65 2.66
-5 -5 -5 148.73 7.9
-5 -5 -5 169.04 8.04
-5 -5 -6 174.21 8.97
-5 -5 -6 187.7 8.47
-5 -5 -7 84.63 6.96
-5 -5 -7 103.51 6.68
-5 -5 -8 73.72 6.96
-5 -5 -8 92.02 6.68
-5 -5 -9 37.9 6.32
-5 -5 -10 26.13 5.81
-5 -5 -11 15.65 5.02
5 6 -6 34.88 7.03
5 6 -5 23.62 5.74
5 6 -4 56.13 6.96
5 6 -3 77.81 7.46
-5 -6 2 57.57 6.6
5 6 -2 66.4 6.68
-5 -6 1 33.95 5.67
5 6 -1 35.96 5.38
-5 -6 0 7.97 3.3
5 6 0 7.11 2.87
-5 -6 -1 131 8.18
5 6 1 155.54 7.82
-5 -6 -2 202.49 7.25
-5 -6 -2 170.47 8.9
5 6 2 194.81 8.11
-5 -6 -3 112.84 6.1
-5 -6 -3 103.51 7.11
5 6 3 115.64 5.96
-5 -6 -4 56.27 5.17
-5 -6 -4 53.62 5.46
-5 -6 -5 157.48 8.25
-5 -6 -5 171.26 8.83
-5 -6 -6 95.18 6.96
-5 -6 -6 110.54 7.25
-5 -6 -7 63.38 6.39
-5 -6 -7 76.09 6.46
-5 -6 -8 38.55 6.17
-5 -6 -8 53.55 5.81
-5 -6 -9 13.78 4.45
-5 -6 -9 13.42 4.09
-5 -6 -10 9.62 4.16
-5 -6 -11 10.12 4.74
5 7 -5 11.13 4.95
5 7 -4 13.71 4.81
-5 -7 3 32.09 6.32
5 7 -3 32.01 6.17
-5 -7 2 66.32 7.25
5 7 -2 64.96 7.11
-5 -7 1 17.37 4.81
5 7 -1 17.94 4.38
-5 -7 0 15.93 4.38
5 7 0 17.23 4.09
-5 -7 -1 33.23 5.67
5 7 1 45.87 5.17
-5 -7 -2 138.68 8.76
5 7 2 129.99 7.32
-5 -7 -3 73.5 6.68
-5 -7 -4 100.63 6.53
-5 -7 -4 99.05 7.46
-5 -7 -5 68.62 5.96
-5 -7 -5 73.57 6.68
-5 -7 -6 55.41 5.96
-5 -7 -6 57.06 6.03
-5 -7 -7 70.13 6.75
-5 -7 -7 78.67 7.03
-5 -7 -8 10.55 4.02
-5 -7 -8 13.21 4.02
-5 -7 -9 6.68 3.73
-5 -7 -9 9.62 3.88
-5 -7 -10 8.61 4.38
-5 -7 -11 9.62 4.74
5 8 -4 6.24 4.45
-5 -8 3 9.76 4.95
5 8 -3 10.98 4.52
-5 -8 2 45.36 7.54
5 8 -2 47.23 7.32
-5 -8 1 40.05 6.75
5 8 -1 36.82 6.17
-5 -8 0 39.62 6.68
5 8 0 41.42 6.03
-5 -8 -1 67.33 7.18
5 8 1 69.27 6.39
-5 -8 -2 53.55 6.68
-5 -8 -3 103.86 8.25
-5 -8 -4 40.77 6.39
-5 -8 -5 11.56 3.52
-5 -8 -5 13.21 4.16
-5 -8 -6 16.08 4.16
-5 -8 -6 19.38 4.74
-5 -8 -7 16.72 4.45
-5 -8 -7 24.76 5.31
-5 -8 -8 15.79 4.67
-5 -8 -8 23.33 5.38
-5 -8 -9 2.37 3.52
-5 -8 -9 5.17 3.59
-5 -8 -10 5.6 4.23
-5 -8 -10 3.45 3.59
-5 -8 -11 8.76 4.88
-5 -9 2 32.59 7.11
5 9 -2 32.59 6.6
-5 -9 1 51.97 8.11
5 9 -1 42.13 6.89
-5 -9 0 28.78 6.32
5 9 0 24.05 5.38
-5 -9 -1 15.36 4.95
-5 -9 -2 41.2 6.89
-5 -9 -3 36.68 6.53
-5 -9 -4 14.21 4.67
-5 -9 -5 8.33 4.02
-5 -9 -6 1.08 3.16
-5 -9 -7 12.42 4.23
-5 -9 -7 18.66 5.17
-5 -9 -8 15 4.67
-5 -9 -8 20.89 5.53
-5 -9 -9 6.82 4.09
-5 -9 -9 9.98 4.67
-5 -9 -10 1.58 3.88
-5 -9 -10 7.32 4.45
-5 -10 1 22.32 6.39
5 10 -1 26.06 6.24
-5 -10 0 16.08 5.38
-5 -10 -1 2.08 4.02
-5 -10 -2 8.47 4.59
-5 -10 -3 7.68 4.52
-5 -10 -4 12.2 4.81
-5 -10 -5 4.23 4.09
-5 -10 -6 3.16 3.88
-5 -10 -7 19.16 5.53
-5 -10 -8 23.26 6.1
-5 -10 -9 8.83 4.81
-5 -10 -9 16.08 5.67
-5 -11 -2 2.44 4.16
-5 -11 -3 7.46 4.59
-5 -11 -4 12.99 5.38
-5 -11 -5 10.62 5.17
-5 -11 -6 5.67 4.52
-5 -11 -7 9.33 5.31
6 -9 -3 7.18 4.09
6 -9 -2 8.4 4.02
6 -9 -1 14.14 4.95
6 -9 0 20.53 5.67
6 -8 -6 8.83 4.38
6 -8 -5 7.97 4.31
6 -8 -4 22.11 5.1
6 -8 -3 42.06 6.75
6 -8 -2 26.7 5.67
6 -8 -1 24.98 5.67
6 -8 0 35.75 6.68
-6 8 -1 52.11 8.04
-6 8 -2 16.08 5.38
-6 8 -3 24.26 6.24
6 -7 -7 18.73 5.53
6 -7 -6 30.65 6.46
6 -7 -5 13.49 4.23
6 -7 -4 32.8 5.74
6 -7 -3 111.76 8.54
6 -7 -2 52.9 6.46
6 -7 -1 34.74 6.1
6 -7 0 44.43 7.03
-6 7 -1 59 7.25
-6 7 -2 19.31 5.38
-6 7 -3 16.87 5.46
-6 7 -4 23.47 6.17
6 -6 -8 10.34 4.67
6 -6 -7 65.03 7.75
6 -6 -6 35.6 5.89
6 -6 -6 42.64 7.03
6 -6 -5 35.67 5.74
6 -6 -4 69.55 6.75
6 -6 -3 76.44 6.96
6 -6 -2 68.48 6.75
6 -6 -1 33.38 5.67
6 -6 0 42.13 6.46
-6 6 -2 89.08 8.18
-6 6 -3 75.65 7.9
-6 6 -4 25.55 6.03
-6 6 -5 46.08 7.75
-6 6 -6 21.75 6.17
6 -5 -8 34.53 6.89
6 -5 -7 73.57 7.25
6 -5 -7 83.48 8.4
6 -5 -6 76.16 7.03
6 -5 -6 92.31 8.25
6 -5 -5 40.27 5.89
6 -5 -4 63.09 6.32
6 -5 -3 88 7.25
6 -5 -2 85.7 7.03
6 -5 -1 81.11 6.89
6 -5 0 58.28 6.24
6 -5 1 59.29 6.46
-6 5 -2 100.99 8.11
-6 5 -3 134.23 9.47
-6 5 -4 77.88 7.82
-6 5 -5 49.31 7.54
-6 5 -5 58.36 7.03
-6 5 -6 56.99 8.25
-6 5 -7 51.54 8.25
6 -4 -9 36.25 7.11
6 -4 -8 25.48 5.46
6 -4 -8 39.77 7.25
6 -4 -7 64.74 6.82
6 -4 -7 78.02 8.04
6 -4 -6 83.48 7.18
6 -4 -6 100.99 8.54
6 -4 -5 44 5.46
6 -4 -4 15.86 3.95
6 -4 -3 74.51 6.39
6 -4 -2 151.24 8.61
6 -4 -1 176.15 9.33
6 -4 0 122.67 8.04
6 -4 1 114.2 7.9
-6 4 -3 266.73 12.06
-6 4 -4 97.76 8.04
-6 4 -4 101.42 7.82
-6 4 -5 72.14 7.39
-6 4 -5 61.37 6.68
-6 4 -6 72.35 7.75
-6 4 -6 65.18 7.03
-6 4 -7 82.55 8.54
-6 4 -7 83.55 8.33
-6 4 -8 35.32 7.03
6 -3 -9 37.11 7.32
6 -3 -8 11.41 4.23
6 -3 -8 16.29 5.02
6 -3 -7 32.52 5.67
6 -3 -7 41.49 6.82
6 -3 -6 95.04 7.61
6 -3 -6 128.27 9.12
6 -3 -5 99.2 7.39
6 -3 -4 63.81 5.96
6 -3 -3 57.64 5.6
6 -3 -2 188.99 9.26
6 -3 -1 272.69 10.98
6 -3 0 269.6 10.91
6 -3 1 185.48 9.19
6 -3 2 320.78 12.27
-6 3 -3 369.88 13.35
-6 3 -3 346.26 12.7
-6 3 -4 103.36 7.75
-6 3 -4 88.79 7.18
-6 3 -5 42.21 6.24
-6 3 -5 42.85 6.32
-6 3 -6 44.79 6.68
-6 3 -6 48.31 6.75
-6 3 -7 42.78 6.96
-6 3 -7 37.76 6.39
-6 3 -8 47.88 7.61
-6 3 -8 40.2 6.89
-6 3 -9 36.61 7.18
6 -2 -9 25.05 5.81
6 -2 -9 31.94 6.53
6 -2 -8 4.52 3.37
6 -2 -8 12.2 4.45
6 -2 -7 23.04 5.02
6 -2 -7 27.35 5.6
6 -2 -6 57.57 6.24
6 -2 -6 65.75 6.82
6 -2 -5 114.13 7.9
6 -2 -4 117 7.68
6 -2 -3 148.87 8.25
6 -2 -2 236.94 10.05
6 -2 -1 566.77 15.07
6 -2 0 336.57 11.7
6 -2 1 110.25 7.11
-6 2 -2 173.99 8.76
6 -2 2 197.54 9.33
-6 2 -3 242.76 10.41
6 -2 3 282.31 11.2
-6 2 -4 73.43 6.39
-6 2 -4 67.26 6.24
-6 2 -5 123.39 8.18
-6 2 -5 99.27 7.46
-6 2 -6 50.89 6.1
-6 2 -6 39.98 6.1
-6 2 -7 89.29 7.9
-6 2 -7 60.58 6.75
-6 2 -8 70.13 7.46
-6 2 -8 55.84 7.75
-6 2 -9 63.09 8.47
-6 2 -9 46.58 7.54
6 -1 -9 44.22 7.46
6 -1 -8 12.63 4.52
6 -1 -8 16.44 4.88
6 -1 -7 28.78 5.53
6 -1 -7 34.67 5.96
6 -1 -6 67.4 6.75
6 -1 -6 99.99 7.75
6 -1 -5 105.73 7.68
6 -1 -4 192.58 9.62
6 -1 -3 139.97 8.04
6 -1 -2 296.95 11.05
6 -1 -1 432.54 12.99
6 -1 0 351.72 11.56
-6 1 -1 291.06 10.62
6 -1 1 317.26 10.98
-6 1 -2 33.23 4.88
6 -1 2 37.4 4.59
-6 1 -3 211.46 9.55
6 -1 3 248.79 10.05
-6 1 -4 198.97 9.62
6 -1 4 292.14 11.13
-6 1 -5 242.25 10.41
-6 1 -5 164.23 9.04
-6 1 -6 133.58 8.25
-6 1 -6 78.96 6.82
-6 1 -7 94.96 7.61
-6 1 -7 58.14 6.53
-6 1 -8 84.84 7.68
-6 1 -8 56.27 6.82
-6 1 -9 61.8 7.25
-6 1 -9 39.62 6.89
-6 1 -10 24.12 6.1
6 0 -9 29.64 6.6
6 0 -8 34.67 6.53
6 0 -7 57.85 6.82
6 0 -7 64.6 6.82
6 0 -6 101.42 8.11
6 0 -6 121.38 8.18
6 0 -5 292 12.35
6 0 -4 230.84 10.55
6 0 -3 204.14 9.62
6 0 -2 69.34 5.81
6 0 -1 73.65 5.81
6 0 0 311.95 10.77
-6 0 -1 147.07 7.54
6 0 1 175.21 8.11
-6 0 -2 81.61 5.89
6 0 2 110.04 6.6
-6 0 -3 112.84 7.03
6 0 3 140.47 7.46
-6 0 -4 196.39 9.26
6 0 4 288.69 10.48
-6 0 -5 192.73 9.62
6 0 5 354.66 11.84
-6 0 -6 154.54 8.25
-6 0 -6 89.08 7.11
-6 0 -7 105.59 7.39
-6 0 -7 57.49 6.32
-6 0 -8 110.54 7.9
-6 0 -8 67.97 7.18
-6 0 -9 70.63 7.82
-6 0 -10 15.22 5.17
6 1 -8 57.93 8.4
6 1 -7 81.04 8.11
6 1 -6 52.54 7.25
6 1 -5 97.12 7.75
6 1 -5 132 7.82
6 1 -4 260.34 11.48
6 1 -3 139.18 8.18
6 1 -2 22.18 4.09
6 1 -1 88.58 6.24
6 1 0 357.96 11.41
-6 -1 -1 268.45 9.69
6 1 1 293 10.12
-6 -1 -2 180.95 8.18
6 1 2 221.65 8.83
-6 -1 -3 329.32 11.27
6 1 3 450.27 12.2
-6 -1 -4 105.66 7.03
6 1 4 169.4 7.97
-6 -1 -5 289.05 11.41
6 1 5 525.92 13.57
-6 -1 -6 63.45 6.17
6 1 6 112.91 7.03
-6 -1 -7 40.63 6.1
6 1 7 69.63 6.24
-6 -1 -8 73.29 6.39
-6 -1 -8 41.92 6.6
-6 -1 -9 58.64 7.11
-6 -1 -10 32.44 6.68
-6 -1 -11 7.11 4.45
6 2 -8 66.68 8.33
6 2 -7 70.06 7.82
6 2 -6 25.19 5.53
6 2 -5 13.93 4.23
6 2 -4 151.38 9.19
6 2 -3 120.66 7.9
6 2 -2 62.02 5.67
6 2 -1 221.87 9.55
6 2 0 372.03 11.7
-6 -2 -1 522.12 12.92
-6 -2 -1 460.17 11.41
6 2 1 541.36 13.57
-6 -2 -2 265.87 9.69
-6 -2 -2 256.18 8.18
6 2 2 315.54 10.19
-6 -2 -3 174.35 8.11
-6 -2 -3 179.16 6.53
6 2 3 255.32 9.12
-6 -2 -4 190 8.9
-6 -2 -4 182.1 6.24
6 2 4 316.26 10.05
-6 -2 -5 139.32 8.18
6 2 5 221.37 8.61
-6 -2 -6 122.17 8.04
6 2 6 194.74 8.4
-6 -2 -7 15.86 4.38
-6 -2 -8 11.77 4.09
-6 -2 -9 10.41 4.31
-6 -2 -10 22.9 5.74
-6 -2 -11 26.13 6.46
6 3 -7 27.92 6.24
6 3 -6 1.87 3.09
6 3 -5 37.47 6.32
6 3 -4 60.65 6.6
6 3 -3 165.09 9.47
6 3 -2 185.05 9.47
6 3 -1 166.89 8.61
-6 -3 0 334.7 11.13
6 3 0 344.61 11.48
-6 -3 -1 437.2 11.63
-6 -3 -1 353.44 10.91
6 3 1 412.51 12.06
-6 -3 -2 301.26 10.05
-6 -3 -2 239.45 8.69
6 3 2 344.47 10.62
-6 -3 -3 112.55 6.82
-6 -3 -3 78.45 5.1
6 3 3 134.23 6.75
-6 -3 -4 14.79 3.52
-6 -3 -4 15.36 2.87
6 3 4 22.9 3.59
-6 -3 -5 111.83 7.25
-6 -3 -5 105.73 5.53
6 3 5 172.13 7.32
-6 -3 -6 43.79 5.46
6 3 6 63.38 4.95
-6 -3 -7 101.57 7.68
-6 -3 -8 27.71 5.46
-6 -3 -9 37.61 6.53
-6 -3 -10 58 8.33
-6 -3 -11 28.21 6.6
6 4 -7 21.32 6.03
6 4 -6 25.34 5.96
6 4 -5 18.16 5.02
6 4 -4 116.64 8.97
6 4 -3 144.13 9.33
6 4 -2 217.06 10.62
-6 -4 1 120.09 7.75
6 4 -1 111.97 7.46
-6 -4 0 82.33 6.46
6 4 0 108.03 6.96
-6 -4 -1 200.12 7.97
-6 -4 -1 140.61 7.75
6 4 1 166.67 8.04
-6 -4 -2 248.79 9.12
-6 -4 -2 187.99 8.47
6 4 2 242.9 9.12
-6 -4 -3 126.98 7.03
-6 -4 -3 96.9 6.17
6 4 3 130.21 6.6
-6 -4 -4 15.65 3.59
-6 -4 -4 12.13 3.09
6 4 4 16.08 3.09
-6 -4 -5 64.1 5.96
-6 -4 -5 61.23 5.17
6 4 5 77.02 5.1
-6 -4 -6 118.43 7.82
-6 -4 -6 127.26 6.89
-6 -4 -7 82.4 7.25
-6 -4 -8 42.42 6.46
-6 -4 -9 50.39 7.32
-6 -4 -10 35.17 6.75
-6 -4 -11 20.1 5.67
6 5 -6 44.14 7.75
6 5 -5 35.6 6.53
6 5 -4 55.34 6.89
6 5 -3 172.13 10.48
6 5 -2 110.04 8.25
-6 -5 1 82.9 7.25
6 5 -1 84.91 6.96
-6 -5 0 7.68 3.3
6 5 0 4.52 2.73
-6 -5 -1 30.08 4.02
-6 -5 -1 21.68 4.45
6 5 1 28.78 4.52
-6 -5 -2 82.26 5.74
-6 -5 -2 60.51 5.74
6 5 2 81.9 5.81
-6 -5 -3 101.78 6.46
-6 -5 -3 69.19 5.96
6 5 3 92.31 5.89
-6 -5 -4 30.43 4.74
-6 -5 -4 30.86 4.74
6 5 4 29.29 3.88
-6 -5 -5 88.79 6.82
-6 -5 -5 83.69 6.24
-6 -5 -6 191.22 9.83
-6 -5 -6 189.21 8.76
-6 -5 -7 103.07 8.04
-6 -5 -7 113.41 7.18
-6 -5 -8 42.49 6.6
-6 -5 -9 27.28 5.96
-6 -5 -10 14.57 5.02
-6 -5 -11 18.59 5.67
6 6 -5 29.64 6.46
6 6 -4 21.75 5.67
6 6 -3 27.42 5.89
-6 -6 2 74.94 7.46
6 6 -2 85.85 7.75
-6 -6 1 27.56 5.53
6 6 -1 30.22 5.38
-6 -6 0 27.2 5.46
6 6 0 28.14 5.02
-6 -6 -1 30 5.31
6 6 1 37.76 5.24
-6 -6 -2 126.83 8.25
6 6 2 139.39 7.68
-6 -6 -3 128.77 7.03
-6 -6 -3 104.8 7.54
6 6 3 130.42 7.03
-6 -6 -4 46.44 5.17
-6 -6 -4 49.81 5.53
-6 -6 -5 119.15 7.75
-6 -6 -5 116.71 7.75
-6 -6 -6 49.24 5.81
-6 -6 -6 46.3 5.6
-6 -6 -7 81.54 7.32
-6 -6 -7 81.9 6.75
-6 -6 -8 48.88 7.03
-6 -6 -9 12.49 4.59
-6 -6 -10 6.53 4.16
-6 -6 -11 8.76 4.81
6 7 -4 8.69 4.67
6 7 -3 7.03 4.09
-6 -7 2 31.51 6.53
6 7 -2 29.72 5.96
-6 -7 1 53.26 7.75
6 7 -1 53.26 6.6
-6 -7 0 18.38 4.95
6 7 0 21.53 4.81
-6 -7 -1 60.87 6.89
6 7 1 63.38 6.24
-6 -7 -2 106.88 8.25
6 7 2 116.28 7.46
-6 -7 -3 123.75 8.54
-6 -7 -4 117.21 7.39
-6 -7 -4 95.25 7.75
-6 -7 -5 38.98 5.53
-6 -7 -5 37.97 6.03
-6 -7 -6 13.14 4.09
-6 -7 -6 13.78 4.23
-6 -7 -7 19.81 4.81
-6 -7 -7 21.96 4.81
-6 -7 -8 17.51 4.88
-6 -7 -8 25.05 5.24
-6 -7 -9 7.39 4.23
-6 -7 -10 5.1 4.23
6 8 -3 8.83 4.74
-6 -8 2 24.33 6.32
6 8 -2 24.98 5.96
-6 -8 1 63.81 7.97
6 8 -1 67.47 7.61
-6 -8 0 46.73 7.61
6 8 0 60.87 7.03
-6 -8 -1 33.09 6.46
6 8 1 35.17 5.74
-6 -8 -2 29.43 5.96
-6 -8 -3 68.12 7.32
-6 -8 -4 43.28 6.75
-6 -8 -5 18.73 5.02
-6 -8 -6 5.46 3.45
-6 -8 -6 4.16 3.3
-6 -8 -7 13.64 4.45
-6 -8 -7 10.19 4.09
-6 -8 -8 18.16 5.17
-6 -8 -8 19.81 5.24
-6 -8 -9 14.07 4.95
-6 -8 -9 11.34 4.38
-6 -8 -10 9.4 4.67
-6 -9 1 31.44 7.11
6 9 -1 33.66 6.75
-6 -9 0 44.14 7.75
6 9 0 44.43 7.03
-6 -9 -1 11.77 4.95
-6 -9 -2 13.93 4.95
-6 -9 -3 17.51 5.38
-6 -9 -4 11.63 4.59
-6 -9 -5 11.48 4.74
-6 -9 -6 0.86 3.59
-6 -9 -7 6.24 4.02
-6 -9 -8 25.05 5.89
-6 -9 -8 22.32 5.74
-6 -9 -9 12.42 5.17
-6 -9 -9 11.48 4.88
-6 -10 -1 1.65 4.23
-6 -10 -2 3.66 4.38
-6 -10 -3 10.05 4.95
-6 -10 -4 12.35 5.17
-6 -10 -5 12.85 5.17
-6 -10 -6 1 4.16
-6 -10 -7 16.72 5.74
-6 -10 -8 13.49 5.31
7 -8 -4 12.35 4.67
7 -8 -3 26.27 5.89
7 -8 -2 27.71 6.1
7 -8 -1 13.64 4.88
7 -8 0 20.1 5.53
7 -8 1 22.9 6.1
7 -7 -6 27.06 6.32
7 -7 -5 13.14 4.52
7 -7 -4 15.43 4.67
7 -7 -3 58.57 7.11
7 -7 -2 49.46 7.39
7 -7 -1 25.77 5.74
7 -7 0 19.45 5.31
7 -7 1 21.32 5.81
7 -7 2 24.55 6.03
-7 7 -3 23.9 6.24
7 -6 -7 32.52 6.89
7 -6 -6 46.3 7.11
7 -6 -6 46.94 7.9
7 -6 -5 39.19 6.53
7 -6 -4 18.95 4.88
7 -6 -3 66.97 7.11
7 -6 -2 60.65 6.96
7 -6 -1 41.49 6.75
7 -6 0 32.87 6.17
7 -6 1 19.38 5.31
7 -6 2 29.21 6.32
-7 6 -3 24.4 5.89
-7 6 -4 39.12 7.25
-7 6 -5 24.84 6.39
7 -5 -7 35.03 6.53
7 -5 -7 49.02 8.11
7 -5 -6 40.05 6.53
7 -5 -5 67.4 7.11
7 -5 -4 21.1 4.95
7 -5 -3 33.52 5.89
7 -5 -2 36.32 6.1
7 -5 -1 56.49 6.53
7 -5 0 44.07 6.82
7 -5 1 73.29 7.46
7 -5 2 109.46 9.04
-7 5 -4 92.38 8.76
-7 5 -5 24.98 6.17
-7 5 -6 20.53 6.1
-7 5 -6 20.53 5.67
7 -4 -8 16.44 4.95
7 -4 -8 26.34 6.39
7 -4 -7 16.51 4.88
7 -4 -7 17.44 5.46
7 -4 -6 42.42 6.68
7 -4 -5 50.53 7.03
7 -4 -4 26.34 5.17
7 -4 -3 38.11 5.96
7 -4 -2 55.13 6.17
7 -4 -1 138.17 9.04
7 -4 0 152.82 9.55
7 -4 1 69.34 7.03
7 -4 2 99.13 8.25
7 -4 3 142.12 9.91
-7 4 -4 141.76 9.98
-7 4 -4 126.04 9.26
-7 4 -5 21.68 5.46
-7 4 -5 23.18 5.38
-7 4 -6 36.46 6.96
-7 4 -6 29.21 6.17
-7 4 -7 35.1 7.11
-7 4 -7 43.28 7.32
7 -3 -8 11.13 4.52
7 -3 -8 13.42 5.02
7 -3 -7 12.49 4.31
7 -3 -7 18.38 5.38
7 -3 -6 25.34 5.38
7 -3 -5 56.27 6.39
7 -3 -4 19.88 4.67
7 -3 -3 72.14 6.75
7 -3 -2 119.8 8.25
7 -3 -1 239.53 11.2
7 -3 0 339.8 13.28
7 -3 1 137.31 8.9
7 -3 2 67.11 6.82
-7 3 -3 130.13 8.69
7 -3 3 138.96 9.33
-7 3 -4 98.84 8.04
7 -3 4 117.14 8.83
-7 3 -5 64.39 7.18
-7 3 -5 56.35 6.6
-7 3 -6 51.11 7.46
-7 3 -6 41.56 6.89
-7 3 -7 37.04 6.82
-7 3 -7 30.72 6.32
-7 3 -8 50.25 8.11
-7 3 -8 33.23 7.11
7 -2 -8 12.13 4.74
7 -2 -8 12.2 4.88
7 -2 -7 6.03 3.73
7 -2 -7 7.68 4.16
7 -2 -6 52.04 7.25
7 -2 -5 145.93 9.47
7 -2 -4 151.96 9.33
7 -2 -3 166.24 9.47
7 -2 -2 91.45 7.25
7 -2 -1 257.76 11.27
7 -2 0 155.76 8.97
7 -2 1 116.71 7.97
7 -2 2 107.74 7.82
-7 2 -3 42.78 6.17
7 -2 3 57.85 6.39
-7 2 -4 91.02 7.54
7 -2 4 111.33 8.33
-7 2 -5 52.76 6.32
7 -2 5 73.72 7.39
-7 2 -6 63.45 6.96
-7 2 -6 47.59 7.03
-7 2 -7 44.07 6.96
-7 2 -7 31.3 6.17
-7 2 -8 58 8.04
-7 2 -8 41.92 7.39
7 -1 -8 20.96 5.67
7 -1 -8 28.42 6.46
7 -1 -7 37.61 6.68
7 -1 -7 49.74 7.39
7 -1 -6 38.4 6.39
7 -1 -6 51.9 7.25
7 -1 -5 152.75 9.76
7 -1 -4 182.1 10.19
7 -1 -3 204.14 10.41
7 -1 -2 94.32 7.25
7 -1 -1 97.69 7.25
7 -1 0 174.71 9.19
7 -1 1 90.3 6.82
-7 1 -2 93.53 7.18
7 -1 2 98.19 7.25
-7 1 -3 43.14 6.03
7 -1 3 53.12 5.81
-7 1 -4 124.39 8.33
7 -1 4 177.08 9.62
-7 1 -5 97.76 7.75
7 -1 5 135.66 8.9
-7 1 -6 86.42 7.75
7 -1 6 134.66 9.33
-7 1 -7 71.92 7.18
-7 1 -7 55.56 6.89
-7 1 -8 59.07 7.11
-7 1 -8 31.51 6.39
-7 1 -9 82.83 8.33
-7 1 -9 53.12 8.18
7 0 -8 49.38 8.11
7 0 -7 67.33 7.9
7 0 -6 60.58 7.11
7 0 -6 64.89 6.89
7 0 -5 67.97 7.11
7 0 -4 85.99 7.46
7 0 -3 178.44 9.83
7 0 -2 62.52 6.1
7 0 -1 43.35 5.24
7 0 0 187.13 9.4
7 0 1 362.99 12.56
-7 0 -2 70.92 6.32
7 0 2 78.38 6.39
-7 0 -3 166.53 9.04
7 0 3 226.46 10.12
-7 0 -4 175.5 9.47
7 0 4 273.26 11.34
-7 0 -5 167.53 9.55
7 0 5 286.11 11.77
-7 0 -6 122.45 8.76
7 0 6 212.03 10.55
-7 0 -7 32.52 5.89
7 0 7 52.9 6.89
-7 0 -8 14.5 4.67
-7 0 -9 11.99 4.74
-7 0 -10 11.84 5.1
7 1 -7 41.27 7.18
7 1 -6 36.25 6.6
7 1 -5 24.12 5.31
7 1 -4 48.67 6.82
7 1 -3 166.81 9.69
7 1 -2 15.79 4.09
7 1 -1 64.74 6.1
7 1 0 228.26 10.19
-7 -1 -1 284.46 11.05
7 1 1 300.82 11.34
-7 -1 -2 410.22 13.28
7 1 2 462.9 13.71
-7 -1 -3 82.19 6.6
7 1 3 99.56 6.89
-7 -1 -4 164.3 9.12
7 1 4 248.35 10.41
-7 -1 -5 75.8 6.89
7 1 5 135.81 8.18
-7 -1 -6 97.55 7.82
7 1 6 187.77 9.62
-7 -1 -7 32.87 6.03
7 1 7 57.85 6.46
-7 -1 -8 22.11 5.38
-7 -1 -9 29.64 6.39
-7 -1 -10 15.65 5.38
7 2 -7 54.19 8.33
7 2 -6 7.46 4.09
7 2 -5 13.14 4.52
7 2 -4 58.43 6.68
7 2 -3 135.66 8.97
7 2 -2 88 7.18
7 2 -1 149.44 8.69
7 2 0 189.78 9.4
-7 -2 -1 321.71 11.41
7 2 1 328.17 11.77
-7 -2 -2 318.7 11.56
7 2 2 354.3 11.99
-7 -2 -3 202.34 9.62
-7 -2 -3 215.55 7.68
7 2 3 288.48 10.77
-7 -2 -4 39.91 5.67
7 2 4 61.95 5.67
-7 -2 -5 52.83 5.96
7 2 5 85.27 6.39
-7 -2 -6 50.53 5.96
7 2 6 90.37 6.68
-7 -2 -7 31.51 5.74
-7 -2 -8 22.54 5.38
-7 -2 -9 25.48 6.1
-7 -2 -10 34.81 7.03
7 3 -6 28.21 6.17
7 3 -5 19.16 5.17
7 3 -4 59.29 7.03
7 3 -3 195.17 10.98
7 3 -2 213.83 10.91
7 3 -1 182.46 9.76
7 3 0 117.07 7.68
-7 -3 -1 119.37 7.18
-7 -3 -1 91.59 6.46
7 3 1 118 7.54
-7 -3 -2 111.4 7.25
-7 -3 -2 83.91 5.89
7 3 2 114.85 7.25
-7 -3 -3 70.27 6.1
-7 -3 -3 53.55 4.88
7 3 3 82.11 6.17
-7 -3 -4 38.83 5.6
-7 -3 -4 33.02 4.31
7 3 4 52.97 5.17
-7 -3 -5 16.94 4.23
7 3 5 23.76 4.09
-7 -3 -6 87.79 7.39
-7 -3 -7 81.83 7.61
-7 -3 -8 37.11 6.46
-7 -3 -9 14.07 4.74
-7 -3 -10 36.1 7.11
7 4 -6 36.39 7.25
7 4 -5 70.2 8.11
7 4 -4 21.89 5.38
7 4 -3 146.36 9.91
7 4 -2 131.21 9.04
7 4 -1 150.45 9.19
-7 -4 0 45.65 5.46
7 4 0 50.25 5.74
-7 -4 -1 50.46 5.1
-7 -4 -1 34.81 5.31
7 4 1 41.27 5.1
-7 -4 -2 126.26 7.46
-7 -4 -2 95.9 6.82
7 4 2 129.42 7.68
-7 -4 -3 68.69 6.03
-7 -4 -3 47.09 5.02
7 4 3 67.4 5.67
-7 -4 -4 43.21 5.31
-7 -4 -4 33.74 4.81
7 4 4 44.57 4.81
-7 -4 -5 23.18 4.81
-7 -4 -6 103.58 8.11
-7 -4 -7 110.68 8.61
-7 -4 -8 58.07 6.96
-7 -4 -9 25.91 5.81
-7 -4 -10 24.55 6.1
7 5 -5 36.82 7.18
7 5 -4 33.09 6.68
7 5 -3 32.66 6.32
7 5 -2 51.68 7.18
7 5 -1 62.95 6.68
-7 -5 0 9.33 3.73
7 5 0 16.72 4.16
-7 -5 -1 18.38 4.45
7 5 1 22.61 4.45
-7 -5 -2 99.92 6.82
-7 -5 -2 67.62 6.32
7 5 2 94.82 6.89
-7 -5 -3 208.66 9.55
-7 -5 -3 161.22 8.83
7 5 3 217.78 9.47
-7 -5 -4 72.07 6.39
-7 -5 -4 59.15 5.81
7 5 4 79.46 5.96
-7 -5 -5 68.05 6.6
-7 -5 -5 52.25 5.67
-7 -5 -6 103.15 8.04
-7 -5 -7 49.6 7.03
-7 -5 -8 39.05 6.75
-7 -5 -9 21.17 5.74
-7 -5 -10 5.17 4.09
7 6 -4 4.23 4.16
7 6 -3 19.95 5.46
7 6 -2 23.18 5.6
-7 -6 1 58.72 7.11
7 6 -1 65.53 7.11
-7 -6 0 25.77 5.6
7 6 0 24.55 4.95
-7 -6 -1 15 4.45
7 6 1 20.39 4.45
-7 -6 -2 64.46 6.6
7 6 2 70.99 6.53
-7 -6 -3 116.43 7.46
-7 -6 -3 95.68 7.75
7 6 3 108.1 7.18
-7 -6 -4 119.3 7.9
-7 -6 -4 97.76 7.61
-7 -6 -5 67.33 6.75
-7 -6 -5 53.33 6.03
-7 -6 -6 47.3 6.68
-7 -6 -6 47.23 6.39
-7 -6 -7 30.36 6.03
-7 -6 -8 34.53 6.53
-7 -6 -9 6.46 4.23
-7 -6 -10 3.59 4.09
7 7 -3 3.3 4.16
7 7 -2 9.91 4.45
-7 -7 1 47.37 7.75
7 7 -1 59.07 7.39
-7 -7 0 45.36 7.39
7 7 0 51.11 7.11
-7 -7 -1 53.19 7.68
7 7 1 71.56 7.11
-7 -7 -2 42.06 6.82
7 7 2 48.45 6.03
-7 -7 -3 55.05 6.68
-7 -7 -4 74.15 7.32
-7 -7 -5 38.55 5.89
-7 -7 -5 28.86 5.67
-7 -7 -6 7.61 3.8
-7 -7 -6 6.24 3.8
-7 -7 -7 9.12 4.16
-7 -7 -7 13.35 4.52
-7 -7 -8 15.29 5.1
-7 -7 -9 12.85 5.02
-7 -7 -10 5.53 4.45
7 8 -2 7.75 4.67
-7 -8 1 29.07 6.96
7 8 -1 32.73 6.6
-7 -8 0 52.9 8.4
7 8 0 62.95 7.54
-7 -8 -1 23.9 6.1
7 8 1 23.11 5.17
-7 -8 -2 10.12 4.59
-7 -8 -3 21.46 5.67
-7 -8 -4 28.42 6.03
-7 -8 -5 12.2 4.59
-7 -8 -6 5.1 3.8
-7 -8 -7 2.87 3.73
-7 -8 -7 3.66 3.66
-7 -8 -8 14.14 5.24
-7 -8 -8 15.22 4.95
-7 -8 -9 19.52 5.89
-7 -9 0 26.13 6.75
-7 -9 -1 18.09 6.03
-7 -9 -2 4.09 4.23
-7 -9 -3 15.86 5.38
-7 -9 -4 7.54 4.74
-7 -9 -5 21.96 5.96
-7 -9 -6 10.34 4.81
-7 -9 -7 3.95 4.23
-7 -9 -8 9.55 4.88
-7 -10 -3 0.65 4.31
-7 -10 -4 10.91 5.46
-7 -10 -5 14.79 5.74
-7 -10 -6 14.21 5.53
8 -7 -3 18.66 5.46
8 -7 -2 27.92 6.32
8 -7 -1 9.91 4.67
8 -7 0 11.48 4.74
8 -6 -5 19.24 5.46
8 -6 -4 19.16 5.24
8 -6 -3 19.52 5.38
8 -6 -2 25.91 6.03
8 -6 -1 39.26 7.11
8 -6 0 25.98 6.17
8 -6 1 22.47 6.03
8 -6 2 23.04 6.17
8 -6 3 39.55 7.82
8 -5 -6 20.74 5.53
8 -5 -5 25.91 5.81
8 -5 -4 15.86 4.81
8 -5 -3 11.13 4.23
8 -5 -2 30.58 6.1
8 -5 -1 56.99 7.82
8 -5 0 69.55 7.75
8 -5 1 48.88 7.61
8 -5 2 28.71 6.32
8 -5 3 22.47 6.03
8 -5 4 62.45 9.26
8 -5 5 47.45 8.33
8 -4 -6 10.62 4.52
8 -4 -5 44 7.11
8 -4 -4 57.71 6.96
8 -4 -3 24.4 5.46
8 -4 -2 47.02 7.03
8 -4 -1 62.81 7.18
8 -4 0 95.25 8.4
8 -4 1 106.81 8.97
8 -4 2 47.88 7.54
8 -4 3 69.05 8.04
8 -4 4 81.68 8.69
8 -4 5 24.69 6.53
-8 4 -6 24.69 6.1
8 -3 -6 17.37 5.1
8 -3 -5 41.27 6.89
8 -3 -4 62.59 7.11
8 -3 -3 93.74 8.18
8 -3 -2 60.22 6.82
8 -3 -1 97.26 8.18
8 -3 0 164.23 10.26
8 -3 1 85.2 7.82
8 -3 2 52.25 7.54
8 -3 3 51.54 7.54
-8 3 -4 62.81 7.32
8 -3 4 73.79 8.04
-8 3 -5 25.84 5.96
8 -3 5 27.49 6.32
-8 3 -6 24.33 6.03
8 -3 6 34.02 6.96
-8 3 -7 35.46 7.18
8 -2 -7 16.58 5.24
8 -2 -7 23.47 6.1
8 -2 -6 21.82 5.53
8 -2 -5 43.93 7.11
8 -2 -4 73.29 7.54
8 -2 -3 81.11 7.61
8 -2 -2 102.79 8.25
8 -2 -1 76.66 7.18
8 -2 0 156.48 9.76
8 -2 1 115.64 8.54
8 -2 2 79.89 7.54
-8 2 -3 34.88 6.17
8 -2 3 48.24 7.11
-8 2 -4 61.66 7.03
8 -2 4 85.2 8.04
-8 2 -5 83.26 8.11
8 -2 5 111.62 9.4
-8 2 -6 52.11 7.82
8 -2 6 84.2 8.54
-8 2 -7 26.06 6.24
8 -2 7 54.98 8.33
-8 2 -8 19.09 5.6
8 -2 8 34.09 7.32
8 -1 -7 31.37 6.68
8 -1 -7 43.28 7.61
8 -1 -6 46.44 7.54
8 -1 -6 53.55 7.97
8 -1 -5 53.55 7.68
8 -1 -4 112.69 8.97
8 -1 -3 106.45 8.47
8 -1 -2 63.31 6.68
8 -1 -1 53.04 7.11
8 -1 0 19.6 4.67
8 -1 1 185.33 10.26
8 -1 2 94.82 7.75
-8 1 -3 41.2 6.32
8 -1 3 55.34 6.68
-8 1 -4 67.69 7.03
8 -1 4 93.1 8.11
-8 1 -5 58.21 6.89
8 -1 5 94.89 8.33
-8 1 -6 87.43 8.18
8 -1 6 122.24 9.4
-8 1 -7 32.3 6.53
8 -1 7 51.82 7.61
-8 1 -8 33.09 6.96
8 -1 8 47.09 7.82
8 0 -6 36.03 6.82
8 0 -5 36.75 6.82
8 0 -4 42.49 6.75
8 0 -3 101.21 8.4
8 0 -2 76.37 7.18
8 0 -1 8.97 3.59
8 0 0 112.12 8.18
8 0 1 134.15 8.69
-8 0 -2 188.78 10.34
8 0 2 203.42 10.48
-8 0 -3 91.95 7.68
8 0 3 133.01 8.76
-8 0 -4 104.51 8.18
8 0 4 138.6 9.12
-8 0 -5 55.27 6.53
8 0 5 76.37 7.39
-8 0 -6 67.69 7.25
8 0 6 118.36 9.04
-8 0 -7 28.21 6.03
8 0 7 60.51 7.32
-8 0 -8 7.75 4.31
-8 0 -9 18.23 5.6
8 1 -6 52.69 8.18
8 1 -5 6.03 3.88
8 1 -4 18.59 4.95
8 1 -3 89.72 7.97
8 1 -2 102.79 8.18
8 1 -1 63.52 6.53
8 1 0 117.72 8.33
8 1 1 233.78 11.13
-8 -1 -2 120.37 8.33
8 1 2 150.59 8.97
-8 -1 -3 133.51 8.76
8 1 3 163.73 9.26
-8 -1 -4 78.38 7.18
8 1 4 98.48 7.68
-8 -1 -5 55.2 6.46
8 1 5 73.07 7.03
-8 -1 -6 52.18 7.39
8 1 6 102 8.11
-8 -1 -7 23.76 5.6
8 1 7 48.02 6.75
-8 -1 -8 23.83 5.81
-8 -1 -9 2.37 3.88
8 2 -6 23.04 6.1
8 2 -5 6.46 4.02
8 2 -4 31.08 6.1
8 2 -3 61.95 7.11
8 2 -2 106.16 8.54
8 2 -1 157.55 9.76
8 2 0 113.91 8.18
8 2 1 155.33 9.26
-8 -2 -2 174.35 9.62
8 2 2 219 10.55
-8 -2 -3 83.91 7.25
8 2 3 99.41 7.54
-8 -2 -4 52.54 6.17
8 2 4 68.55 6.53
-8 -2 -5 13.28 4.23
8 2 5 16.08 4.02
-8 -2 -6 31.51 5.96
-8 -2 -7 35.53 6.53
-8 -2 -8 36.54 6.89
-8 -2 -9 22.9 6.24
8 3 -5 33.09 6.68
8 3 -4 33.88 6.6
8 3 -3 55.2 7.68
8 3 -2 140.97 9.76
8 3 -1 95.25 7.97
8 3 0 94.03 7.68
8 3 1 37.4 5.74
-8 -3 -2 99.84 7.61
8 3 2 104.58 7.61
-8 -3 -3 118.08 8.18
8 3 3 150.23 8.76
-8 -3 -4 57.28 6.39
8 3 4 75.58 6.53
-8 -3 -5 14.14 4.38
8 3 5 20.89 4.31
-8 -3 -6 39.77 6.46
-8 -3 -7 57.49 6.89
-8 -3 -8 34.67 6.75
-8 -3 -9 16.51 5.31
8 4 -5 41.49 7.68
8 4 -4 29.5 6.39
8 4 -3 46.51 7.39
8 4 -2 77.95 7.97
8 4 -1 85.63 7.82
8 4 0 36.1 5.96
8 4 1 12.35 3.8
-8 -4 -2 12.42 3.88
-8 -4 -2 6.75 3.3
8 4 2 8.97 3.59
-8 -4 -3 71.28 6.68
-8 -4 -3 56.06 5.81
8 4 3 80.32 6.82
-8 -4 -4 82.9 7.39
8 4 4 79.96 6.68
-8 -4 -5 34.45 6.1
-8 -4 -6 70.27 7.32
-8 -4 -7 90.58 8.47
-8 -4 -8 48.31 7.54
-8 -4 -9 22.61 5.96
-8 -4 -10 9.47 4.81
8 5 -4 25.84 6.17
8 5 -3 14.5 5.24
8 5 -2 21.39 5.53
8 5 -1 44.57 7.03
8 5 0 46.15 6.6
-8 -5 -1 8.69 3.8
8 5 1 19.88 4.67
-8 -5 -2 52.33 5.96
-8 -5 -2 31.51 5.6
8 5 2 39.84 5.81
-8 -5 -3 96.54 7.61
-8 -5 -3 53.12 6.17
8 5 3 87.57 7.11
-8 -5 -4 85.56 7.39
-8 -5 -4 70.85 6.6
-8 -5 -5 40.63 6.39
-8 -5 -6 69.84 7.39
-8 -5 -7 18.73 5.24
-8 -5 -8 34.74 6.82
-8 -5 -9 15.86 5.31
8 6 -3 9.91 5.02
8 6 -2 5.46 4.02
8 6 -1 34.81 6.6
-8 -6 0 40.91 6.89
8 6 0 41.06 6.68
-8 -6 -1 25.27 5.6
8 6 1 37.04 6.1
-8 -6 -2 37.54 6.53
8 6 2 49.89 6.24
-8 -6 -3 70.7 7.18
-8 -6 -4 74.36 7.25
-8 -6 -4 55.92 6.6
-8 -6 -5 58.5 6.68
-8 -6 -5 42.85 6.46
-8 -6 -6 19.52 5.24
-8 -6 -7 1.79 3.52
-8 -6 -8 8.54 4.67
-8 -6 -9 20.39 6.03
8 7 -2 13.93 5.38
8 7 -1 29.64 6.46
-8 -7 0 68.05 8.11
8 7 0 77.31 8.33
-8 -7 -1 39.77 7.18
8 7 1 52.69 7.25
-8 -7 -2 23.62 5.81
-8 -7 -3 19.52 5.46
-8 -7 -4 44.79 6.96
-8 -7 -5 21.1 5.31
-8 -7 -6 9.55 4.45
-8 -7 -7 2.94 3.95
-8 -7 -8 6.96 4.74
-8 -7 -9 14.43 5.6
-8 -8 0 33.38 7.39
8 8 0 33.74 6.75
-8 -8 -1 29.29 6.89
-8 -8 -2 10.41 4.88
-8 -8 -3 12.35 5.1
-8 -8 -4 11.7 5.1
-8 -8 -5 14.93 5.24
-8 -8 -6 11.7 4.74
-8 -8 -8 11.7 5.31
-8 -9 -2 5.6 5.02
-8 -9 -3 4.02 4.52
-8 -9 -4 -0.43 4.16
-8 -9 -5 12.85 5.67
-8 -9 -6 12.78 5.53
9 -5 -3 14.43 5.17
9 -5 -2 16.15 5.17
9 -5 -1 27.13 6.24
9 -5 0 48.45 7.82
9 -5 1 41.42 7.68
9 -5 2 18.16 6.03
9 -4 -4 19.31 5.46
9 -4 -3 18.73 5.53
9 -4 -2 39.12 6.96
9 -4 -1 35.89 6.82
9 -4 0 78.96 8.47
9 -4 1 66.97 8.11
9 -4 2 34.53 7.03
9 -4 3 22.97 6.32
9 -4 4 31.22 6.96
9 -3 -5 26.92 6.32
9 -3 -4 75.37 8.33
9 -3 -3 39.55 7.11
9 -3 -2 75.58 7.97
9 -3 -1 39.62 6.96
9 -3 0 58.28 8.11
9 -3 1 59.36 8.18
9 -3 2 38.69 7.03
9 -3 3 42.85 7.46
9 -3 4 16.58 5.81
-9 3 -5 24.76 6.17
9 -3 5 30.15 6.82
9 -2 -5 31.51 6.6
9 -2 -4 59.65 8.54
9 -2 -3 94.6 8.83
9 -2 -2 58.28 7.18
9 -2 -1 38.83 6.6
9 -2 0 32.8 6.1
9 -2 1 52.83 7.54
9 -2 2 62.16 7.32
9 -2 3 31.3 6.32
-9 2 -4 28.57 6.1
9 -2 4 29.64 6.39
-9 2 -5 31.22 6.53
9 -2 5 41.2 7.32
-9 2 -6 25.05 6.24
9 -2 6 50.25 8.25
9 -1 -5 25.19 6.24
9 -1 -4 36.54 6.96
9 -1 -3 31.73 6.24
9 -1 -2 113.77 9.26
9 -1 -1 12.35 4.38
9 -1 0 35.32 6.39
9 -1 1 81.97 7.9
9 -1 2 85.92 8.11
9 -1 3 60.08 7.18
-9 1 -4 35.32 6.46
9 -1 4 62.88 7.39
-9 1 -5 66.97 7.75
9 -1 5 107.81 9.62
-9 1 -6 34.74 6.75
9 -1 6 55.56 8.25
-9 1 -7 32.52 6.96
9 -1 7 58.28 8.47
9 0 -5 15.58 5.31
9 0 -4 9.83 4.52
9 0 -3 24.05 5.6
9 0 -2 74.15 7.75
9 0 -1 32.23 5.96
9 0 0 40.91 6.68
9 0 1 130.13 9.4
9 0 2 130.42 9.4
-9 0 -3 86.21 7.97
9 0 3 124.39 9.33
-9 0 -4 37.68 6.53
9 0 4 62.09 7.25
-9 0 -5 26.13 5.81
9 0 5 63.67 7.54
-9 0 -6 27.56 6.17
9 0 6 52.83 7.82
-9 0 -7 21.53 5.74
9 0 7 31.08 6.53
9 1 -5 8.61 4.59
9 1 -4 9.91 4.52
9 1 -3 49.46 7.61
9 1 -2 78.81 8.04
9 1 -1 46.44 7.03
9 1 0 101.57 8.54
9 1 1 83.62 7.82
9 1 2 147.29 9.83
-9 -1 -3 108.31 8.61
9 1 3 152.17 9.98
-9 -1 -4 54.91 6.75
9 1 4 75.87 7.54
-9 -1 -5 21.32 5.31
9 1 5 43.57 6.6
-9 -1 -6 11.99 4.45
9 1 6 17.87 4.81
-9 -1 -7 24.55 6.1
-9 -1 -8 9.55 4.67
9 2 -4 32.87 6.68
9 2 -3 30.51 6.32
9 2 -2 125.54 9.83
9 2 -1 105.95 8.9
9 2 0 101.14 8.61
9 2 1 48.95 7.03
9 2 2 35.96 6.1
-9 -2 -3 40.34 6.68
9 2 3 59.86 6.89
-9 -2 -4 38.9 6.53
9 2 4 56.27 6.68
-9 -2 -5 16.51 4.88
9 2 5 27.42 5.46
-9 -2 -6 15.07 4.95
-9 -2 -7 32.66 6.68
-9 -2 -8 35.46 7.03
9 3 -4 35.96 7.18
9 3 -3 33.38 6.82
9 3 -2 70.2 8.04
9 3 -1 83.26 8.25
9 3 0 61.16 7.11
9 3 1 26.49 5.38
9 3 2 20.96 4.95
-9 -3 -3 43 6.75
9 3 3 54.7 6.53
-9 -3 -4 30 6.03
9 3 4 40.2 6.32
-9 -3 -5 25.63 5.89
9 3 5 35.32 5.74
-9 -3 -6 19.31 5.38
-9 -3 -7 53.98 8.11
-9 -3 -8 38.98 7.25
9 4 -3 15.79 5.24
9 4 -2 26.56 6.32
9 4 -1 20.53 5.38
9 4 0 45.58 7.11
9 4 1 4.67 3.45
9 4 2 26.63 5.38
-9 -4 -3 67.54 7.39
9 4 3 65.61 7.03
-9 -4 -4 100.63 8.69
9 4 4 108.46 8.25
-9 -4 -5 38.04 6.82
-9 -4 -6 37.61 6.75
-9 -4 -7 32.95 6.6
-9 -4 -8 19.67 5.89
9 5 -2 9.04 4.59
9 5 -1 19.24 5.38
9 5 0 43 6.96
9 5 1 36.75 6.32
-9 -5 -2 13.93 4.38
9 5 2 17.94 4.74
-9 -5 -3 55.41 7.39
9 5 3 61.51 6.89
-9 -5 -4 71.35 7.75
-9 -5 -5 63.81 7.54
-9 -5 -6 28.42 6.32
-9 -5 -7 20.24 5.89
-9 -5 -8 7.03 4.74
9 6 -1 8.83 4.88
9 6 0 50.89 7.82
-9 -6 -1 36.75 6.68
9 6 1 47.52 7.25
-9 -6 -2 44.57 7.25
9 6 2 46.8 6.96
-9 -6 -3 21.68 5.38
-9 -6 -5 45.36 7.18
-9 -6 -6 14.36 5.31
-9 -6 -7 3.23 4.16
-9 -6 -8 3.45 4.52
9 7 0 35.1 7.11
-9 -7 -1 37.97 7.46
9 7 1 44.43 7.32
-9 -7 -2 15.29 5.46
-9 -7 -3 6.96 4.52
-9 -7 -4 10.05 4.67
-9 -7 -7 6.75 4.81
-9 -8 -3 2.8 4.45
-9 -8 -4 3.88 4.38
-9 -8 -5 7.03 4.74
10 -3 -2 33.23 6.89
10 -3 -1 34.38 7.03
10 -3 0 32.52 6.82
10 -3 1 36.54 7.11
10 -3 2 45.15 8.04
10 -3 3 12.56 5.31
10 -2 -3 28.78 6.68
10 -2 -2 35.03 7.03
10 -2 -1 27.35 6.32
10 -2 0 14.36 5.17
10 -2 1 20.53 5.67
10 -2 2 47.73 7.82
10 -2 3 48.24 8.04
10 -2 4 13.35 5.31
10 -1 -3 20.39 5.74
10 -1 -2 29.86 6.46
10 -1 -1 35.32 6.89
10 -1 0 8.11 4.31
10 -1 1 35.24 6.89
10 -1 2 65.39 8.04
10 -1 3 62.02 8.61
10 -1 4 55.63 8.33
-10 1 -5 19.24 5.67
10 -1 5 31.22 6.96
10 0 -3 8.76 4.52
10 0 -2 60.01 8.54
10 0 -1 45.29 7.68
10 0 0 33.38 6.6
10 0 1 66.04 7.97
10 0 2 47.59 7.68
10 0 3 57.49 8.25
-10 0 -4 24.19 6.03
10 0 4 33.74 6.53
-10 0 -5 25.12 6.17
10 0 5 41.56 7.32
-10 0 -6 9.55 4.67
10 0 6 16.65 5.6
10 1 -3 21.25 5.96
10 1 -2 41.85 7.46
10 1 -1 66.11 8.11
10 1 0 58.36 8.4
10 1 1 47.3 7.54
10 1 2 60.37 7.46
10 1 3 37.68 7.03
-10 -1 -4 27.06 6.24
10 1 4 44.36 7.25
-10 -1 -5 11.7 4.81
10 1 5 19.74 5.38
-10 -1 -6 6.89 4.45
10 1 6 10.7 4.67
10 2 -2 32.59 6.82
10 2 -1 56.2 8.33
10 2 0 51.11 7.82
10 2 1 33.74 6.6
10 2 2 17.37 5.24
-10 -2 -3 36.61 6.82
10 2 3 49.74 7.54
-10 -2 -4 43.43 7.39
10 2 4 44.93 7.03
-10 -2 -5 23.47 5.96
10 2 5 39.05 6.75
-10 -2 -6 7.75 4.45
10 3 -2 28.86 6.75
10 3 -1 33.23 6.89
10 3 0 27.92 6.32
10 3 1 20.24 5.53
10 3 2 8.04 4.09
-10 -3 -3 9.69 4.59
10 3 3 12.63 4.67
10 3 4 63.45 7.54
-10 -3 -5 32.73 6.89
-10 -3 -6 23.76 6.24
-10 -3 -7 28.78 6.75
10 4 -1 14.86 5.24
10 4 0 19.95 5.74
10 4 1 31.58 6.32
10 4 2 19.81 5.38
-10 -4 -3 27.28 6.1
10 4 3 37.47 6.6
-10 -4 -4 40.05 7.25
-10 -4 -5 46.44 7.9
-10 -4 -6 17.51 5.74
10 5 0 25.84 6.32
10 5 1 32.59 6.68
10 5 2 21.61 5.6
-10 -5 -4 31.15 6.68
-10 -5 -5 28.14 6.53
-10 -5 -6 22.32 6.24
11 1 2 14 5.31
11 2 2 22.04 6.03
loop_
_geom_angle_atom_site_label_1
_geom_angle_atom_site_label_2
_geom_angle_atom_site_label_3
_geom_angle
_geom_angle_site_symmetry_1
_geom_angle_site_symmetry_3
S1 Pt1 S1 180.0 2_567 .
S2 Pt1 S1 90.40(6) 2_567 2_567
S2 Pt1 S1 89.60(6) 2_567 .
S2 Pt1 S1 89.60(6) . 2_567
S2 Pt1 S1 90.40(6) . .
S2 Pt1 S2 180.0 . 2_567
C2 S1 Pt1 101.9(2) . .
C3 S2 Pt1 101.9(2) . 2_567
C8 N3 C9 119.9(6) . .
C13 N3 C9 120.1(8) . .
C13 N3 C8 120.0(8) . .
C2 C3 S2 123.2(6) . .
C4 C3 S2 115.5(5) . .
C4 C3 C2 121.3(6) . .
C3 C2 S1 122.3(5) . .
C1 C2 S1 116.1(5) . .
C1 C2 C3 121.5(7) . .
N2 C4 C3 175.7(9) . .
C5 C7 C8 120.6(7) 2_656 .
C6 C7 C8 121.0(7) . .
C6 C7 C5 118.5(7) . 2_656
N1 C1 C2 178.6(9) . .
H9 C9 N3 119.8(4) . .
C10 C9 N3 120.4(8) . .
C10 C9 H9 119.8(6) . .
C7 C8 N3 111.2(6) . .
H8a C8 N3 109.4(4) . .
H8a C8 C7 109.4(5) . .
H8b C8 N3 109.4(4) . .
H8b C8 C7 109.4(4) . .
H8b C8 H8a 108.0 . .
H5 C5 C7 119.5(4) . 2_656
C6 C5 C7 121.0(7) . 2_656
C6 C5 H5 119.5(4) . .
C5 C6 C7 120.5(7) . .
H6 C6 C7 119.7(4) . .
H6 C6 C5 119.7(4) . .
H13 C13 N3 119.6(6) . .
C12 C13 N3 120.8(10) . .
C12 C13 H13 119.6(7) . .
H10 C10 C9 119.9(6) . .
C11 C10 C9 120.1(11) . .
C11 C10 H10 119.9(7) . .
H11 C11 C10 120.7(7) . .
C12 C11 C10 118.7(10) . .
C12 C11 H11 120.7(6) . .
C11 C12 C13 119.8(9) . .
H12 C12 C13 120.1(7) . .
H12 C12 C11 120.1(6) . .
loop_
_geom_bond_atom_site_label_1
_geom_bond_atom_site_label_2
_geom_bond_distance
_geom_bond_site_symmetry_2
Pt1 S1 2.2835(16) .
Pt1 S1 2.2835(16) 2_567
Pt1 S2 2.2877(18) .
Pt1 S2 2.2877(18) 2_567
S1 C2 1.745(8) .
S2 C3 1.731(7) .
N3 C9 1.334(12) .
N3 C8 1.511(10) .
N3 C13 1.335(9) .
C3 C2 1.361(10) .
C3 C4 1.433(12) .
C2 C1 1.435(10) .
C4 N2 1.148(11) .
C7 C8 1.490(10) .
C7 C5 1.371(10) 2_656
C7 C6 1.402(10) .
N1 C1 1.133(10) .
C9 H9 0.9300 .
C9 C10 1.355(14) .
C8 H8a 0.9700 .
C8 H8b 0.9700 .
C5 H5 0.9300 .
C5 C6 1.380(11) .
C6 H6 0.9300 .
C13 H13 0.9300 .
C13 C12 1.352(16) .
C10 H10 0.9300 .
C10 C11 1.360(16) .
C11 H11 0.9300 .
C11 C12 1.362(19) .
C12 H12 0.9300 .
loop_
_geom_torsion_atom_site_label_1
_geom_torsion_atom_site_label_2
_geom_torsion_atom_site_label_3
_geom_torsion_atom_site_label_4
_geom_torsion
_geom_torsion_site_symmetry_1
_geom_torsion_site_symmetry_2
_geom_torsion_site_symmetry_3
_geom_torsion_site_symmetry_4
S1 C2 C3 S2 2.0(6) . . . .
S1 C2 C3 C4 -178.0(6) . . . .
S2 C3 C2 C1 -179.5(6) . . . .
N3 C9 C10 C11 -3.2(9) . . . .
N3 C8 C7 C5 -88.6(8) . . . 2_656
N3 C8 C7 C6 91.4(8) . . . .
N3 C13 C12 C11 2.3(10) . . . .
C7 C5 C6 C7 -1.5(9) 2_656 . . .
C7 C6 C5 C7 -1.5(9) . . . 2_656
C9 C10 C11 C12 3.8(11) . . . .
C13 C12 C11 C10 -3.4(12) . . . .
