#------------------------------------------------------------------------------
#$Date: 2022-03-07 10:40:41 +0200 (Mon, 07 Mar 2022) $
#$Revision: 273483 $
#$URL: file:///home/coder/svn-repositories/cod/cif/8/10/46/8104655.cif $
#------------------------------------------------------------------------------
#
# This file is available in the Crystallography Open Database (COD),
# http://www.crystallography.net/
#
# All data on this site have been placed in the public domain by the
# contributors.
#
data_8104655
loop_
_publ_author_name
'Huang, Guang'
_publ_section_title
;
 The crystal structure of 2-amino-3-carboxypyridin-1-ium iodide
 hemihydrate, C6H8IN2O2.5
;
_journal_issue                   5
_journal_name_full
'Zeitschrift f\"ur Kristallographie - New Crystal Structures'
_journal_page_first              1021
_journal_page_last               1022
_journal_paper_doi               10.1515/ncrs-2021-0204
_journal_volume                  236
_journal_year                    2021
_chemical_formula_moiety         '2(C6 H7 N2 O2), 2(I), H2 O'
_chemical_formula_sum            'C12 H16 I2 N4 O5'
_chemical_formula_weight         550.09
_space_group_crystal_system      monoclinic
_space_group_IT_number           13
_space_group_name_Hall           '-P 2yac'
_space_group_name_H-M_alt        'P 1 2/n 1'
_atom_sites_solution_hydrogens   mixed
_cell_angle_alpha                90
_cell_angle_beta                 105.493(2)
_cell_angle_gamma                90
_cell_formula_units_Z            2
_cell_length_a                   9.8300(4)
_cell_length_b                   5.3338(2)
_cell_length_c                   17.4040(8)
_cell_measurement_reflns_used    5655
_cell_measurement_temperature    150(2)
_cell_measurement_theta_max      26.40
_cell_measurement_theta_min      2.43
_cell_volume                     879.36(6)
_computing_cell_refinement       'SAINT v8.37A (Bruker, 2015) [1]'
_computing_data_collection       'Bruker APEX-II'
_computing_data_reduction        'SAINT v8.37A (Bruker, 2015) [1]'
_computing_molecular_graphics    'Olex2 1.3 (Dolomanov et al., 2009) [2]'
_computing_publication_material  'Olex2 1.3 (Dolomanov et al., 2009) [2]'
_computing_structure_refinement  'SHELXL 2018/3 (Sheldrick, 2015) [3]'
_computing_structure_solution    'SHELXT 2018/2 (Sheldrick, 2018) [4]'
_diffrn_ambient_temperature      150.0
_diffrn_measured_fraction_theta_full 0.996
_diffrn_measured_fraction_theta_max 0.995
_diffrn_measurement_device_type  'Bruker APEX-II CCD'
_diffrn_measurement_method       '\f and \w scans'
_diffrn_radiation_type           MoK\a
_diffrn_radiation_wavelength     0.71073
_diffrn_reflns_av_R_equivalents  0.0265
_diffrn_reflns_av_unetI/netI     0.0187
_diffrn_reflns_Laue_measured_fraction_full 0.996
_diffrn_reflns_Laue_measured_fraction_max 0.995
_diffrn_reflns_limit_h_max       12
_diffrn_reflns_limit_h_min       -12
_diffrn_reflns_limit_k_max       6
_diffrn_reflns_limit_k_min       -6
_diffrn_reflns_limit_l_max       21
_diffrn_reflns_limit_l_min       -21
_diffrn_reflns_number            9344
_diffrn_reflns_point_group_measured_fraction_full 0.996
_diffrn_reflns_point_group_measured_fraction_max 0.995
_diffrn_reflns_theta_full        25.242
_diffrn_reflns_theta_max         26.395
_diffrn_reflns_theta_min         2.168
_diffrn_source_current           30.0
_diffrn_source_power             1.5
_diffrn_source_voltage           50.0
_diffrn_standards_number         0
_exptl_absorpt_coefficient_mu    3.605
_exptl_absorpt_correction_T_max  0.0932
_exptl_absorpt_correction_T_min  0.0556
_exptl_absorpt_correction_type   multi-scan
_exptl_absorpt_process_details
;
SADABS-2016/2 (Bruker,2016/2) was used for absorption correction.
wR2(int) was 0.0829 before and 0.0407 after correction.
The Ratio of minimum to maximum transmission is 0.5966.
The \l/2 correction factor is Not present.
;
_exptl_crystal_colour            colorless
_exptl_crystal_density_diffrn    2.078
_exptl_crystal_description       block
_exptl_crystal_F_000             524
_exptl_crystal_size_max          0.25
_exptl_crystal_size_mid          0.15
_exptl_crystal_size_min          0.1
_refine_diff_density_max         0.330
_refine_diff_density_min         -0.369
_refine_diff_density_rms         0.061
_refine_ls_extinction_coef       .
_refine_ls_extinction_method     none
_refine_ls_goodness_of_fit_ref   1.103
_refine_ls_hydrogen_treatment    mixed
_refine_ls_matrix_type           full
_refine_ls_number_parameters     109
_refine_ls_number_reflns         1802
_refine_ls_number_restraints     0
_refine_ls_restrained_S_all      1.103
_refine_ls_R_factor_all          0.0168
_refine_ls_R_factor_gt           0.0139
_refine_ls_shift/su_max          0.002
_refine_ls_shift/su_mean         0.000
_refine_ls_structure_factor_coef Fsqd
_refine_ls_weighting_details
'w=1/[\s^2^(Fo^2^)+(0.0064P)^2^+0.4804P] where P=(Fo^2^+2Fc^2^)/3'
_refine_ls_weighting_scheme      calc
_refine_ls_wR_factor_gt          0.0298
_refine_ls_wR_factor_ref         0.0306
_reflns_Friedel_coverage         0.000
_reflns_Friedel_fraction_full    .
_reflns_Friedel_fraction_max     .
_reflns_number_gt                1667
_reflns_number_total             1802
_reflns_threshold_expression     'I > 2\s(I)'
_cod_data_source_file            suppl_j_ncrs-2021-0204_suppl.cif
_cod_data_source_block           1
_cod_original_sg_symbol_H-M      'P 2/n'
_cod_database_code               8104655
_shelx_space_group_comment
;
The symmetry employed for this shelxl refinement is uniquely defined
by the following loop, which should always be used as a source of
symmetry information in preference to the above space-group names.
They are only intended as comments.
;
_shelx_estimated_absorpt_t_max   0.714
_shelx_estimated_absorpt_t_min   0.466
_olex2_refinement_description
;
1. Fixed Uiso
 At 1.2 times of:
  All C(H) groups, All N(H) groups, All N(H,H) groups
 At 1.5 times of:
  All O(H) groups
2.a Aromatic/amide H refined with riding coordinates:
 C3(H3), C4(H4), C5(H5), N1(H1)
2.b X=CH2 refined with riding coordinates:
 N2(H2A,H2B)
2.c Idealised tetrahedral OH refined as rotating group:
 O2(H2)
;
_shelx_res_file
;
TITL 1.res in P2/n
    1.res
    created by SHELXL-2018/3 at 10:41:24 on 14-Feb-2021
CELL 0.71073 9.83 5.3338 17.404 90 105.493 90
ZERR 2 0.0004 0.0002 0.0008 0 0.002 0
LATT 1
SYMM 0.5-X,+Y,0.5-Z
SFAC C H I O N
UNIT 24 32 4 10 8

L.S. 4
PLAN  10
SIZE 0.25 0.15 0.1
TEMP -123.15
CONF
BOND $H
MORE -1
fmap 2
acta
REM <olex2.extras>
REM <HklSrc "%.\\1.hkl">
REM </olex2.extras>

WGHT    0.006400    0.480400
FVAR       0.57409
C1    1    0.729662    0.224426    0.496379    11.00000    0.02365    0.02266 =
         0.02293   -0.00067    0.00521   -0.00128
C2    1    0.692526    0.431417    0.437705    11.00000    0.01938    0.02038 =
         0.01803   -0.00108    0.00379    0.00020
C3    1    0.793876    0.583736    0.421469    11.00000    0.02014    0.02622 =
         0.02225   -0.00053    0.00370   -0.00113
AFIX  43
H3    2    0.890331    0.554152    0.447902    11.00000   -1.20000
AFIX   0
C4    1    0.758693    0.781550    0.366949    11.00000    0.02594    0.02664 =
         0.02644    0.00148    0.00884   -0.00654
AFIX  43
H4    2    0.829807    0.884976    0.355846    11.00000   -1.20000
AFIX   0
C5    1    0.620795    0.821404    0.330532    11.00000    0.03141    0.02192 =
         0.02301    0.00364    0.00646   -0.00106
AFIX  43
H5    2    0.594390    0.955764    0.293724    11.00000   -1.20000
AFIX   0
C6    1    0.547656    0.476128    0.397407    11.00000    0.02172    0.02060 =
         0.01927   -0.00296    0.00467   -0.00168

I1    3    0.935780    0.711347    0.664844    11.00000    0.02115    0.02359 =
         0.02249    0.00059    0.00406   -0.00012
N1    5    0.519528    0.671678    0.345928    11.00000    0.01964    0.02434 =
         0.02169    0.00115    0.00297    0.00103
AFIX  43
H1    2    0.430810    0.703382    0.321120    11.00000   -1.20000
AFIX   0
N2    5    0.440448    0.339452    0.405876    11.00000    0.01688    0.03001 =
         0.03026    0.00584    0.00087   -0.00240
AFIX  93
H2A   2    0.353855    0.376613    0.378475    11.00000   -1.20000
H2B   2    0.455659    0.211288    0.438917    11.00000   -1.20000
AFIX   0
O1    4    0.642546    0.110814    0.521107    11.00000    0.02415    0.03452 =
         0.04068    0.01560    0.00851   -0.00233
O2    4    0.866427    0.175138    0.519094    11.00000    0.02003    0.02727 =
         0.02642    0.00726    0.00243    0.00180
AFIX 147
H2    2    0.881736    0.059259    0.553009    11.00000   -1.50000
AFIX   0

O1W   4    0.250000    0.846809    0.250000    10.50000    0.02305    0.02811 =
         0.03128    0.00000    0.01013    0.00000
H1W   2    0.216442    0.937867    0.277861    11.00000   -1.50000
HKLF 4




REM  1.res in P2/n
REM wR2 = 0.0306, GooF = S = 1.103, Restrained GooF = 1.103 for all data
REM R1 = 0.0139 for 1667 Fo > 4sig(Fo) and 0.0168 for all 1802 data
REM 109 parameters refined using 0 restraints

END

WGHT      0.0064      0.4804

REM Highest difference peak  0.330,  deepest hole -0.369,  1-sigma level  0.061
Q1    1   0.7072  0.3401  0.4573  11.00000  0.05    0.33
Q2    1   0.6246  0.4732  0.4250  11.00000  0.05    0.31
Q3    1   0.7371  0.4980  0.4332  11.00000  0.05    0.26
Q4    1   0.9186  0.5818  0.6980  11.00000  0.05    0.22
Q5    1   0.7217  0.5123  0.4578  11.00000  0.05    0.22
Q6    1   0.0526  0.8605  0.2686  11.00000  0.05    0.21
Q7    1   0.7610  0.6807  0.3878  11.00000  0.05    0.21
Q8    1   0.5373  0.5729  0.3733  11.00000  0.05    0.20
Q9    1   0.8511 -0.0260  0.6292  11.00000  0.05    0.20
Q10   1   0.4756  0.7124  0.3515  11.00000  0.05    0.20
;
_shelx_hkl_file
;
   1   0   0    2.40    0.70
  -1   0   0    0.70    0.60
   2   0   0 3077.39   59.99
  -2   0   0 3007.50   59.99
  -3   0   0    4.50    1.90
   3   0   0    1.10    1.40
  -4   0   0    1.70    2.00
   4   0   0    4.10    2.20
  -5   0   0    1.60    2.30
   5   0   0   -2.70    1.90
  -6   0   0 2975.50   69.39
   6   0   0 2965.10   65.79
  -6   0   0 2988.80   66.89
  -7   0   0    5.90    3.60
   7   0   0    3.40    3.30
  -7   0   0   -9.20    3.90
   8   0   0 2020.90   50.79
  -8   0   0 2074.89   55.89
  -8   0   0 1989.20   52.19
  -9   0   0   -1.40    4.50
  -9   0   0   -3.60    5.80
   9   0   0    1.80    4.60
 -10   0   0  959.00   33.80
 -10   0   0  954.00   36.50
 -11   0   0    0.90    6.60
  11   0   0   -6.80    7.60
   0  -1   0 1288.47   26.90
   0  -1   0 1217.68   28.10
   0  -1   0 1219.08   27.20
   0   1   0 1295.97   27.50
   0   1   0 1260.37   26.70
   0   1   0 1229.78   28.10
   1  -1   0  967.90   21.50
   1  -1   0 1010.00   23.80
  -1  -1   0 1006.20   23.60
  -1   1   0  965.60   21.60
   1   1   0  941.11   23.90
   1   1   0  966.90   21.60
   1   1   0  996.30   23.50
   2  -1   0 1067.69   24.30
  -2  -1   0 1091.59   27.00
   2  -1   0 1038.60   21.70
   2   1   0 1131.29   27.30
  -2   1   0 1083.69   24.60
   3  -1   0 8799.62  163.18
   3  -1   0 8160.98  158.88
   3   1   0 8368.36  165.98
  -3   1   0 8775.92  163.68
   4  -1   0  356.16   10.30
  -4  -1   0  349.07   14.60
  -4   1   0  344.27   11.50
   4   1   0  366.86   15.00
  -5  -1   0 6556.14  133.19
   5  -1   0 6394.16  125.39
   5   1   0 6503.75  132.99
  -5   1   0 6403.06  127.59
  -5   1   0 6702.73  132.09
  -6  -1   0  118.49   10.30
   6   1   0  139.89   11.00
  -6   1   0  137.29   10.60
  -6   1   0  122.59    8.40
   7  -1   0  535.75   17.40
  -7  -1   0  542.15   22.60
  -7   1   0  513.95   19.20
  -7   1   0  551.84   22.50
   7   1   0  542.35   22.40
  -8  -1   0  697.43   27.40
   8  -1   0  703.13   21.80
  -8   1   0  721.63   24.40
   8   1   0  723.73   27.40
  -8   1   0  687.73   27.50
   9  -1   0  525.25   24.00
  -9  -1   0  552.14   25.10
   9   1   0  505.25   24.90
  -9   1   0  550.14   21.60
  -9   1   0  492.25   24.20
 -10  -1   0    0.50    7.10
  10  -1   0   18.90    8.30
 -10   1   0    0.30    4.80
  10   1   0    0.10    6.70
 -11  -1   0  797.92   35.40
 -11  -1   0  717.13   32.60
  11  -1   0  806.82   32.70
 -11   1   0  787.02   33.10
 -11   1   0  806.32   28.40
   0  -2   0 9287.57  179.48
   0  -2   0 9199.58  175.98
   0  -2   0 9108.99  176.38
   0  -2   0 9099.79  176.98
  -1  -2   0 1448.96   40.80
   1  -2   0 1574.04   38.00
  -1  -2   0 1443.06   36.10
  -1  -2   0 1514.45   38.70
   1  -2   0 1534.95   33.90
   1  -2   0 1595.94   38.70
   1  -2   0 1580.14   35.30
   1   2   0 1526.05   36.80
   1   2   0 1511.15   35.50
  -1   2   0 1505.75   37.30
   1   2   0 1595.74   39.00
   2  -2   0 2340.17   49.30
  -2  -2   0 2251.17   52.79
   2  -2   0 2350.56   53.59
   2  -2   0 2233.48   46.10
   2   2   0 2218.58   52.49
  -2   2   0 2329.67   49.40
   2   2   0 2273.87   54.29
   2   2   0 2294.57   49.20
   3  -2   0 1757.62   45.20
   3  -2   0 1772.42   40.40
   3  -2   0 1788.62   35.50
  -3  -2   0 1840.92   45.30
   3   2   0 1809.92   45.20
   3   2   0 1806.92   39.80
  -3   2   0 1751.42   41.30
   4  -2   0    9.90    4.30
   4  -2   0    3.90    2.40
  -4  -2   0    5.30    3.20
   4  -2   0    5.70    1.10
   4   2   0   10.80    4.30
  -4   2   0   19.40    3.80
  -5  -2   0  844.32   28.80
   5  -2   0  811.42   28.70
   5  -2   0  862.51   24.80
  -5   2   0  827.02   25.30
   5   2   0  804.72   28.30
   6  -2   0 2192.28   57.49
  -6  -2   0 2193.58   57.39
   6   2   0 2187.58   57.49
  -6   2   0 2192.98   53.69
   7  -2   0   58.09    9.80
  -7  -2   0   49.60    8.60
   7   2   0   57.69    9.60
  -7   2   0   86.09   10.30
   8  -2   0  837.92   47.90
  -8  -2   0  880.11   33.80
  -8   2   0  876.41   31.50
   8   2   0  942.71   34.40
   9  -2   0    8.30    8.50
  -9  -2   0   -9.10    5.40
  -9   2   0    3.90    6.50
   9   2   0    6.30    7.50
 -10  -2   0  517.75   27.60
 -10   2   0  461.25   24.90
 -11  -2   0  219.18   20.80
  11  -2   0  212.78   23.10
 -11   2   0  175.68   19.50
   0  -3   0  893.41   26.20
   0  -3   0  886.41   26.40
   0  -3   0  881.21   29.20
   0  -3   0  829.82   26.70
   0   3   0  884.31   28.90
   0   3   0  889.01   27.20
   1  -3   0  745.53   26.20
   1  -3   0  737.13   22.70
   1  -3   0  731.73   21.80
   1  -3   0  742.53   25.20
  -1  -3   0  709.73   26.00
  -1  -3   0  729.63   24.30
  -1  -3   0  726.63   23.30
   1   3   0  730.73   26.00
   1   3   0  714.23   23.20
  -2  -3   0 2454.25   60.39
   2  -3   0 2559.84   62.39
   2  -3   0 2520.25   56.79
   2  -3   0 2640.14   62.19
   2  -3   0 2582.74   54.69
   2   3   0 2509.65   57.49
   2   3   0 2489.45   60.39
   2   3   0 2562.24   63.09
   3  -3   0 2515.25   62.19
   3  -3   0 2452.05   55.29
   3  -3   0 2435.16   50.89
  -3  -3   0 2418.46   60.69
   3   3   0 2456.95   55.29
  -3   3   0 2458.15   55.69
   3   3   0 2402.76   62.39
   3   3   0 2525.65   61.19
   4  -3   0   53.69    8.50
   4  -3   0   54.99    6.40
   4  -3   0   55.99    3.50
  -4  -3   0   49.70    8.30
  -4   3   0   46.60    6.30
   4   3   0   53.79    6.20
   4   3   0   53.29    8.80
   4   3   0   55.19    8.70
  -5  -3   0 1171.88   38.80
   5  -3   0 1242.98   33.20
   5  -3   0 1249.57   40.30
   5   3   0 1185.78   39.00
   5   3   0 1251.27   42.50
   5   3   0 1269.47   31.80
  -5   3   0 1231.88   33.90
  -6  -3   0  508.35   24.40
   6  -3   0  501.65   36.00
   6  -3   0  520.25   19.60
   6   3   0  505.25   25.00
   6   3   0  507.25   17.40
  -6   3   0  546.65   20.70
  -7  -3   0  139.09   14.50
   7  -3   0  168.88   17.10
   7   3   0  158.48    9.70
   7   3   0  145.69   15.60
  -7   3   0  162.48   12.50
  -8  -3   0 1231.58   43.20
   8   3   0 1259.67   31.60
  -8   3   0 1165.48   37.30
   8   3   0 1214.08   43.80
  -9  -3   0   77.49   12.60
   9  -3   0   63.49   13.00
   9   3   0   80.79    9.60
  -9   3   0   69.49   10.30
 -10  -3   0   64.99   13.00
  10  -3   0   58.79   15.20
 -10   3   0   64.99   11.30
   0  -4   0  640.94   25.10
   0  -4   0  636.34   23.80
   0  -4   0  632.84   27.00
   0  -4   0  628.94   23.30
   1  -4   0  486.45   19.10
   1  -4   0  481.15   19.80
  -1  -4   0  512.85   24.10
   1  -4   0  473.95   23.40
   1  -4   0  496.85   22.50
  -1  -4   0  520.15   21.70
  -1  -4   0  517.05   21.70
  -1  -4   0  504.05   21.20
   1   4   0  523.75   21.40
   1   4   0  524.55   23.80
   2  -4   0  433.46   22.40
   2  -4   0  468.85   22.10
   2  -4   0  462.15   18.60
  -2  -4   0  425.16   20.90
   2  -4   0  475.35   17.40
   2   4   0  437.06   22.40
   2   4   0  438.96   19.20
  -3  -4   0 2053.99   55.89
   3  -4   0 2027.10   56.99
   3  -4   0 2002.80   57.69
   3  -4   0 1926.21   46.20
   3  -4   0 2041.00   49.70
   3   4   0 2079.89   58.09
   3   4   0 1951.30   49.90
   4  -4   0   24.90    7.90
  -4  -4   0   27.90    7.60
   4  -4   0   31.30    5.90
   4  -4   0   29.00    4.00
   4   4   0   34.90    6.20
   4   4   0   44.80    9.50
   5  -4   0 1507.75   40.30
  -5  -4   0 1626.34   49.50
   5   4   0 1536.55   39.80
  -5   4   0 1485.55   40.70
   5   4   0 1514.55   50.59
  -6  -4   0  474.25   25.50
   6  -4   0  512.25   20.20
   6   4   0  488.45   18.60
  -6   4   0  471.85   19.90
   6   4   0  504.05   28.50
  -7  -4   0  248.38   20.20
   7  -4   0  205.58   13.90
   7  -4   0  254.97   21.80
   7   4   0  192.68   21.30
  -7   4   0  197.28   14.00
   7   4   0  221.58   12.20
   8  -4   0  374.86   27.90
  -8  -4   0  391.26   25.60
  -8   4   0  395.06   19.60
   8   4   0  383.96   15.40
   8   4   0  411.56   29.80
   9  -4   0   78.39   16.40
  -9  -4   0   81.49   15.00
  -9   4   0   86.39   11.30
   0  -5   0 1449.06   47.70
   0  -5   0 1337.87   41.20
   0  -5   0 1320.87   43.10
   0  -5   0 1337.77   41.10
   1  -5   0   26.20    6.80
  -1  -5   0   40.30   10.00
   1  -5   0   26.20    8.90
   1  -5   0   36.50    9.60
   1  -5   0   33.60    6.90
  -1  -5   0   31.20    7.80
  -1  -5   0   36.30    8.10
   2  -5   0 1527.35   49.90
  -2  -5   0 1475.55   52.29
   2  -5   0 1450.65   47.60
   2  -5   0 1504.15   42.60
  -2  -5   0 1452.55   56.39
   2  -5   0 1436.86   40.20
   2   5   0 1490.85   49.00
   3  -5   0   91.39   14.60
   3  -5   0   67.39    8.00
  -3  -5   0   94.39   12.80
   3  -5   0   87.69   10.20
   3  -5   0   71.89   12.70
  -3  -5   0   67.59   11.20
   3   5   0   98.29   15.20
   3   5   0   59.49    9.10
   4  -5   0    0.50    8.70
  -4  -5   0    5.50    7.00
   4  -5   0    0.00    5.10
   4  -5   0   17.30    8.90
   4  -5   0    1.10    3.80
   4   5   0    1.80    7.60
   4   5   0    8.90    5.80
  -5  -5   0   44.20   10.50
   5  -5   0   44.70   12.00
   5  -5   0   35.70    7.30
   5  -5   0   38.20   12.60
   5   5   0   59.29   13.30
   5   5   0   39.30    7.90
   6  -5   0  395.26   28.00
   6  -5   0  429.76   19.50
   6  -5   0  372.66   28.30
  -6  -5   0  410.16   26.00
   6   5   0  365.36   18.50
   6   5   0  435.86   29.00
   7  -5   0    8.10   12.80
  -7  -5   0  -16.10    8.70
   7  -5   0    6.20    6.60
   7   5   0   11.40   12.30
   7   5   0   -1.00    5.60
   0  -6   0   12.20    7.80
   0  -6   0    2.50   11.60
   0  -6   0    3.30    7.30
  -1  -6   0   61.79   11.10
   1  -6   0   79.29   11.70
   1  -6   0   84.29   14.40
   1  -6   0   75.99   11.00
  -1  -6   0   78.49   12.40
   1  -6   0   89.29   16.20
   2  -6   0   17.00   11.40
   2  -6   0   37.30    9.30
   2  -6   0   36.60   13.40
   2  -6   0   25.50    7.50
  -2  -6   0   37.70   10.60
  -2  -6   0   29.20    9.60
   3  -6   0  746.33   53.99
  -3  -6   0  753.12   34.30
   3  -6   0  684.73   37.00
  -3  -6   0  722.23   34.00
   3  -6   0  718.93   26.00
   3   6   0  690.33   35.00
   4  -6   0   13.60    7.70
   4  -6   0    7.50   12.20
   4  -6   0   -0.50   12.80
  -4  -6   0    0.60    9.50
   4  -6   0    4.70    5.50
  -4  -6   0    8.00    9.40
   4   6   0   12.10   10.50
   5  -6   0  510.95   46.20
   5  -6   0  501.55   23.90
   5  -6   0  523.75   33.30
   5   6   0  560.54   34.00
 -11   0   1 1003.40   34.50
  11   0  -1 1013.80   32.90
 -11   0   1  779.02   41.50
 -10   0   1    1.40    7.40
 -10   0   1   -1.60    5.10
  10   0  -1   -0.40    5.80
  -9   0   1   24.70    6.40
  -9   0   1   19.20    7.30
   9   0  -1   11.80    5.60
  -8   0   1   -7.00    5.30
  -8   0   1   -1.70    3.50
   8   0  -1   -1.70    3.90
  -7   0   1 1497.95   39.90
  -7   0   1 1573.84   44.60
   7   0  -1 1511.45   39.20
  -6   0   1    1.90    2.70
  -6   0   1   -1.20    3.40
   6   0  -1    3.50    2.70
   5   0  -1 6784.92  134.09
  -5   0   1 6848.41  138.79
  -4   0   1    2.10    1.80
   4   0  -1    2.80    1.90
  -4   0   1    0.20    2.30
   3   0  -1 4614.14   91.39
  -3   0   1 4805.42   94.79
  -3   0   1 4659.23   91.39
   2   0  -1    5.60    1.30
  -2   0   1   11.60    1.80
  -2   0   1    7.50    2.00
  -1   0   1   55.79    3.30
   1   0  -1   48.70    2.40
   1   0   1 1783.22   37.10
  -1   0  -1 1842.12   37.30
  -2   0  -1    3.00    1.70
   2   0   1    0.60    1.50
  -3   0  -1 6635.84  130.39
   3   0   1 6714.93  129.79
   4   0   1    2.40    2.10
  -4   0  -1    3.90    2.40
   5   0   1 1215.98   32.40
  -5   0  -1 1254.87   33.60
   6   0   1    3.40    3.40
  -6   0  -1    1.10    3.00
  -7   0  -1  140.59   11.30
   7   0   1  161.08   11.30
  -7   0  -1  152.28   12.30
   8   0   1   -5.30    3.90
  -8   0  -1    2.20    4.20
  -8   0  -1    1.90    5.20
  -9   0  -1 1129.39   37.00
  -9   0  -1 1120.09   38.50
   9   0   1 1134.19   35.20
 -10   0  -1   -4.20    5.80
  10   0   1    5.20    6.50
 -10   0  -1   11.80    8.00
 -11   0  -1 1250.57   41.70
 -11  -1   1   54.09   11.20
 -11  -1   1   29.90   10.90
  11  -1  -1   31.00   10.00
  11   1  -1   44.50    8.20
 -11   1   1   44.50   13.80
 -11   1   1   43.50    8.00
 -10  -1   1 1132.69   44.60
  10  -1  -1 1118.39   44.30
 -10   1   1 1176.88   40.80
 -10   1   1 1201.48   34.70
  -9  -1   1   10.40    8.30
   9  -1  -1   13.30    6.60
  -9  -1   1   15.90    6.30
  -9   1   1   26.50    5.60
  -9   1   1    9.90    6.50
  -8  -1   1 3856.51   88.39
   8  -1  -1 3844.52   87.19
  -8   1   1 3785.52   89.39
   8   1  -1 3794.62   87.49
  -8   1   1 3828.52   82.09
  -7  -1   1   13.70    4.70
   7  -1  -1   11.30    5.40
  -7   1   1   13.40    5.70
  -7   1   1   13.30    3.80
   7   1  -1    9.30    4.80
   6  -1  -1  146.69   10.60
   6  -1  -1  131.09    6.90
  -6  -1   1  123.69   10.00
  -6   1   1  135.69    7.90
   6   1  -1  116.89    9.90
  -6   1   1  113.99   10.20
  -5  -1   1  237.38   12.50
   5  -1  -1  232.68    8.20
   5  -1  -1  251.97   12.80
   5   1  -1  228.08   12.40
  -5   1   1  239.98   12.60
  -5   1   1  228.38    9.10
   4  -1  -1  145.29    5.10
  -4  -1   1  147.19    9.00
   4  -1  -1  148.89    9.20
   4  -1  -1  148.29    9.00
   4   1  -1  137.09    9.00
  -4   1   1  139.79    5.90
  -4   1   1  148.49    8.90
   3  -1  -1 1030.90   27.20
  -3  -1   1  948.81   35.90
   3  -1  -1 1062.69   26.20
  -3   1   1 1038.00   26.40
   3   1  -1 1088.29   27.60
   2  -1  -1 9570.54  178.28
  -2   1   1 9232.98  178.18
   1  -1  -1    5.60    1.10
   1  -1  -1    2.70    1.40
  -1  -1   1    3.40    1.20
  -1  -1   1    3.50    1.60
   1  -1  -1    1.20    1.60
  -1   1   1    4.00    1.60
  -1   1   1    4.70    1.90
   1   1  -1    5.10    2.10
   1   1  -1    4.80    1.20
  -1   1   1    3.60    0.90
   0  -1   1 3240.28   67.09
   0  -1  -1 3458.75   67.49
   0  -1  -1 3368.26   68.19
   0  -1  -1 3390.06   66.79
   0  -1   1 3457.95   66.99
   0  -1  -1 3340.07   67.29
   0   1   1 3470.95   68.39
   0   1   1 3475.45   67.49
   0   1   1 3384.96   66.69
   0   1  -1 3367.36   67.09
   1  -1   1    9.50    1.40
  -1  -1  -1   12.50    2.60
   1   1   1   15.90    3.20
  -1   1  -1   11.90    1.50
   1   1   1   16.90    3.00
   2  -1   1 1480.75   32.00
   2  -1   1 1578.64   32.00
  -2  -1  -1 1586.14   36.60
  -2   1  -1 1526.85   32.00
  -3  -1  -1  320.47   13.20
   3  -1   1  303.27    9.90
   3   1   1  319.97   13.40
  -3   1  -1  303.67   10.60
   4  -1   1 1034.90   25.00
  -4  -1  -1 1070.39   30.40
   4   1   1 1063.29   30.20
  -4   1  -1 1051.19   27.30
  -4   1  -1 1015.80   26.50
  -5  -1  -1   12.50    4.40
   5  -1   1    9.50    2.60
   5   1   1    2.70    3.80
  -5   1  -1    3.80    3.40
  -5   1  -1   13.50    3.50
  -6  -1  -1 4499.55   98.69
   6  -1   1 4525.35   91.29
  -6   1  -1 4280.47  100.09
   6   1   1 4592.54   98.49
  -6   1  -1 4513.55   96.19
  -7  -1  -1   11.40    5.20
   7  -1   1   13.50    4.00
   7   1   1   11.70    4.80
  -7   1  -1   20.80    5.30
  -7   1  -1   12.50    5.70
  -8  -1  -1 1819.62   51.39
   8  -1   1 1806.72   43.80
   8   1   1 1767.72   49.99
  -8   1  -1 1710.43   48.90
  -8   1  -1 1878.51   47.60
  -9  -1  -1   40.40    8.80
   9  -1   1   29.80    6.40
   9   1   1   36.80    9.10
  -9   1  -1   36.20    7.30
  -9   1  -1   36.10    8.60
 -10  -1  -1   32.20    9.20
  10  -1   1   22.20    6.30
  10  -1   1   20.60    8.70
 -10   1  -1   32.40    7.10
  10   1   1   25.60    9.30
 -10   1  -1   15.20    8.40
 -11  -1  -1   78.49   14.20
 -11  -1  -1   83.09   12.80
 -11   1  -1   59.99   11.30
  11   1   1   50.99   11.50
 -11   1  -1   57.39    9.60
 -11  -2   1  353.66   24.20
  11  -2  -1  377.06   25.90
 -11  -2   1  385.96   41.80
 -11   2   1  355.86   24.20
  11   2  -1  353.46   13.80
 -10  -2   1  337.27   22.00
 -10   2   1  335.67   26.20
   9  -2  -1    3.40    7.10
  -9  -2   1    3.50    6.30
  -9   2   1    4.30    6.90
  -8  -2   1  512.85   24.70
   8  -2  -1  560.74   26.00
  -8   2   1  530.95   24.20
   8   2  -1  548.45   25.60
   7  -2  -1 1303.47   40.60
  -7  -2   1 1303.87   40.80
  -7   2   1 1312.87   39.30
   7   2  -1 1270.67   40.50
   6  -2  -1  275.77   16.30
  -6  -2   1  276.67   16.00
   6  -2  -1  269.47   13.80
   6   2  -1  240.58   15.50
  -6   2   1  273.77   15.00
   5  -2  -1 4136.09   88.09
   5  -2  -1 4166.08   92.69
  -5  -2   1 4138.49   92.39
  -5   2   1 4247.08   89.69
   5   2  -1 4149.78   92.59
  -4  -2   1    9.40    3.80
   4  -2  -1    5.00    3.90
   4  -2  -1    2.80    2.70
   4   2  -1    2.50    3.40
  -4   2   1    3.70    2.70
   4   2  -1    4.80    2.10
   3  -2  -1 2911.31   66.69
  -3  -2   1 2994.10   66.79
   3  -2  -1 2951.90   63.99
   3  -2  -1 2884.61   55.39
   3   2  -1 3001.80   59.89
   3   2  -1 2888.01   66.29
  -3   2   1 2977.30   63.49
   2  -2  -1  951.70   25.90
   2  -2  -1 1035.20   28.70
   2  -2  -1  988.20   22.40
  -2  -2   1 1049.79   28.40
  -2   2   1  946.51   26.50
  -2   2   1 1008.30   28.20
   2   2  -1 1007.80   24.40
   2   2  -1 1042.70   29.50
   2   2  -1  980.50   27.80
   1  -2  -1  179.88    9.60
   1  -2  -1  178.88   10.10
  -1  -2   1  158.78    9.40
  -1  -2   1  160.88    7.90
   1  -2  -1  174.48    7.40
  -1  -2   1  142.69   10.10
   1  -2  -1  154.48    8.10
  -1   2   1  152.78    8.90
   1   2  -1  138.69    8.90
  -1   2   1  143.69    6.70
  -1   2   1  149.88    8.20
   1   2  -1  139.39    7.50
   0  -2   1 2896.31   61.49
   0  -2  -1 2805.42   66.39
   0  -2   1 2919.21   63.09
   0  -2  -1 2884.21   60.69
   0  -2  -1 2913.11   63.89
   0  -2  -1 2807.72   61.49
   0  -2   1 2817.62   60.19
   0   2   1 2694.73   63.99
   0   2   1 2918.21   63.69
   0   2  -1 3021.00   76.59
   1  -2   1 3988.00   81.99
   1  -2   1 4315.17   86.89
  -1  -2  -1 4067.59   86.09
   1  -2   1 4080.49   86.39
  -1  -2  -1 4088.49   87.79
   1   2   1 4108.59   85.69
   1   2   1 4245.78   84.89
   1   2   1 4206.08   87.99
   2  -2   1   16.90    4.40
  -2  -2  -1    8.10    3.10
   2  -2   1    7.60    2.00
  -2   2  -1   14.90    2.70
   2   2   1   19.60    5.10
   2   2   1   17.10    3.40
   2   2   1   10.80    3.60
   3  -2   1 4602.44   90.79
   3  -2   1 4525.15   98.09
  -3  -2  -1 4575.04   97.89
   3   2   1 4622.74  100.09
   3   2   1 4595.74   98.09
  -3   2  -1 4600.84   91.09
   4  -2   1  233.88    9.80
  -4  -2  -1  216.28   13.10
   4  -2   1  216.18    7.80
  -4   2  -1  225.58   10.20
   4   2   1  210.68   13.10
  -5  -2  -1 1013.10   33.10
   5  -2   1 1000.80   23.10
  -5   2  -1 1032.70   28.30
   5   2   1 1037.80   33.40
  -6  -2  -1 1077.59   35.90
   6  -2   1 1074.89   24.60
   6   2   1 1055.99   35.50
  -6   2  -1 1083.69   31.30
  -7  -2  -1    2.40    4.70
   7  -2   1    4.60    2.40
   7  -2   1    8.00    5.90
   7   2   1    7.00    5.50
  -7   2  -1    2.10    4.40
   8  -2   1  159.38   16.10
   8  -2   1  116.99    8.20
  -8   2  -1  111.99   11.90
   8   2   1  125.39   14.40
  -9  -2  -1 1341.27   44.90
   9  -2   1 1293.87   43.90
   9   2   1 1242.18   43.40
  -9   2  -1 1191.38   39.40
 -10  -2  -1   55.59   11.40
  10  -2   1   37.90   12.00
 -10   2  -1   41.50   10.10
  10   2   1   45.60   11.80
 -11  -2  -1  697.43   34.90
  11  -2   1  670.13   34.10
 -11   2  -1  721.13   31.20
 -10  -3   1  378.06   25.40
  10  -3  -1  366.56   26.70
 -10   3   1  409.96   25.70
   9  -3  -1    9.40    9.30
  -9  -3   1    5.70    7.70
  -9   3   1    4.20    7.10
   9   3  -1    0.90    2.70
   8  -3  -1  858.71   44.20
  -8  -3   1  933.31   36.50
   8   3  -1  954.50   23.10
  -8   3   1  969.60   33.60
   7  -3  -1  678.13   24.40
   7  -3  -1  655.03   29.50
  -7  -3   1  606.14   27.70
  -7   3   1  672.63   25.80
   7   3  -1  640.44   18.10
  -6  -3   1  102.89   12.10
   6  -3  -1  113.69   15.70
   6  -3  -1  119.39   10.00
   6   3  -1  119.09    7.40
  -6   3   1  114.19   10.50
  -5  -3   1 1368.76   41.70
   5  -3  -1 1342.47   42.00
   5  -3  -1 1340.97   36.10
   5   3  -1 1294.07   31.80
   5   3  -1 1305.57   41.10
  -5   3   1 1321.67   37.00
   5   3  -1 1320.27   43.90
   4  -3  -1  721.83   27.70
  -4  -3   1  732.23   27.10
   4  -3  -1  717.43   23.20
   4   3  -1  733.83   28.80
  -4   3   1  732.23   24.00
   3  -3  -1 1383.56   31.10
   3  -3  -1 1369.26   36.10
  -3  -3   1 1360.26   39.80
   3  -3  -1 1420.26   40.90
   3   3  -1 1450.45   42.00
  -3   3   1 1416.46   36.80
   3   3  -1 1399.36   34.70
   2  -3  -1 1335.27   32.30
  -2  -3   1 1388.36   38.50
   2  -3  -1 1315.17   38.40
   2  -3  -1 1341.17   39.60
   2  -3  -1 1355.56   35.50
   2   3  -1 1382.26   39.80
   2   3  -1 1357.16   34.80
  -2   3   1 1405.56   36.10
   1  -3  -1    5.30    2.90
   1  -3  -1    3.40    3.80
  -1  -3   1    4.80    3.10
  -1  -3   1    4.90    3.20
   1  -3  -1    8.20    3.70
   1  -3  -1    1.30    3.40
  -1  -3   1    2.20    2.90
   1   3  -1    6.50    3.20
   1   3  -1    3.90    3.30
  -1   3   1    5.40    4.00
   0  -3   1 1916.81   47.60
   0  -3  -1 1947.31   46.70
   0  -3   1 1927.21   49.70
   0  -3   1 1908.41   46.20
   0  -3  -1 1903.71   47.30
   0  -3  -1 1942.71   47.90
   0  -3  -1 1878.51   50.09
   0  -3   1 1916.91   46.00
   0   3   1 1904.91   45.80
   0   3   1 1940.91   50.19
   0   3   1 1961.80   48.10
  -1  -3  -1 1330.67   36.60
  -1  -3  -1 1312.97   36.40
   1  -3   1 1365.26   38.30
   1  -3   1 1303.77   33.40
  -1  -3  -1 1322.47   39.00
   1  -3   1 1334.37   37.30
   1  -3   1 1269.27   33.10
   1   3   1 1302.47   38.50
   1   3   1 1310.37   35.60
   1   3   1 1317.47   35.90
   2  -3   1  573.84   22.60
   2  -3   1  562.54   18.00
  -2  -3  -1  542.25   21.60
   2  -3   1  553.24   22.20
   2  -3   1  563.64   17.30
   2   3   1  581.84   20.10
   2   3   1  531.25   22.80
   2   3   1  566.14   21.90
   3  -3   1 2292.67   47.40
   3  -3   1 2222.38   57.39
   3  -3   1 2209.58   49.60
  -3  -3  -1 2172.78   56.39
   3   3   1 2190.38   58.29
   3   3   1 2220.98   51.79
   3   3   1 2246.88   56.79
  -3   3  -1 2130.79   49.50
   4  -3   1 1011.70   34.50
  -4  -3  -1 1006.40   34.00
   4  -3   1  974.80   23.50
   4  -3   1  980.70   23.00
   4  -3   1  987.60   26.80
   4   3   1 1015.10   34.00
  -4   3  -1  985.90   27.10
   4   3   1 1032.10   36.00
   4   3   1 1023.40   28.60
  -5  -3  -1  487.55   23.40
   5  -3   1  505.85   17.40
   5  -3   1  505.35   24.00
   5  -3   1  493.45   11.70
   5  -3   1  479.55   12.00
  -5   3  -1  511.05   17.90
   5   3   1  482.75   23.30
   5   3   1  493.35   18.20
   5   3   1  491.75   25.10
   6  -3   1 1354.06   44.40
  -6  -3  -1 1343.17   43.60
   6  -3   1 1353.06   34.80
   6   3   1 1296.67   35.00
  -6   3  -1 1295.67   35.40
   6   3   1 1339.47   43.60
  -7  -3  -1   89.99   12.10
   7  -3   1   64.09   11.70
  -7   3  -1   63.29    8.10
   7   3   1   71.29   11.60
  -8  -3  -1  482.85   26.10
  -8   3  -1  441.46   19.90
   8   3   1  403.06   25.50
   9  -3   1  405.06   26.90
  -9  -3  -1  472.65   27.50
  -9   3  -1  396.96   20.90
   9   3   1  459.95   28.60
  10  -3   1    5.10   14.60
 -10  -3  -1    6.40   10.20
 -10   3  -1    2.30    7.60
  10   3   1   19.20   12.10
  -9  -4   1   -2.20    8.70
   9  -4  -1   15.40   12.00
   9   4  -1   -0.50   13.90
  -9   4   1    7.70    7.20
   8  -4  -1  420.66   28.00
  -8  -4   1  406.56   25.50
   8  -4  -1  390.96   19.40
  -8   4   1  374.66   20.50
   8   4  -1  333.57   27.70
   7  -4  -1  194.08   20.00
  -7  -4   1  189.48   17.80
   7  -4  -1  216.18   14.70
   7   4  -1  225.58   21.90
   7   4  -1  206.08   10.90
  -7   4   1  177.18   14.60
   6  -4  -1  852.61   28.40
  -6  -4   1  842.62   34.20
   6   4  -1  833.42   24.30
   6   4  -1  792.12   36.30
  -6   4   1  839.92   29.10
   5  -4  -1  618.24   22.70
  -5  -4   1  593.74   27.40
  -5   4   1  589.34   23.10
   5   4  -1  532.25   19.60
   5   4  -1  614.14   29.40
   4  -4  -1  301.47   15.40
   4  -4  -1  278.37   22.70
  -4  -4   1  282.77   18.10
   4  -4  -1  288.27   10.40
   4  -4  -1  335.57   20.70
   4   4  -1  302.27   20.00
   4   4  -1  311.47   14.50
  -4   4   1  298.67   15.70
   3  -4  -1  436.76   18.80
   3  -4  -1  442.56   22.60
   3  -4  -1  482.35   23.80
  -3  -4   1  457.25   22.20
   3   4  -1  454.05   18.60
   3   4  -1  451.95   23.20
   2  -4  -1 1465.65   45.90
   2  -4  -1 1511.05   40.80
  -2  -4   1 1568.44   44.30
   2  -4  -1 1428.46   37.50
   2  -4  -1 1448.16   44.30
   2   4  -1 1453.85   45.00
   1  -4  -1  113.19    9.70
  -1  -4   1  108.79   10.50
   1  -4  -1  115.49   10.20
  -1  -4   1  106.89   10.60
   1  -4  -1  111.39   12.50
  -1  -4   1   88.59    9.60
   1  -4  -1  104.89   11.60
  -1  -4   1  109.89   12.30
   1   4  -1  113.59   11.70
  -1   4   1  108.49   11.40
   0  -4  -1 1930.31   51.99
   0  -4   1 1934.71   50.09
   0  -4  -1 2001.40   55.69
   0  -4  -1 1971.60   50.59
   0  -4   1 1927.91   49.70
   0  -4  -1 2033.50   51.79
   0  -4   1 2010.20   54.99
   0  -4   1 1932.51   51.79
   0   4   1 1967.20   52.19
  -1  -4  -1  596.34   26.40
   1  -4   1  592.04   25.80
   1  -4   1  542.45   20.80
   1  -4   1  554.64   24.10
   1  -4   1  567.54   21.10
  -1  -4  -1  577.34   23.60
  -1  -4  -1  569.04   23.30
   1   4   1  599.94   23.40
   1   4   1  580.14   25.70
   2  -4   1   30.00    7.40
  -2  -4  -1   13.90    5.60
  -2  -4  -1   11.40    5.50
   2  -4   1   12.60    6.90
   2  -4   1   12.40    4.20
   2  -4   1   29.70    5.30
   2   4   1   17.80    6.50
   2   4   1   13.60    6.00
   2   4   1    5.40    4.60
  -3  -4  -1  864.21   32.00
   3  -4   1  828.72   23.70
   3  -4   1  802.62   25.20
   3  -4   1  799.02   38.40
   3  -4   1  806.02   31.80
   3   4   1  818.42   27.70
   3   4   1  797.12   30.60
   3   4   1  865.71   33.50
   4  -4   1  639.14   21.30
  -4  -4  -1  615.24   27.60
   4  -4   1  598.94   17.70
   4  -4   1  611.24   28.40
   4  -4   1  595.34   32.20
   4   4   1  617.34   22.70
   4   4   1  595.24   34.20
   4   4   1  631.44   27.90
   5  -4   1   55.99    4.20
   5  -4   1   48.90    6.70
  -5  -4  -1   73.09   11.30
   5  -4   1   58.09    4.50
   5   4   1   47.00   10.10
   5   4   1   58.49    7.70
   6  -4   1  658.83   22.20
  -6  -4  -1  651.83   30.50
   6   4   1  636.04   22.90
   6   4   1  654.03   32.60
  -6   4  -1  607.34   21.70
   7  -4   1   -1.40    9.60
  -7  -4  -1   -5.10    6.90
  -7   4  -1    9.50    4.90
   7   4   1    4.20    9.20
   7   4   1   -1.70    4.70
   7   4   1    3.50    7.20
  -8  -4  -1  517.85   29.80
   8  -4   1  517.15   30.90
   8   4   1  477.55   43.00
   8   4   1  536.05   33.80
  -8   4  -1  485.25   20.10
   8   4   1  497.05   19.50
   9  -4   1  269.87   28.70
   9   4   1  294.17   14.70
   9   4   1  250.87   29.20
  -9   4  -1  275.77   16.10
   7  -5  -1  425.56   30.80
  -7  -5   1  392.76   27.10
   7  -5  -1  444.26   21.40
   7   5  -1  453.45   31.50
   6  -5  -1   14.20   11.90
  -6  -5   1    4.00    7.80
   6  -5  -1    8.70    6.10
   6  -5  -1    4.40   10.70
   6   5  -1   -6.40    8.50
  -5  -5   1 1079.89   41.50
   5  -5  -1  953.90   41.40
   5  -5  -1 1124.59   34.80
   5  -5  -1 1042.70   42.50
   5   5  -1 1099.99   43.50
   4  -5  -1   44.10    8.70
  -4  -5   1   55.09   11.10
   4  -5  -1   38.80   12.20
   4  -5  -1   23.00    9.80
   4   5  -1   40.30   10.70
   3  -5  -1  421.46   25.30
   3  -5  -1  426.86   25.60
  -3  -5   1  485.75   24.80
  -3  -5   1  430.46   22.70
   3  -5  -1  436.96   20.70
   3  -5  -1  434.56   17.90
   3   5  -1  435.76   25.00
   2  -5  -1  524.15   21.10
   2  -5  -1  527.95   28.00
  -2  -5   1  508.45   28.50
  -2  -5   1  528.15   30.10
   2  -5  -1  532.75   23.10
   2  -5  -1  521.55   27.10
   2   5  -1  520.95   26.80
  -1  -5   1   15.10    7.10
   1  -5  -1   14.50    6.20
  -1  -5   1   20.00    6.10
  -1  -5   1   16.80    6.40
   1  -5  -1   14.00    5.60
  -1  -5   1   16.80    6.80
   1  -5  -1   22.20    8.10
   1  -5  -1   10.80    6.90
   0  -5  -1  324.27   18.70
   0  -5   1  302.97   20.40
   0  -5   1  303.57   17.80
   0  -5   1  316.67   21.80
   0  -5  -1  289.57   21.40
   0  -5  -1  305.77   18.10
   0  -5   1  305.57   17.60
  -1  -5  -1  944.61   36.00
   1  -5   1  986.30   38.00
   1  -5   1  951.00   31.80
   1  -5   1  966.20   31.80
  -1  -5  -1  976.00   34.80
   1  -5   1  937.71   35.70
  -1  -5  -1 1023.50   39.40
   1   5   1  963.30   34.50
   2  -5   1    8.20    7.20
   2  -5   1   14.80    5.70
   2  -5   1    4.80    5.00
   2  -5   1   17.60    9.00
  -2  -5  -1   13.80    7.20
   2   5   1    5.30    7.60
   2   5   1    7.00    6.50
   3  -5   1 1291.57   35.80
   3  -5   1 1372.56   38.30
   3  -5   1 1350.26   46.30
   3  -5   1 1344.87   46.40
  -3  -5  -1 1328.27   44.90
  -3  -5  -1 1343.47   44.70
   3   5   1 1345.77   41.00
   3   5   1 1301.77   46.90
   4  -5   1   34.50    5.70
  -4  -5  -1   26.70    8.90
   4  -5   1   34.70    7.20
  -4  -5  -1   31.00    9.70
   4  -5   1   60.29   12.80
   4  -5   1   33.30   10.40
   4   5   1   32.60   10.00
   4   5   1   43.00    8.40
   5  -5   1  349.17   25.50
   5  -5   1  329.67   10.90
   5  -5   1  337.47   16.50
   5  -5   1  312.87   24.10
   5  -5   1  295.07   10.50
  -5  -5  -1  351.36   24.40
   5   5   1  300.77   17.80
   5   5   1  320.77   24.70
  -6  -5  -1  202.48   20.90
   6  -5   1  205.98   22.70
   6  -5   1  206.18   13.70
   6  -5   1  164.48   31.00
   6   5   1  196.88   22.20
   6   5   1  190.48   15.00
   7  -5   1  108.99   12.40
   7  -5   1   70.69   16.70
  -7  -5  -1   86.79   18.10
   7   5   1   86.09   21.80
   7   5   1   95.29   10.80
   5  -6  -1    1.80   13.30
  -5  -6   1   -1.40   12.80
   5  -6  -1   -6.60   13.00
   5  -6  -1    5.60    8.00
   5   6  -1   -4.20   13.70
  -4  -6   1  223.58   22.10
  -4  -6   1  257.87   21.70
   4  -6  -1  230.88   18.30
   4  -6  -1  224.98   13.50
   4  -6  -1  219.38   24.50
   4  -6  -1  193.88   23.50
   4   6  -1  199.38   22.30
   3  -6  -1    2.10   16.20
  -3  -6   1    6.80    9.30
  -3  -6   1    1.10    8.70
   3  -6  -1   20.70   19.70
   3  -6  -1    1.60    6.10
   3  -6  -1   -3.50    7.80
   3   6  -1    6.80    9.30
  -2  -6   1 1150.88   42.60
   2  -6  -1 1183.38   46.70
   2  -6  -1 1188.28   39.80
   2  -6  -1 1076.59   36.00
   2  -6  -1 1141.29   45.00
  -2  -6   1 1174.38   41.50
   1  -6  -1   14.00    7.90
  -1  -6   1   18.80    8.60
   1  -6  -1   35.80    9.20
  -1  -6   1    1.90    7.50
   1  -6  -1   11.70   10.80
   0  -6  -1  896.61   41.00
   0  -6  -1 1013.90   36.60
   0  -6   1  918.31   40.30
   0  -6   1  883.21   37.00
   0  -6  -1  892.71   35.20
   0  -6   1  928.01   35.00
   0  -6   1  927.51   34.20
   1  -6   1   13.90    7.60
  -1  -6  -1    9.30    9.00
   1  -6   1   13.70   12.20
   1  -6   1    3.00    6.50
   1  -6   1   16.70   10.20
  -1  -6  -1   12.70    8.60
   2  -6   1    7.40   11.00
  -2  -6  -1    0.10    8.80
   2  -6   1    7.50   11.10
  -2  -6  -1    1.50    8.70
   2  -6   1   -1.70    7.70
   2  -6   1    6.10    6.80
   3  -6   1  145.39   13.70
  -3  -6  -1  103.09   14.90
   3  -6   1  151.58   20.60
  -3  -6  -1  179.58   19.80
   3  -6   1  104.69   12.60
   3   6   1  133.19   18.80
   4  -6   1  247.98   26.70
  -4  -6  -1  232.38   21.20
   4  -6   1  255.07   17.40
  -4  -6  -1  268.37   23.30
   4  -6   1  245.38   14.30
   4  -6   1  298.57   37.30
   4   6   1  243.48   28.40
   5  -6   1    9.20   12.10
   5   6   1  -15.30   11.10
  12   0  -2  145.19   16.10
 -12   0   2  175.88   16.30
 -12   0   2  150.08   18.50
 -11   0   2   -3.90    8.70
 -11   0   2   -7.10    6.00
  11   0  -2    1.50    6.70
 -10   0   2 1080.39   40.00
 -10   0   2 1077.39   35.00
  10   0  -2 1091.09   33.00
  -9   0   2   -1.10    4.10
   9   0  -2    3.50    4.50
  -9   0   2   -9.50    9.20
  -8   0   2  536.55   20.50
  -8   0   2  523.65   24.30
   8   0  -2  505.35   19.20
  -7   0   2   -4.70    4.20
   7   0  -2    6.50    3.50
  -7   0   2   -1.30    2.70
  -6   0   2   25.20    6.60
  -6   0   2   23.10    4.40
   6   0  -2   20.70    4.20
  -5   0   2    2.20    2.00
  -5   0   2    3.90    3.60
   5   0  -2    0.40    1.90
   4   0  -2 9851.41  187.78
  -4   0   2 9999.00  193.98
  -3   0   2    2.50    2.30
   3   0  -2    3.80    1.50
  -3   0   2    8.40    1.90
   1   0  -2    2.60    1.10
  -1   0   2    1.60    1.10
   0   0  -2   51.59    2.00
   0   0   2   57.29    2.60
   1   0   2   12.60    2.30
  -1   0  -2    9.70    2.20
   2   0   2  526.55   15.70
  -2   0  -2  482.15   15.70
   3   0   2   -1.90    1.90
  -3   0  -2    1.30    2.10
   4   0   2 3817.52   81.69
  -4   0  -2 3967.20   84.29
   5   0   2   -0.30    2.60
  -5   0  -2    0.30    2.90
   6   0   2 4231.58   91.29
  -6   0  -2 4268.27   93.39
   7   0   2    6.90    4.20
  -7   0  -2    2.20    4.10
  -8   0  -2  596.24   25.20
   8   0   2  621.34   24.00
  -8   0  -2  608.24   25.20
  -9   0  -2   -5.90    5.40
   9   0   2    4.80    5.80
  -9   0  -2   -3.10    5.30
  10   0   2  163.28   18.10
 -10   0  -2  165.48   17.00
 -10   0  -2  167.48   15.70
 -11   0  -2    3.80    7.50
  11   0   2    3.60    8.10
  11  -1  -2   35.30    9.70
 -11  -1   2   51.09   12.90
 -11  -1   2   39.90    9.60
 -11   1   2   48.20    8.20
  11   1  -2   75.19    8.60
  10  -1  -2  130.69   14.60
 -10  -1   2  167.58   15.00
 -10   1   2  176.88   12.00
 -10   1   2  142.29   16.30
  10   1  -2  143.79   10.50
  -9  -1   2  728.23   31.80
   9  -1  -2  760.52   28.00
  -9  -1   2  683.53   27.90
   9   1  -2  772.52   22.30
  -9   1   2  739.83   30.60
  -9   1   2  716.73   23.60
  -8  -1   2   35.80    7.20
   8  -1  -2   22.60    6.40
  -8   1   2   31.50    5.30
  -8   1   2   33.40    8.10
   7  -1  -2 1893.31   48.50
  -7  -1   2 1876.61   49.10
  -7   1   2 1883.41   51.19
  -7   1   2 1894.71   43.40
  -6  -1   2  249.88   13.20
   6  -1  -2  247.48   13.20
  -6   1   2  230.88   14.00
  -6   1   2  246.48    9.80
   5  -1  -2 2141.29   51.29
  -5  -1   2 2260.27   52.49
   5  -1  -2 2194.28   52.19
  -5   1   2 2146.99   45.20
  -5   1   2 2259.37   53.59
   4  -1  -2   22.80    4.50
  -4  -1   2   26.90    4.60
   4  -1  -2   25.70    4.40
  -4   1   2   24.90    2.30
  -4   1   2   20.60    4.30
   3  -1  -2  170.78    8.60
   3  -1  -2  171.18    9.10
  -3  -1   2  156.68   13.20
  -3   1   2  163.88   11.20
  -2  -1   2  867.91   22.40
   2  -1  -2  836.22   22.10
   2  -1  -2  849.32   22.00
  -2   1   2  821.02   17.50
  -2   1   2  886.91   22.30
  -2   1   2  858.21   22.10
   1  -1  -2 1609.34   35.20
   1  -1  -2 1630.44   35.50
   1  -1  -2 1553.84   33.10
  -1   1   2 1594.94   33.00
  -1   1   2 1636.74   35.60
  -1   1   2 1565.04   35.00
   1   1  -2 1558.74   34.60
   0  -1  -2   46.00    4.10
   0  -1  -2   50.19    4.30
   0  -1   2   52.09    3.70
   0  -1  -2   47.40    4.00
   0   1   2   48.30    4.30
   0   1  -2   52.09    3.60
   0   1   2   55.59    4.40
   0   1   2   60.19    4.50
  -2  -1  -2    2.40    2.10
   2  -1   2    3.50    1.70
  -2   1  -2    3.30    1.00
   2   1   2    1.30    2.20
  -3  -1  -2 6436.26  128.59
   3  -1   2 6175.68  123.49
   3   1   2 6257.47  128.09
  -3   1  -2 6533.35  121.89
  -4  -1  -2  997.90   29.90
   4  -1   2  982.90   25.60
   4   1   2 1032.70   30.00
  -4   1  -2 1002.60   25.70
  -4   1  -2  951.60   26.90
   5  -1   2  152.98    8.60
  -5  -1  -2  152.08   11.10
  -5   1  -2  124.59    9.20
   5   1   2  133.09   10.60
  -5   1  -2  125.09    8.70
  -6  -1  -2  190.48   13.30
   6  -1   2  162.08    9.70
  -6   1  -2  167.58   11.40
   6   1   2  176.98   13.20
  -6   1  -2  174.58   11.30
  -7  -1  -2  937.41   32.70
   7  -1   2  919.71   26.80
  -7   1  -2  896.11   29.30
   7   1   2  877.61   31.30
  -7   1  -2  890.81   29.40
   8  -1   2    9.70    4.50
  -8  -1  -2    7.90    6.00
  -8   1  -2    6.80    4.80
   8   1   2   12.90    6.20
  -8   1  -2    1.70    5.60
  -9  -1  -2 1034.40   37.60
   9  -1   2 1038.70   31.00
   9   1   2  993.20   36.20
  -9   1  -2 1059.19   34.30
  -9   1  -2 1041.60   35.10
  10  -1   2   -1.80    5.60
 -10  -1  -2    2.20    7.00
  10   1   2    7.20    8.00
 -10   1  -2   -1.90    5.40
 -10   1  -2    8.00    6.90
  11  -1   2  275.57   17.30
  11  -1   2  236.88   21.80
 -11  -1  -2  253.07   21.30
 -11  -1  -2  261.07   22.40
 -11   1  -2  258.37   18.00
 -11   1  -2  253.67   19.70
  11   1   2  224.58   21.90
  11  -2  -2   15.60   10.40
 -11  -2   2   37.80   10.90
 -11   2   2   17.30   10.10
  10  -2  -2  651.33   30.60
 -10  -2   2  716.63   31.40
 -10   2   2  696.03   31.50
  10   2  -2  706.73   17.40
  -9  -2   2    4.80    6.40
   9  -2  -2   20.70    8.10
  -9   2   2   11.30    7.70
  -8  -2   2  686.43   28.30
   8  -2  -2  693.33   28.60
  -8   2   2  678.93   28.30
  -7  -2   2  425.56   20.80
   7  -2  -2  477.45   22.30
  -7   2   2  449.76   21.40
  -6  -2   2   45.20    7.90
   6  -2  -2   36.20    6.50
   6  -2  -2   62.59    8.90
   6   2  -2   44.20    3.60
  -6   2   2   58.29    8.40
   5  -2  -2 1385.46   39.70
   5  -2  -2 1466.75   37.90
  -5  -2   2 1380.26   39.60
   5   2  -2 1394.46   29.20
  -5   2   2 1381.26   38.20
   4  -2  -2 2664.33   63.09
   4  -2  -2 2720.93   60.49
  -4  -2   2 2735.83   63.49
  -4   2   2 2690.13   61.39
   4   2  -2 2656.73   53.29
   3  -2  -2  539.35   18.10
   3  -2  -2  519.35   11.40
  -3  -2   2  563.44   19.90
   3  -2  -2  521.15   19.70
  -3   2   2  560.34   19.80
  -3   2   2  538.55   18.40
   3   2  -2  562.74   14.50
   2  -2  -2 5209.18  107.79
  -2  -2   2 5093.99  101.99
   2  -2  -2 5060.39  100.79
   2  -2  -2 5032.70  109.99
  -2  -2   2 5420.26  107.69
   2   2  -2 5454.05  108.69
  -2   2   2 5397.46  106.29
  -2   2   2 5161.18  100.09
  -2   2   2 5398.86  108.09
   1  -2  -2 1080.09   29.20
  -1  -2   2 1057.09   29.10
   1  -2  -2 1120.89   26.60
  -1  -2   2 1154.58   29.00
   1  -2  -2 1037.00   31.70
  -1  -2   2 1078.39   26.80
   1  -2  -2 1101.79   30.50
   1   2  -2  904.71   33.40
  -1   2   2 1104.59   28.60
  -1   2   2 1084.49   25.80
  -1   2   2 1133.99   29.70
   0  -2   2 1601.54   37.70
   0  -2  -2 1605.74   37.40
   0  -2  -2 1607.24   38.30
   0  -2  -2 1542.75   39.50
   0  -2   2 1524.75   37.90
   0   2   2 1594.74   39.70
   0   2   2 1647.04   38.60
   0   2  -2 1478.45   38.40
   0   2   2 1532.25   37.80
   1  -2   2  289.67   12.90
  -1  -2  -2  289.17   12.60
   1  -2   2  281.27    9.50
   1  -2   2  259.47   12.00
  -1  -2  -2  292.47   13.70
  -1  -2  -2  270.97   12.40
   1   2   2  275.47   18.30
   1   2   2  285.07   13.50
   1   2   2  285.57   12.70
  -2  -2  -2  355.96   15.40
   2  -2   2  343.37   10.40
   2   2   2  355.96   15.50
   2   2   2  343.37   15.60
  -3  -2  -2  559.54   21.50
   3  -2   2  592.74   15.50
  -3   2  -2  562.04   15.30
   3   2   2  578.54   22.60
   3   2   2  576.54   21.90
  -4  -2  -2 2547.65   62.69
   4  -2   2 2590.74   53.39
   4  -2   2 2512.05   53.49
   4   2   2 2516.25   62.49
  -4   2  -2 2571.64   53.79
  -5  -2  -2  223.08   14.70
   5  -2   2  248.08   10.00
   5   2   2  281.77   16.50
   6  -2   2 1439.76   33.80
  -6  -2  -2 1497.85   44.70
  -6   2  -2 1435.76   37.50
   6   2   2 1467.35   44.40
   7  -2   2   49.80    5.90
  -7  -2  -2   52.49    9.10
   7   2   2   37.10   14.80
  -7   2  -2   45.50    7.10
  -8  -2  -2  323.77   21.10
   8  -2   2  331.87   12.90
   8   2   2  351.86   21.40
  -8   2  -2  324.07   17.30
   9  -2   2  368.66   14.30
  -9  -2  -2  381.06   24.00
   9   2   2  376.66   24.00
  -9   2  -2  370.16   19.80
 -10  -2  -2  140.79   17.50
  10  -2   2  143.29   18.20
  10   2   2  147.59   18.00
 -10   2  -2   96.79   12.20
  10  -3  -2  380.26   26.20
 -10  -3   2  391.86   25.50
 -10   3   2  355.06   23.70
  -9  -3   2  228.98   19.20
   9  -3  -2  185.68   20.00
  -9   3   2  262.97   19.20
  -8  -3   2  138.69   15.40
   8  -3  -2  132.09   16.10
  -8   3   2  148.59   14.90
   7  -3  -2 1185.68   35.70
   7  -3  -2 1161.18   40.20
  -7  -3   2 1157.98   39.60
   7   3  -2 1087.99   24.60
  -7   3   2 1133.69   37.00
  -6  -3   2  180.58   14.70
   6  -3  -2  196.68   15.70
   6  -3  -2  197.08   12.90
   6   3  -2  185.68    7.70
  -6   3   2  191.88   13.70
   5  -3  -2 1449.95   39.40
  -5  -3   2 1407.96   43.20
   5  -3  -2 1453.35   44.10
   5   3  -2 1525.05   47.00
  -5   3   2 1520.45   41.10
   5   3  -2 1403.56   33.00
   4  -3  -2  555.64   23.90
   4  -3  -2  575.74   20.90
  -4  -3   2  608.94   24.10
   4   3  -2  574.84   24.80
  -4   3   2  543.25   21.00
   4   3  -2  563.24   17.10
   3  -3  -2    5.90    3.30
   3  -3  -2   10.90    2.40
   3  -3  -2   10.90    5.10
  -3  -3   2   10.40    4.50
  -3   3   2    8.90    3.80
   3   3  -2   11.00    4.40
   2  -3  -2 1328.87   39.60
   2  -3  -2 1334.47   32.40
   2  -3  -2 1381.66   38.90
  -2  -3   2 1289.77   37.20
  -2  -3   2 1347.27   33.90
   2  -3  -2 1336.97   36.10
  -2   3   2 1318.97   36.20
   2   3  -2 1345.47   38.80
  -2   3   2 1348.27   38.30
   1  -3  -2 1370.56   37.00
   1  -3  -2 1391.96   38.60
  -1  -3   2 1404.56   39.40
   1  -3  -2 1371.36   34.90
  -1  -3   2 1360.66   35.80
   1  -3  -2 1415.86   40.40
  -1  -3   2 1348.27   37.10
  -1   3   2 1391.86   34.20
  -1   3   2 1388.56   38.50
   1   3  -2 1374.86   38.70
   0  -3  -2 1154.68   35.70
   0  -3   2 1162.28   30.90
   0  -3  -2 1172.08   33.50
   0  -3   2 1167.98   33.20
   0  -3   2 1161.18   34.40
   0  -3  -2 1164.98   32.50
   0  -3   2 1178.28   32.10
   0   3   2 1214.68   36.00
   0   3   2 1197.58   34.00
   0   3   2 1145.89   31.70
   1  -3   2 3631.84   81.29
  -1  -3  -2 3634.04   80.79
   1  -3   2 3600.94   76.79
   1  -3   2 3657.03   75.99
  -1  -3  -2 3550.54   80.79
  -1  -3  -2 3609.74   83.59
   1  -3   2 3625.24   81.59
   1   3   2 3659.63   79.99
   1   3   2 3678.63   83.49
   1   3   2 3618.54   80.09
   2  -3   2    8.20    2.50
   2  -3   2   10.80    5.00
  -2  -3  -2    2.90    3.40
   2  -3   2    7.50    5.10
   2  -3   2    5.10    4.20
   2   3   2   19.10    6.50
   2   3   2    7.40    4.10
   2   3   2   10.00    3.90
  -3  -3  -2  695.43   26.60
   3  -3   2  708.83   27.00
   3  -3   2  715.43   19.90
   3   3   2  702.93   26.50
   3   3   2  667.93   27.20
   3   3   2  704.53   23.40
  -4  -3  -2 1361.06   41.60
   4  -3   2 1263.47   31.00
   4  -3   2 1347.77   32.10
   4  -3   2 1378.26   42.20
  -4   3  -2 1307.77   32.80
   4   3   2 1327.47   41.20
   4   3   2 1289.17   42.50
   4   3   2 1354.76   36.40
   5  -3   2  187.78    8.30
   5  -3   2  198.78   16.10
  -5  -3  -2  189.38   15.00
   5   3   2  193.98   16.40
  -5   3  -2  193.18    9.70
   5   3   2  197.58   15.50
   6  -3   2  615.14   28.40
   6  -3   2  606.14   15.20
   6   3   2  594.24   28.10
  -6   3  -2  611.94   19.70
  -7  -3  -2  855.81   35.10
   7  -3   2  911.71   36.70
   7   3   2  926.21   36.10
  -7   3  -2  857.01   26.30
  -8  -3  -2   46.50   10.30
   8  -3   2   63.79   13.30
  -8   3  -2   69.39    8.50
   8   3   2   76.39   12.80
  -9  -3  -2  631.64   32.20
   9  -3   2  660.43   34.00
   9   3   2  670.53   33.60
  -9   3  -2  620.54   24.10
  10  -3   2   47.00   15.90
 -10  -3  -2   31.00   12.00
 -10   3  -2   22.90    7.90
  10   3   2   13.60   13.50
  -9  -4   2  161.08   19.30
   9   4  -2  131.89   20.00
   8  -4  -2  119.29   17.50
  -8  -4   2  129.99   16.70
   8  -4  -2  105.19   11.90
  -8   4   2   78.69   11.20
   8   4  -2  126.89   20.10
   7  -4  -2 1059.99   34.60
   7  -4  -2 1099.59   42.30
  -7  -4   2 1056.49   40.50
  -7   4   2 1091.89   36.30
   7   4  -2 1094.49   44.70
   6  -4  -2  143.19   12.70
  -6  -4   2  154.28   15.80
  -6   4   2  151.88   13.50
   6   4  -2  154.48   17.20
  -5  -4   2  625.14   28.00
   5  -4  -2  625.74   24.10
   5   4  -2  639.74   33.70
  -5   4   2  652.83   25.10
   4  -4  -2  352.06   21.30
  -4  -4   2  362.76   20.30
   4  -4  -2  340.27   21.50
   4  -4  -2  328.47   11.20
   4  -4  -2  363.86   17.40
   4   4  -2  339.77   21.10
  -4   4   2  356.56   18.00
   3  -4  -2   10.20    6.50
   3  -4  -2    8.70    5.90
   3  -4  -2   -0.90    3.70
  -3  -4   2    9.90    5.50
   3   4  -2    1.50    5.70
   2  -4  -2 1308.57   40.90
   2  -4  -2 1272.17   42.20
  -2  -4   2 1320.97   40.10
   2  -4  -2 1283.97   37.70
  -2  -4   2 1296.77   36.50
   2  -4  -2 1253.37   34.30
  -2   4   2 1299.97   40.60
   2   4  -2 1326.37   41.30
  -1  -4   2 1475.35   45.00
   1  -4  -2 1435.46   43.30
   1  -4  -2 1427.66   39.50
  -1  -4   2 1487.25   41.20
   1  -4  -2 1458.45   41.60
   1  -4  -2 1525.95   46.40
  -1  -4   2 1482.65   40.90
  -1  -4   2 1536.65   42.70
   1   4  -2 1514.85   44.40
  -1   4   2 1420.26   43.00
   0  -4  -2  287.37   18.50
   0  -4  -2  278.57   16.20
   0  -4   2  290.27   17.80
   0  -4   2  291.87   15.50
   0  -4   2  294.37   16.50
   0  -4  -2  300.37   15.80
   0  -4   2  290.57   14.70
   0   4   2  338.67   17.70
  -1  -4  -2 2133.39   58.19
   1  -4   2 2065.19   55.79
  -1  -4  -2 2082.59   54.29
  -1  -4  -2 2061.39   53.79
   1  -4   2 1993.40   49.00
   1  -4   2 2084.29   54.89
   1  -4   2 1974.10   49.90
   1   4   2 1943.51   52.49
   1   4   2 1885.71   51.69
   1   4   2 2010.20   56.49
   2  -4   2  130.79   13.10
   2  -4   2  143.99   13.40
  -2  -4  -2  132.39   12.20
  -2  -4  -2  120.19   11.80
   2  -4   2  121.79    9.00
   2  -4   2  116.29    9.40
   2   4   2  127.19   11.10
   2   4   2  137.89   12.40
   2   4   2  140.39   13.30
   3  -4   2  848.12   32.40
   3  -4   2  865.41   25.20
  -3  -4  -2  885.41   32.80
   3  -4   2  761.02   48.60
   3  -4   2  867.61   24.80
   3   4   2  835.72   33.40
   3   4   2  816.82   28.40
   3   4   2  859.11   32.30
  -4  -4  -2 1254.87   52.89
   4  -4   2 1240.08   42.60
   4  -4   2 1217.08   31.80
   4  -4   2 1192.08   41.80
   4   4   2 1213.68   41.00
   4   4   2 1138.99   35.40
   4   4   2 1188.68   48.20
   5  -4   2  141.09    9.70
   5  -4   2  146.29    7.40
  -5  -4  -2  177.28   16.00
   5  -4   2  149.09    7.90
   5   4   2  152.98   12.30
   5   4   2  169.98   17.00
   6  -4   2  407.06   15.90
  -6  -4  -2  387.36   23.60
   6   4   2  388.76   18.80
   6   4   2  442.36   26.80
   7  -4   2  410.16   27.20
  -7  -4  -2  413.66   25.70
   7   4   2  376.76   27.20
  -7   4  -2  394.96   15.80
   7   4   2  437.66   27.00
   7   4   2  436.16   19.50
   8  -4   2  109.89   29.60
  -8  -4  -2  106.69   15.90
   8   4   2  105.49   11.60
   8   4   2   61.99   18.00
  -8   4  -2   90.19    9.30
   8   4   2   68.99   14.20
   9  -4   2  466.45   34.40
  -9  -4  -2  512.35   30.90
   9   4   2  485.65   21.10
   9   4   2  556.24   35.40
   9   4   2  438.06   34.20
  -9   4  -2  481.75   18.30
  -8  -5   2  200.58   23.00
   8  -5  -2  197.28   18.20
   8  -5  -2  139.69   23.00
   8   5  -2  205.68   25.70
  -8   5   2  243.98   19.00
   7  -5  -2  105.29   18.50
   7  -5  -2   94.09   12.00
  -7  -5   2   74.59   14.10
   7   5  -2   89.79   16.10
   6  -5  -2  128.59   17.70
   6  -5  -2  145.69   14.30
  -6  -5   2  162.08   18.70
   6  -5  -2  102.29   16.20
   6   5  -2   99.89   14.80
   5  -5  -2  314.37   25.60
   5  -5  -2  393.56   26.90
   5  -5  -2  438.66   21.30
  -5  -5   2  431.26   25.60
   5   5  -2  426.26   26.60
   4  -5  -2 1243.48   45.20
  -4  -5   2 1208.98   43.50
   4  -5  -2 1271.47   46.50
   4  -5  -2 1255.37   39.00
   4   5  -2 1282.67   45.60
  -3  -5   2    8.50    6.40
   3  -5  -2   16.60    6.50
   3  -5  -2   26.70    9.60
   3  -5  -2   11.70    4.80
   3  -5  -2   18.50    8.70
   3   5  -2    9.00    6.90
  -2  -5   2 1114.09   37.50
   2  -5  -2 1177.08   42.90
  -2  -5   2 1145.69   54.99
   2  -5  -2 1144.99   37.10
   2  -5  -2 1090.39   40.20
   2  -5  -2 1097.89   33.70
   2   5  -2 1180.98   41.40
   1  -5  -2   32.40    9.10
   1  -5  -2   13.70    7.50
  -1  -5   2   14.20    6.80
   1  -5  -2   15.40    6.50
  -1  -5   2    5.50    5.70
   1  -5  -2    6.10    5.40
  -1  -5   2   18.80    6.30
  -1  -5   2   20.10    9.20
   0  -5  -2  469.85   23.10
   0  -5  -2  488.45   23.00
   0  -5   2  490.95   22.50
   0  -5   2  505.65   25.20
   0  -5  -2  514.75   27.70
   0  -5   2  485.75   21.50
   0  -5   2  504.35   26.50
   0   5   2  476.55   26.60
   1  -5   2  188.18   17.40
   1  -5   2  180.68   17.20
   1  -5   2  161.78   12.70
  -1  -5  -2  159.98   17.30
   1  -5   2  187.58   13.80
  -1  -5  -2  161.58   16.00
  -1  -5  -2  174.38   15.40
   1   5   2  151.68   14.90
   2  -5   2  193.18   13.10
   2  -5   2  184.58   17.60
   2  -5   2  159.68   17.10
  -2  -5  -2  181.18   19.80
  -2  -5  -2  184.58   16.20
   2  -5   2  183.48   13.30
   2   5   2  174.68   17.70
   2   5   2  166.98   14.70
  -3  -5  -2   51.29   10.60
   3  -5   2   19.40    9.90
   3  -5   2   52.19    7.40
   3  -5   2   56.99    8.10
   3  -5   2   53.59   11.80
  -3  -5  -2   52.29   10.60
   3   5   2   53.99    9.30
   3   5   2   64.19   13.50
  -4  -5  -2  852.81   36.60
   4  -5   2  872.21   27.20
   4  -5   2  840.52   24.90
  -4  -5  -2  863.21   35.90
   4  -5   2  858.31   36.50
   4  -5   2  831.62   36.50
   4   5   2  874.91   37.80
   4   5   2  849.32   31.10
   5  -5   2    6.20    3.60
   5  -5   2    8.10    9.60
   5  -5   2    3.20    9.50
  -5  -5  -2   -3.30    7.40
  -5  -5  -2   17.70    9.00
   5  -5   2    6.80    5.00
   5   5   2    6.30    6.40
   5   5   2  -10.40    8.90
   6  -5   2 1068.49   30.30
   6  -5   2 1040.30   44.10
   6  -5   2 1046.20   53.19
  -6  -5  -2 1099.09   44.60
   6   5   2 1112.19   46.50
   6   5   2 1065.29   34.80
   7  -5   2   50.19   15.60
  -7  -5  -2   54.69   21.40
   7   5   2   60.09   23.60
   7   5   2   38.00    9.20
   5  -6  -2  342.07   28.70
   5  -6  -2  332.97   31.40
   5  -6  -2  401.56   22.60
   5   6  -2  340.87   34.40
   4  -6  -2    5.70    5.50
   4  -6  -2   -5.00    7.80
   4  -6  -2  -19.40   11.90
  -4  -6   2  -11.00    9.20
   4  -6  -2    7.80   12.90
  -4  -6   2   -0.40    9.40
   4   6  -2   -2.30    9.70
  -3  -6   2   51.69   11.30
   3  -6  -2   32.00    9.50
   3  -6  -2   42.80    8.30
  -3  -6   2   30.50   10.40
   3   6  -2   24.10    9.80
   2  -6  -2   25.80    8.90
   2  -6  -2   46.50   13.50
   2  -6  -2   15.30    7.50
  -2  -6   2   16.20    8.80
  -2  -6   2   15.90    8.80
  -1  -6   2  420.16   24.50
  -1  -6   2  445.56   23.60
   1  -6  -2  446.26   24.70
   1  -6  -2  399.76   28.80
   1  -6  -2  369.76   22.00
   0  -6  -2   -6.50   10.60
   0  -6   2    9.10    9.30
   0  -6   2   -0.80    7.10
   0  -6  -2   15.70    7.70
   0  -6  -2   12.30    8.70
   0  -6   2   -2.40    9.10
   0  -6   2   -3.10    7.10
  -1  -6  -2  854.41   35.70
   1  -6   2  839.32   36.80
   1  -6   2  896.01   33.20
   1  -6   2  844.42   36.70
  -1  -6  -2  885.51   35.80
   1  -6   2  896.61   39.70
   2  -6   2   18.50    7.50
  -2  -6  -2    9.20    9.00
   2  -6   2   30.00   12.00
   2  -6   2   14.70    7.20
   2  -6   2   21.30   11.50
  -2  -6  -2   26.90    9.50
   2   6   2   23.50    9.60
  -3  -6  -2  590.14   32.50
  -3  -6  -2  652.33   32.10
   3  -6   2  590.34   44.50
   3  -6   2  604.54   24.60
   3  -6   2  599.24   33.90
   3  -6   2  557.24   23.20
   3   6   2  624.24   33.50
   3   6   2  579.54   28.40
  -4  -6  -2   35.00   13.50
   4  -6   2   20.00    7.70
   4  -6   2   28.60    7.00
  -4  -6  -2   24.80   11.70
   4  -6   2   44.10   14.20
   4   6   2   36.00   17.80
   4   6   2   53.09   11.20
  12   0  -3   15.80    7.70
 -12   0   3   -1.30   10.70
 -12   0   3    2.50    7.30
  11   0  -3  227.38   15.10
 -11   0   3  191.08   15.50
 -11   0   3  209.78   19.90
  10   0  -3   -3.60    5.10
 -10   0   3   -7.30    7.00
 -10   0   3   -2.60    4.50
  -9   0   3 1662.83   44.50
  -9   0   3 1651.33   58.89
   9   0  -3 1680.63   42.50
  -8   0   3    4.30    3.50
  -8   0   3    0.60    5.10
   8   0  -3    0.00    3.40
   7   0  -3 4398.56   93.09
  -7   0   3 4648.13  102.99
  -7   0   3 4605.34   95.39
   6   0  -3    4.00    2.60
  -6   0   3    1.40    2.20
  -6   0   3    2.50    3.90
  -5   0   3 1314.17   32.20
  -5   0   3 1342.07   37.30
   5   0  -3 1295.67   30.70
  -4   0   3    2.30    1.60
   4   0  -3    3.20    1.70
  -4   0   3   -2.40    2.40
   3   0  -3 3032.70   60.09
  -3   0   3 2989.60   66.49
  -3   0   3 3073.69   60.09
   3   0  -3 3109.29   65.59
  -2   0   3    0.10    1.60
  -2   0   3    3.50    1.30
   2   0  -3   -0.50    1.60
  -1   0   3 2307.17   47.80
   1   0  -3 2364.46   48.00
   0   0   3    6.30    1.90
   0   0   3    5.10    1.30
   0   0  -3    7.50    1.40
   0   0   3    5.60    0.90
  -2   0  -3    0.20    2.00
   2   0   3    1.00    2.10
   3   0   3  212.38   10.90
  -3   0  -3  221.38   11.90
   4   0   3    0.70    2.80
  -4   0  -3    3.80    3.00
  -5   0  -3  168.08   11.60
   5   0   3  160.18   10.70
  -6   0  -3    2.50    3.40
   6   0   3    4.20    4.00
   7   0   3 3568.04   80.29
  -7   0  -3 3438.56   82.09
  -8   0  -3    4.10    5.00
  -8   0  -3  -15.50    5.00
   8   0   3    7.50    5.20
  -9   0  -3 1487.15   45.20
  -9   0  -3 1445.66   45.50
   9   0   3 1495.95   43.90
  10   0   3    6.70    7.40
 -10   0  -3   -5.00    7.60
 -10   0  -3   13.10    7.40
 -11   0  -3   -6.60    8.00
  11   0   3   12.00    9.50
 -12  -1   3  803.12   38.00
 -12  -1   3  858.71   34.90
  12  -1  -3  878.71   33.90
  12   1  -3  803.02   24.10
 -12   1   3  861.11   38.00
 -12   1   3  862.71   28.00
  11  -1  -3   63.39   16.60
 -11  -1   3   21.10    7.70
 -11  -1   3   28.40   10.70
 -11   1   3   24.10    6.40
  11   1  -3   30.30    5.80
 -10  -1   3  935.91   33.60
  10  -1  -3  895.01   32.00
 -10   1   3  906.61   36.00
 -10   1   3  931.01   28.00
  10   1  -3  930.31   25.00
  -9  -1   3   36.80    7.30
  -9  -1   3   55.39   11.20
   9  -1  -3   24.40    7.30
  -9   1   3   36.30    5.80
  -9   1   3   34.10    8.90
   9   1  -3   27.50    4.70
  -8  -1   3   13.10    5.10
   8  -1  -3   11.30    5.40
  -8  -1   3    0.10    5.70
   8   1  -3    8.30    3.10
  -8   1   3   13.70    6.60
   7  -1  -3  489.85   19.80
  -7  -1   3  471.55   19.80
  -7   1   3  504.65   22.50
  -7   1   3  484.95   15.50
   7   1  -3  473.55   13.60
  -6  -1   3 2160.98   51.79
   6  -1  -3 2078.49   50.69
   6   1  -3 2058.19   42.30
  -6   1   3 2104.99   44.70
  -6   1   3 2112.19   54.09
   5  -1  -3   45.90    6.10
   5  -1  -3   43.80    6.50
  -5  -1   3   49.90    6.40
  -5   1   3   57.79    7.60
   5   1  -3   57.09    2.70
  -5   1   3   46.00    3.60
  -4  -1   3 5552.84  115.09
   4  -1  -3 5695.83  114.69
   4  -1  -3 5836.92  116.69
  -4   1   3 5872.31  117.29
  -4   1   3 5608.04  107.59
   3  -1  -3    3.80    2.40
   3  -1  -3    1.20    2.20
  -3  -1   3    3.60    2.60
  -3   1   3    2.90    2.00
  -3   1   3    3.30    2.30
   2  -1  -3 2443.36   51.39
   2  -1  -3 2330.97   50.69
  -2   1   3 2330.57   50.59
  -2   1   3 2321.37   51.09
  -2   1   3 2319.27   47.60
   1  -1  -3   14.50    2.90
   1  -1  -3   11.70    2.20
   1   1  -3   13.90    2.40
  -1   1   3    9.80    2.30
  -1   1   3   15.40    3.00
  -1   1   3   17.20    3.10
   0  -1  -3   42.10    4.30
   0  -1  -3   50.59    4.90
   0  -1   3   48.70    3.30
   0  -1  -3   46.80    4.40
   0   1   3   44.60    4.40
   0   1   3   38.80    4.20
   0   1   3   49.80    4.90
  -1  -1  -3  854.61   22.30
  -1  -1  -3  848.82   23.90
   1   1   3  824.32   22.40
   1   1   3  799.62   26.50
   2  -1   3 4245.68   85.79
  -2  -1  -3 4291.57   89.79
  -2   1  -3 4242.18   79.29
   2   1   3 4228.78   89.39
   3  -1   3   28.50    4.30
  -3  -1  -3   24.20    4.80
   3   1   3   27.50    5.10
  -3   1  -3   21.70    2.70
   4  -1   3 6163.18  122.59
  -4  -1  -3 6101.19  127.69
   4   1   3 6130.09  127.19
  -4   1  -3 6225.58  119.69
  -4   1  -3 5948.90  124.19
  -5  -1  -3  258.97   15.20
   5  -1   3  251.57   12.20
   5   1   3  265.07   14.90
  -5   1  -3  245.88   13.90
  -5   1  -3  264.17   13.90
   6  -1   3  806.12   24.80
  -6  -1  -3  765.32   29.10
  -6   1  -3  772.02   27.00
   6   1   3  830.02   29.20
  -6   1  -3  783.72   25.00
  -7  -1  -3   52.19    8.80
   7  -1   3   67.89    8.00
  -7   1  -3   55.69    8.40
  -7   1  -3   58.09    7.80
   7   1   3   53.59    8.90
   8  -1   3  129.39   11.00
  -8  -1  -3  129.49   14.00
  -8   1  -3  138.49   12.50
  -8   1  -3  132.29   12.10
   8   1   3  131.29   14.50
  -9  -1  -3   79.99   13.50
   9  -1   3   56.19    8.50
  -9   1  -3   63.69    9.60
   9   1   3   87.19   12.80
  -9   1  -3   58.39    9.70
 -10  -1  -3  982.90   38.80
  10  -1   3  958.10   31.60
 -10   1  -3  982.70   35.00
 -10   1  -3 1035.70   35.10
  10   1   3 1000.90   37.80
 -11  -1  -3   13.90    9.80
  11  -1   3   26.40    8.30
 -11  -1  -3   25.50   11.60
 -11   1  -3    9.80    8.30
  11   1   3    8.20   11.50
 -11   1  -3   13.80    9.30
 -11  -2   3   65.49   22.40
 -11  -2   3   38.70   10.30
  10  -2  -3   81.59   12.10
 -10  -2   3  111.69   15.30
 -10  -2   3   82.79   12.40
 -10   2   3   73.89   13.10
   9  -2  -3 1290.57   43.10
  -9  -2   3 1266.57   41.70
  -9   2   3 1200.78   42.40
  -8  -2   3    1.00    4.60
   8  -2  -3   16.30    6.70
  -8   2   3   -0.20    5.80
   7  -2  -3 2243.48   57.89
   7  -2  -3 2250.97   56.59
  -7  -2   3 2179.88   57.69
  -7   2   3 2172.18   58.39
   6  -2  -3  125.69   10.40
  -6  -2   3  133.49   11.40
   6  -2  -3  131.79   11.30
  -6   2   3  126.49   11.50
   5  -2  -3  368.86   17.50
  -5  -2   3  372.26   17.50
   5  -2  -3  371.96   16.50
  -5   2   3  380.66   17.30
   4  -2  -3 1947.31   48.80
   4  -2  -3 1849.91   46.50
  -4  -2   3 1967.60   48.80
  -4   2   3 1923.31   47.90
   3  -2  -3 1620.24   42.10
  -3  -2   3 1675.23   42.30
   3  -2  -3 1635.04   40.90
  -3   2   3 1662.43   41.30
  -3   2   3 1703.73   42.40
  -3   2   3 1641.54   32.80
   2  -2  -3  414.16   16.30
  -2  -2   3  422.86   12.70
   2  -2  -3  436.96   16.00
  -2  -2   3  411.26   16.00
   2  -2  -3  391.26   12.50
  -2   2   3  405.86   12.00
  -2   2   3  438.26   16.70
   2   2  -3  396.36   15.80
  -2   2   3  434.36   16.00
   1  -2  -3 4592.14   94.79
   1  -2  -3 4383.26   90.19
  -1  -2   3 4454.25   90.89
   1  -2  -3 4370.06   92.99
  -1  -2   3 4436.56   92.09
   1  -2  -3 4565.24   92.79
  -1   2   3 4442.16   89.39
   1   2  -3 4328.57   92.79
  -1   2   3 4575.94   93.49
  -1   2   3 4567.14   92.79
   0  -2  -3  163.08   10.20
   0  -2  -3  178.68   11.50
   0  -2  -3  158.78    9.30
   0  -2   3  156.58    9.30
   0   2   3  165.38    9.10
   0   2   3  171.08   10.20
   0   2   3  163.68    9.60
  -1  -2  -3 2518.95   59.29
  -1  -2  -3 2602.14   58.39
  -1  -2  -3 2611.74   58.79
   1  -2   3 2516.75   56.29
   1  -2   3 2507.55   51.19
   1   2   3 2538.15   58.19
   1   2   3 2586.44   59.49
   2  -2   3 1419.76   29.60
  -2  -2  -3 1421.96   38.70
   2   2   3 1440.26   38.70
   2   2   3 1427.36   39.00
   3  -2   3  262.37    8.10
   3  -2   3  262.97   10.90
  -3  -2  -3  296.97   15.30
  -3   2  -3  262.77    7.90
   3   2   3  256.37   14.60
   3   2   3  245.78   14.50
   4  -2   3  419.66   18.90
  -4  -2  -3  450.05   20.40
   4   2   3  460.95   20.70
  -4   2  -3  427.06   12.60
   5  -2   3  501.15   17.20
  -5  -2  -3  498.75   22.80
  -5   2  -3  526.75   16.20
   5   2   3  570.04   24.30
   6  -2   3  173.58    9.50
  -6  -2  -3  166.28   14.00
   6   2   3  196.08   15.30
  -6   2  -3  173.28   10.00
  -7  -2  -3 3221.98   80.99
   7  -2   3 3242.08   68.09
   7   2   3 3207.78   80.19
  -7   2  -3 3042.60   70.49
   8  -2   3   60.29    6.80
  -8  -2  -3   54.69   10.90
   8   2   3   44.70   10.10
  -8   2  -3   47.00    7.90
  -9  -2  -3  615.84   31.00
   9  -2   3  623.84   20.60
   9   2   3  669.73   31.10
  -9   2  -3  596.54   24.50
 -10  -2  -3  255.97   22.10
  10  -2   3  228.48   22.40
  10  -2   3  253.97   13.90
 -10   2  -3  247.38   17.70
  10   2   3  245.68   23.10
 -10  -3   3  412.06   25.70
  10  -3  -3  396.26   26.60
 -10   3   3  395.86   25.40
  -9  -3   3  445.56   25.30
  -9   3   3  417.46   29.00
  -8  -3   3    3.10    5.80
   8  -3  -3    1.90    7.50
   8  -3  -3    5.20    5.80
  -8   3   3   -7.30    6.70
   7  -3  -3  663.73   29.20
   7  -3  -3  657.33   25.50
  -7  -3   3  660.53   29.10
  -7   3   3  657.13   27.50
  -6  -3   3  456.45   22.50
   6  -3  -3  482.65   20.60
   6  -3  -3  438.76   22.70
  -6   3   3  435.06   21.10
   5  -3  -3  118.69   10.30
  -5  -3   3  139.19   12.10
   5  -3  -3  136.49   12.70
  -5   3   3  132.29   11.60
   5   3  -3  131.49   13.40
  -4  -3   3 2227.88   57.39
   4  -3  -3 2231.38   57.99
   4  -3  -3 2154.18   53.99
  -4   3   3 2268.17   55.49
   4   3  -3 2190.98   58.59
   3  -3  -3   71.29    7.90
  -3  -3   3   79.99    9.10
   3  -3  -3   72.99    5.40
   3  -3  -3   96.59   10.20
  -3   3   3   60.59    8.00
   3   3  -3   75.79    9.20
  -3   3   3   82.19    9.20
   2  -3  -3 1811.22   42.30
  -2  -3   3 1740.83   46.70
  -2  -3   3 1796.02   42.90
   2  -3  -3 1794.22   48.00
   2  -3  -3 1882.01   50.09
   2  -3  -3 1888.41   46.80
  -2   3   3 1845.72   41.60
  -2   3   3 1769.62   46.30
   2   3  -3 1868.41   48.20
  -2   3   3 1860.61   48.40
  -1  -3   3 2479.25   58.99
   1  -3  -3 2542.45   62.59
   1  -3  -3 2488.15   60.39
  -1  -3   3 2456.25   57.29
   1  -3  -3 2490.25   56.99
   1  -3  -3 2481.35   59.39
  -1  -3   3 2502.95   60.49
  -1   3   3 2603.54   56.39
  -1   3   3 2521.15   60.79
   1   3  -3 2534.85   60.09
   0  -3   3    3.60    3.30
   0  -3   3    5.50    3.30
   0  -3  -3    2.30    3.20
   0  -3   3    4.00    3.10
   0  -3  -3   -0.20    3.60
   0  -3  -3    2.00    3.10
   0   3   3    6.90    3.90
   0   3   3    6.50    3.40
   0   3   3    5.70    3.90
  -1  -3  -3 1175.28   36.80
   1  -3   3 1177.78   30.10
  -1  -3  -3 1186.88   35.00
  -1  -3  -3 1194.78   35.20
   1  -3   3 1198.98   34.70
   1  -3   3 1268.67   36.00
   1   3   3 1167.08   34.40
   1   3   3 1197.48   36.80
   1   3   3 1134.09   33.90
   2  -3   3 1864.81   41.50
   2  -3   3 1909.81   49.00
  -2  -3  -3 1862.41   49.70
   2  -3   3 1975.60   51.29
  -2  -3  -3 1859.91   50.19
   2   3   3 1896.11   51.69
   2   3   3 1922.01   48.10
   2   3   3 1822.92   49.50
  -3  -3  -3   23.10    6.20
   3  -3   3   20.60    6.50
   3  -3   3   21.50    3.30
   3   3   3   27.30    6.50
   3   3   3   18.90    5.60
   3   3   3   34.00    6.60
   4  -3   3 1419.36   32.60
   4  -3   3 1473.55   44.70
   4  -3   3 1432.76   34.90
  -4  -3  -3 1428.16   44.10
   4   3   3 1513.65   46.20
   4   3   3 1380.66   43.80
  -5  -3  -3 1318.97   42.30
  -5   3  -3 1231.18   29.20
   5   3   3 1354.56   44.50
   5   3   3 1008.60   57.19
  -6  -3  -3  463.35   24.60
   6  -3   3  447.36   24.60
   6  -3   3  456.25   15.50
   6   3   3  437.46   25.70
   6   3   3  450.25   24.70
   7  -3   3  680.93   18.00
  -7  -3  -3  656.13   31.00
   7   3   3  679.93   31.50
  -7   3  -3  683.03   20.60
   8  -3   3    2.00    2.70
  -8  -3  -3    7.70    8.00
   8  -3   3    0.70   10.30
   8   3   3   14.90    9.60
  -8   3  -3   -0.90    4.00
   9  -3   3  310.27   25.60
  -9  -3  -3  358.56   25.70
  -9   3  -3  340.07   15.80
   9   3   3  308.37   26.40
 -10   3  -3  287.27   15.90
  -9  -4   3  181.08   20.10
   9  -4  -3  198.18   30.00
  -9   4   3  170.58   18.50
   9   4  -3  211.18   27.90
  -8  -4   3   59.49   12.30
   8  -4  -3   27.70   11.60
   8  -4  -3   56.19   10.10
  -8   4   3   40.80   11.90
   8   4  -3   34.50   11.30
  -7  -4   3  591.64   28.80
   7  -4  -3  616.04   25.60
   7  -4  -3  495.85   28.70
  -7   4   3  564.54   26.10
   7   4  -3  573.04   31.60
   6  -4  -3  755.32   27.90
  -6  -4   3  705.83   30.60
   6   4  -3  730.73   33.60
  -6   4   3  735.53   29.00
   5  -4  -3   89.99   10.40
  -5  -4   3   93.39   12.20
   5   4  -3   85.29   16.30
  -5   4   3  101.49   11.80
   4  -4  -3 1647.84   49.80
   4  -4  -3 1647.74   51.09
   4  -4  -3 1541.95   35.30
   4  -4  -3 1583.64   44.60
  -4  -4   3 1612.54   48.50
  -4   4   3 1621.54   45.90
   4   4  -3 1662.73   50.19
   3  -4  -3   31.20    6.50
  -3  -4   3   23.10    6.70
   3  -4  -3   31.10   10.30
   3  -4  -3   37.40    6.30
   3  -4  -3   49.99   11.30
   3   4  -3   43.70    8.40
  -3   4   3   36.50    8.30
  -3   4   3   29.70    6.90
   2  -4  -3  827.42   32.70
  -2  -4   3  824.52   30.10
  -2  -4   3  883.01   27.70
   2  -4  -3  795.02   25.60
   2  -4  -3  852.21   31.40
   2  -4  -3  837.52   29.10
  -2   4   3  858.51   31.30
   2   4  -3  838.02   31.00
  -1  -4   3  837.22   29.20
  -1  -4   3  869.71   28.60
  -1  -4   3  868.31   31.60
   1  -4  -3  775.22   26.80
   1  -4  -3  834.62   32.30
   1  -4  -3  831.82   29.30
   1   4  -3  839.32   30.40
  -1   4   3  838.42   30.40
  -1   4   3  837.42   26.50
   0  -4   3    6.20    3.90
   0  -4  -3    9.50    4.90
   0  -4  -3    4.90    4.50
   0  -4   3    9.30    5.50
   0  -4  -3   19.80    5.90
   0  -4   3   11.10    4.30
   0  -4   3    3.50    4.50
   0   4   3   -0.20    4.70
   0   4   3    8.20    4.50
  -1  -4  -3  876.61   33.70
  -1  -4  -3  867.81   31.00
   1  -4   3  869.71   31.70
   1  -4   3  852.01   31.30
   1  -4   3  887.61   28.00
  -1  -4  -3  869.41   31.10
   1  -4   3  871.51   26.20
   1   4   3  898.81   30.90
   1   4   3  892.61   30.50
   1   4   3  835.12   32.70
  -2  -4  -3  936.51   33.20
   2  -4   3  880.61   32.90
   2  -4   3  872.71   27.20
  -2  -4  -3  917.81   32.70
   2  -4   3  861.41   32.20
   2  -4   3  916.31   25.80
   2   4   3  914.31   34.40
   2   4   3  905.81   30.80
   2   4   3  872.21   31.70
   3  -4   3  291.87   12.40
   3  -4   3  276.37   13.00
   3  -4   3  262.47   18.50
   3  -4   3  255.57   17.60
  -3  -4  -3  289.07   18.20
  -3  -4  -3  309.57   19.50
   3   4   3  264.07   15.80
   3   4   3  284.37   19.10
   4  -4   3 1210.88   42.60
  -4  -4  -3 1171.68   44.90
   4  -4   3 1210.78   30.90
   4  -4   3 1194.78   30.30
   4  -4   3 1184.18   40.50
   4   4   3 1193.48   36.90
   4   4   3 1205.88   41.90
   4   4   3 1248.08   43.70
   5  -4   3   65.99    6.90
  -5  -4  -3   42.70    9.30
   5  -4   3   54.29    6.70
   5   4   3   57.89   11.90
   5   4   3   47.70    8.60
   6  -4   3  334.87   10.70
   6  -4   3  346.07   11.30
  -6  -4  -3  333.37   22.60
   6   4   3  333.27   24.10
   6   4   3  363.06   19.00
   7  -4   3  440.66   28.60
  -7  -4  -3  378.26   25.60
   7   4   3  408.96   28.50
   7   4   3  385.06   27.70
   7   4   3  386.26   20.00
  -8  -4  -3   50.79   12.40
   8  -4   3   47.40   14.70
   8   4   3   34.30   13.40
   8   4   3   52.69   13.80
   8   4   3   68.19   10.60
  -8  -5   3   -0.20   10.10
   8  -5  -3    7.20    8.80
   8  -5  -3   -5.30   13.70
  -8   5   3    0.70    9.00
   8   5  -3   -4.20   13.70
   7  -5  -3  529.85   32.50
  -7  -5   3  479.55   28.70
  -7   5   3  434.76   24.80
   7   5  -3  489.85   32.50
   6  -5  -3   25.30   12.10
  -6  -5   3    7.90    9.00
   6  -5  -3   29.10   11.80
   6  -5  -3   22.10    8.00
  -6   5   3   21.10    8.20
   6   5  -3   14.70    9.30
   5  -5  -3  236.08   24.00
   5  -5  -3  342.17   25.40
  -5  -5   3  392.36   23.90
   5  -5  -3  346.87   19.70
   5   5  -3  349.17   24.00
   4  -5  -3  385.76   20.80
   4  -5  -3  412.66   25.90
   4  -5  -3  356.96   24.80
  -4  -5   3  371.66   23.20
   4   5  -3  402.06   24.30
  -3  -5   3   24.50    8.40
   3  -5  -3   18.30    8.70
   3  -5  -3   21.30    8.50
   3  -5  -3   25.50    7.30
   3  -5  -3   27.70    6.20
   3   5  -3   19.20    8.50
   2  -5  -3   86.69   13.60
   2  -5  -3   79.49   14.70
  -2  -5   3  100.59   21.10
  -2  -5   3   79.09   10.60
  -2  -5   3  105.39   12.40
   2  -5  -3   86.09   10.30
   2  -5  -3   81.59   10.70
   2   5  -3   87.39   13.70
  -1  -5   3 1892.51   53.79
   1  -5  -3 1891.01   51.29
  -1  -5   3 1845.32   52.49
   1  -5  -3 1957.40   59.39
   1  -5  -3 1895.01   53.79
  -1  -5   3 1898.11   51.39
  -1  -5   3 2033.10   58.49
  -1   5   3 1841.22   55.39
   0  -5  -3    4.60    5.50
   0  -5  -3    0.10    8.10
   0  -5   3    4.10    5.40
   0  -5   3   -4.00    4.80
   0  -5   3    0.70    6.40
   0  -5   3    1.00    6.70
   0   5   3    1.10   11.90
  -1  -5  -3 1104.59   38.20
   1  -5   3 1097.29   33.00
   1  -5   3 1135.29   40.20
   1  -5   3 1078.39   38.70
  -1  -5  -3 1060.49   38.00
   1  -5   3 1017.60   34.00
   1   5   3 1060.29   37.80
   2  -5   3  145.89   11.40
  -2  -5  -3  145.09   15.80
   2  -5   3  153.38   12.60
  -2  -5  -3  168.18   16.70
   2  -5   3  129.49   16.00
   2  -5   3  163.88   16.90
   2   5   3  137.09   14.40
   2   5   3  142.89   15.80
   2   5   3  145.29   16.60
   3  -5   3   89.49    9.40
   3  -5   3  105.79   10.30
  -3  -5  -3  105.69   14.00
   3  -5   3   70.59   12.60
   3  -5   3   74.99   11.70
  -3  -5  -3   80.89   12.10
   3   5   3  117.09   16.60
   3   5   3   87.69   11.50
   4  -5   3  201.78   12.10
   4  -5   3  195.98   11.80
   4  -5   3  199.38   21.30
  -4  -5  -3  170.98   18.30
   4  -5   3  215.98   19.90
  -4  -5  -3  229.08   19.30
   4   5   3  215.18   20.40
   4   5   3  200.08   16.10
   4   5   3  189.98   19.50
   5  -5   3  383.76   25.80
   5  -5   3  392.96   15.30
  -5  -5  -3  400.36   25.80
   5  -5   3  399.76   28.50
   5  -5   3  359.66   15.40
  -5  -5  -3  422.46   26.30
   5  -5   3  407.06   15.20
   5   5   3  415.66   27.60
   5   5   3  394.56   27.50
   5   5   3  372.66   21.00
  -6  -5  -3  120.29   17.50
   6  -5   3  131.09   18.50
  -6  -5  -3  128.99   17.50
   6  -5   3   84.19   15.70
   6  -5   3  138.39   10.10
   6   5   3  109.69   13.30
   6   5   3  116.79   17.30
   6   5   3   93.69   16.90
  -7  -5  -3  430.76   29.80
   7  -5   3  344.27   32.30
   7   5   3  434.96   22.70
   7   5   3  446.16   32.80
   7   5   3  359.06   34.80
   5  -6  -3  -11.40    8.40
   5  -6  -3   -9.80   10.90
   5  -6  -3   -1.00   14.10
   5   6  -3   -4.60   10.30
  -4  -6   3  735.83   33.50
   4  -6  -3  764.12   31.70
   4  -6  -3  733.43   38.30
   4  -6  -3  735.93   23.70
  -4  -6   3  752.42   36.20
   4  -6  -3  697.93   36.70
   4   6  -3  732.13   35.90
  -3  -6   3    0.20    8.00
  -3  -6   3    7.50    8.80
   3  -6  -3    0.60    7.60
   3  -6  -3   -2.70    6.40
   3  -6  -3    3.00   10.80
   3   6  -3   -1.00    8.60
   2  -6  -3  501.35   26.30
   2  -6  -3  452.25   22.80
  -2  -6   3  478.75   25.00
  -2  -6   3  468.75   26.90
   2  -6  -3  480.45   40.00
   1  -6  -3   83.59   18.00
  -1  -6   3   33.10    9.80
  -1  -6   3   52.99   12.40
   1  -6  -3   40.20   10.00
   1  -6  -3   24.80    8.50
  -1  -6   3   40.40    9.70
   0  -6   3   11.20    7.70
   0  -6  -3   18.50    8.50
   0  -6  -3    8.20    8.40
   0  -6   3   25.50   12.10
   0  -6  -3   39.30   13.90
   0  -6   3    8.50    7.70
   0  -6   3    7.30    9.50
   1  -6   3  161.48   15.10
   1  -6   3  186.48   19.50
  -1  -6  -3  171.08   18.60
   1  -6   3  136.59   17.30
   1  -6   3  181.88   22.10
  -1  -6  -3  208.18   19.00
   1   6   3  175.18   18.30
  -2  -6  -3  417.46   26.70
   2  -6   3  443.76   28.50
   2  -6   3  410.16   28.30
   2  -6   3  420.56   20.50
  -2  -6  -3  401.56   25.70
   2  -6   3  419.06   21.50
   2   6   3  406.36   25.20
   3  -6   3    4.00    6.40
  -3  -6  -3   -5.00    9.20
   3  -6   3    5.60   11.40
   3  -6   3    3.30   11.70
  -3  -6  -3    3.30    9.90
   3  -6   3    2.20    6.20
   3   6   3   -6.10   10.80
   3   6   3   -7.50    8.20
  -4  -6  -3  973.50   42.50
   4  -6   3  940.91   29.70
   4  -6   3  867.51   65.69
   4  -6   3  924.71   29.00
   4  -6   3  923.51   43.30
   4   6   3  932.41   36.80
   4   6   3  946.81   44.00
 -12   0   4  685.63   28.10
  12   0  -4  721.03   25.90
 -12   0   4  677.43   34.90
 -11   0   4   -2.20    5.80
 -11   0   4   -2.90    8.70
  11   0  -4    7.00    5.90
 -10   0   4  132.59   17.00
  10   0  -4  133.69   11.30
 -10   0   4  154.78   12.50
  -9   0   4    0.20    6.70
   9   0  -4    3.60    4.10
  -9   0   4    1.90    4.00
  -8   0   4 1320.57   43.00
  -8   0   4 1346.77   36.30
   8   0  -4 1308.67   34.00
  -7   0   4    3.60    2.80
  -7   0   4   -3.50    4.60
   7   0  -4   -0.40    2.60
  -6   0   4 4816.32   99.09
  -6   0   4 4901.31  106.89
  -5   0   4    0.70    3.00
  -5   0   4    1.40    3.40
   5   0  -4   -0.20    1.70
  -4   0   4 3974.20   84.89
   4   0  -4 3848.31   77.29
  -4   0   4 3931.11   77.19
  -3   0   4   -0.70    2.00
  -3   0   4    2.30    1.40
   2   0  -4   52.29    5.10
  -2   0   4   48.50    4.80
  -1   0   4    7.40    2.00
   1   0  -4    8.90    2.20
   0   0   4 3642.74   66.49
   0   0  -4 3520.15   69.29
   0   0   4 3503.05   72.39
   0   0   4 3387.96   68.79
  -1   0  -4    2.40    1.30
   1   0   4    0.30    2.00
  -1   0  -4   22.30    4.10
  -3   0  -4    4.70    3.20
   3   0   4    4.90    3.00
  -4   0  -4 7367.16  149.19
   4   0   4 7157.98  146.89
  -5   0  -4    5.70    4.10
   5   0   4    1.20    3.70
  -6   0  -4   71.89    9.60
   6   0   4   45.50    7.50
  -7   0  -4    5.70    5.20
   7   0   4   -1.40    4.30
  -8   0  -4 1417.66   44.40
   8   0   4 1392.56   42.00
  -9   0  -4   -1.90    6.30
  -9   0  -4    1.30    6.60
   9   0   4    2.00    7.50
  10   0   4  933.51   34.20
 -10   0  -4  924.11   41.20
 -10   0  -4  882.11   33.90
 -11   0  -4   -8.00    8.20
  11   0   4   -3.60    9.50
 -12  -1   4   20.10   12.10
 -12  -1   4   18.70    8.40
  12  -1  -4   19.70   10.20
 -12   1   4    3.80   10.90
 -12   1   4   26.20    6.80
 -11  -1   4  720.93   34.70
  11  -1  -4  720.13   28.80
 -11  -1   4  708.73   29.80
 -11   1   4  704.83   23.90
 -10  -1   4   11.60    6.10
 -10  -1   4    6.10   12.30
  10  -1  -4   13.70    7.20
 -10   1   4    0.90    4.00
 -10   1   4   -0.10    7.00
  -9  -1   4  886.51   36.50
   9  -1  -4  941.71   31.30
  -9  -1   4  984.50   32.90
  -9   1   4  954.00   26.70
   9   1  -4  970.80   23.30
  -8  -1   4   10.50    7.40
   8  -1  -4   10.80    4.90
  -8  -1   4   10.30    4.80
  -8   1   4   16.30    6.70
   8   1  -4   13.00    2.90
   7  -1  -4 2071.79   50.89
  -7  -1   4 2000.80   56.19
  -7  -1   4 2072.79   52.09
   7   1  -4 2046.40   41.50
  -7   1   4 2155.28   56.39
  -7   1   4 2036.60   45.00
   6  -1  -4  260.47   14.60
   6  -1  -4  267.47   13.50
  -6  -1   4  250.17   15.70
  -6  -1   4  281.47   14.00
  -6   1   4  275.77   15.80
  -6   1   4  259.17    9.50
   5  -1  -4  291.67   13.30
   5  -1  -4  308.07   15.10
  -5  -1   4  299.37   13.80
  -5   1   4  333.67   16.00
  -5   1   4  313.07    9.60
   4  -1  -4  444.06   16.00
  -4  -1   4  460.15   16.70
   4  -1  -4  461.55   17.70
  -4   1   4  470.15   18.10
  -4   1   4  438.26   15.80
   3  -1  -4 4357.26   89.59
   3  -1  -4 4279.07   87.79
  -3   1   4 4179.08   91.09
  -3   1   4 4357.36   89.79
   2  -1  -4   17.30    3.60
  -2   1   4   20.60    3.70
  -2   1   4   15.50    3.40
  -2   1   4   12.90    2.60
   0  -1  -4 2613.64   54.99
   0  -1  -4 2632.24   55.69
   0  -1   4 2501.15   50.99
   0  -1  -4 2551.74   56.89
   0  -1   4 2616.74   51.09
   0   1   4 2459.25   66.29
   0   1   4 2649.83   55.19
   0   1   4 2712.43   57.89
  -1  -1  -4 1081.99   27.70
  -1  -1  -4 1075.69   34.50
   1   1   4 1107.89   30.40
   1   1   4 1088.19   27.70
  -2  -1  -4  416.96   17.00
   2   1   4  425.46   17.30
   3  -1   4  217.08   11.10
  -3  -1  -4  212.28   12.80
  -3   1  -4  260.47    7.90
   3   1   4  218.68   13.00
  -4  -1  -4  289.87   15.60
   4  -1   4  290.57   13.40
   4   1   4  257.37   15.00
  -4   1  -4  297.07   10.70
   5  -1   4 3385.06   75.09
  -5  -1  -4 3453.65   80.99
  -5   1  -4 3431.06   78.39
   5   1   4 3463.55   80.09
  -5   1  -4 3341.07   75.59
   6  -1   4   12.00    4.40
  -6  -1  -4   22.90    6.40
   6   1   4   27.60    6.80
  -6   1  -4   22.50    6.10
  -6   1  -4   16.10    4.50
  -7  -1  -4 2086.19   57.89
   7  -1   4 2044.90   50.99
  -7   1  -4 2082.49   50.99
  -7   1  -4 1938.01   54.09
   7   1   4 2074.69   56.69
  -8  -1  -4   68.69   11.40
   8  -1   4   43.60    7.40
  -8   1  -4   61.99    9.30
   8   1   4   68.59   11.30
  -8   1  -4   39.30    7.60
   9  -1   4  690.83   25.80
  -9  -1  -4  625.94   30.20
  -9   1  -4  641.44   26.10
  -9   1  -4  688.43   28.30
   9   1   4  700.33   30.80
  10  -1   4  135.79   14.70
 -10  -1  -4  138.79   16.20
  10   1   4  111.99   15.40
 -10   1  -4  108.29   12.90
 -10   1  -4   96.29   11.90
 -11  -2   4   50.09   15.40
 -11  -2   4   65.69   12.40
 -10  -2   4  126.59   14.60
  10  -2  -4  167.18   16.90
 -10  -2   4  169.78   18.30
 -10   2   4  138.99   17.20
  -9  -2   4  892.81   33.70
  -8  -2   4  444.06   22.10
   8  -2  -4  442.06   22.00
  -8   2   4  476.65   24.00
   7  -2  -4  160.88   12.70
   7  -2  -4  153.78   13.20
  -7  -2   4  137.59   12.20
  -7   2   4  168.38   14.50
   6  -2  -4 3026.70   71.19
  -6  -2   4 3020.40   71.89
   6  -2  -4 3032.60   71.49
  -6   2   4 2959.70   72.49
  -5  -2   4  684.03   24.70
   5  -2  -4  681.53   24.70
   5  -2  -4  678.63   24.00
  -5   2   4  658.63   24.60
   4  -2  -4 3613.74   79.79
   4  -2  -4 3549.54   80.39
  -4  -2   4 3654.53   80.89
  -4   2   4 3646.74   80.39
  -4   2   4 3668.83   80.89
  -3  -2   4 1077.49   31.10
  -3  -2   4 1053.89   23.60
   3  -2  -4 1062.69   31.00
   3  -2  -4 1051.99   30.30
  -3   2   4 1052.29   23.70
  -3   2   4 1121.69   31.40
  -3   2   4 1044.50   30.50
   2  -2  -4  327.97   14.20
   2  -2  -4  329.47   11.90
  -2  -2   4  326.97   11.20
   2  -2  -4  331.97   14.80
  -2   2   4  320.67   11.40
  -2   2   4  327.17   14.30
   2   2  -4  313.57   13.40
  -2   2   4  330.97   14.60
   1  -2  -4  944.41   25.80
   1  -2  -4  942.21   28.10
   1  -2  -4  960.30   27.40
   1   2  -4  962.80   25.40
  -1   2   4  822.02   33.60
  -1   2   4  904.91   26.80
  -1   2   4  952.10   27.60
   0  -2  -4 1447.66   36.70
   0  -2   4 1289.37   37.20
   0  -2  -4 1398.76   36.40
   0   2   4 1355.56   35.70
   0   2   4 1420.66   37.10
   0   2   4 1369.36   36.10
   0   2   4 1456.75   36.90
  -1  -2  -4 2819.92   62.99
   1  -2   4 2653.03   60.49
  -1  -2  -4 2830.12   64.19
   1  -2   4 2729.93   54.19
  -1  -2  -4 2750.72   63.69
   1   2   4 2715.03   63.49
   1   2   4 2850.01   63.99
   2  -2   4 5690.53  105.69
  -2  -2  -4 5756.42  120.09
  -2  -2  -4 5536.55  117.49
   2   2   4 5667.23  119.09
   2   2   4 5751.42  119.99
  -3  -2  -4   96.29    9.70
   3  -2   4  103.59    7.60
   3   2   4   96.69   10.10
   3   2   4  109.59    9.90
  -4  -2  -4 2991.50   72.19
   4  -2   4 2905.11   63.99
   4   2   4 2982.00   71.59
  -4   2  -4 2779.42   56.29
  -5  -2  -4  483.35   23.20
   5  -2   4  474.85   17.70
  -5   2  -4  504.15   14.30
   5   2   4  482.35   23.10
   6  -2   4  138.49    9.70
  -6  -2  -4  121.29   13.40
  -6   2  -4  130.49    8.10
   6   2   4  128.69   13.60
   7  -2   4 1221.68   32.30
   7   2   4 1157.78   40.90
  -7   2  -4 1127.29   31.40
   8  -2   4  382.36   16.20
  -8  -2  -4  388.56   23.90
   8   2   4  418.66   24.30
  -8   2  -4  366.46   16.90
  -9  -2  -4   18.80    9.30
   9  -2   4   16.40    5.80
   9   2   4   14.80   10.00
  -9   2  -4    3.00    5.90
  10  -2   4  703.93   24.00
 -10  -2  -4  654.83   34.50
  10   2   4  759.52   36.50
 -10   2  -4  716.53   26.90
 -10  -3   4   24.40    9.60
  10  -3  -4   24.40   10.80
 -10   3   4   23.50   10.90
  -9  -3   4  672.53   30.80
  -9   3   4  656.13   31.30
   8  -3  -4   99.59   13.40
   8  -3  -4  140.69   14.10
  -8  -3   4  121.19   14.60
  -8   3   4  123.69   14.90
  -7  -3   4  381.36   21.90
   7  -3  -4  361.56   19.00
   7  -3  -4  334.07   21.00
  -7   3   4  342.27   20.20
  -6  -3   4 1556.04   46.80
   6  -3  -4 1481.65   43.40
   6  -3  -4 1606.34   47.50
  -6   3   4 1564.74   45.90
   5  -3  -4   83.09    9.20
  -5  -3   4   48.50    8.10
   5  -3  -4   69.59   10.50
  -5   3   4   47.50    7.80
   5   3  -4   45.20    9.30
  -4  -3   4 1668.33   46.80
   4  -3  -4 1647.34   47.00
   4  -3  -4 1667.33   45.00
   4   3  -4 1656.43   47.50
  -4   3   4 1723.83   47.30
  -4   3   4 1670.93   45.60
   3  -3  -4 1397.26   38.80
   3  -3  -4 1308.27   39.90
   3  -3  -4 1364.96   32.50
  -3  -3   4 1398.36   33.20
  -3  -3   4 1362.36   39.70
  -3   3   4 1374.06   31.20
  -3   3   4 1398.86   39.30
   3   3  -4 1357.76   39.70
  -3   3   4 1435.36   40.80
  -2  -3   4  168.18   11.70
  -2  -3   4  169.58    9.70
   2  -3  -4  177.38   13.20
   2  -3  -4  160.08   11.30
   2  -3  -4  173.18   12.50
  -2   3   4  167.88   11.70
  -2   3   4  166.88   12.00
   2   3  -4  164.88   11.50
  -2   3   4  169.78    9.00
   1  -3  -4 2764.62   65.99
  -1  -3   4 2668.73   62.69
  -1  -3   4 2603.44   60.09
   1  -3  -4 2689.93   63.09
   1  -3  -4 2521.65   60.19
  -1  -3   4 2635.84   62.19
  -1   3   4 2661.13   63.09
   1   3  -4 2644.34   61.89
  -1   3   4 2608.24   63.59
  -1   3   4 2613.04   59.39
   0  -3   4 1718.43   44.20
   0  -3   4 1614.24   43.20
   0  -3  -4 1705.23   44.30
   0  -3  -4 1642.24   44.60
   0  -3  -4 1652.53   46.40
   0   3   4 1678.63   44.90
   0   3   4 1691.33   43.50
   0   3   4 1715.73   46.80
   1  -3   4  669.53   23.40
   1  -3   4  640.74   18.40
  -1  -3  -4  669.33   25.90
  -1  -3  -4  636.24   24.10
  -1  -3  -4  626.94   24.20
   1  -3   4  688.13   25.00
   1   3   4  650.33   24.20
   1   3   4  682.13   24.30
   1   3   4  683.93   26.00
   2  -3   4 1995.90   43.30
  -2  -3  -4 2105.79   54.29
   2  -3   4 2050.19   51.69
  -2  -3  -4 2035.30   54.29
   2   3   4 2042.20   51.99
   2   3   4 2080.09   55.39
   2   3   4 2051.39   54.29
  -3  -3  -4    1.80    4.30
   3  -3   4    8.60    2.00
  -3  -3  -4    5.60    4.90
   3   3   4    2.00    4.10
   3   3   4    9.40    5.80
  -4  -3  -4 1166.48   39.40
   4  -3   4 1128.99   31.00
   4   3   4 1196.58   40.00
   4   3   4 1197.88   40.20
   5  -3   4 2078.89   49.00
  -5  -3  -4 2215.58   61.29
   5   3   4 2087.19   60.29
   5   3   4 2167.58   62.29
   6  -3   4  181.18   10.30
  -6  -3  -4  144.39   15.70
   6   3   4  163.78   17.50
  -6   3  -4  157.88    6.90
   6   3   4  169.68   17.00
   7  -3   4  437.36   15.50
  -7  -3  -4  462.25   26.30
  -7   3  -4  455.65   13.90
   7   3   4  475.55   28.70
   7   3   4  467.75   27.30
   8  -3   4   82.09    7.50
  -8  -3  -4   69.59   13.00
   8  -3   4   62.19   14.20
   8   3   4   71.59   13.90
   9  -3   4  171.48   22.60
  -9  -3  -4  183.58   21.40
   9   3   4  139.99   29.40
  -9   3  -4  164.78   10.10
  -9  -4   4  832.82   37.50
   9  -4  -4  849.61   33.30
   9  -4  -4  819.22   43.00
  -9   4   4  849.61   36.00
   9   4  -4  809.42   43.40
  -8  -4   4   47.10   11.10
   8  -4  -4   28.10    8.50
   8  -4  -4    9.60   10.70
  -8   4   4   32.50   10.00
   8   4  -4   36.10   12.40
   7  -4  -4  128.39   13.60
   7  -4  -4  128.59   16.60
  -7  -4   4  110.09   14.30
   7   4  -4  110.49   15.30
  -7   4   4  142.19   15.60
  -6  -4   4  417.96   24.10
   6  -4  -4  437.66   21.40
   6   4  -4  429.86   25.60
  -6   4   4  458.45   23.20
   5  -4  -4   33.50    7.20
   5  -4  -4    6.40    7.10
  -5  -4   4   40.10    8.80
  -5   4   4   33.50    8.20
   5   4  -4   31.90    9.00
   4  -4  -4  615.64   17.40
   4  -4  -4  529.35   26.60
  -4  -4   4  593.24   26.40
   4  -4  -4  659.43   25.50
   4  -4  -4  632.04   29.10
   4   4  -4  609.04   27.40
  -4   4   4  606.74   25.40
   3  -4  -4 2479.95   91.79
   3  -4  -4 2717.33   61.29
   3  -4  -4 2931.61   69.09
  -3  -4   4 2801.22   70.49
  -3  -4   4 2838.62   63.19
  -3   4   4 2773.32   68.79
   3   4  -4 2771.62   70.49
  -3   4   4 2844.82   71.49
   2  -4  -4   12.50    4.40
  -2  -4   4   19.70    5.50
  -2  -4   4   21.70    6.00
   2  -4  -4   15.60    5.60
   2  -4  -4   14.90    6.70
   2   4  -4   23.90    6.90
  -2   4   4   25.80    5.00
  -2   4   4    9.10    5.30
  -1  -4   4 1225.78   36.20
   1  -4  -4 1187.48   37.60
   1  -4  -4 1156.08   35.20
   1  -4  -4 1194.48   40.60
  -1  -4   4 1216.38   37.20
  -1  -4   4 1238.08   38.90
  -1   4   4 1156.98   38.20
  -1   4   4 1174.88   34.00
   1   4  -4 1240.18   38.00
   0  -4   4  451.05   20.90
   0  -4  -4  433.66   20.30
   0  -4   4  455.95   21.60
   0  -4   4  430.96   17.50
   0  -4  -4  428.26   20.90
   0  -4  -4  458.85   23.50
   0  -4   4  480.55   20.20
   0   4   4  436.56   21.40
   0   4   4  459.15   20.10
   1  -4   4  927.61   26.80
   1  -4   4  950.40   33.30
  -1  -4  -4  985.30   33.50
   1  -4   4 1014.90   33.80
  -1  -4  -4  989.80   36.30
   1  -4   4  951.10   30.00
  -1  -4  -4  884.31   32.40
   1   4   4  916.71   32.60
   1   4   4  919.21   32.20
   1   4   4  951.30   35.10
   2  -4   4  540.65   25.40
  -2  -4  -4  558.44   25.20
   2  -4   4  537.15   23.90
   2  -4   4  494.95   17.00
   2  -4   4  512.35   20.00
  -2  -4  -4  495.85   23.40
   2   4   4  505.45   22.80
   2   4   4  508.95   24.00
   2   4   4  510.55   25.30
  -3  -4  -4   19.80    6.90
  -3  -4  -4    8.20    6.70
   3  -4   4   13.20    7.10
   3  -4   4   31.00    8.60
   3   4   4   28.80    7.20
   3   4   4   18.60    7.20
   3   4   4   26.40   10.30
  -4  -4  -4  347.97   21.00
   4  -4   4  327.07   22.00
  -4  -4  -4  302.57   20.70
   4  -4   4  321.87   11.50
   4  -4   4  304.87   19.70
   4   4   4  335.47   18.30
   4   4   4  328.07   21.80
   4   4   4  262.67   20.20
   5  -4   4 1032.80   28.60
  -5  -4  -4 1061.29   40.30
   5   4   4 1054.09   35.30
   5   4   4 1038.30   41.20
  -6  -4  -4  -11.10    6.90
   6  -4   4   15.90   13.40
   6  -4   4    6.00    3.90
   6   4   4    0.50    7.50
   6   4   4    2.60    6.60
  -7  -4  -4 1140.19   44.90
   7  -4   4 1033.80   44.00
   7  -4   4 1072.69   24.40
   7  -4   4 1119.49   24.70
   7   4   4 1117.89   46.50
   7   4   4 1071.59   36.80
   7   4   4 1141.19   44.70
  -8  -4  -4   95.69   15.80
   8  -4   4   70.79   16.00
   8   4   4   42.40   12.10
   8   4   4   77.59   16.20
   8   4   4   89.69   12.80
   8  -5  -4  270.37   19.90
  -8  -5   4  242.98   23.00
   8  -5  -4  242.68   28.40
   7  -5  -4   97.29   13.20
  -7  -5   4   98.49   15.50
   7  -5  -4  113.09   17.80
   7  -5  -4   96.69   18.80
  -7   5   4  116.39   15.40
   7   5  -4  120.69   17.40
  -6  -5   4  871.81   37.70
   6  -5  -4  822.92   39.20
   6  -5  -4  905.81   33.40
   6  -5  -4  854.31   39.30
  -6   5   4  850.41   34.50
   6   5  -4  912.71   39.60
   5  -5  -4   14.60   10.90
  -5  -5   4   21.30    8.60
   5  -5  -4    7.60    9.40
   5   5  -4   10.00    8.60
  -5   5   4   14.00    8.50
   4  -5  -4  782.52   23.90
  -4  -5   4  785.52   33.50
   4  -5  -4  700.13   34.20
   4  -5  -4  758.32   42.40
   4  -5  -4  795.02   34.50
   4   5  -4  757.82   33.20
   3  -5  -4   -3.60    4.60
   3  -5  -4   -4.50    5.30
  -3  -5   4    6.10    6.00
   3  -5  -4  -10.90    7.70
   3   5  -4   -0.10    7.00
   2  -5  -4   41.00   16.00
  -2  -5   4   30.60    8.10
  -2  -5   4   28.00    8.00
   2  -5  -4   32.20    7.30
  -2   5   4   25.30    8.20
   2   5  -4   22.70    9.30
   1  -5  -4  119.29   12.90
  -1  -5   4  117.09   11.90
  -1  -5   4   95.79   12.10
   1  -5  -4  100.79   11.90
  -1  -5   4  110.69   12.80
  -1   5   4  124.39   15.00
   0  -5   4  539.75   21.70
   0  -5   4  534.05   24.20
   0  -5   4  522.85   26.70
   0  -5   4  548.75   25.80
   0  -5  -4  553.54   25.70
   0  -5  -4  510.55   24.70
   0   5   4  523.65   26.10
   0   5   4  563.04   24.20
   1  -5   4   70.99    9.40
   1  -5   4  103.09   14.40
   1  -5   4   70.49    8.80
  -1  -5  -4   65.29   10.90
  -1  -5  -4   63.29   10.50
   1  -5   4   82.59   12.40
   1   5   4   61.09   18.00
   1   5   4   59.89   10.40
  -2  -5  -4 1722.03   53.19
  -2  -5  -4 1804.92   53.89
   2  -5   4 1712.13   46.50
   2  -5   4 1703.83   53.39
   2  -5   4 1744.33   43.50
   2  -5   4 1705.73   52.79
   2   5   4 1697.23   51.99
   2   5   4 1712.53   55.39
   2   5   4 1637.54   57.59
   3  -5   4    3.80    5.00
   3  -5   4   -6.90    7.10
  -3  -5  -4    4.30    7.70
   3  -5   4    4.40    4.20
   3  -5   4    7.50    8.90
  -3  -5  -4   -4.20    6.70
   3   5   4   -1.80    6.20
   3   5   4   -8.60    7.20
   4  -5   4  850.81   35.60
   4  -5   4  805.22   23.40
   4  -5   4  809.92   26.00
  -4  -5  -4  841.12   37.10
   4  -5   4  786.42   37.60
  -4  -5  -4  876.91   36.20
   4   5   4  814.82   36.80
   4   5   4  837.72   32.60
   4   5   4  822.82   37.70
  -5  -5  -4   56.69   13.30
   5  -5   4   43.70    6.40
   5  -5   4   53.29   12.90
   5  -5   4   37.30    6.50
   5  -5   4   18.30   12.70
  -5  -5  -4   56.69   13.70
   5   5   4   30.80    9.20
   5   5   4   57.49   14.90
   5   5   4   43.70   13.00
   6  -5   4   35.80   12.90
  -6  -5  -4   14.90   10.60
  -6  -5  -4    6.30    9.70
   6  -5   4    8.10   13.00
   6  -5   4   13.80    4.10
   6   5   4    3.40    8.10
   6   5   4   27.90   13.60
   6   5   4   14.70   12.70
   5  -6  -4   13.60    9.70
   5  -6  -4    1.70   15.50
   5  -6  -4   14.20   12.30
   5   6  -4   13.20   12.00
   4  -6  -4   -2.70   10.50
   4  -6  -4   11.90    5.80
   4  -6  -4   -6.30    8.50
  -4  -6   4    4.20    9.40
   4   6  -4    1.60   10.00
   3  -6  -4  687.73   26.20
   3  -6  -4  721.33   31.70
  -3  -6   4  680.53   33.10
   3  -6  -4  736.63   37.80
  -3  -6   4  707.93   31.50
   3   6  -4  708.63   34.30
   2  -6  -4    9.40   15.80
   2  -6  -4    8.40    7.60
  -2  -6   4   22.00    9.60
   2  -6  -4    7.90    8.70
  -2  -6   4    3.30    7.60
  -1  -6   4  738.33   32.60
   1  -6  -4  803.42   33.80
  -1  -6   4  767.42   33.10
  -1  -6   4  762.42   30.40
   1  -6  -4  761.82   33.20
  -1   6   4  803.72   35.60
   0  -6   4   -7.10    9.00
   0  -6   4    1.10   10.40
   0  -6  -4   -2.00    7.40
   0  -6   4   -4.50    6.50
   0  -6   4    2.60    7.50
   0  -6  -4   -6.90    8.10
   0  -6  -4    1.00   17.20
   0   6   4   -4.90    8.90
   1  -6   4  399.16   20.00
   1  -6   4  392.66   27.70
   1  -6   4  360.36   23.10
  -1  -6  -4  404.96   25.40
   1  -6   4  398.66   26.80
  -1  -6  -4  388.36   24.80
   1   6   4  367.86   24.40
  -2  -6  -4   16.90    9.50
   2  -6   4    1.20    7.30
   2  -6   4   -0.50   10.40
   2  -6   4    5.60   11.40
   2  -6   4   -1.90    6.20
  -2  -6  -4   -9.80    8.80
   2   6   4    2.60    9.40
   3  -6   4   41.90   13.70
   3  -6   4   20.40    7.90
   3  -6   4   31.80   13.80
   3  -6   4   31.00    7.20
  -3  -6  -4   19.70   11.10
  -3  -6  -4    6.30   10.50
   3   6   4   28.10   11.10
   4  -6   4   -0.20    6.50
  -4  -6  -4   12.40   13.10
   4  -6   4   -4.90    5.60
   4  -6   4   -6.30   13.90
   4  -6   4   -5.30   13.60
  -4  -6  -4    3.80   10.90
   4   6   4   -2.10    9.90
   4   6   4  -11.20   10.10
  12   0  -5    7.60    7.00
 -12   0   5   -1.10    6.40
 -12   0   5    3.00   11.80
  11   0  -5  984.30   29.40
 -11   0   5  947.71   31.90
 -11   0   5  984.90   40.20
  10   0  -5   -2.10    4.50
 -10   0   5    3.50    4.60
  -9   0   5 4203.38  100.79
  -9   0   5 4121.09   90.59
   9   0  -5 4183.68   87.59
  -8   0   5   -4.20    5.40
  -8   0   5    2.80    3.10
   8   0  -5    4.70    3.30
  -7   0   5    4.90    5.00
   7   0  -5    8.10    3.20
  -7   0   5    8.30    3.70
   6   0  -5    4.40    3.20
  -6   0   5    2.60    2.40
  -6   0   5   -5.80    3.40
  -5   0   5 1320.37   32.90
  -5   0   5 1359.16   38.80
   4   0  -5    0.20    2.70
  -4   0   5    1.30    2.60
  -4   0   5    2.50    1.70
   3   0  -5 9044.59  176.38
  -3   0   5 8932.41  175.98
   2   0  -5   -0.50    1.90
  -1   0   5 4328.77   87.29
   1   0  -5 4444.06   87.89
   0   0   5    1.50    1.30
   0   0   5    2.90    1.10
   0   0  -5    1.90    1.60
  -1   0  -5 1417.06   38.20
   1   0   5 1435.06   31.60
   1   0   5 1437.46   37.00
  -1   0  -5 1481.25   32.10
  -2   0  -5   -1.20    2.60
  -2   0  -5   -1.10    1.40
   2   0   5    7.40    3.40
  -3   0  -5 1049.30   32.70
   3   0   5 1083.19   32.10
   4   0   5   -1.40    3.50
  -4   0  -5   -3.60    3.20
   5   0   5 4924.81  105.79
  -5   0  -5 4783.62  107.89
  -6   0  -5    2.90    4.80
   6   0   5   -0.40    4.30
  -7   0  -5 1896.61   54.79
   7   0   5 1946.61   52.59
  -8   0  -5    5.60    6.40
   8   0   5   -1.30    5.80
  -9   0  -5   24.80    7.60
  -9   0  -5   10.10    7.00
   9   0   5    9.70    7.70
  10   0   5   -5.40    8.30
 -10   0  -5   -3.60    7.30
 -10   0  -5    0.60    7.20
 -12  -1   5  359.06   22.10
  12  -1  -5  370.26   22.20
 -12  -1   5  345.97   27.50
 -12   1   5  339.37   16.40
 -12   1   5  347.47   26.80
 -11  -1   5   87.59   14.90
  11  -1  -5  101.19   12.50
 -11  -1   5   79.39   11.40
 -11   1   5  101.89   10.10
 -11   1   5  110.29   16.00
  10  -1  -5   45.50    8.70
 -10  -1   5   58.69    9.40
 -10  -1   5   20.40    9.70
 -10   1   5   64.39   12.40
 -10   1   5   61.39    7.30
   9  -1  -5  201.88   14.40
  -9  -1   5  224.88   15.00
  -9  -1   5  211.78   17.90
  -9   1   5  191.08   16.80
  -9   1   5  210.58   10.80
   8  -1  -5 1734.13   45.90
  -8  -1   5 1743.73   47.40
  -8   1   5 1813.92   52.39
   7  -1  -5   23.50    5.60
  -7  -1   5   37.30    8.20
  -7  -1   5   41.10    6.80
  -7   1   5   37.10    8.00
  -7   1   5   37.00    4.40
   6  -1  -5 4695.63  100.09
  -6  -1   5 4770.52  101.59
   6  -1  -5 4873.81  105.29
  -6  -1   5 4748.92  106.69
  -6   1   5 4845.72  106.19
  -6   1   5 4803.42   94.09
   5  -1  -5    1.40    2.80
  -5  -1   5    6.20    4.10
  -5  -1   5    3.90    3.00
   5  -1  -5    7.00    3.70
  -5   1   5    1.20    2.50
  -5   1   5    9.20    4.20
   4  -1  -5 3316.67   71.09
   4  -1  -5 3349.17   73.99
  -4  -1   5 3295.77   74.69
  -4   1   5 3319.57   70.79
  -4   1   5 3266.27   74.19
  -3  -1   5  303.17   13.70
   3  -1  -5  315.67   13.70
  -3   1   5  303.17   11.20
  -3   1   5  295.87   12.90
  -3   1   5  298.57   13.50
   2  -1  -5  367.56   14.20
  -2  -1   5  318.67   15.40
  -2   1   5  351.06   13.10
  -2   1   5  343.27   13.70
   1  -1  -5 3834.42   80.69
   1  -1  -5 4019.70   79.59
  -1  -1   5 3743.53   77.79
   1   1  -5 3802.02   74.99
  -1   1   5 3879.81   80.49
  -1   1   5 4052.19   82.19
   0  -1   5 4902.31   96.79
   0  -1   5 4933.31   95.49
   0  -1  -5 4991.10  100.69
   0  -1  -5 5201.88  104.99
   0  -1  -5 4831.92  103.09
   0   1   5 5151.68  105.19
   0   1   5 5388.76  101.29
   0   1   5 5118.59  101.99
  -1  -1  -5   81.89    7.80
  -1  -1  -5   85.89    8.10
   1  -1   5   86.39    3.00
   1   1   5   81.29    8.00
   1   1   5  107.29    6.90
  -2  -1  -5 4331.57   89.79
  -2  -1  -5 4290.47   94.29
   2  -1   5 4227.08   90.69
   2   1   5 4483.05   94.79
   3  -1   5   33.20    5.50
  -3  -1  -5   30.30    6.20
   3   1   5   22.00    5.20
  -3   1  -5   30.80    2.50
  -4  -1  -5  558.94   23.40
   4  -1   5  505.85   19.80
  -4   1  -5  543.85   15.50
   4   1   5  572.74   23.10
  -5  -1  -5  138.69   12.70
   5  -1   5  142.89   11.00
   5   1   5  131.79   12.50
  -5   1  -5  153.08    8.70
   6  -1   5  234.78   14.00
  -6  -1  -5  226.78   16.40
  -6   1  -5  224.08   11.80
  -6   1  -5  217.58   15.10
   6   1   5  209.98   15.80
  -7  -1  -5   59.59   10.30
   7  -1   5   47.60    7.70
  -7   1  -5   52.49    9.50
   7   1   5   43.30    9.40
  -7   1  -5   49.20    7.10
   8  -1   5 1589.04   44.00
   8   1   5 1561.94   48.80
  -8   1  -5 1519.85   42.40
  -8   1  -5 1607.44   48.00
   9  -1   5   14.60    7.10
  -9  -1  -5    5.80    7.30
   9   1   5   13.90    8.80
  -9   1  -5    7.80    6.70
  -9   1  -5   13.90    6.40
 -10  -1  -5 1067.49   41.70
  10   1   5 1034.60   40.70
 -10   1  -5 1011.30   34.50
 -11  -2   5  700.83   38.90
 -11  -2   5  689.33   31.30
 -11   2   5  709.93   34.50
  10  -2  -5    4.50    8.30
 -10  -2   5    6.80    6.70
 -10  -2   5  -11.40    7.90
 -10   2   5    2.30    8.50
  -9  -2   5 1249.28   40.60
   9  -2  -5 1101.59   44.90
  -9   2   5 1202.98   42.90
   8  -2  -5  492.55   23.40
   8  -2  -5  491.25   23.50
  -8  -2   5  493.95   23.30
  -8   2   5  540.45   25.90
  -7  -2   5   13.80    5.40
   7  -2  -5    2.60    5.50
   7  -2  -5    2.00    5.10
  -7   2   5    7.60    6.10
   6  -2  -5  807.92   28.30
   6  -2  -5  792.72   28.50
  -6  -2   5  766.12   27.90
  -6   2   5  824.52   29.80
   5  -2  -5  792.22   27.20
  -5  -2   5  808.82   27.50
   5  -2  -5  814.02   27.60
  -5   2   5  816.22   28.40
  -5   2   5  786.52   26.80
  -4  -2   5  915.41   28.60
   4  -2  -5  867.01   27.90
   4  -2  -5  856.21   28.00
  -4   2   5  848.22   20.00
  -4   2   5  831.52   28.00
  -4   2   5  877.81   27.70
   3  -2  -5 4311.07   92.39
  -3  -2   5 4363.36   83.79
   3  -2  -5 4239.28   92.49
  -3   2   5 4256.67   92.49
  -3   2   5 4210.88   85.59
  -3   2   5 4391.36   92.69
   2  -2  -5   33.50    6.40
   2  -2  -5   32.00    4.60
   2  -2  -5   24.30    5.00
  -2   2   5   26.80    5.10
  -2   2   5   28.90    4.30
   2   2  -5   27.60    7.80
  -2   2   5   33.80    5.40
   1  -2  -5 1414.86   37.70
   1  -2  -5 1409.56   37.20
  -1   2   5 1484.55   38.10
   1   2  -5 1370.76   33.60
  -1   2   5 1359.36   35.80
  -1   2   5 1370.36   36.80
   0  -2   5  273.17   11.30
   0  -2  -5  294.97   14.00
   0  -2  -5  309.07   14.30
   0  -2  -5  292.57   14.10
   0   2   5  271.77   13.60
   0   2   5  291.17   14.30
   0   2   5  271.77   13.40
  -1  -2  -5  395.76   16.80
   1  -2   5  370.66    9.70
  -1  -2  -5  400.36   17.10
  -1  -2  -5  393.96   17.70
   1   2   5  408.56   17.10
   1   2   5  392.36   17.60
  -2  -2  -5 1147.19   33.30
  -2  -2  -5 1161.58   35.60
   2   2   5 1131.09   33.80
   2   2   5 1112.29   35.00
  -3  -2  -5 2270.27   58.39
   3  -2   5 2139.69   51.49
   3   2   5 2193.58   57.49
   3   2   5 2190.28   56.39
  -4  -2  -5  373.06   20.30
   4  -2   5  391.66   16.30
   4   2   5  373.86   20.00
   4   2   5  396.36   20.20
   5  -2   5 2860.51   64.69
  -5  -2  -5 2841.52   73.19
   5   2   5 2815.22   72.09
  -5   2  -5 2791.92   54.99
  -6  -2  -5  283.97   19.40
   6  -2   5  314.27   15.10
   6   2   5  261.27   19.50
  -6   2  -5  287.97   10.60
   7  -2   5  713.33   24.20
  -7  -2  -5  706.63   31.60
   7   2   5  671.43   31.00
  -8  -2  -5  358.76   23.80
   8  -2   5  316.37   16.20
   8   2   5  342.57   24.00
  -8   2  -5  344.07   15.10
  -9  -2  -5    6.20    8.50
   9  -2   5   -0.50    5.60
  -9   2  -5   -0.40    5.10
   9   2   5   14.50   10.30
 -10  -2  -5  167.28   20.30
  10  -2   5  120.39   13.70
  10   2   5   96.99   27.90
 -10   2  -5  158.48   13.40
  10  -3  -5    9.10   10.20
 -10  -3   5   -1.60    7.70
   9  -3  -5  267.97   19.20
  -9  -3   5  260.17   19.30
  -9   3   5  189.68   19.60
  -8  -3   5  717.23   30.70
   8  -3  -5  704.73   31.10
   8  -3  -5  751.92   29.80
   7  -3  -5  258.37   17.10
  -7  -3   5  244.38   17.40
   7  -3  -5  250.47   18.90
  -7   3   5  265.67   18.50
   6  -3  -5 1842.52   53.09
   6  -3  -5 1843.32   51.09
  -6  -3   5 1836.32   52.89
  -6   3   5 1986.30   53.79
   5  -3  -5  312.87   16.90
   5  -3  -5  308.27   18.30
  -5  -3   5  311.87   17.90
  -5   3   5  311.47   17.60
   5   3  -5  316.57   18.90
  -5   3   5  299.97   17.20
  -4  -3   5  491.75   21.70
   4  -3  -5  462.45   20.50
   4  -3  -5  483.85   21.90
  -4   3   5  459.05   20.70
   4   3  -5  518.25   22.30
  -4   3   5  478.65   12.70
  -4   3   5  476.35   21.70
  -3  -3   5 1711.63   46.10
   3  -3  -5 1647.44   38.80
  -3  -3   5 1584.54   38.10
   3  -3  -5 1646.64   44.90
   3  -3  -5 1607.64   45.90
   3  -3  -5 1703.43   48.00
  -3   3   5 1675.03   46.20
   3   3  -5 1660.93   44.90
  -3   3   5 1599.24   42.90
  -3   3   5 1646.14   45.30
  -2  -3   5  331.77   14.00
   2  -3  -5  358.76   18.60
   2  -3  -5  325.97   16.60
   2  -3  -5  390.36   15.40
  -2   3   5  367.36   14.10
   2   3  -5  338.67   16.10
  -2   3   5  314.67   16.30
  -2   3   5  354.46   17.70
   1  -3  -5 1984.60   51.39
  -1  -3   5 2019.70   48.90
  -1  -3   5 1900.61   49.30
   1  -3  -5 1906.31   49.10
   1  -3  -5 2082.59   53.89
  -1   3   5 2007.00   51.59
  -1   3   5 1972.60   48.40
   1   3  -5 2051.39   49.40
  -1   3   5 2042.40   52.29
   0  -3  -5 1352.16   39.20
   0  -3  -5 1365.46   39.00
   0  -3  -5 1357.26   40.60
   0  -3   5 1292.87   36.60
   0   3   5 1368.36   38.20
   0   3   5 1361.56   39.30
   0   3   5 1392.86   40.70
  -1  -3  -5   67.49    9.70
  -1  -3  -5   66.69    9.00
   1  -3   5   71.29    5.30
  -1  -3  -5   73.99    9.70
   1  -3   5   85.09    8.60
   1   3   5   57.59    8.30
   1   3   5   83.19    9.70
   1   3   5   91.39   11.60
   2  -3   5 2135.39   44.20
  -2  -3  -5 2179.18   57.99
  -2  -3  -5 2191.68   56.59
   2  -3   5 2153.48   53.59
   2   3   5 2176.28   57.99
   2   3   5 2181.78   57.89
   2   3   5 2215.68   55.99
  -3  -3  -5  735.63   27.80
  -3  -3  -5  716.33   29.20
   3   3   5  714.93   29.00
   3   3   5  700.93   28.60
   4  -3   5  169.78   11.10
  -4  -3  -5  179.48   15.40
   4   3   5  175.98   16.20
   4   3   5  163.58   14.60
   5  -3   5  930.01   27.00
   5   3   5  870.71   35.40
   5   3   5  703.13   41.20
  -6  -3  -5   11.30    7.10
   6  -3   5   14.70    4.90
   6   3   5   -2.50    5.50
   6   3   5   -5.10    7.80
   7  -3   5  225.38   12.20
  -7  -3  -5  191.78   19.10
   7   3   5  224.38   20.80
   7   3   5  232.18   21.10
   8  -3   5  958.50   26.90
  -8  -3  -5 1026.90   42.10
   8   3   5  974.30   44.10
   8   3   5  919.91   41.50
   9  -3   5   -4.90    4.70
  -9  -3  -5    3.70   10.00
   9  -3   5   11.20   12.30
  -9   3  -5    9.50    2.80
   9   3   5   20.40   13.00
   9   3   5  -10.70   13.40
   9  -4  -5  162.08   19.70
   9  -4  -5  160.28   18.00
  -9  -4   5  179.18   19.60
   9   4  -5  130.79   19.40
  -8  -4   5  739.93   33.70
   8  -4  -5  767.32   35.40
   8  -4  -5  752.32   31.10
   8   4  -5  742.23   38.00
  -8   4   5  731.23   33.00
   7  -4  -5   -3.80    6.30
  -7  -4   5   -5.40    6.60
   7  -4  -5   14.10    9.30
  -7   4   5   -0.10    6.80
   7   4  -5    3.90    7.50
  -6  -4   5 1204.68   42.50
   6  -4  -5 1208.38   39.30
  -6   4   5 1277.67   48.70
   6   4  -5 1237.38   44.60
  -5  -4   5  214.78   16.90
   5  -4  -5  193.88   14.90
  -5   4   5  205.38   16.20
   5   4  -5  181.98   16.10
   4  -4  -5  519.05   16.10
   4  -4  -5  513.75   23.10
  -4  -4   5  472.35   24.20
   4   4  -5  549.95   25.20
  -4   4   5  518.65   23.90
  -4   4   5  405.96   34.40
   3  -4  -5  985.30   28.60
   3  -4  -5  993.70   34.10
  -3  -4   5 1047.10   29.70
   3  -4  -5 1022.20   38.50
  -3  -4   5 1026.70   35.50
  -3   4   5 1004.00   27.10
  -3   4   5 1011.30   36.00
  -3   4   5 1038.20   35.30
   3   4  -5 1011.40   34.90
  -2  -4   5   24.10    6.90
  -2  -4   5   21.60    5.60
   2  -4  -5   17.90    6.00
   2  -4  -5    7.30    7.60
   2  -4  -5   10.10    4.20
   2   4  -5    8.30    5.20
  -2   4   5   12.30    4.20
  -2   4   5   14.90    6.30
  -1  -4   5  757.22   28.70
   1  -4  -5  761.72   31.30
   1  -4  -5  758.42   28.90
   1  -4  -5  713.63   26.70
  -1  -4   5  730.33   26.60
  -1  -4   5  760.82   28.00
  -1   4   5  750.92   29.20
  -1   4   5  745.93   25.70
   0  -4   5 1456.15   37.40
   0  -4   5 1410.46   42.40
   0  -4  -5 1390.46   43.20
   0  -4  -5 1494.45   47.40
   0  -4   5 1480.55   41.80
   0  -4   5 1477.85   43.10
   0  -4  -5 1434.36   42.90
   0   4   5 1430.06   43.90
   0   4   5 1448.66   41.80
   1  -4   5    2.30    5.70
  -1  -4  -5    7.80    5.60
   1  -4   5   -2.50    4.90
   1  -4   5    5.80    3.10
  -1  -4  -5   -1.50    5.20
   1   4   5    9.60    5.70
   1   4   5    3.90    5.30
   1   4   5    6.20    5.50
   2  -4   5 2037.40   54.99
  -2  -4  -5 1996.10   57.49
  -2  -4  -5 2074.39   57.39
   2   4   5 2119.49   58.09
   2   4   5 1999.00   58.69
   2   4   5 2052.19   55.69
   3  -4   5  463.85   22.40
  -3  -4  -5  427.76   25.10
   3  -4   5  473.05   25.10
   3  -4   5  428.56   13.50
  -3  -4  -5  462.35   24.00
   3   4   5  421.46   24.00
   3   4   5  465.85   22.50
   3   4   5  499.95   28.10
  -4  -4  -5  174.48   15.70
   4  -4   5  150.28   15.00
   4  -4   5  153.88    6.10
   4  -4   5  176.38   16.80
  -4  -4  -5  176.18   17.40
   4   4   5  178.18   16.80
   4   4   5  173.18   17.90
   4   4   5  164.48   14.80
  -5  -4  -5  421.96   24.70
   5  -4   5  421.96   17.50
  -5  -4  -5  439.06   26.10
   5   4   5  441.16   22.90
   5   4   5  440.86   26.50
  -6  -4  -5  169.78   16.80
   6  -4   5  101.49   16.60
  -6  -4  -5  166.78   19.10
   6  -4   5  151.88   11.00
   6   4   5  120.39   16.30
   6   4   5  176.08   16.70
   6   4   5  158.18   19.20
   7  -4   5  118.19    8.90
   7  -4   5  109.19   27.00
  -7  -4  -5   96.09   16.00
   7   4   5  124.59   18.60
   7   4   5  123.39   15.30
   8  -4   5  496.45   13.00
  -8  -4  -5  482.75   34.80
   8  -4   5  508.55   33.00
   8   4   5  308.67   42.80
   8   4   5  480.65   32.60
   8   4   5  524.15   27.40
   8  -5  -5   43.80   16.50
   8  -5  -5   73.39   12.60
  -8  -5   5   48.40   13.80
  -8   5   5   41.50   12.70
   8   5  -5   71.19   22.10
   7  -5  -5  197.98   18.60
  -7  -5   5  189.98   21.00
   7  -5  -5  172.58   21.10
   7  -5  -5  158.58   20.50
   7   5  -5  208.68   23.50
   6  -5  -5   39.00   13.80
  -6  -5   5   13.80    9.70
   6  -5  -5   37.60   12.90
   6  -5  -5   14.00    8.10
  -6   5   5   15.80   10.10
   6   5  -5   20.30   11.40
   5  -5  -5  533.15   30.80
   5  -5  -5  559.64   25.80
   5  -5  -5  384.26   26.60
  -5  -5   5  526.95   28.20
  -5   5   5  521.65   26.50
   5   5  -5  522.05   28.50
  -4  -5   5   16.30    8.10
   4  -5  -5    0.40    6.80
   4  -5  -5   12.80    4.80
   4   5  -5   26.30    9.30
   3  -5  -5 1632.54   48.70
   3  -5  -5 1518.95   41.80
  -3  -5   5 1542.05   43.50
  -3  -5   5 1679.13   51.09
   3   5  -5 1582.34   49.70
  -3   5   5 1532.65   50.79
  -2  -5   5  136.69   15.10
   2  -5  -5  129.69   12.70
  -2  -5   5  127.19   13.10
   2  -5  -5  141.69   15.00
  -2   5   5  131.49   15.20
   1  -5  -5  936.01   35.00
  -1  -5   5  918.51   33.70
  -1  -5   5  963.40   34.90
   1  -5  -5  923.01   33.20
  -1  -5   5  908.71   30.60
  -1   5   5  890.51   30.80
  -1   5   5  911.61   36.00
   0  -5   5   91.69   12.20
   0  -5   5  119.49   13.00
   0  -5   5  113.69   11.00
   0  -5  -5  114.59   14.00
   0  -5   5   94.89   12.90
   0  -5  -5  126.59   14.80
   0   5   5  133.89   15.00
   0   5   5  117.39   13.10
   1  -5   5    6.70    4.50
   1  -5   5   14.60    6.30
  -1  -5  -5    7.50    7.30
   1  -5   5   20.50    8.80
   1  -5   5    7.00    7.80
  -1  -5  -5   23.20   13.60
   1   5   5    6.10    7.10
   1   5   5    5.20    6.50
   2  -5   5  300.87   22.10
  -2  -5  -5  310.57   21.60
   2  -5   5  318.97   14.40
   2  -5   5  316.97   21.50
  -2  -5  -5  325.07   22.20
   2  -5   5  323.17   17.80
   2   5   5  268.87   19.50
   2   5   5  274.87   22.70
   2   5   5  326.87   22.90
   3  -5   5  499.15   29.00
  -3  -5  -5  474.45   26.20
   3  -5   5  492.45   16.80
   3  -5   5  475.95   20.50
   3  -5   5  485.25   26.00
  -3  -5  -5  481.95   27.50
   3   5   5  484.25   28.40
   3   5   5  462.25   24.90
   3   5   5  474.65   27.70
   4  -5   5    8.80    5.00
   4  -5   5    4.10    8.90
   4  -5   5    3.70    3.20
  -4  -5  -5   -2.00    8.20
  -4  -5  -5   16.60    9.40
   4  -5   5   16.00   11.60
   4   5   5   12.80    9.70
   4   5   5   11.20    7.70
   4   5   5    6.10    9.90
   5  -5   5  739.73   34.60
   5  -5   5  767.42   24.20
   5  -5   5  736.43   24.80
  -5  -5  -5  753.32   35.90
  -5  -5  -5  792.62   37.80
   5   5   5  811.52   32.90
   5   5   5  705.03   36.80
   5   5   5  857.81   57.49
   6  -5   5   45.20    6.40
   6  -5   5   59.69   16.90
   6  -5   5   52.49   14.00
   6  -5   5   44.90    6.70
  -6  -5  -5   33.90   19.00
   6   5   5   84.79   27.20
   6   5   5   47.80   11.80
   6   5   5   34.20   14.50
   5  -6  -5   -3.90    9.40
  -5  -6   5    9.10   17.10
   5  -6  -5  -19.00   14.70
   5   6  -5  -17.20    9.90
   4  -6  -5  188.08   24.00
  -4  -6   5  131.29   16.90
   4  -6  -5  132.29   12.20
   4  -6  -5  113.39   15.10
   4   6  -5  156.08   19.90
   3  -6  -5   29.60    8.30
  -3  -6   5   22.30    9.20
   3  -6  -5    7.30    9.80
  -3  -6   5   28.70   10.90
   3  -6  -5   40.10   13.20
   3   6  -5   10.80   10.20
  -2  -6   5   37.20   10.60
   2  -6  -5   68.49   16.10
   2  -6  -5   66.89   12.90
  -2  -6   5   46.70   12.10
  -2  -6   5   45.90    9.70
   2  -6  -5   55.59   10.20
  -2   6   5   34.60   11.50
  -1  -6   5   12.30    8.50
   1  -6  -5    6.00    8.50
  -1  -6   5    7.90    7.20
   1  -6  -5    2.70   12.50
   1  -6  -5   11.90   16.20
  -1  -6   5   22.30   10.10
  -1   6   5   13.00   10.10
   0  -6   5  857.51   38.30
   0  -6  -5  862.81   36.20
   0  -6   5  904.71   37.10
   0  -6  -5  831.12   35.90
   0  -6   5  855.41   30.30
   0  -6   5  875.51   34.60
   0  -6  -5  904.41   42.40
   0   6   5  838.72   37.60
  -1  -6  -5   87.89   14.70
   1  -6   5   52.09   10.40
  -1  -6  -5   60.99   13.00
   1  -6   5   63.99   13.90
   1  -6   5   62.69   13.90
   1  -6   5   78.09   10.10
   1   6   5   67.39   13.00
   2  -6   5  657.03   34.20
  -2  -6  -5  710.83   34.40
  -2  -6  -5  678.83   35.20
   2  -6   5  559.44   42.90
   2  -6   5  674.33   29.40
   2  -6   5  685.53   24.40
   2   6   5  651.93   32.30
  -3  -6  -5   -2.00   11.80
   3  -6   5    6.00    7.20
   3  -6   5    9.80    5.80
   3  -6   5   -3.90   11.10
   3  -6   5    8.30   14.10
   3   6   5   12.60   10.50
   3   6   5    9.50    9.40
   3   6   5    6.20   13.00
 -12   0   6   17.20   18.00
 -12   0   6    9.80    6.60
  11   0  -6    1.20    5.40
 -11   0   6    4.90    5.50
 -11   0   6   -1.50    9.50
  10   0  -6  750.22   23.80
 -10   0   6  770.62   26.80
  -9   0   6    1.40    3.50
   9   0  -6    4.30    4.30
  -9   0   6   -8.40    5.70
  -8   0   6  769.02   31.50
   8   0  -6  721.53   22.10
  -8   0   6  797.72   24.90
  -7   0   6   -0.20    4.90
  -7   0   6    0.30    2.80
  -6   0   6 1420.46   42.20
  -6   0   6 1412.26   35.60
  -5   0   6    2.10    1.90
  -5   0   6    5.70    4.10
  -4   0   6   66.39    7.40
  -4   0   6   60.79    4.70
   4   0  -6   43.30    6.70
   3   0  -6    2.60    2.80
  -3   0   6   10.40    3.50
  -2   0   6 4172.18   84.89
   2   0  -6 4000.00   90.39
  -1   0   6    1.20    1.60
   1   0  -6    3.80    2.20
   1   0   6    0.50    1.60
   1   0   6    2.80    3.10
  -1   0  -6   -0.30    1.40
   2   0   6 3611.44   81.49
  -2   0  -6 3688.63   74.39
  -2   0  -6 3701.53   82.99
  -3   0  -6   -2.40    2.90
   3   0   6   -0.40    3.40
  -3   0  -6    0.80    2.10
   4   0   6  752.82   27.20
  -4   0  -6  747.73   28.40
   5   0   6    0.90    4.10
  -5   0  -6    2.90    4.10
  -6   0  -6 1491.05   46.20
   6   0   6 1464.25   43.70
  -7   0  -6    0.90    5.20
   7   0   6  -10.80    5.00
  -8   0  -6 1029.50   37.70
   8   0   6  864.61   50.69
  -9   0  -6    1.00    6.00
   9   0   6    1.30    7.70
  -9   0  -6   11.80    7.60
 -10   0  -6  360.06   24.50
  10   0   6  359.26   24.20
 -10   0  -6  350.36   21.30
 -12  -1   6   24.10   13.00
 -12  -1   6   29.10    9.00
 -12   1   6   27.50    6.30
 -12   1   6   26.80   12.20
 -11  -1   6  862.71   38.70
 -11  -1   6  873.31   32.70
  11  -1  -6  860.41   30.90
 -11   1   6  852.71   26.00
 -11   1   6  818.32   37.30
  10  -1  -6    9.20    6.80
 -10  -1   6    3.80    5.80
 -10  -1   6    4.60    7.90
 -10   1   6    9.90    4.20
  -9  -1   6  322.87   17.60
  -9  -1   6  313.57   21.50
   9  -1  -6  327.07   17.20
  -9   1   6  361.96   13.90
  -9   1   6  347.57   22.50
  -8  -1   6   52.19   10.40
  -8  -1   6   47.60    7.30
   8  -1  -6   47.90    7.70
  -8   1   6   62.69    6.20
  -8   1   6   63.09   10.60
  -7  -1   6  298.87   15.60
   7  -1  -6  298.27   17.70
   7  -1  -6  341.87   15.90
  -7  -1   6  319.67   19.20
  -7   1   6  313.37   18.40
  -7   1   6  322.07   11.90
  -6  -1   6  132.19   10.00
   6  -1  -6  141.49   10.10
  -6  -1   6  143.49   12.70
   6  -1  -6  123.59   11.40
  -6   1   6  131.59    7.00
  -6   1   6  122.89   11.60
   5  -1  -6 4300.67   93.89
  -5  -1   6 4293.27   95.29
  -5   1   6 4161.88   93.89
  -5   1   6 4170.08   88.59
   4  -1  -6  416.46   17.80
  -4  -1   6  435.46   18.40
  -4   1   6  385.46   17.50
  -4   1   6  415.06   15.70
   3  -1  -6 4545.85   98.19
  -3  -1   6 4652.93   98.09
  -3   1   6 4754.72   96.59
  -3   1   6 4710.53   95.29
  -3   1   6 4726.93   98.69
  -2  -1   6  444.46   15.80
   2  -1  -6  448.46   16.90
  -2   1   6  430.96   16.50
  -1  -1   6  358.26   12.40
   1  -1  -6  370.16   14.60
   1  -1  -6  357.76   17.50
   1  -1  -6  358.96   13.30
  -1   1   6  363.46   14.30
  -1   1   6  398.26   16.00
   1   1  -6  375.56    9.70
   0  -1   6   79.39    3.20
   0  -1  -6   84.39    6.90
   0  -1   6   85.09    4.60
   0  -1  -6   70.89    5.80
   0  -1  -6   83.79    7.80
   0   1   6   92.19    8.40
   0   1   6   86.79    6.20
   0   1   6   82.99    6.60
   0   1  -6   87.79    5.20
  -1  -1  -6 1005.90   27.70
   1  -1   6 1006.10   21.00
  -1  -1  -6  989.80   31.00
  -1   1  -6 1010.60   21.80
   1   1   6 1028.30   27.00
   1   1   6  958.10   30.90
  -2  -1  -6  310.57   16.10
   2  -1   6  281.87   13.90
  -2  -1  -6  264.87   12.40
   2   1   6  272.57   12.80
   2   1   6  281.17   15.40
  -2   1  -6  279.47    7.20
   3  -1   6 4239.68   92.99
  -3  -1  -6 4354.56   91.09
  -3  -1  -6 4259.97   96.99
   3   1   6 4438.46   97.09
  -3   1  -6 4211.18   81.89
  -4  -1  -6    3.40    4.20
   4  -1   6    1.00    3.40
  -4   1  -6    0.40    1.50
   4   1   6   -1.10    4.00
   5  -1   6 3117.49   73.09
  -5  -1  -6 3106.89   77.89
   5   1   6 3217.08   77.19
  -5   1  -6 3042.80   65.19
   6  -1   6  169.68   13.00
  -6  -1  -6  166.68   14.80
   6   1   6  146.19   14.80
  -6   1  -6  163.98   10.20
  -7  -1  -6  195.18   16.50
   7  -1   6  154.48   13.60
   7   1   6  165.28   16.00
  -7   1  -6  191.68   11.90
  -8  -1  -6   50.79   11.50
   8  -1   6   54.59    9.90
  -8   1  -6   37.70    7.20
   8   1   6   51.09   10.50
  -9  -1  -6  274.07   21.50
   9  -1   6  244.88   18.40
   9   1   6  258.57   22.10
  -9   1  -6  248.98   16.00
 -10  -1  -6   50.59   13.20
  10  -1   6   42.30   10.60
 -10   1  -6   34.60    8.50
  10   1   6   34.20   12.20
  11  -2  -6  160.68   20.80
 -11  -2   6  180.18   18.10
 -11  -2   6  188.78   21.70
 -11   2   6  148.09   17.90
 -10  -2   6  495.75   25.20
  10  -2  -6  513.95   25.70
 -10  -2   6  550.94   29.80
   9  -2  -6   15.70    8.20
  -9  -2   6   21.60    6.80
  -9   2   6   43.70   10.80
   8  -2  -6 1521.35   45.20
   8  -2  -6 1593.44   47.60
  -8  -2   6 1526.35   46.00
  -8   2   6 1518.05   48.80
   7  -2  -6  152.78   13.10
   7  -2  -6  137.89   12.70
  -7  -2   6  146.49   12.50
  -7   2   6  154.38   14.40
  -6  -2   6 1327.07   39.20
   6  -2  -6 1271.47   39.40
   6  -2  -6 1307.87   38.60
  -6   2   6 1302.07   40.50
  -6   2   6 1263.27   37.50
   5  -2  -6  137.69   11.40
  -5  -2   6  155.68   11.80
   5  -2  -6  160.38   12.00
  -5   2   6  144.69   10.90
  -5   2   6  132.89   11.70
  -5   2   6  146.29    6.70
   4  -2  -6   10.60    4.00
  -4  -2   6    8.20    1.60
  -4   2   6    8.90    4.00
  -4   2   6   10.90    2.90
  -4   2   6   12.00    4.40
   3  -2  -6 1665.13   43.80
  -3   2   6 1610.24   43.50
  -3   2   6 1681.03   43.60
  -3   2   6 1639.34   39.50
   2  -2  -6 1612.84   42.40
   2  -2  -6 1593.74   40.60
   2  -2  -6 1588.64   42.40
   2   2  -6 1643.84   39.20
  -2   2   6 1588.94   40.30
  -2   2   6 1638.54   42.60
  -2   2   6 1590.14   42.10
   1  -2  -6   82.09    8.00
   1  -2  -6   77.89    7.90
   1  -2  -6   59.19    7.00
   1   2  -6   80.79    6.00
  -1   2   6   75.99    7.70
  -1   2   6   69.69    7.30
  -1   2   6   77.89    8.00
   0  -2  -6 8414.46  167.58
   0  -2  -6 8516.05  168.18
   0  -2  -6 8340.37  168.88
   0  -2   6 8124.79  159.48
   0  -2   6 8287.47  161.38
   0   2   6 8455.65  169.58
   0   2   6 8453.35  167.68
   0   2   6 8481.45  167.58
  -1  -2  -6  296.27   14.70
  -1  -2  -6  265.57   15.30
   1  -2   6  293.87    7.60
  -1  -2  -6  281.27   14.30
   1  -2   6  281.17   11.50
   1   2   6  283.77   14.40
   1   2   6  283.37   15.80
  -2  -2  -6 1752.12   48.70
  -2  -2  -6 1700.73   45.30
   2   2   6 1792.32   49.10
   2   2   6 1723.53   46.00
  -3  -2  -6  972.60   33.70
   3  -2   6  923.61   28.70
  -3  -2  -6  881.01   29.80
   3   2   6  983.00   33.90
   3   2   6  926.01   31.40
   4  -2   6    4.50    3.80
  -4  -2  -6   -0.50    4.40
   4   2   6   -2.80    3.40
   4   2   6    9.90    6.00
   5  -2   6  367.46   17.40
  -5  -2  -6  417.66   22.80
   5   2   6  328.67   20.70
  -6  -2  -6 1236.48   50.29
   6  -2   6 1217.18   35.60
  -6   2  -6 1170.18   25.50
   6   2   6 1229.08   42.50
   7  -2   6   73.89    9.10
  -7  -2  -6   92.79   13.80
  -7   2  -6   84.89    6.20
   7   2   6   58.19   11.60
   8  -2   6  960.50   31.00
  -8  -2  -6  984.50   40.60
   8   2   6  978.50   40.00
   9  -2   6   12.10    6.50
  -9  -2  -6    1.70    9.60
   9   2   6   10.20   10.70
  -9   2  -6    9.30    4.90
 -10  -3   6  102.29   16.30
 -10  -3   6   91.89   13.60
  10  -3  -6   79.59   13.80
 -10   3   6   44.90   15.80
  -9  -3   6   62.69   11.10
   9  -3  -6   82.09   13.20
  -9   3   6   51.29   11.90
  -8  -3   6  885.61   34.80
   8  -3  -6  891.11   34.70
   8  -3  -6  900.31   35.30
  -8   3   6  890.21   36.40
   7  -3  -6   66.49   11.00
  -7  -3   6   60.79   10.10
   7  -3  -6   64.19   10.60
  -7   3   6   79.49   11.60
   6  -3  -6  590.74   25.30
   6  -3  -6  604.04   28.20
  -6  -3   6  575.44   25.90
  -6   3   6  580.64   26.40
   5  -3  -6 1347.97   42.40
   5  -3  -6 1416.86   41.90
  -5  -3   6 1364.66   42.30
   5   3  -6 1421.56   43.50
  -5   3   6 1398.46   42.30
  -5   3   6 1373.96   42.30
  -4  -3   6  134.59   12.00
   4  -3  -6  147.29   12.10
  -4  -3   6  131.49    7.00
  -4   3   6  118.99   11.60
  -4   3   6  154.48   12.50
  -4   3   6  133.19    6.90
   4   3  -6  141.89   11.90
   3  -3  -6 2025.50   54.89
  -3  -3   6 1979.90   52.99
  -3  -3   6 2063.19   45.80
   3  -3  -6 2016.20   52.69
   3   3  -6 2020.30   51.19
  -3   3   6 1941.21   45.20
  -3   3   6 1945.01   53.09
  -3   3   6 2012.10   53.09
   2  -3  -6 1232.58   34.20
  -2  -3   6 1241.38   33.20
   2  -3  -6 1254.37   39.10
   2  -3  -6 1228.48   37.50
  -2   3   6 1249.88   33.50
  -2   3   6 1214.28   37.20
  -2   3   6 1273.57   38.50
   2   3  -6 1240.88   34.90
   1  -3  -6  204.48   12.70
   1  -3  -6  175.98   12.60
   1  -3  -6  172.08   13.20
   1   3  -6  186.28   11.10
  -1   3   6  179.98   11.90
  -1   3   6  195.08   13.50
  -1   3   6  196.28   13.10
   0  -3  -6 1307.67   39.50
   0  -3   6 1370.66   36.70
   0  -3  -6 1381.86   41.10
   0  -3  -6 1354.46   40.00
   0   3   6 1397.66   39.90
   0   3   6 1374.46   40.30
   0   3   6 1356.56   40.80
   1  -3   6  611.14   21.70
   1  -3   6  595.64   16.00
  -1  -3  -6  592.64   24.90
  -1  -3  -6  605.34   25.20
  -1  -3  -6  607.64   24.40
   1   3   6  571.84   23.80
   1   3   6  634.64   25.50
   1   3   6  624.84   25.20
   2  -3   6  851.81   18.20
  -2  -3  -6  860.91   30.60
   2  -3   6  846.42   27.50
  -2  -3  -6  900.51   32.90
   2   3   6  859.11   31.90
   2   3   6  915.21   32.30
  -3  -3  -6 1903.41   53.69
  -3  -3  -6 1911.21   56.19
   3   3   6 2036.60   56.09
   3   3   6 2013.80   56.69
  -4  -3  -6  128.29   12.30
   4  -3   6  116.89   10.50
  -4  -3  -6  109.99   13.10
   4   3   6  141.29   14.30
   4   3   6  110.69   13.90
   5  -3   6  528.45   20.70
  -5  -3  -6  532.85   27.50
   5   3   6  480.55   40.60
  -6  -3  -6  287.47   21.80
   6  -3   6  354.66   16.70
   6   3   6  331.87   23.10
   6   3   6  306.47   29.50
  -7  -3  -6   93.39   14.40
   7  -3   6  102.69   10.70
   7   3   6   90.29   14.70
   7   3   6  135.89   18.50
   8  -3   6  510.45   20.00
  -8  -3  -6  515.65   30.30
   8   3   6  537.55   32.80
   8   3   6  549.74   33.50
   9  -3   6  167.38   12.70
  -9  -3  -6  152.68   31.60
   9   3   6  123.29   28.50
   9   3   6  178.18   21.90
   9  -4  -6  106.29   17.60
  -9  -4   6   85.29   13.60
   9  -4  -6  104.39   14.30
  -9   4   6   66.89   15.70
   9   4  -6   55.79   14.30
   8  -4  -6  427.46   24.10
   8  -4  -6  361.16   26.40
  -8  -4   6  396.56   25.30
   8   4  -6  338.77   27.30
  -8   4   6  403.66   26.70
   7  -4  -6  146.09   15.30
  -7  -4   6  137.89   16.40
   7  -4  -6  109.99   16.00
  -7   4   6  159.28   17.00
   7   4  -6  178.88   18.60
  -6  -4   6  396.16   23.30
   6  -4  -6  431.86   22.60
   6   4  -6  437.46   25.00
  -6   4   6  406.56   23.60
   5  -4  -6 1104.19   37.20
  -5  -4   6 1074.09   38.90
   5   4  -6 1075.29   38.60
  -5   4   6 1085.39   38.90
   4  -4  -6  119.49    9.00
   4  -4  -6  126.59   12.80
  -4  -4   6  116.99    8.80
  -4   4   6  104.69   12.50
  -4   4   6  115.89   15.60
   4   4  -6  112.89   12.80
  -3  -4   6  767.32   30.20
   3  -4  -6  833.62   33.10
  -3  -4   6  750.72   24.50
   3  -4  -6  745.33   24.50
   3  -4  -6  723.43   29.00
  -3   4   6  760.92   30.10
  -3   4   6  760.22   23.00
  -3   4   6  797.62   31.30
   3   4  -6  779.92   29.30
   2  -4  -6  154.58   13.80
   2  -4  -6  173.68   18.80
  -2  -4   6  195.28   15.10
  -2  -4   6  188.18   12.40
   2  -4  -6  174.88   12.50
  -2   4   6  179.88   11.80
   2   4  -6  157.88   13.00
  -2   4   6  198.18   15.20
  -2   4   6  154.18   14.40
   1  -4  -6  148.09   25.70
  -1  -4   6  227.88   14.50
   1  -4  -6  191.58   13.90
  -1  -4   6  185.08   14.10
   1  -4  -6  233.48   15.60
  -1   4   6  192.08   15.40
  -1   4   6  184.98   13.20
   0  -4  -6  929.01   33.40
   0  -4   6  919.81   31.70
   0  -4   6  898.81   26.30
   0  -4  -6  896.01   32.60
   0  -4   6  963.20   32.80
   0   4   6  909.61   31.90
   0   4   6  932.11   33.60
  -1  -4  -6  263.77   18.10
  -1  -4  -6  275.17   17.90
  -1  -4  -6  249.78   19.00
   1  -4   6  243.58   11.20
   1  -4   6  257.87   17.60
   1  -4   6  267.27   16.30
   1   4   6  260.77   17.60
   1   4   6  267.17   18.30
   1   4   6  263.17   17.60
   2  -4   6  156.58   13.30
  -2  -4  -6  143.99   15.00
   2  -4   6  148.59   14.60
  -2  -4  -6  134.19   22.90
   2  -4   6  136.49    7.30
   2   4   6  148.19   20.80
   2   4   6  142.69   23.20
   2   4   6  121.89   13.30
   3  -4   6 1458.15   30.50
  -3  -4  -6 1493.25   47.40
  -3  -4  -6 1533.75   50.89
   3  -4   6 1467.65   44.60
   3  -4   6 1520.85   48.90
   3   4   6 1477.75   48.90
   3   4   6 1523.85   49.50
   3   4   6 1556.04   46.90
   4  -4   6   -0.40    5.90
   4  -4   6    2.20    8.30
  -4  -4  -6   -1.30    7.10
  -4  -4  -6    6.90    6.30
   4  -4   6    7.00    5.00
   4   4   6   16.00    7.50
   4   4   6   -3.00    6.40
  -5  -4  -6  762.32   33.50
   5  -4   6  737.93   25.40
  -5  -4  -6  794.32   35.70
   5   4   6  740.93   35.30
   5   4   6  758.82   31.90
  -6  -4  -6  473.25   29.10
   6  -4   6  496.75   19.80
   6  -4   6  507.65   30.40
  -6  -4  -6  539.85   28.30
   6   4   6  495.75   26.90
   6   4   6  523.05   30.60
   6   4   6  494.05   29.80
   7  -4   6   45.60    7.20
  -7  -4  -6   61.99   12.90
   7  -4   6   37.30   13.80
  -7  -4  -6   53.19   13.50
   7   4   6   27.10   11.90
   7   4   6   47.50   14.20
   8   4   6  374.56   31.10
   8  -5  -6  620.94   38.80
  -8  -5   6  647.84   34.70
   8  -5  -6  629.74   30.80
   8   5  -6  690.63   40.70
  -8   5   6  639.34   33.90
   7  -5  -6   49.70   15.30
   7  -5  -6   41.30   11.10
  -7  -5   6   48.60   12.60
   7  -5  -6   52.59   13.20
  -7   5   6   47.30   12.40
   7   5  -6   75.09   15.70
   6  -5  -6  290.07   25.70
   6  -5  -6  316.67   26.80
   6  -5  -6  302.97   21.30
  -6  -5   6  311.77   23.00
   6   5  -6  260.87   22.80
  -5  -5   6   79.79   13.10
   5  -5  -6   74.89   13.60
   5  -5  -6   77.69   12.60
   5   5  -6  103.09   15.80
  -4  -5   6   -3.40    6.70
   4  -5  -6   12.50    7.60
   4  -5  -6   -1.00    4.20
  -4   5   6    6.70    8.10
   4   5  -6   -6.10    7.10
  -3  -5   6  337.97   22.40
   3  -5  -6  400.56   18.70
   3  -5  -6  386.66   22.20
  -3  -5   6  359.16   18.60
   3   5  -6  410.76   22.80
  -3   5   6  396.16   24.30
  -2  -5   6 1027.90   37.20
   2  -5  -6  990.30   33.60
  -2  -5   6  994.90   33.90
   2  -5  -6 1033.10   37.80
  -2   5   6 1014.40   38.70
  -2   5   6  981.90   31.30
  -1  -5   6   19.30    6.30
   1  -5  -6   20.30    7.60
   1  -5  -6    9.90    7.60
  -1  -5   6   19.10   13.40
  -1   5   6   19.10    8.30
  -1   5   6   14.30    6.10
   0  -5  -6 1310.17   43.30
   0  -5  -6 1347.07   44.60
   0  -5   6 1346.07   43.10
   0  -5   6 1291.87   41.50
   0  -5   6 1347.07   46.90
   0  -5   6 1290.17   36.40
   0   5   6 1207.08   54.79
   0   5   6 1286.57   44.20
  -1  -5  -6   23.50    8.30
   1  -5   6   16.60    8.60
  -1  -5  -6   -6.10    7.10
  -1  -5  -6   32.10    9.50
   1  -5   6   17.40    8.30
   1  -5   6   13.70    6.30
   1  -5   6   14.70    4.90
   1   5   6    9.10    7.40
   1   5   6   15.70    7.40
  -2  -5  -6  302.17   22.30
   2  -5   6  272.57   22.20
  -2  -5  -6  319.27   21.80
   2  -5   6  318.17   21.00
   2  -5   6  293.87   13.10
   2  -5   6  319.87   17.90
   2   5   6  308.07   22.50
   2   5   6  289.77   20.80
  -3  -5  -6  196.68   20.20
   3  -5   6  188.58   14.70
   3  -5   6  179.08   19.80
   3  -5   6  200.78   11.40
   3  -5   6  214.78   18.80
  -3  -5  -6  210.18   18.90
   3   5   6  202.98   17.90
   3   5   6  198.58   19.90
   3   5   6  203.38   20.90
   4  -5   6    4.00    5.70
   4  -5   6    5.30   11.00
  -4  -5  -6    7.50    9.60
  -4  -5  -6    1.40    8.00
   4  -5   6   15.40    9.80
   4   5   6   11.10   10.20
   4   5   6    5.50    8.00
   4   5   6   13.40   10.70
   5  -5   6   67.29    9.00
  -5  -5  -6   59.39   13.10
   5  -5   6   77.39   13.70
   5  -5   6   71.19    8.50
   5  -5   6   77.99   16.20
  -5  -5  -6   64.49   14.70
   5   5   6   54.89   12.70
   5   5   6   71.99   12.60
   5   5   6   72.69   16.10
  -6  -5  -6  295.67   26.10
   6  -5   6  285.07   15.30
   6  -5   6  243.28   29.00
   6  -5   6  250.37   24.20
  -6  -5  -6  299.27   24.90
   6  -5   6  276.07   14.20
   6   5   6  280.07   23.30
   6   5   6  254.47   28.70
   6   5   6  274.87   27.80
   4  -6  -6   -2.30   11.50
  -4  -6   6    1.70    9.60
   4  -6  -6    4.00    6.00
   4  -6  -6   10.80    9.60
   4   6  -6    4.30   10.70
   3  -6  -6  657.83   31.20
  -3  -6   6  584.44   28.20
   3  -6  -6  595.74   35.60
   3  -6  -6  585.44   25.00
  -3  -6   6  596.74   32.00
  -2  -6   6   19.40   10.50
   2  -6  -6    5.60    8.00
  -2  -6   6   18.90   10.00
   2  -6  -6    8.40    9.10
   2  -6  -6   13.40    9.40
  -2  -6   6    4.10    7.60
  -2   6   6    1.70    9.80
  -1  -6   6  185.58   19.20
  -1  -6   6  184.88   18.80
   1  -6  -6  131.19   16.50
   1  -6  -6  179.78   19.00
   1  -6  -6  158.18   18.00
  -1   6   6  193.08   21.00
   0  -6   6   -3.20   10.20
   0  -6  -6    0.60    9.40
   0  -6   6    9.40    7.80
   0  -6  -6    7.50    9.30
   0  -6   6   12.50    6.60
   0  -6  -6   12.30    9.90
   0   6   6   -4.40    9.10
   1  -6   6  165.68   17.50
  -1  -6  -6  180.78   21.20
   1  -6   6  189.58   22.30
   1  -6   6  183.18   21.40
  -1  -6  -6  180.68   19.80
   1  -6   6  198.08   14.40
   1   6   6  180.48   20.40
   1   6   6  224.28   20.60
   2  -6   6    3.00    5.50
   2  -6   6    0.90   15.00
  -2  -6  -6   18.90   11.10
  -2  -6  -6    4.70   10.20
   2  -6   6    5.80   11.40
   2  -6   6    4.40    8.20
   2   6   6   13.60   10.40
   2   6   6  -12.50   10.70
   3  -6   6  621.54   19.90
   3  -6   6  595.24   32.80
  -3  -6  -6  632.84   33.90
  -3  -6  -6  619.24   36.00
   3  -6   6  602.94   35.50
   3  -6   6  590.84   25.90
   3   6   6  619.84   31.80
   3   6   6  568.84   33.50
   3   6   6  600.64   34.80
 -12   0   7   -5.20    6.10
 -12   0   7   26.70   12.50
 -11   0   7  534.85   22.40
 -11   0   7  526.15   30.20
 -10   0   7   -3.70    4.00
  -9   0   7  227.88   13.60
  -9   0   7  297.77   20.20
  -8   0   7    3.20    3.20
  -8   0   7    1.60    9.30
  -7   0   7 2706.23   69.99
  -7   0   7 2687.93   61.19
  -6   0   7   -0.20    4.30
  -5   0   7 4593.24   99.39
   5   0  -7 4363.06   98.69
  -5   0   7 4479.15   89.59
  -4   0   7    0.00    1.70
   4   0  -7    0.10    3.40
  -4   0   7   -2.90    2.70
  -3   0   7 2909.51   65.89
   3   0  -7 2938.91   66.69
  -2   0   7    1.60    2.50
   2   0  -7   -4.50    2.10
   1   0  -7  162.78    9.00
  -1   0   7  157.08    8.50
   1   0  -7  159.58    5.80
   0   0   7    2.40    2.70
   0   0   7    3.30    2.30
   0   0  -7    1.50    1.90
   1   0   7 4892.11   96.29
   1   0   7 4978.70   98.49
   1   0   7 4973.50  106.29
  -1   0  -7 5013.90   99.19
  -2   0  -7    4.10    2.30
  -2   0  -7    0.20    3.20
   2   0   7    2.30    3.40
   3   0   7 5290.87  114.29
  -3   0  -7 5204.28  115.99
  -3   0  -7 5296.37  105.99
  -4   0  -7    9.20    4.90
   4   0   7   -3.00    3.90
  -4   0  -7   -0.20    2.40
  -5   0  -7  280.27   18.30
   5   0   7  275.77   17.10
  -6   0  -7    9.60    5.80
   6   0   7   -0.90    5.50
  -7   0  -7  231.28   18.10
   7   0   7  203.58   16.50
   8   0   7    1.10    7.20
  -8   0  -7    2.70    8.00
  -9   0  -7 1067.19   41.40
   9   0   7 1104.59   39.80
  10   0   7   -6.40    9.80
 -10   0  -7   -9.40    7.70
 -10   0  -7   -5.30    8.80
 -12  -1   7  199.98   17.50
 -12  -1   7  215.08   24.30
 -12   1   7  192.48   12.70
 -11  -1   7   38.10   12.20
  11  -1  -7   21.10    7.70
 -11  -1   7    6.90    6.70
 -11   1   7   15.60    5.10
 -11   1   7    7.40   10.30
  10  -1  -7 1229.88   36.80
 -10  -1   7 1195.18   44.60
 -10  -1   7 1190.88   38.10
 -10   1   7 1182.78   31.70
  -9  -1   7   14.10    7.40
   9  -1  -7   15.50    6.20
  -9  -1   7   10.80    4.90
  -9   1   7    8.40    3.60
  -9   1   7   20.80    8.60
   8  -1  -7 2342.37   57.19
  -8  -1   7 2409.36   65.89
  -8  -1   7 2325.77   58.89
  -8   1   7 2424.96   70.69
  -8   1   7 2311.37   51.99
  -7  -1   7  109.29   10.30
   7  -1  -7  114.29   12.50
  -7  -1   7  114.69   13.70
  -7   1   7  130.59   13.00
  -7   1   7  120.79    8.40
  -6  -1   7  343.07   16.30
  -6  -1   7  339.57   18.50
   6  -1  -7  353.46   18.50
  -6   1   7  319.77   14.60
  -6   1   7  330.07   18.10
  -5  -1   7  859.31   29.70
   5  -1  -7  891.51   29.80
  -5  -1   7  856.21   18.40
  -5   1   7  846.22   25.60
  -5   1   7  817.72   29.20
   4  -1  -7 3593.64   80.99
  -4  -1   7 3563.94   80.69
  -4   1   7 3633.84   77.39
  -4   1   7 3546.85   80.69
  -3  -1   7  127.79    9.50
   3  -1  -7  121.79    9.50
  -3   1   7  132.99    8.80
  -3   1   7  120.49    9.20
  -3   1   7  109.19    8.30
   2  -1  -7 3325.37   73.29
  -2  -1   7 3232.68   70.49
  -2   1   7 3288.87   72.59
  -2   1   7 3341.57   73.19
   1  -1  -7   84.09   10.30
  -1  -1   7   83.69    6.00
   1  -1  -7   81.59    7.30
   1   1  -7   87.49    3.40
   1   1  -7   93.29    6.80
  -1   1   7   99.89    8.90
  -1   1   7   91.89    7.50
   0  -1  -7 2109.69   60.49
   0  -1  -7 2288.87   55.39
   0  -1  -7 2222.48   51.89
   0  -1   7 2166.08   46.20
   0   1   7 2303.67   56.09
   0   1  -7 2243.58   47.80
   0   1   7 2175.48   50.99
   0   1   7 2285.97   49.60
   1  -1   7  197.68    6.70
  -1  -1  -7  193.28   13.20
  -1  -1  -7  220.28   11.30
   1   1   7  192.58   11.80
   1   1   7  200.58   10.70
   1   1   7  212.08   13.70
  -1   1  -7  202.18    7.50
   2  -1   7    5.30    3.40
  -2  -1  -7    2.80    4.10
  -2  -1  -7    8.10    3.30
   2   1   7    6.10    4.50
  -2   1  -7    5.60    1.50
   2   1   7    6.30    3.20
  -3  -1  -7   87.99   11.10
   3  -1   7   90.89    9.60
  -3  -1  -7   89.59    8.10
  -3   1  -7   94.09    4.50
   3   1   7   93.39   11.40
   4  -1   7  585.94   23.40
  -4  -1  -7  599.44   26.20
  -4  -1  -7  548.95   20.90
  -4   1  -7  579.44   15.10
   4   1   7  609.84   26.00
  -5  -1  -7  158.78   14.90
   5  -1   7  153.98   13.20
   5   1   7  135.39   14.50
  -5   1  -7  159.18    7.40
   6  -1   7 3154.58   76.29
  -6  -1  -7 3174.48   82.19
   6   1   7 3389.96   90.79
  -6   1  -7 3132.39   68.49
   7  -1   7   18.80    6.50
  -7   1  -7   22.20    5.40
   7   1   7   14.00    8.20
   8  -1   7  786.72   30.30
  -8  -1  -7  833.12   35.80
   8   1   7  774.42   33.60
  -8   1  -7  804.02   26.30
   9  -1   7   87.19   12.20
  -9  -1  -7  112.59   16.70
   9   1   7  104.29   15.90
  -9   1  -7  108.19   12.00
  10  -1   7   -7.70    9.40
 -10  -1  -7  -10.40    9.60
  10   1   7    7.20   11.40
 -10   1  -7    0.40    7.00
 -11  -2   7  277.47   25.80
  11  -2  -7  249.88   20.30
 -11  -2   7  230.58   19.40
 -11   2   7  231.78   23.00
  10  -2  -7  216.58   18.60
 -10  -2   7  244.08   18.20
 -10  -2   7  205.48   21.30
   9  -2  -7    7.70    7.20
  -9  -2   7   14.40    6.50
  -9   2   7   25.30    9.80
   8  -2  -7  194.48   16.60
   8  -2  -7  204.38   15.80
  -8  -2   7  179.28   15.00
  -8   2   7  198.08   17.60
   7  -2  -7 1042.10   35.50
  -7  -2   7  950.10   41.50
  -7  -2   7  973.70   33.60
   7  -2  -7 1015.20   33.70
  -7   2   7 1065.69   37.00
  -7   2   7  966.90   22.40
  -7   2   7  975.60   21.10
   6  -2  -7   36.70    7.70
  -6  -2   7   49.20    7.80
   6  -2  -7   32.00    7.20
  -6  -2   7   53.89    9.50
  -6   2   7   40.60    7.30
  -6   2   7   43.80    5.00
  -6   2   7   32.50    7.30
  -5  -2   7 2777.32   66.79
  -5  -2   7 2724.23   67.89
   5  -2  -7 2731.93   67.19
  -5   2   7 2791.82   65.69
  -5   2   7 2657.93   58.79
  -5   2   7 2741.53   68.09
   4  -2  -7   57.79    8.10
  -4  -2   7   44.90    7.40
  -4   2   7   51.49    7.30
  -4   2   7   57.79    6.50
  -4   2   7   46.20    7.50
  -3  -2   7 1194.28   33.70
   3  -2  -7 1169.48   34.90
  -3   2   7 1123.19   32.10
  -3   2   7 1140.09   34.60
  -3   2   7 1161.38   34.30
   3   2  -7 1135.89   31.20
   2  -2  -7  495.35   18.30
   2  -2  -7  459.35   19.40
   2  -2  -7  461.15   19.20
  -2  -2   7  473.95   17.50
  -2   2   7  455.45   19.20
  -2   2   7  449.56   18.90
   2   2  -7  492.35   16.00
  -2   2   7  460.25   19.20
   1  -2  -7  156.58   11.30
   1  -2  -7  171.68   11.40
  -1  -2   7  159.48    9.20
   1  -2  -7  167.18   11.10
  -1   2   7  190.68   11.60
  -1   2   7  170.28   12.00
   1   2  -7  175.28    8.20
   0  -2  -7  942.51   29.30
   0  -2  -7  976.40   31.50
   0  -2   7  967.50   24.20
   0  -2  -7  987.00   30.40
   0  -2   7  941.81   23.30
   0   2   7  973.90   32.10
   0   2   7  951.20   29.70
   0   2   7 1005.40   29.90
  -1  -2  -7 2600.94   61.99
   1  -2   7 2606.04   55.09
   1  -2   7 2534.75   49.30
  -1  -2  -7 2517.85   64.29
   1   2   7 2621.54   61.59
   1   2   7 2602.54   65.29
  -2  -2  -7    7.00    3.80
  -2  -2  -7   12.30    5.10
   2   2   7    3.70    3.60
   2   2   7    4.00    4.90
  -3  -2  -7 2129.99   59.59
  -3  -2  -7 2155.78   55.39
   3  -2   7 2211.88   54.79
   3   2   7 2226.98   56.89
   3   2   7 2185.48   59.89
  -4  -2  -7 1373.36   45.40
  -4  -2  -7 1439.76   41.60
   4  -2   7 1373.66   39.70
   4   2   7 1478.45   45.90
   4   2   7 1334.17   42.40
   5  -2   7  221.58   14.30
  -5  -2  -7  204.48   17.30
  -5  -2  -7  184.28   14.30
   5   2   7  208.18   17.70
   5   2   7  200.28   16.10
   6  -2   7   83.69   10.50
  -6  -2  -7   95.19   13.50
   6   2   7   83.99   13.00
   7  -2   7  133.79   12.90
  -7  -2  -7  145.89   17.50
   7   2   7  146.49   17.40
  -7   2  -7  146.09    4.70
  -8  -2  -7   97.89   15.10
   8  -2   7  115.39   13.30
   8   2   7  110.19   15.90
  -8   2  -7  101.89    5.60
  -8   2  -7  101.09    6.60
   9  -2   7  723.93   27.90
  -9  -2  -7  695.43   36.00
   9   2   7  706.93   44.50
  -9   2  -7  728.93   19.20
 -10  -3   7  573.04   29.20
 -10  -3   7  576.84   33.20
  10  -3  -7  597.94   31.10
 -10   3   7  565.74   32.40
  -9  -3   7    2.40    8.80
  -9  -3   7   -0.50    6.70
   9  -3  -7    4.90    8.20
   8  -3  -7  929.01   36.30
   8  -3  -7 1028.60   36.80
  -8  -3   7  974.40   36.60
  -8   3   7  871.81   36.70
  -7  -3   7  488.05   24.60
   7  -3  -7  449.66   23.20
   7  -3  -7  487.05   24.90
  -7   3   7  480.45   25.70
  -6  -3   7    1.50    4.90
   6  -3  -7   -4.10    5.00
   6  -3  -7    2.00   10.90
  -6   3   7    4.90    6.30
  -6   3   7    6.30    5.10
  -5  -3   7 1446.96   43.30
   5  -3  -7 1333.47   41.90
  -5   3   7 1389.96   43.10
  -5   3   7 1333.97   41.90
  -5   3   7 1360.26   29.70
   5   3  -7 1373.06   42.30
   4  -3  -7  212.38   14.70
  -4  -3   7  196.28    9.10
  -4  -3   7  227.58   15.50
  -4   3   7  186.18   14.20
  -4   3   7  179.48   13.60
   4   3  -7  183.38   13.10
  -4   3   7  188.68   12.10
   3  -3  -7  195.18   13.90
  -3  -3   7  199.18   10.20
   3  -3  -7  193.58   14.80
   3  -3  -7  183.08   10.80
   3   3  -7  183.78   12.20
  -3   3   7  204.98   14.50
  -3   3   7  194.78   14.00
  -3   3   7  189.48   10.70
   2  -3  -7 2352.86   60.19
   2  -3  -7 2323.57   56.69
   2  -3  -7 2326.07   60.89
   2   3  -7 2338.67   55.49
  -2   3   7 2343.27   60.39
  -2   3   7 2294.87   59.49
  -2   3   7 2388.86   56.29
   1  -3  -7   49.70    8.00
   1  -3  -7   64.99    8.80
   1  -3  -7   48.30    7.60
  -1   3   7   61.89    9.10
  -1   3   7   51.49    8.30
  -1   3   7   45.00    7.00
   0  -3   7 1659.83   42.10
   0  -3  -7 1682.73   47.20
   0  -3  -7 1627.74   47.10
   0  -3  -7 1669.43   47.30
   0   3   7 1612.64   46.80
   0   3   7 1708.33   47.60
   0   3   7 1740.23   47.70
   1  -3   7  760.42   24.40
  -1  -3  -7  784.62   28.50
  -1  -3  -7  701.83   28.60
  -1  -3  -7  747.93   28.70
   1  -3   7  735.73   18.40
   1  -3   7  712.53   17.90
   1   3   7  741.33   28.30
   1   3   7  790.92   30.00
  -2  -3  -7   51.69    8.90
   2  -3   7   67.19    8.50
  -2  -3  -7   43.40    8.00
   2   3   7   55.29    8.90
   2   3   7   55.99    9.80
  -3  -3  -7  651.33   28.90
  -3  -3  -7  643.24   26.80
   3   3   7  631.94   28.90
   3   3   7  653.53   28.00
  -4  -3  -7  330.07   19.10
  -4  -3  -7  312.47   29.70
   4  -3   7  303.67   16.30
   4   3   7  277.27   19.20
   5  -3   7   93.69   10.80
  -5  -3  -7  125.99   15.90
  -5  -3  -7  106.89   13.10
   5   3   7   81.69   11.90
  -6  -3  -7 1592.94   48.90
  -6  -3  -7 1475.35   51.79
   6  -3   7 1448.36   41.30
   6   3   7 1466.15   51.09
   6   3   7 1502.95   52.19
   7  -3   7  240.48   15.50
  -7  -3  -7  281.77   20.30
  -7  -3  -7  269.27   22.90
   7   3   7  250.07   22.60
   7   3   7  251.57   23.10
  -8  -3  -7  156.08   19.30
   8  -3   7  155.08   13.70
   8   3   7  179.38   23.10
   8   3   7  145.99   20.60
   9  -4  -7   15.20   12.90
  -9  -4   7    3.00    8.60
   9  -4  -7    8.30    9.70
   9   4  -7  -12.60   10.40
  -9   4   7    0.80   10.40
   8  -4  -7  484.15   26.00
  -8  -4   7  461.25   27.10
   8  -4  -7  424.06   28.00
   8   4  -7  462.45   30.10
   7  -4  -7  252.47   18.90
  -7  -4   7  276.37   21.20
   7  -4  -7  244.98   21.40
   7   4  -7  247.08   21.30
  -7   4   7  242.68   20.70
  -6  -4   7   56.79   10.40
   6  -4  -7   52.19   10.10
  -6   4   7   74.19   12.80
   6   4  -7   79.29   14.20
  -5  -4   7  959.50   36.70
   5  -4  -7 1030.60   37.80
   5   4  -7 1006.20   36.50
  -5   4   7  994.70   37.20
  -5   4   7 1042.80   37.90
   4  -4  -7   60.69    9.90
   4  -4  -7   51.89   11.20
   4  -4  -7   61.69    7.10
  -4  -4   7   64.19    7.30
  -4  -4   7   62.69   10.90
  -4   4   7   66.69    6.60
   4   4  -7   49.70    8.90
  -4   4   7   72.59   11.50
  -4   4   7   50.29    9.80
  -3  -4   7  290.47   18.80
   3  -4  -7  268.77   17.80
   3  -4  -7  272.17   14.50
   3  -4  -7  300.07   20.30
  -3  -4   7  290.97   14.40
  -3   4   7  289.57   13.80
  -3   4   7  275.97   21.60
   3   4  -7  287.37   17.20
  -2  -4   7 2684.43   67.59
   2  -4  -7 2588.74   63.39
   2  -4  -7 2576.24   67.49
  -2  -4   7 2616.94   62.29
   2  -4  -7 2578.64   69.99
   2   4  -7 2587.64   63.99
  -2   4   7 2636.14   61.89
  -2   4   7 2626.44   86.29
  -2   4   7 2419.26   66.99
   1  -4  -7   30.20    7.90
   1  -4  -7   26.60    7.60
  -1  -4   7   26.30    7.00
   1  -4  -7   17.40    6.10
  -1   4   7   33.60    7.20
  -1   4   7   48.00    9.40
   0  -4   7 1013.20   28.30
   0  -4   7 1124.19   34.80
   0  -4  -7 1034.20   36.50
   0  -4  -7 1072.49   37.20
   0  -4  -7 1091.09   40.00
   0  -4   7 1047.40   35.70
   0   4   7 1039.90   37.10
   0   4   7 1071.69   36.20
  -1  -4  -7  673.63   29.90
  -1  -4  -7  596.84   28.00
   1  -4   7  654.13   29.00
   1  -4   7  659.03   25.60
   1   4   7  684.83   28.70
   1   4   7  657.73   28.70
   1   4   7  669.43   30.10
   2  -4   7    1.60    5.10
   2  -4   7    4.00    1.90
  -2  -4  -7   -6.30    5.90
  -2  -4  -7   11.80    6.40
   2  -4   7   -7.10    6.10
   2   4   7    4.10    6.60
   2   4   7    0.60    5.60
   2   4   7    2.80    5.90
  -3  -4  -7  668.53   31.10
   3  -4   7  630.94   26.00
  -3  -4  -7  613.14   28.80
   3   4   7  649.34   30.50
   3   4   7  627.24   28.70
   3   4   7  618.44   31.00
  -4  -4  -7  570.34   29.40
   4  -4   7  501.85   24.70
  -4  -4  -7  573.84   28.20
   4  -4   7  521.85   22.40
   4   4   7  610.24   30.10
   4   4   7  585.14   28.00
   5  -4   7  326.87   17.40
  -5  -4  -7  367.16   22.80
  -5  -4  -7  330.87   24.80
   5   4   7  327.27   24.10
   5   4   7  317.87   25.00
  -6  -4  -7  696.53   33.20
   6  -4   7  668.23   24.70
  -6  -4  -7  660.63   34.80
   6  -4   7  665.23   36.10
   6   4   7  666.43   35.80
   6   4   7  667.13   34.80
  -7  -4  -7    7.00    9.70
  -7  -4  -7   -0.10   16.50
   7  -4   7   -8.40   13.00
   7  -4   7    7.50    6.10
   7   4   7   -6.30   12.50
   7   4   7   11.00   12.80
   7  -5  -7  649.43   31.30
  -7  -5   7  648.94   34.50
   7  -5  -7  580.74   35.60
   7   5  -7  672.53   35.40
  -7   5   7  695.63   34.10
   6  -5  -7    4.90    8.90
   6  -5  -7   14.00   15.70
  -6  -5   7   11.10    9.10
  -6   5   7    3.30    9.80
   6   5  -7    3.90    8.40
   5  -5  -7  917.11   40.30
   5  -5  -7  882.91   35.40
  -5  -5   7  827.32   36.00
   5   5  -7  857.01   35.70
  -5   5   7  736.33   43.70
  -5   5   7  905.71   38.00
   4  -5  -7   13.10    5.00
  -4  -5   7    5.80    7.80
  -4  -5   7   12.90    5.80
   4  -5  -7    0.30    8.40
   4  -5  -7   16.90    7.80
   4   5  -7    5.00    8.20
  -4   5   7   14.00    8.90
  -3  -5   7  523.75   21.90
  -3  -5   7  500.55   26.70
   3  -5  -7  470.85   20.90
   3  -5  -7  487.85   25.80
  -3   5   7  456.45   25.90
   3   5  -7  488.45   34.70
  -3   5   7  451.25   18.80
   2  -5  -7  181.58   15.20
   2  -5  -7  201.78   17.90
  -2  -5   7  179.48   15.10
  -2  -5   7  200.08   17.10
  -2   5   7  183.58   13.90
  -2   5   7  182.98   17.70
   1  -5  -7   17.30    7.30
  -1  -5   7    6.50    5.20
  -1  -5   7   26.80    8.00
   1  -5  -7   19.60    8.20
  -1  -5   7   29.50    8.20
   1  -5  -7    6.60    8.20
  -1   5   7   13.20    6.40
  -1   5   7   26.20    8.90
   0  -5   7  243.78   19.00
   0  -5   7  226.08   20.60
   0  -5  -7  277.17   20.40
   0  -5  -7  237.28   19.00
   0  -5  -7  254.67   21.70
   0  -5   7  258.27   14.00
   0   5   7  276.97   19.30
   0   5   7  267.07   20.20
   1  -5   7  845.72   31.60
  -1  -5  -7  858.21   35.40
   1  -5   7  926.61   46.50
   1  -5   7  835.12   24.80
   1  -5   7  833.72   34.70
  -1  -5  -7  794.32   34.20
   1   5   7  827.32   34.70
   1   5   7  827.42   34.40
   2  -5   7    0.50    5.60
   2  -5   7   19.90    9.20
  -2  -5  -7   -6.40    7.30
   2  -5   7    0.40    7.40
  -2  -5  -7   10.90    8.00
   2  -5   7    4.40    4.20
   2   5   7    9.30    8.00
   2   5   7   20.10    9.70
   2   5   7    5.40   11.70
  -3  -5  -7 1106.79   44.10
   3  -5   7 1091.29   35.40
   3  -5   7 1097.59   43.60
  -3  -5  -7 1098.09   42.20
   3  -5   7 1110.19   39.70
   3   5   7 1115.29   44.30
   3   5   7 1091.59   41.20
   3   5   7 1120.69   44.30
  -4  -5  -7  111.99   16.90
  -4  -5  -7  105.09   15.70
   4  -5   7  119.89   16.40
   4  -5   7  101.79   20.00
   4   5   7  118.89   17.80
   4   5   7  102.59   14.90
   4   5   7   98.49   17.60
   5  -5   7  151.78   18.00
   5  -5   7  162.08   21.30
   5  -5   7  157.48   13.70
  -5  -5  -7  170.48   22.50
   5  -5   7  151.48   14.90
  -5  -5  -7  188.58   22.10
   5   5   7  173.08   19.60
   5   5   7  185.08   21.90
   5   5   7  144.99   20.90
   4  -6  -7  211.58   21.60
   4  -6  -7  176.88   14.00
  -4  -6   7  190.88   21.80
   4   6  -7  169.48   20.30
   3  -6  -7    6.60   10.20
  -3  -6   7    1.90    8.20
  -3  -6   7    8.10   10.00
   3  -6  -7   -2.60   10.50
  -3  -6   7   -6.40    7.80
   3  -6  -7   -8.80    7.10
  -3   6   7  -11.80   15.90
   2  -6  -7  719.63   37.70
   2  -6  -7  709.73   29.90
  -2  -6   7  703.83   30.60
  -2  -6   7  713.33   33.50
   2  -6  -7  732.13   34.40
  -2  -6   7  653.63   27.90
  -2   6   7  651.63   35.10
   1  -6  -7   11.80   11.80
  -1  -6   7  -16.70    9.20
   1  -6  -7   -8.10    8.20
  -1  -6   7    9.60    9.30
   1  -6  -7    5.20    9.40
  -1  -6   7    1.20    6.90
  -1   6   7    4.40    9.70
   0  -6  -7  480.85   32.30
   0  -6   7  490.55   21.30
   0  -6  -7  490.65   28.20
   0  -6  -7  519.95   29.90
   0  -6   7  466.45   28.20
   0  -6   7  508.55   27.30
   0   6   7  445.76   26.50
   0   6   7  492.25   29.60
   1  -6   7    9.50   11.00
  -1  -6  -7   11.20   10.80
   1  -6   7   20.90    6.20
   1  -6   7   28.10   12.60
   1  -6   7   20.00    8.70
  -1  -6  -7   20.10   11.30
   1   6   7    7.30    9.80
   1   6   7   11.70   10.40
   2  -6   7   11.20    8.40
   2  -6   7   13.80   12.10
   2  -6   7   14.00    5.50
   2  -6   7   32.10   13.70
  -2  -6  -7    8.20   11.70
  -2  -6  -7   17.00   11.00
   2   6   7   22.00   11.30
   2   6   7    4.10   14.70
 -12   0   8  592.24   34.30
 -12   0   8  606.44   25.10
 -11   0   8    6.40    9.80
 -11   0   8   -0.30    4.80
 -10   0   8  400.96   25.30
 -10   0   8  451.15   19.50
  -9   0   8   -3.70    6.30
  -9   0   8   -5.90    3.50
  -8   0   8 1482.15   47.90
  -8   0   8 1505.85   39.80
  -7   0   8   -3.90    2.60
  -7   0   8   -3.10    5.00
  -6   0   8  789.52   29.60
  -5   0   8    3.10    3.80
  -5   0   8    5.10    2.60
   5   0  -8   -3.50    3.60
  -4   0   8 3806.82   84.59
   4   0  -8 3740.03   84.99
  -3   0   8    1.90    2.90
   3   0  -8    9.10    3.90
   2   0  -8 9374.06  181.88
  -2   0   8 9040.70  180.18
   1   0  -8    0.40    2.10
   1   0  -8    1.60    1.30
  -1   0   8    1.00    2.30
   0   0  -8  398.76   15.50
   0   0   8  405.56   14.20
   0   0   8  397.86   17.90
   1   0   8    1.90    1.70
  -1   0  -8    5.50    2.50
   1   0   8    1.10    3.90
   1   0   8   -1.70    2.00
  -2   0  -8  839.92   30.30
   2   0   8  807.32   29.00
  -2   0  -8  827.82   23.40
  -3   0  -8    0.20    2.20
  -3   0  -8   -2.30    4.10
   3   0   8   -1.10    4.00
  -4   0  -8 4360.56  102.99
  -4   0  -8 4306.17   90.69
   4   0   8 4550.04  101.69
   5   0   8    2.50    5.10
  -5   0  -8    2.10    2.90
  -5   0  -8    0.10    5.00
  -6   0  -8 1736.13   43.90
  -6   0  -8 1801.92   54.69
   6   0   8 1760.02   51.69
   7   0   8    1.80    6.70
  -7   0  -8   -0.50    6.40
   8   0   8  402.36   24.10
  -8   0  -8  398.06   24.70
  -9   0  -8    5.50    8.10
   9   0   8    3.60    9.20
 -12  -1   8   26.80    8.80
 -12  -1   8   39.10   14.80
 -12   1   8   48.60    7.40
 -12   1   8   55.69   14.10
 -11  -1   8   16.80    7.50
 -11  -1   8    4.50   10.50
 -11   1   8   19.30    5.50
 -11   1   8   21.30   11.20
 -10  -1   8   51.39   12.40
 -10  -1   8   62.19    9.70
 -10   1   8   53.49    6.50
 -10   1   8   34.00   12.30
  -9  -1   8  983.40   32.70
  -9   1   8  936.81   26.40
  -9   1   8  919.91   37.30
  -8  -1   8   39.90    7.20
  -8  -1   8   26.30    8.10
  -8   1   8   43.30    5.70
  -8   1   8   37.70    9.50
   7  -1  -8 2472.65   64.79
  -7  -1   8 2419.06   59.59
  -7  -1   8 2425.76   65.29
  -7   1   8 2402.36   53.29
  -7   1   8 2371.76   64.69
  -6  -1   8  103.09   11.40
   6  -1  -8   90.29   11.20
  -6   1   8   95.29   11.50
  -6   1   8   94.79    8.40
  -5  -1   8 1984.90   41.20
  -5  -1   8 2027.80   53.49
   5  -1  -8 1996.50   53.29
  -5   1   8 1964.10   48.40
  -5   1   8 2057.69   53.79
   4  -1  -8  153.08   11.30
  -4  -1   8  138.89   11.00
  -4   1   8  140.19    9.70
  -4   1   8  139.39   11.10
  -3  -1   8    2.10    3.00
   3  -1  -8    3.30    3.10
  -3   1   8    0.50    2.90
  -3   1   8    0.00    3.00
   2  -1  -8   30.80    5.60
  -2  -1   8   21.90    4.20
  -2   1   8   30.50    5.30
  -2   1   8   27.80    5.60
   1  -1  -8 3010.10   67.39
   1  -1  -8 3210.18   70.69
  -1  -1   8 2952.70   66.59
   1   1  -8 3147.79   67.89
  -1   1   8 3271.57   70.09
  -1   1   8 3241.28   73.79
   0  -1  -8  570.84   19.00
   0  -1  -8  577.84   23.10
   0  -1  -8  614.54   21.00
   0  -1   8  576.74   16.30
   0   1   8  592.94   23.50
   0   1  -8  583.64   17.60
   0   1   8  576.24   18.30
   0   1   8  569.74   19.80
   1  -1   8 9365.56  173.38
  -1  -1  -8 9187.98  181.58
  -1  -1  -8 9394.96  188.68
   1  -1   8 9109.69  184.78
   1   1   8 9429.46  188.68
   1   1   8 9486.75  181.28
   1   1   8 8566.44  184.28
  -1   1  -8 9143.99  174.88
   2  -1   8  512.65   21.40
  -2  -1  -8  527.95   19.30
  -2  -1  -8  514.95   23.40
   2   1   8  491.15   18.20
   2   1   8  508.75   23.20
  -2   1  -8  483.45   13.40
  -3  -1  -8 2822.62   73.29
  -3  -1  -8 2845.52   65.59
   3  -1   8 2816.62   69.29
   3   1   8 2976.70   73.19
   3   1   8 2926.21   66.89
  -3   1  -8 2818.02   56.99
  -4  -1  -8   95.49    9.10
   4  -1   8   92.19   10.80
  -4  -1  -8   82.49   11.90
  -4   1  -8   80.99    5.00
   4   1   8   88.19   11.70
  -5  -1  -8    6.90    4.10
  -5  -1  -8   -2.60    5.50
   5  -1   8   -4.40    4.70
  -5   1  -8    9.90    2.70
   5   1   8    5.90    6.40
   6  -1   8  152.18   14.20
  -6  -1  -8  142.09   11.80
  -6  -1  -8  134.39   15.80
  -6   1  -8  139.89    8.70
  -6   1  -8  130.79    8.90
   6   1   8  153.38   16.10
  -7  -1  -8 1291.77   45.80
   7  -1   8 1238.38   39.90
  -7   1  -8 1168.78   30.30
   7   1   8 1226.48   43.10
  -7   1  -8 1171.08   32.10
  -8  -1  -8    1.50    8.10
   8  -1   8    5.00    7.20
  -8   1  -8   -1.70    4.90
  -8   1  -8    9.00    4.00
   8   1   8    2.00    9.20
  -9  -1  -8  872.31   39.30
   9  -1   8  870.51   34.30
   9   1   8  914.71   38.90
  -9   1  -8  900.21   26.40
  -9   1  -8  877.21   28.40
 -11  -2   8   -5.00    7.40
 -11  -2   8   -9.90   10.40
 -11   2   8   -6.70   10.40
 -10  -2   8  777.62   36.30
 -10  -2   8  743.23   31.30
 -10   2   8  740.93   35.30
  -9  -2   8   64.09   10.70
   9  -2  -8   67.29   11.40
  -9   2   8   72.19   13.00
  -8  -2   8  322.57   19.30
   8  -2  -8  292.07   30.10
  -8   2   8  298.77    8.90
  -8   2   8  291.57   10.30
  -8   2   8  291.67   20.80
   7  -2  -8  923.51   34.40
  -7  -2   8  880.51   34.80
  -7  -2   8 1000.90   33.60
  -7   2   8  941.31   35.80
  -7   2   8  913.91   21.70
  -7   2   8  968.60   31.70
  -7   2   8  890.71   24.20
  -6  -2   8  342.47   19.60
  -6  -2   8  365.96   18.80
   6  -2  -8  368.56   19.70
  -6   2   8  334.67   19.50
  -6   2   8  313.77   13.40
  -6   2   8  341.17   17.30
   5  -2  -8  437.26   20.80
  -5  -2   8  402.06   20.50
  -5   2   8  432.56   19.40
  -5   2   8  406.36   20.60
   4  -2  -8 2432.86   61.49
  -4  -2   8 2501.75   60.89
  -4   2   8 2488.65   60.19
  -4   2   8 2314.17   56.99
  -4   2   8 2424.36   61.49
  -3  -2   8   82.39    8.70
   3  -2  -8   63.39    8.50
  -3   2   8   71.99    9.00
  -3   2   8   84.89    9.00
  -3   2   8   81.89    8.90
   3   2  -8   74.59    6.90
  -2  -2   8 7278.77  145.39
   2  -2  -8 7295.07  148.59
   2  -2  -8 7180.58  149.99
   2  -2  -8 7313.07  147.69
  -2   2   8 7096.69  150.08
  -2   2   8 7419.46  150.28
  -2   2   8 7397.26  149.79
   2   2  -8 7232.68  141.49
   1  -2  -8 1906.31   48.90
  -1  -2   8 1939.31   44.60
   1  -2  -8 1968.80   50.79
   1  -2  -8 1961.90   50.89
  -1   2   8 1970.10   50.09
  -1   2   8 1970.00   52.59
   0  -2  -8  155.48   11.50
   0  -2   8  173.98    7.60
   0  -2   8  177.28    7.70
   0  -2  -8  157.38   12.30
   0  -2  -8  185.58   11.70
   0   2   8  163.58   11.40
   0   2   8  169.78   11.80
   0   2   8  186.88   14.00
   1  -2   8  992.60   24.50
  -1  -2  -8 1008.90   31.50
  -1  -2  -8  967.30   33.60
   1  -2   8  958.30   19.80
   1   2   8  952.70   30.30
   1   2   8  929.01   33.80
  -2  -2  -8  305.67   18.80
  -2  -2  -8  326.67   16.70
   2   2   8  346.87   19.80
   2   2   8  305.07   16.20
  -3  -2  -8  636.24   24.50
   3  -2   8  584.24   23.70
  -3  -2  -8  602.14   27.20
   3   2   8  597.64   27.90
   3   2   8  591.04   24.30
  -4  -2  -8 3489.95   80.29
   4  -2   8 3274.27   78.79
  -4  -2  -8 3323.07   85.39
   4   2   8 3451.15   88.59
   4   2   8 3341.07   81.59
  -5  -2  -8   55.89    9.40
   5  -2   8   70.99   10.00
   5   2   8   79.69   12.20
   5   2   8   43.90    9.70
  -6  -2  -8 1174.68   43.60
   6  -2   8 1124.59   36.90
  -6  -2  -8 1190.18   38.50
   6   2   8 1170.18   43.50
   6   2   8 1084.89   47.80
   7  -2   8  237.28   16.90
  -7  -2  -8  231.58   21.00
  -7  -2  -8  243.18   17.30
   7   2   8  204.78   20.60
  -8  -2  -8  260.07   19.10
   8  -2   8  238.28   17.50
  -8  -2  -8  259.67   22.50
   8   2   8  236.68   24.10
   9  -2   8  302.37   20.50
  -9  -2  -8  264.77   25.20
  -9  -2  -8  297.67   21.20
   9   2   8  233.28   24.80
  10  -3  -8  675.93   32.50
  10  -3  -8  691.33   33.30
 -10  -3   8  647.24   31.70
 -10  -3   8  646.64   35.50
 -10   3   8  642.94   34.30
  -9  -3   8  142.89   18.20
   9  -3  -8  152.18   17.70
  -9  -3   8  151.18   16.60
   8  -3  -8   20.60    9.00
  -8  -3   8   18.60    7.50
  -8  -3   8   26.00   10.20
  -8   3   8   27.90    9.40
  -7  -3   8 1161.58   39.90
  -7  -3   8 1056.89   39.90
  -7   3   8 1087.89   40.30
  -6  -3   8  237.68   27.60
   6  -3  -8  262.57   17.50
  -6   3   8  243.08    7.20
  -6   3   8  233.58   29.80
  -6   3   8  230.98   16.40
   5  -3  -8  925.51   34.00
  -5  -3   8  958.80   34.30
  -5  -3   8  936.71   21.30
  -5   3   8  968.90   34.90
  -5   3   8  939.61   33.70
   5   3  -8  948.11   33.00
  -5   3   8  965.10   24.30
  -4  -3   8 2058.79   45.60
   4  -3  -8 1991.20   55.39
   4   3  -8 2014.30   52.19
  -4   3   8 2040.00   55.39
  -4   3   8 2032.70   47.40
  -4   3   8 2028.10   55.69
   3  -3  -8    7.00    5.10
   3  -3  -8    2.10    3.90
  -3  -3   8    7.90    3.50
   3  -3  -8   11.30    5.40
   3   3  -8   13.50    4.50
  -3   3   8    8.60    4.50
  -3   3   8    8.80    5.60
  -3   3   8    8.10    5.10
   2  -3  -8 1085.79   33.50
   2  -3  -8 1082.49   36.20
   2  -3  -8 1104.79   36.30
   2   3  -8 1104.59   31.20
  -2   3   8 1117.59   36.60
  -2   3   8 1096.69   33.90
  -2   3   8 1114.79   36.10
   1  -3  -8  654.53   26.50
   1  -3  -8  723.23   27.60
   1  -3  -8  713.73   26.70
  -1   3   8  653.83   26.20
  -1   3   8  687.63   26.60
  -1   3   8  662.33   26.90
   0  -3  -8  535.35   23.90
   0  -3   8  555.04   19.60
   0  -3  -8  545.85   23.90
   0  -3  -8  581.64   24.80
   0   3   8  600.94   25.20
   0   3   8  592.04   25.60
  -1  -3  -8 1425.96   45.00
   1  -3   8 1458.95   37.50
   1  -3   8 1418.76   30.00
  -1  -3  -8 1421.46   43.30
   1  -3   8 1437.36   30.30
   1   3   8 1474.45   45.80
   1   3   8 1452.95   43.60
  -2  -3  -8  354.16   21.00
  -2  -3  -8  364.76   19.50
   2  -3   8  375.76   16.40
   2   3   8  384.06   22.60
   2   3   8  372.26   20.20
  -3  -3  -8  971.40   34.50
  -3  -3  -8  944.41   37.00
   3  -3   8  962.20   32.00
   3   3   8  916.31   34.60
   3   3   8  983.80   38.20
   4  -3   8 1019.10   33.90
  -4  -3  -8 1063.79   40.70
   4   3   8 1094.09   39.20
  -5  -3  -8    7.10    6.60
  -5  -3  -8    5.80    7.50
   5  -3   8    6.10    5.50
   5   3   8   12.60    7.20
   6  -3   8 1254.27   38.60
  -6  -3  -8 1295.67   44.00
  -6  -3  -8 1255.97   47.80
   6   3   8 1248.28   48.10
   6   3   8 1273.37   46.60
   7  -3   8  269.57   17.60
  -7  -3  -8  319.57   22.20
  -7  -3  -8  322.97   25.10
   7   3   8  282.67   25.50
   7   3   8  261.87   23.00
  -8  -3  -8   47.80   11.40
  -8  -3  -8   49.60   13.90
   8  -3   8   73.39    9.90
   8   3   8   62.99   14.60
   8   3   8   73.49   15.90
   9  -4  -8  194.18   20.60
  -9  -4   8  171.88   19.80
  -9  -4   8  158.78   19.90
   9   4  -8  208.68   24.80
  -9   4   8  133.69   17.80
  -8  -4   8   66.19   12.80
   8  -4  -8   52.29   11.40
  -8   4   8   68.29   13.50
   8   4  -8   42.40   13.80
   7  -4  -8  865.81   34.90
  -7  -4   8  868.31   36.60
   7   4  -8  922.41   38.30
   6  -4  -8    8.20    7.40
  -6  -4   8    5.60    6.40
  -6   4   8   12.50    8.40
  -6   4   8   19.70    8.50
   6   4  -8   16.50   10.00
  -5  -4   8  631.34   28.80
   5  -4  -8  601.44   27.90
   5   4  -8  625.94   27.50
  -5   4   8  616.84   29.00
  -5   4   8  560.54   27.90
  -4  -4   8  141.29   15.00
   4  -4  -8  176.68   17.10
  -4  -4   8  162.18   10.40
   4   4  -8  160.88   13.90
  -4   4   8  173.28   16.10
  -4   4   8  143.29   14.90
  -4   4   8  177.58   10.40
   3  -4  -8    7.00    7.00
  -3  -4   8    9.70    4.80
   3  -4  -8    8.10    4.80
  -3  -4   8   19.10   11.70
   3  -4  -8   -4.30    5.50
  -3   4   8    9.90    4.40
  -3   4   8    4.40    5.80
   3   4  -8    6.90    5.50
  -3   4   8    3.70    6.50
   2  -4  -8  724.13   31.40
  -2  -4   8  672.83   25.30
   2  -4  -8  710.13   26.90
   2  -4  -8  692.13   30.60
  -2   4   8  764.92   44.60
  -2   4   8  669.53   25.60
   2   4  -8  701.43   26.00
  -2   4   8  707.63   29.80
   1  -4  -8 1159.78   46.10
  -1  -4   8 1185.18   37.00
   1  -4  -8 1190.98   41.20
   1  -4  -8 1173.18   38.20
  -1   4   8 1113.59   45.10
  -1   4   8 1108.19   37.00
   0  -4  -8   74.89   11.00
   0  -4  -8   85.99   14.20
   0  -4   8   91.69   11.10
   0  -4   8   73.99   10.70
   0  -4  -8   87.29   13.30
   0   4   8   87.89   12.60
   0   4   8   98.89   13.20
  -1  -4  -8 1600.44   50.19
   1  -4   8 1605.74   44.20
   1  -4   8 1601.24   35.20
  -1  -4  -8 1614.84   49.20
   1   4   8 1315.17   67.09
   1   4   8 1522.25   57.79
   1   4   8 1646.44   51.19
  -2  -4  -8   33.50    9.40
  -2  -4  -8   23.30    7.90
   2  -4   8   35.30    7.30
   2   4   8   39.30   10.60
   2   4   8   29.20    8.80
   2   4   8   32.90   10.60
  -3  -4  -8  564.84   28.00
  -3  -4  -8  634.94   31.20
   3  -4   8  607.64   25.20
   3   4   8  655.33   44.00
   3   4   8  582.54   29.10
  -4  -4  -8  391.86   25.80
   4  -4   8  398.16   21.50
  -4  -4  -8  469.45   25.10
   4  -4   8  416.06   20.70
   4   4   8  397.46   25.10
   4   4   8  409.86   27.70
   5  -4   8   -0.40    6.20
  -5  -4  -8    2.80    8.60
  -5  -4  -8   -5.50    7.40
   5  -4   8   -7.80    7.60
   5   4   8    5.70   11.00
   5   4   8    5.30    7.50
  -6  -4  -8   84.19   15.10
   6  -4   8  121.99   12.70
  -6  -4  -8   97.99   14.90
   6   4   8  123.59   17.00
   6   4   8   89.39   17.50
   7  -4   8  149.09   14.90
  -7  -4  -8  148.79   20.80
  -7  -4  -8  153.88   20.20
   7   4   8  121.29   18.90
   7   4   8  121.49   22.30
   7  -5  -8  143.99   20.70
   7  -5  -8  140.19   17.50
  -7   5   8  134.49   19.20
   7   5  -8   99.19   16.00
  -6  -5   8   62.09   12.90
   6  -5  -8   84.69   15.20
   6  -5  -8   35.70   11.40
   6   5  -8   58.99   11.60
  -6   5   8   34.80   12.10
   5  -5  -8  114.79   15.30
   5  -5  -8   71.49   13.90
  -5  -5   8   98.09   14.90
   5   5  -8  108.39   15.70
  -5   5   8   85.49   14.20
  -5   5   8   93.29   14.80
  -4  -5   8 1146.29   43.30
   4  -5  -8 1193.28   33.50
  -4  -5   8 1149.48   34.00
   4  -5  -8 1200.68   42.50
   4  -5  -8 1173.08   45.80
  -4   5   8 1206.68   44.10
  -4   5   8 1180.48   44.30
   4   5  -8 1183.58   41.30
   3  -5  -8   15.20    7.90
  -3  -5   8   19.90    8.90
   3  -5  -8   14.10    6.60
  -3  -5   8   10.20    6.30
   3  -5  -8   20.00   10.40
   3   5  -8   11.40    9.10
  -3   5   8    6.20    4.80
  -3   5   8   17.10    8.80
   2  -5  -8  610.44   26.60
  -2  -5   8  656.93   26.70
   2  -5  -8  652.83   30.90
   2  -5  -8  599.64   31.80
  -2  -5   8  619.44   28.70
  -2   5   8  591.24   24.60
  -2   5   8  636.04   30.90
  -1  -5   8   77.69    9.20
   1  -5  -8   65.19   14.40
  -1  -5   8   91.09   13.00
   1  -5  -8   64.69   10.90
  -1  -5   8   99.69   13.40
   1  -5  -8   69.09   12.00
  -1   5   8   58.19   11.90
   0  -5   8  162.58   16.20
   0  -5   8  145.79   15.30
   0  -5  -8  153.18   17.30
   0  -5   8  175.58   11.40
   0  -5   8  153.38   16.80
   0  -5  -8  162.78   17.00
   0  -5  -8  172.58   19.30
   0   5   8  191.98   17.40
   0   5   8  157.18   17.30
   1  -5   8   49.40   12.20
  -1  -5  -8   32.20   10.10
  -1  -5  -8   38.40   10.10
   1  -5   8   55.69    6.10
   1  -5   8   70.09   13.40
   1   5   8   52.09   11.00
   2  -5   8   94.39   13.70
  -2  -5  -8   81.39   13.70
   2  -5   8   68.99   13.80
  -2  -5  -8   55.39   12.50
   2  -5   8   76.99    5.80
   2   5   8   57.79   12.80
   2   5   8   65.99   13.60
   2   5   8   75.29   13.80
  -3  -5  -8   25.10   10.50
   3  -5   8   69.89   15.10
   3  -5   8   41.20   10.60
  -3  -5  -8   70.39   12.90
   3   5   8   55.69   11.80
   3   5   8   58.39   14.20
   3   5   8   48.70   12.70
  -4  -5  -8  683.03   35.50
   4  -5   8  633.24   36.80
  -4  -5  -8  716.03   34.80
   4  -5   8  642.04   30.30
   4  -5   8  699.83   28.00
   4   5   8  701.53   33.90
   4   5   8  620.94   54.39
   4   5   8  673.33   35.60
   5  -5   8    1.30   10.30
  -5  -5  -8   22.70   20.80
   5  -5   8    2.20    7.50
   5  -5   8  -14.40   13.70
  -5  -5  -8    5.70   11.50
   5   5   8   -9.90   20.20
   5   5   8  -10.90   11.50
   5   5   8  -20.70   13.80
   4  -6  -8   -3.20   11.00
   4   6  -8   12.80    9.80
  -4   6   8   -2.60   11.30
  -3  -6   8    2.70    8.60
   3  -6  -8   -1.60    9.80
   3  -6  -8   -4.00   10.20
   3  -6  -8    8.30    7.70
  -3  -6   8    5.80    9.50
  -3   6   8  -24.00   11.10
   2  -6  -8    1.80   15.90
  -2  -6   8  -23.00    8.60
  -2  -6   8   -0.90    8.90
   2  -6  -8   -4.10   12.00
  -2  -6   8   -2.70    7.10
   2  -6  -8    0.80    9.60
  -2   6   8    6.70   11.90
   1  -6  -8  444.06   26.40
  -1  -6   8  470.65   22.00
  -1  -6   8  459.95   27.60
   1  -6  -8  468.55   28.60
   1  -6  -8  498.75   32.70
  -1  -6   8  481.05   27.40
  -1   6   8  421.86   29.70
   0  -6   8   21.70    6.70
   0  -6  -8   24.50   13.70
   0  -6  -8   21.50   10.70
   0  -6   8    8.50    9.10
   0  -6  -8   21.00   13.20
   0  -6   8   16.10   12.20
   0   6   8    3.00   10.70
   0   6   8   -3.90    9.30
  -1  -6  -8  887.41   40.40
   1  -6   8  862.41   26.20
   1  -6   8  841.32   34.50
   1  -6   8  808.02   36.30
  -1  -6  -8  840.72   39.20
   1  -6   8  820.12   56.79
   1   6   8  773.62   37.80
   1   6   8  802.52   37.40
 -12   0   9   -1.30   12.00
 -12   0   9   11.50    6.50
 -11   0   9  184.78   14.00
 -11   0   9  191.28   22.00
 -10   0   9   -6.00    7.80
 -10   0   9    5.10    4.80
  -9   0   9 1434.96   77.59
  -9   0   9 1766.32   44.80
  -8   0   9   -1.40    6.50
  -8   0   9    1.70    3.40
  -7   0   9 3673.73   89.09
  -7   0   9 3654.03   76.29
   6   0  -9   -6.80    4.50
  -6   0   9    1.60    4.30
  -6   0   9    1.70    2.30
  -5   0   9 1745.43   48.70
  -5   0   9 1787.62   41.70
   5   0  -9 1787.12   49.80
   4   0  -9   -2.70    3.40
  -4   0   9    6.90    3.90
  -3   0   9 1548.05   40.90
   3   0  -9 1485.55   41.40
  -2   0   9   -1.60    2.50
   2   0  -9   -0.40    3.00
   1   0  -9 7803.52  152.98
   1   0  -9 7727.93  143.89
  -1   0   9 7486.55  150.98
  -1   0   9 7569.24  156.38
   0   0   9   -4.10    1.80
   0   0   9   -2.30    3.20
   0   0  -9    1.90    2.60
  -1   0  -9 2410.56   53.09
   1   0   9 2301.27   48.30
   1   0   9 2344.87   51.69
   1   0   9 2278.57   59.69
  -2   0  -9    2.40    2.40
   2   0   9   -1.60    4.00
  -3   0  -9  355.16   20.50
  -3   0  -9  401.36   14.90
   3   0   9  368.66   19.80
  -4   0  -9    0.80    2.70
  -4   0  -9   -0.20    5.00
   4   0   9   -9.00    5.50
  -5   0  -9  299.27   20.20
   5   0   9  271.37   18.80
  -5   0  -9  291.17   13.40
  -6   0  -9    4.70    3.90
   6   0   9   -0.80    6.70
  -6   0  -9    2.30    6.00
  -7   0  -9 2142.49   63.39
  -7   0  -9 2070.59   51.19
   7   0   9 2040.90   59.99
  -8   0  -9    2.20    4.80
  -8   0  -9   -0.10    8.20
   8   0   9   -3.00    8.30
   9   0   9  912.61   38.00
  -9   0  -9  920.51   30.20
  -9   0  -9  859.61   38.70
 -11  -1   9    8.80    5.80
 -11   1   9   17.50   11.10
 -11   1   9   12.40    4.80
 -10  -1   9 1498.65   52.09
 -10  -1   9 1466.65   50.39
 -10   1   9 1453.45   51.69
 -10   1   9 1506.85   37.70
  -9  -1   9  289.37   17.40
  -9   1   9  301.37   13.50
  -9   1   9  263.57   25.20
  -8  -1   9   61.49    8.70
  -8   1   9   60.19    6.70
  -8   1   9   97.99   13.60
  -7  -1   9   99.59   12.80
  -7  -1   9   98.79   10.40
   7  -1  -9   67.89   10.60
  -7   1   9  110.69    9.40
  -7   1   9   88.69   11.90
  -6  -1   9 1554.94   47.30
  -6  -1   9 1662.03   34.30
   6  -1  -9 1608.24   47.80
  -6   1   9 1634.64   42.20
  -6   1   9 1655.23   48.50
   5  -1  -9   47.70    8.10
  -5  -1   9   42.40    8.10
  -5   1   9   52.19    8.40
  -5   1   9   58.29    7.60
   4  -1  -9 4420.46   97.99
  -4  -1   9 4332.27   96.29
  -4   1   9 4392.56   94.69
  -4   1   9 4421.76   94.09
  -4   1   9 4373.46   97.29
  -3  -1   9    8.40    3.90
   3  -1  -9    4.00    3.30
  -3   1   9    4.40    3.50
  -3   1   9    8.10    3.80
   2  -1  -9 2060.09   47.80
  -2  -1   9 2015.70   48.70
   2  -1  -9 2117.39   52.59
  -2   1   9 2039.70   53.09
   2   1  -9 2108.59   50.99
  -2   1   9 2086.79   51.29
   1  -1  -9  361.36   16.40
  -1  -1   9  349.07   13.60
   1  -1  -9  362.86   13.70
  -1   1   9  358.06   16.00
  -1   1   9  379.26   18.90
   0  -1  -9  313.97   12.90
   0  -1  -9  311.97   15.20
   0  -1   9  317.87   11.50
   0  -1  -9  345.97   18.10
   0   1   9  358.06   18.60
   0   1  -9  332.07   13.10
   0   1   9  312.97   14.60
  -1  -1  -9  434.86   21.50
   1  -1   9  425.36   12.70
  -1  -1  -9  438.96   17.90
   1  -1   9  459.55   20.30
  -1   1  -9  432.86   14.10
   1   1   9  438.86   21.60
   1   1   9  432.76   16.00
   1   1   9  405.86   16.90
  -2  -1  -9 2504.25   58.89
   2  -1   9 2415.66   62.49
  -2  -1  -9 2424.76   65.59
   2   1   9 2525.15   66.09
  -2   1  -9 2531.75   51.69
   2   1   9 2504.85   57.49
  -3  -1  -9  179.58   14.90
   3  -1   9  177.58   13.70
  -3  -1  -9  177.88   11.60
   3   1   9  184.18   11.90
  -3   1  -9  185.48    7.60
   3   1   9  217.48   16.10
  -4  -1  -9 2919.61   68.49
  -4  -1  -9 3033.50   78.09
   4  -1   9 2914.21   73.19
  -4   1  -9 2926.01   59.69
   4   1   9 2938.61   76.09
  -5  -1  -9  201.98   13.20
   5  -1   9  194.58   15.70
  -5  -1  -9  210.18   17.60
   5   1   9  174.18   16.30
  -5   1  -9  190.48    8.40
  -6  -1  -9  675.63   31.90
  -6  -1  -9  685.73   25.80
   6  -1   9  672.33   28.80
   6   1   9  674.23   31.20
  -6   1  -9  683.03   19.10
  -7  -1  -9  186.28   18.30
  -7  -1  -9  161.98   13.60
   7  -1   9  158.48   16.30
  -7   1  -9  162.68    9.10
  -7   1  -9  157.98   10.40
   7   1   9  158.68   18.30
  -8  -1  -9   90.39   14.40
   8  -1   9  105.49   13.80
  -8  -1  -9  104.69   14.50
  -8   1  -9   92.69    8.40
   8   1   9   98.59   14.70
  -8   1  -9  110.99   10.10
  -9  -1  -9    6.50   10.30
  -9  -1  -9   12.30    7.10
   9  -1   9   13.80   10.10
  -9   1  -9    9.90    4.90
   9   1   9    8.40   12.50
  -9   1  -9   11.60    6.00
 -11  -2   9   47.60   10.50
 -11  -2   9   61.49   15.40
 -11   2   9   49.40   14.10
 -10  -2   9   74.79   13.90
 -10  -2   9   65.69   10.70
 -10   2   9   52.09   13.10
   9  -2  -9  874.51   35.90
  -9  -2   9  861.11   33.50
  -9   2   9  873.81   20.20
  -9   2   9  887.71   22.10
  -8  -2   9  106.19   14.30
   8  -2  -9  105.19   14.00
  -8   2   9  101.59    8.00
  -8   2   9  104.89   14.50
  -8   2   9  107.19    6.10
   7  -2  -9 2272.37   62.69
  -7  -2   9 2219.58   63.09
  -7  -2   9 2253.57   60.19
  -7   2   9 2335.17   58.59
  -7   2   9 2234.18   63.39
   6  -2  -9  307.17   18.90
  -6  -2   9  311.97   19.10
  -6   2   9  324.87   17.20
  -6   2   9  290.47   19.20
  -6   2   9  313.17   14.50
   5  -2  -9  456.45   22.00
  -5  -2   9  473.55   22.10
  -5   2   9  508.45   21.40
  -5   2   9  475.25   19.30
  -5   2   9  439.46   22.20
   4  -2  -9  913.31   32.40
  -4  -2   9  968.90   31.60
  -4   2   9  908.71   30.20
  -4   2   9  953.10   32.60
  -4   2   9 1026.70   32.40
   3  -2  -9  647.14   25.40
   3  -2  -9  654.03   24.30
  -3  -2   9  619.64   23.00
  -3   2   9  636.44   24.90
  -3   2   9  670.13   25.00
  -3   2   9  650.03   25.10
   2  -2  -9 1892.71   50.29
   2  -2  -9 1876.81   48.10
  -2  -2   9 1830.42   45.20
  -2   2   9 1786.72   49.00
  -2   2   9 1867.71   50.89
   2   2  -9 1808.42   40.70
   1  -2  -9 1795.02   48.60
   1  -2  -9 1781.62   48.70
   1  -2  -9 1730.13   45.80
  -1  -2   9 1730.33   41.40
  -1   2   9 1851.21   51.39
  -1   2   9 1824.72   47.80
   0  -2  -9  177.38   11.80
   0  -2  -9  185.18   12.80
   0  -2   9  176.78    7.90
   0  -2  -9  203.28   14.40
   0   2   9  185.88   15.00
   0   2   9  166.78   12.20
  -1  -2  -9 2217.18   56.59
  -1  -2  -9 2218.98   60.49
   1  -2   9 2175.58   42.90
   1  -2   9 2225.18   46.70
   1   2   9 2227.28   61.19
   1   2   9 2217.18   55.19
  -2  -2  -9  234.78   17.10
  -2  -2  -9  221.38   14.30
   2  -2   9  224.88   14.90
   2   2   9  219.38   14.10
   2   2   9  230.38   17.10
   3  -2   9   69.29   10.10
  -3  -2  -9   65.99   11.20
  -3  -2  -9   60.69    9.20
   3   2   9   62.29   11.40
   3   2   9   58.99    9.50
  -4  -2  -9  257.57   18.90
   4  -2   9  254.17   16.90
  -4  -2  -9  289.47   17.20
   4   2   9  260.77   17.20
   4   2   9  236.28   19.80
   5  -2   9  109.19   12.90
  -5  -2  -9  153.28   13.50
  -5  -2  -9  133.29   15.80
   5   2   9  120.99   13.30
   5   2   9  158.28   16.60
  -6  -2  -9  115.99   21.90
  -6  -2  -9  163.58   17.70
   6  -2   9  143.99   14.60
   6   2   9  131.59   17.10
   6   2   9  114.69   16.20
  -7  -2  -9 1185.78   45.90
  -7  -2  -9 1180.08   39.80
   7  -2   9 1186.98   40.10
   7   2   9 1105.19   43.30
   7   2   9 1208.18   46.20
   8  -2   9    6.40    8.20
  -8  -2  -9   16.20    9.90
  -8  -2  -9   11.50    7.70
   8   2   9   -3.60   12.80
 -10  -3   9  206.98   23.00
  10  -3  -9  246.48   22.90
 -10  -3   9  225.88   20.40
 -10   3   9  228.38   23.80
  -9  -3   9  636.94   32.70
  -9  -3   9  566.94   29.30
   9  -3  -9  663.83   32.00
  -9   3   9  657.03   33.30
  -8  -3   9   29.00   10.20
  -8  -3   9   28.90    8.60
   8  -3  -9   17.50    8.60
  -7  -3   9  640.74   30.50
  -7  -3   9  721.63   30.50
   7  -3  -9  686.73   30.30
  -7   3   9  644.24   30.90
  -7   3   9  700.93   29.20
   6  -3  -9  350.46   24.10
  -6  -3   9  341.77   20.70
  -6  -3   9  313.37   19.90
  -6   3   9  316.97   19.30
  -6   3   9  315.57   11.10
  -6   3   9  346.57   21.10
   5  -3  -9  263.27   18.00
  -5  -3   9  316.77   19.20
  -5  -3   9  306.47   10.00
  -5   3   9  278.07   17.80
  -5   3   9  248.98   24.00
   5   3  -9  292.87   17.00
  -5   3   9  278.27   12.70
   4  -3  -9 2549.74   65.99
  -4  -3   9 2449.75   62.99
   4  -3  -9 2523.35   66.49
  -4  -3   9 2537.15   54.69
  -4   3   9 2490.75   65.59
  -4   3   9 2452.55   58.49
   4   3  -9 2456.35   60.29
  -4   3   9 2513.35   65.29
   3  -3  -9   -2.40    4.40
   3  -3  -9    2.90    4.80
  -3  -3   9    6.30    4.50
  -3   3   9    5.90    5.00
   3   3  -9    1.60    3.50
  -3   3   9    3.70    4.40
  -3   3   9    0.70    4.60
  -2  -3   9  494.25   19.30
   2  -3  -9  489.35   22.90
   2  -3  -9  508.25   23.40
   2  -3  -9  500.55   21.60
  -2   3   9  493.05   22.90
  -2   3   9  480.35   22.30
  -2   3   9  474.15   22.60
   2   3  -9  513.25   18.30
   1  -3  -9  792.22   30.10
   1  -3  -9  790.82   29.80
   1  -3  -9  817.92   30.10
  -1  -3   9  776.42   23.80
  -1   3   9  771.42   30.00
  -1   3   9  821.92   31.20
  -1   3   9  834.12   30.40
   0  -3  -9   10.00    5.30
   0  -3   9   24.50    4.90
   0  -3  -9   25.80    7.60
   0  -3  -9   18.90    6.80
   0  -3   9   38.20    5.80
   0   3   9   25.30    7.40
   1  -3   9 1601.04   39.00
  -1  -3  -9 1544.85   46.40
  -1  -3  -9 1554.34   48.50
   1  -3   9 1502.55   30.70
   1  -3   9 1528.85   30.90
   1   3   9 1552.34   46.10
   1   3   9 1558.54   49.20
   2  -3   9  971.40   28.70
  -2  -3  -9  984.70   37.30
  -2  -3  -9 1007.10   35.20
   2   3   9  981.60   35.00
  -3  -3  -9   61.59   13.70
   3  -3   9   57.89    8.90
  -3  -3  -9   68.79   10.90
   3  -3   9   80.19    9.30
   3   3   9   61.79   12.40
   3   3   9   96.19   12.90
   4  -3   9 1139.99   37.30
  -4  -3  -9 1138.09   39.70
  -4  -3  -9 1201.98   44.60
   4   3   9 1126.89   46.60
  -5  -3  -9  397.26   22.20
  -5  -3  -9  339.67   24.90
   5  -3   9  343.27   19.70
   5   3   9  355.16   22.80
   6  -3   9  174.98   15.90
  -6  -3  -9  197.98   17.60
  -6  -3  -9  211.78   20.70
   6   3   9  214.98   22.70
   6   3   9  198.08   19.10
  -7  -3  -9  343.97   23.10
   7  -3   9  386.16   21.40
  -7  -3  -9  349.07   26.30
   7   3   9  277.87   29.40
   7   3   9  377.06   26.50
   8  -3   9  -14.20    8.50
  -8  -3  -9   -4.30   10.90
  -8  -3  -9    0.20    8.90
   8   3   9   -9.40   10.00
   8   3   9   13.90   16.60
  -9  -4   9  294.07   27.70
  -9  -4   9  276.27   26.60
   9  -4  -9  268.17   23.80
   9   4  -9  267.17   26.70
  -9   4   9  293.27   25.40
  -8  -4   9   30.60    9.90
  -8  -4   9   39.00   12.70
   8  -4  -9   23.10    9.50
  -8   4   9    4.50   10.00
   8   4  -9    9.70    9.80
   7  -4  -9  223.58   20.00
  -7  -4   9  198.48   19.00
  -7   4   9  200.58   18.40
   7   4  -9  216.18   19.80
  -7   4   9  226.18   21.00
  -6  -4   9  605.74   29.50
   6  -4  -9  651.33   29.50
  -6   4   9  585.94   28.70
   6   4  -9  527.25   40.50
  -5  -4   9   20.00    8.10
   5  -4  -9   10.10    7.10
  -5  -4   9   19.20    4.20
   5   4  -9   25.80    8.40
  -5   4   9   30.20    9.30
  -5   4   9   22.20    4.30
  -5   4   9   11.80    7.30
  -4  -4   9 1751.42   43.10
   4  -4  -9 1770.72   53.39
   4  -4  -9 1788.62   55.69
  -4  -4   9 1848.22   54.39
   4   4  -9 1781.02   49.60
  -4   4   9 1713.03   43.40
  -4   4   9 1767.32   53.69
  -4   4   9 1714.13   53.49
   3  -4  -9  311.57   21.30
   3  -4  -9  296.37   16.10
  -3  -4   9  290.37   15.20
   3  -4  -9  287.27   19.60
  -3   4   9  268.87   19.00
  -3   4   9  283.27   15.60
  -3   4   9  291.67   19.60
   3   4  -9  287.47   16.60
  -2  -4   9  799.82   28.30
   2  -4  -9  794.82   33.30
   2  -4  -9  794.02   29.50
   2  -4  -9  762.72   32.10
  -2   4   9  833.12   33.20
  -2   4   9  772.72   31.60
  -2   4   9  803.42   29.10
   1  -4  -9  438.26   22.60
   1  -4  -9  452.45   23.80
   1  -4  -9  435.76   24.10
  -1  -4   9  419.86   21.00
  -1   4   9  436.16   24.00
  -1   4   9  458.45   22.90
   0  -4   9   32.00    7.00
   0  -4  -9    9.10    6.40
   0  -4  -9   36.10    8.50
   0  -4   9   26.50    4.90
   0  -4  -9   24.60    7.70
   0   4   9   35.90    9.20
   0   4   9   21.90    8.40
  -1  -4  -9  954.40   36.20
   1  -4   9  898.71   22.30
  -1  -4  -9  927.01   40.30
   1  -4   9  953.00   22.20
   1  -4   9  935.61   30.50
   1   4   9  955.10   36.70
   1   4   9  979.20   37.90
   1   4   9  940.71   36.50
  -2  -4  -9  555.84   27.20
   2  -4   9  536.25   22.60
  -2  -4  -9  554.44   28.90
   2   4   9  540.15   27.60
   2   4   9  583.64   30.40
   2   4   9  543.75   27.50
  -3  -4  -9   18.50    8.90
  -3  -4  -9    1.60    7.60
   3  -4   9    6.80    6.10
   3   4   9    7.70    7.80
   3   4   9   16.90   10.70
   3   4   9   -0.90    6.20
   4  -4   9 1022.80   35.00
   4  -4   9 1019.20   35.50
  -4  -4  -9 1027.80   42.70
  -4  -4  -9 1124.19   41.30
   4   4   9 1043.60   44.20
   4   4   9 1042.20   41.40
   5  -4   9   92.09   11.70
  -5  -4  -9  117.99   16.50
  -5  -4  -9   97.79   15.30
   5   4   9  139.59   19.90
   5   4   9  148.19   19.20
   6  -4   9  134.99   16.10
  -6  -4  -9  140.69   18.80
  -6  -4  -9  172.48   19.30
   6   4   9  188.18   22.90
   6   4   9  206.98   24.80
   7  -5  -9  540.05   30.50
   7  -5  -9  568.74   35.60
  -7  -5   9  573.54   33.50
   7   5  -9  578.94   32.40
  -7   5   9  583.44   33.80
   6  -5  -9   52.69   12.50
  -6  -5   9   36.50   11.00
   6  -5  -9   34.70   12.70
   6   5  -9   44.60   11.20
  -6   5   9   61.09   13.10
  -6   5   9   30.40   12.30
  -5  -5   9  124.59   16.60
   5  -5  -9  106.89   15.40
   5  -5  -9  127.39   16.40
  -5   5   9  136.39   17.40
   5   5  -9  103.69   13.50
  -5   5   9  132.09   17.10
   4  -5  -9  118.09   15.90
  -4  -5   9  106.39   11.40
   4  -5  -9  117.59   18.40
  -4  -5   9   97.79   14.10
  -4   5   9  103.29   15.60
  -4   5   9   87.79    9.90
   4   5  -9   89.29   12.70
  -4   5   9   68.89   13.20
  -3  -5   9  117.19   13.10
  -3  -5   9  141.39   16.20
   3  -5  -9  125.39   15.30
   3  -5  -9  134.89   19.00
   3  -5  -9  111.79   13.00
  -3   5   9  109.29   14.90
  -3   5   9  123.39   12.20
   3   5  -9  127.49   14.40
  -2  -5   9   35.00   11.20
   2  -5  -9   41.50    9.10
   2  -5  -9   40.60   11.50
   2  -5  -9   60.59   12.20
  -2  -5   9   51.99   11.50
  -2   5   9   39.10    8.20
  -2   5   9   57.59   12.00
   1  -5  -9 1219.38   46.10
  -1  -5   9 1159.18   41.30
   1  -5  -9 1242.78   44.50
  -1  -5   9 1225.48   40.80
  -1  -5   9 1153.18   33.90
   1  -5  -9 1184.18   41.60
  -1   5   9 1237.48   41.00
  -1   5   9 1164.08   43.50
   0  -5  -9   37.70   12.50
   0  -5   9   38.00   11.00
   0  -5  -9   39.30   11.10
   0  -5   9   36.30    6.10
   0  -5  -9   15.20    8.00
   0   5   9   40.10   10.40
   0   5   9   32.90   10.30
   1  -5   9 1026.20   28.70
  -1  -5  -9  992.70   40.00
   1  -5   9 1005.50   35.60
   1  -5   9  988.40   39.20
  -1  -5  -9  979.90   40.40
   1  -5   9  988.20   25.90
   1   5   9 1005.80   40.10
  -2  -5  -9   85.69   14.60
  -2  -5  -9   88.39   14.30
   2  -5   9   99.49   16.20
   2   5   9   83.89   15.10
   2   5   9   81.69   14.80
   2   5   9   81.19   14.60
  -3  -5  -9   38.80   13.00
  -3  -5  -9   29.30   10.20
   3  -5   9   40.10   10.60
   3  -5   9   35.10   13.50
   3   5   9   30.40   14.50
   3   5   9   39.40   12.20
   3   5   9   35.90   11.20
   4  -5   9   42.60   16.20
   4  -5   9   48.10   10.40
  -4  -5  -9   51.19   14.50
   4  -5   9   70.69   12.70
   4   5   9   48.20   13.20
   4   5   9   54.49   17.00
   4   5   9   56.59   14.60
   3  -6  -9   13.80   12.70
  -3  -6   9    0.80    8.80
  -3   6   9    1.60   11.30
   2  -6  -9  321.17   31.50
   2  -6  -9  366.96   24.10
  -2  -6   9  328.47   23.60
  -2  -6   9  358.46   20.20
   2  -6  -9  380.26   38.90
  -2  -6   9  374.26   26.50
  -2   6   9  330.07   31.90
  -2   6   9  369.66   22.00
   1  -6  -9   24.10   15.00
   1  -6  -9   10.70   10.20
  -1  -6   9   27.00    8.00
  -1  -6   9   10.20   11.90
  -1  -6   9   16.70   10.10
  -1   6   9    5.10   11.10
   0  -6  -9   -9.40   10.80
   0  -6   9    2.50    6.00
   0  -6  -9    1.40   10.00
   0  -6  -9    6.20   14.70
   0  -6   9    9.70    9.30
   0  -6   9   17.60   11.50
   0   6   9    5.50   12.40
   0   6   9    2.90   10.80
 -12   0  10  669.23   26.60
 -12   0  10  713.63   38.20
 -11   0  10    2.30    5.10
 -11   0  10   -2.20   10.80
 -10   0  10  185.58   13.70
 -10   0  10  243.28   21.50
  -9   0  10    8.50    4.60
  -8   0  10  454.75   19.30
  -7   0  10    3.80    3.00
  -6   0  10 2157.68   58.09
   6   0 -10 2035.00   57.79
  -6   0  10 2137.19   48.50
  -5   0  10   -0.10    2.50
  -5   0  10    3.80    4.40
   5   0 -10    3.40    4.70
   4   0 -10 2039.80   54.19
  -4   0  10 2028.00   52.79
  -3   0  10    3.30    3.50
   3   0 -10   -0.20    3.20
   2   0 -10  414.16   18.20
  -2   0  10  434.76   17.60
  -1   0  10   12.70    5.00
  -1   0  10    2.00    2.60
   1   0 -10    2.70    3.00
   0   0  10 1591.14   39.30
   0   0 -10 1649.44   41.30
   0   0  10 1582.14   46.00
   1   0  10   -5.30    3.60
  -1   0 -10   -2.90    2.50
   1   0  10    3.40    2.00
   1   0  10    1.40    2.40
   2   0  10 3870.21   91.49
   2   0  10 3876.61   79.39
  -2   0 -10 3857.51   82.19
   3   0  10   -2.20    4.90
  -3   0 -10    2.20    3.00
  -4   0 -10 1959.70   47.50
  -4   0 -10 1977.90   59.39
   4   0  10 2076.99   58.39
   5   0  10   -6.50    6.40
  -5   0 -10    2.50    3.40
  -5   0 -10   -4.20    6.20
  -6   0 -10   13.80    8.70
  -6   0 -10   32.70    5.80
   6   0  10   12.00    8.50
   7   0  10   -2.00    7.60
  -7   0 -10   -0.10    4.20
  -7   0 -10   -0.10    8.10
  -8   0 -10  313.57   16.20
   8   0  10  256.87   23.30
  -8   0 -10  304.07   24.20
  -9   0 -10    3.00   10.10
   9   0  10   -9.40   11.10
  -9   0 -10    3.90    6.10
 -11  -1  10  536.45   32.50
 -11  -1  10  530.95   24.70
 -11   1  10  549.54   32.70
 -11   1  10  512.35   19.40
 -10  -1  10   51.89    9.50
 -10  -1  10   77.59   14.20
 -10   1  10   67.59    8.10
 -10   1  10   46.60   12.20
  -9  -1  10  832.52   30.30
  -9   1  10  825.12   25.10
  -8  -1  10   17.20    5.50
   8  -1 -10   -1.50    6.40
  -8   1  10   21.80    8.10
  -8   1  10   19.60    4.40
   7  -1 -10  722.13   30.80
  -7  -1  10  736.83   31.50
  -7   1  10  671.83   34.10
  -7   1  10  730.13   24.70
  -6  -1  10   46.40    4.40
   6  -1 -10   42.40    8.30
  -6  -1  10   50.59    9.30
  -6   1  10   46.70    7.00
  -6   1  10   46.10    8.50
   5  -1 -10   33.60    7.20
  -5  -1  10   46.70    8.40
  -5   1  10   41.00    8.10
  -5   1  10   39.40    6.50
   4  -1 -10  227.58   14.80
  -4  -1  10  264.67   15.10
  -4   1  10  259.67   15.30
  -4   1  10  276.17   15.20
  -4   1  10  240.58   13.70
   3  -1 -10 2819.32   68.29
  -3  -1  10 2840.62   65.69
  -3   1  10 2808.82   68.19
  -3   1  10 2924.11   68.39
   3   1 -10 2706.63   67.19
   2  -1 -10    0.90    3.40
   2  -1 -10    6.30    3.40
  -2  -1  10    4.90    3.00
  -2   1  10    0.80    3.20
   2   1 -10    2.20    3.30
  -2   1  10    1.40    3.80
   1  -1 -10 5728.53  118.89
   1  -1 -10 5506.05  112.39
  -1  -1  10 5579.04  112.99
  -1   1  10 5591.84  122.69
  -1   1  10 5647.64  117.29
   1   1 -10 5617.94  115.79
   0  -1 -10   66.19    7.60
   0  -1  10   55.69    5.30
   0   1 -10   61.29    6.80
   0   1  10   55.59    9.00
   0   1  10   65.69    7.50
  -1  -1 -10  998.80   30.90
   1  -1  10 1027.60   34.40
   1  -1  10  994.10   24.40
  -1  -1 -10  943.21   35.10
   1   1  10 1053.69   28.50
   1   1  10 1042.00   36.50
   1   1  10 1024.10   30.20
  -1   1 -10 1007.50   26.50
  -2  -1 -10   50.79    9.60
  -2  -1 -10   72.29    8.60
   2  -1  10   64.29    9.50
   2   1  10   68.89    7.60
  -2   1 -10   78.69    5.80
   2   1  10   46.40    9.20
  -3  -1 -10  260.17   14.20
   3  -1  10  267.17   17.60
  -3  -1 -10  234.78   17.70
   3   1  10  245.98   13.90
  -3   1 -10  254.07    9.60
   3   1  10  247.18   18.00
  -4  -1 -10   51.69    7.70
   4  -1  10   56.79    9.50
  -4  -1 -10   67.19   11.70
  -4   1 -10   49.70    4.80
   4   1  10   74.09   10.20
  -5  -1 -10 1975.70   51.39
  -5  -1 -10 1980.90   69.19
   5  -1  10 2013.80   56.79
  -5   1 -10 1904.01   42.40
   5   1  10 2011.30   59.59
  -6  -1 -10   24.70    6.60
   6  -1  10   28.70    8.40
  -6  -1 -10   30.50   10.00
   6   1  10   14.00    9.70
  -6   1 -10   27.00    4.10
   7  -1  10  847.12   34.60
  -7  -1 -10  899.01   39.30
  -7  -1 -10  910.51   31.60
  -7   1 -10  901.61   25.10
   7   1  10  963.80   38.80
   8  -1  10   -1.40    9.00
  -8  -1 -10   -1.20    9.40
  -8  -1 -10    7.00    7.30
   8   1  10   12.30   12.10
  -8   1 -10    8.20    5.10
  -8   1 -10    2.30    3.80
 -11  -2  10   78.79   17.10
 -11  -2  10  101.29   14.30
 -10  -2  10   11.50   10.60
 -10  -2  10    9.80    7.70
 -10   2  10   12.90    2.70
 -10   2  10   15.30   11.20
 -10   2  10   18.50    4.00
  -9  -2  10  313.57   19.90
  -9  -2  10  309.07   22.50
   9  -2 -10  270.17   21.10
  -9   2  10  204.18   21.10
  -9   2  10  273.57   10.20
   8  -2 -10  236.88   19.40
  -8  -2  10  254.57   19.50
  -8  -2  10  276.27   18.20
  -8   2  10  239.38   19.90
  -8   2  10  251.87   16.20
  -8   2  10  223.18   12.50
  -7  -2  10   63.19   11.60
  -7  -2  10   80.69   11.20
  -7   2  10   64.19    8.30
  -7   2  10   69.89    9.50
  -7   2  10   53.29    9.90
   6  -2 -10 2084.99   58.59
  -6  -2  10 2055.99   58.39
  -6   2  10 2032.40   52.19
  -6   2  10 2207.88   55.89
   5  -2 -10   62.59   10.20
  -5  -2  10   70.09    9.90
  -5   2  10   73.39    9.90
  -5   2  10   76.39   10.90
  -5   2  10   45.40    7.60
   4  -2 -10 1649.13   48.50
  -4  -2  10 1730.23   46.90
  -4   2  10 1687.13   47.00
  -4   2  10 1657.83   48.10
  -4   2  10 1708.83   47.10
  -3  -2  10  743.33   25.90
   3  -2 -10  777.12   27.30
   3  -2 -10  788.42   29.40
  -3   2  10  793.82   28.50
  -3   2  10  812.72   29.00
  -3   2  10  752.62   29.00
   3   2 -10  756.92   22.10
  -2  -2  10   -0.80    2.90
   2  -2 -10    2.80    3.80
   2  -2 -10    0.20    4.10
  -2   2  10    3.10    4.10
  -2   2  10    1.30    4.60
   2   2 -10    1.50    2.10
   1  -2 -10  391.86   19.70
  -1  -2  10  344.97   13.70
   1  -2 -10  344.67   18.30
   1  -2 -10  359.76   16.80
  -1   2  10  347.27   17.90
  -1   2  10  400.66   21.50
   0  -2 -10 1231.58   40.50
   0  -2 -10 1231.88   38.20
   0  -2 -10 1291.57   36.60
   0  -2  10 1248.18   29.30
   0   2  10 1271.27   42.40
   0   2  10 1267.97   37.90
  -1  -2 -10  261.97   15.50
   1  -2  10  270.17    7.60
  -1  -2 -10  262.27   17.80
   1  -2  10  257.47    8.80
   1   2  10  275.17   15.10
   1   2  10  278.47   19.20
  -2  -2 -10 3008.20   72.19
  -2  -2 -10 2942.31   77.49
   2  -2  10 2914.11   72.99
   2   2  10 3016.40   70.99
   2   2  10 2908.01   77.59
  -3  -2 -10   -3.20    5.80
   3  -2  10    6.40    5.30
  -3  -2 -10   -3.80    4.20
   3   2  10    3.90    4.70
   3   2  10    9.60    6.60
   4  -2  10 1248.88   41.50
  -4  -2 -10 1339.57   41.40
  -4  -2 -10 1383.86   48.00
   4   2  10 1336.57   42.00
   5  -2  10  429.56   23.20
  -5  -2 -10  504.45   23.60
  -5  -2 -10  490.35   28.30
   5   2  10  463.45   23.90
   5   2  10  504.95   28.60
  -6  -2 -10   30.70    7.80
  -6  -2 -10   37.60   11.30
   6   2  10   29.40   10.90
   6   2  10   38.30   10.00
  -7  -2 -10  166.78   15.90
  -7  -2 -10  119.09   16.70
   7  -2  10  140.49   15.00
   7   2  10  154.68   18.00
   7   2  10  158.48   18.60
   8  -2  10  327.97   22.40
  -8  -2 -10  317.07   26.40
  -8  -2 -10  346.07   22.10
   8   2  10  297.97   27.80
   8   2  10  363.76   26.30
 -10  -3  10   18.10   11.90
 -10  -3  10   35.40   10.10
  10  -3 -10    2.50   10.40
 -10   3  10    6.10   11.60
  -9  -3  10  529.95   27.80
  -9  -3  10  493.65   30.80
   9  -3 -10  520.45   29.40
  -9   3  10  547.35   31.50
  -8  -3  10  175.28   19.60
  -8  -3  10  180.08   17.40
   8  -3 -10  198.98   19.10
  -8   3  10  161.68   18.90
   7  -3 -10  427.06   24.00
  -7  -3  10  443.06   25.70
  -7  -3  10  461.45   24.60
  -7   3  10  400.66   12.20
  -7   3  10  457.85   23.40
   6  -3 -10  599.44   27.90
  -6  -3  10  599.64   27.70
  -6  -3  10  591.14   27.80
  -6   3  10  585.24   18.80
  -6   3  10  555.14   27.90
  -5  -3  10  201.98    9.10
   5  -3 -10  191.68   18.70
  -5  -3  10  202.68   16.00
  -5   3  10  194.48   16.70
  -5   3  10  226.98   16.20
   5   3 -10  194.48   14.10
  -5   3  10  211.18   12.50
   4  -3 -10  618.24   28.10
  -4  -3  10  700.43   27.20
   4  -3 -10  650.03   28.40
  -4   3  10  678.63   25.00
  -4   3  10  695.13   28.50
   4   3 -10  650.73   23.80
  -4   3  10  691.43   29.10
   3  -3 -10  281.87   18.10
   3  -3 -10  302.57   18.50
  -3  -3  10  283.47   15.90
  -3   3  10  290.47   18.30
  -3   3  10  255.27   27.90
   3   3 -10  306.07   14.20
  -3   3  10  313.97   17.90
   2  -3 -10    5.10    4.90
  -2  -3  10    0.60    3.50
   2  -3 -10   -4.40    4.60
   2  -3 -10    7.50    5.00
  -2   3  10    7.80    5.90
  -2   3  10    5.70    5.20
   2   3 -10    3.70    3.30
  -2   3  10    4.20    6.10
  -1  -3  10 2618.04   58.39
   1  -3 -10 2624.24   66.79
   1  -3 -10 2632.94   67.69
   1  -3 -10 2677.43   68.49
  -1   3  10 2641.04   68.69
  -1   3  10 2599.74   68.39
  -1   3  10 2556.04   69.09
   0  -3 -10  529.95   24.30
   0  -3 -10  482.35   24.60
   0  -3 -10  534.75   24.00
   0  -3  10  506.15   16.70
   0   3  10  524.55   26.60
   1  -3  10  369.16   14.40
  -1  -3 -10  366.76   20.50
  -1  -3 -10  371.76   22.40
   1   3  10  335.17   22.70
   1   3  10  387.66   20.60
  -2  -3 -10 1258.17   41.80
  -2  -3 -10 1274.27   46.40
   2  -3  10 1254.27   33.30
   2   3  10 1242.98   45.60
   2   3  10 1280.07   41.50
   3  -3  10  122.19   10.20
  -3  -3 -10  148.69   16.70
  -3  -3 -10  131.89   13.90
   3  -3  10  110.19   13.00
   3   3  10  111.99   14.00
   3   3  10  109.99   14.70
  -4  -3 -10  579.24   30.70
   4  -3  10  522.15   24.80
  -4  -3 -10  559.64   27.20
   4   3  10  599.14   30.70
  -5  -3 -10  580.74   32.30
  -5  -3 -10  633.84   29.00
   5  -3  10  608.74   27.10
   5   3  10  617.64   30.20
  -6  -3 -10   24.80    9.50
  -6  -3 -10   15.10   10.30
   6   3  10   20.30   10.10
   6   3  10   33.80   12.40
  -7  -3 -10  473.15   26.90
  -7  -3 -10  510.15   32.10
   7  -3  10  461.55   24.90
   7   3  10  436.96   33.50
   7   3  10  475.65   30.00
  -9  -4  10  560.34   33.40
  -9  -4  10  617.54   42.80
   9  -4 -10  622.44   33.40
   9   4 -10  517.75   33.60
   8  -4 -10   41.80   11.40
  -8  -4  10   84.39   15.10
  -8  -4  10   61.09   12.70
  -8   4  10   68.39   14.10
   8   4 -10   42.40   11.70
  -7  -4  10  321.87   24.20
  -7  -4  10  331.57   23.80
   7  -4 -10  298.17   21.60
   7   4 -10  321.67   22.40
  -7   4  10  318.87   24.80
  -7   4  10  307.67   22.50
   6  -4 -10  531.65   27.40
  -6  -4  10  499.35   27.30
  -6  -4  10  487.85   27.00
   6  -4 -10  463.35   28.20
  -6   4  10  492.65   28.20
   6   4 -10  482.35   25.40
  -6   4  10  455.65   25.90
   5  -4 -10  123.59   15.00
  -5  -4  10  102.29    8.10
  -5  -4  10  119.19   14.30
  -5  -4  10  129.29   15.20
  -5   4  10  111.39   14.40
  -5   4  10  136.49    9.20
   5   4 -10  121.59   13.50
  -4  -4  10  586.34   26.10
  -4  -4  10  547.45   20.20
   4  -4 -10  550.14   27.60
  -4  -4  10  575.44   27.60
   4  -4 -10  456.35   40.70
   4   4 -10  553.84   23.80
  -4   4  10  600.24   21.60
  -4   4  10  591.54   28.30
   3  -4 -10  838.22   29.40
  -3  -4  10  801.52   27.20
   3  -4 -10  807.62   34.50
   3  -4 -10  837.72   33.90
  -3  -4  10  849.52   29.80
  -3   4  10  804.62   40.70
  -3   4  10  818.12   29.00
  -3   4  10  782.82   32.90
   3   4 -10  783.42   28.00
   2  -4 -10   -2.20    7.60
  -2  -4  10    1.00    4.80
   2  -4 -10   10.20    5.60
   2  -4 -10   -0.50    5.90
  -2  -4  10    9.40    5.60
  -2   4  10   -4.00    6.30
  -2   4  10   10.50    7.70
  -2   4  10    6.40    5.60
   1  -4 -10  986.10   37.50
   1  -4 -10  975.20   37.30
   1  -4 -10  952.20   35.90
  -1  -4  10  942.71   28.60
  -1   4  10 1011.20   36.90
  -1   4  10  979.20   37.80
   0  -4  10  100.89    8.00
   0  -4 -10  109.39   14.30
   0  -4 -10  147.69   15.90
   0  -4 -10  126.19   15.10
   0   4  10  126.09   15.40
   0   4  10   99.39   13.90
   1  -4  10  229.18    7.10
  -1  -4 -10  268.37   20.00
   1  -4  10  222.98   14.20
   1  -4  10  232.58    7.00
  -1  -4 -10  240.68   18.40
   1   4  10  232.58   18.40
   1   4  10  213.98   20.50
   1   4  10  252.57   20.10
   2  -4  10  485.05   20.70
  -2  -4 -10  457.05   25.40
  -2  -4 -10  452.55   26.90
   2   4  10  452.25   25.50
   2   4  10  494.95   27.50
  -3  -4 -10   20.50    8.50
  -3  -4 -10   23.30   10.20
   3  -4  10   35.60    8.00
   3   4  10    8.40   10.00
   3   4  10   19.60    9.80
  -4  -4 -10  169.28   20.20
   4  -4  10  118.89   17.40
   4  -4  10  117.39   13.80
  -4  -4 -10  139.69   16.90
   4   4  10  135.49   18.60
   4   4  10  121.59   19.00
  -5  -4 -10  241.18   21.60
  -5  -4 -10  252.97   24.90
   5  -4  10  223.98   19.50
   5  -4  10  221.88   21.90
   5   4  10  220.58   22.40
   5   4  10  221.18   24.50
  -6  -4 -10   21.70   12.30
   6  -4  10   29.40   10.10
  -6  -4 -10   20.60   11.50
   6   4  10   25.40   13.10
   6   4  10   12.60   15.20
   7  -5 -10   49.80   13.90
  -7  -5  10   51.49   12.90
   7  -5 -10   49.10   15.60
  -7   5  10   73.19   17.30
   7   5 -10   78.29   14.20
  -6  -5  10  598.24   34.00
   6  -5 -10  662.83   33.30
   6  -5 -10  619.74   35.90
  -6   5  10  612.44   33.20
   6   5 -10  615.64   30.10
  -6   5  10  653.13   35.10
  -5  -5  10   48.30   12.70
   5  -5 -10   40.60   11.90
  -5  -5  10   43.60    7.20
  -5   5  10   24.20   12.20
   5   5 -10   49.90   10.80
  -5   5  10   34.70    5.80
  -5   5  10   69.99   14.10
   4  -5 -10  447.26   26.60
  -4  -5  10  418.26   27.10
  -4  -5  10  453.85   20.10
   4  -5 -10  464.95   29.60
  -4   5  10  463.15   27.40
  -4   5  10  445.26   27.50
  -4   5  10  482.65   19.70
   4   5 -10  525.75   29.80
   3  -5 -10  121.89   14.00
   3  -5 -10  119.09   17.10
  -3  -5  10  122.89   13.10
   3  -5 -10  121.59   16.50
  -3  -5  10  141.59   17.30
  -3   5  10  114.59   13.10
  -3   5  10  108.99   16.20
   2  -5 -10   29.80   10.10
   2  -5 -10   63.09   11.20
  -2  -5  10   55.09   10.00
   2  -5 -10   58.59   12.30
  -2  -5  10   49.20   11.00
  -2   5  10   67.19   12.70
  -1  -5  10  122.19   10.80
   1  -5 -10  101.99   15.70
   1  -5 -10  119.89   14.40
  -1  -5  10  130.89   14.80
  -1  -5  10  131.89   12.00
   1  -5 -10  134.69   16.50
  -1   5  10  149.39   17.10
  -1   5  10  105.19   15.50
   0  -5  10  312.57   14.60
   0  -5  10  328.17   13.90
   0  -5  10  299.77   22.00
   0  -5 -10  299.77   22.80
   0  -5 -10  348.57   24.40
   0  -5 -10  317.17   24.60
   0   5  10  302.17   22.70
  -1  -5 -10   -1.50    8.60
   1  -5  10    4.50    4.00
   1  -5  10    7.70    9.60
   1  -5  10   -5.60    7.00
   1  -5  10    2.90    3.00
  -1  -5 -10    1.50    9.00
   1   5  10    1.20   10.50
   1   5  10    1.20    9.20
  -2  -5 -10  923.31   41.00
   2  -5  10  747.43   37.80
   2  -5  10  952.00   34.20
  -2  -5 -10  910.41   39.20
   2   5  10  938.11   42.20
   2   5  10  935.41   40.50
   2   5  10  938.51   40.20
   3  -5  10    3.10    8.70
   3  -5  10    1.30   12.40
  -3  -5 -10   -5.80   11.00
  -3  -5 -10    3.00   10.10
   3   5  10   13.70   11.20
   3   5  10  -10.30   16.80
   3   5  10   -4.40    9.90
  -4  -5 -10  385.56   27.10
  -4  -5 -10  364.36   34.90
   4  -5  10  348.07   23.50
   4  -5  10  390.46   24.10
   4   5  10  404.06   29.80
   4   5  10  410.76   33.30
   4   5  10  394.06   35.40
 -11   0  11  912.81   31.20
 -11   0  11  925.01   45.80
 -10   0  11    0.00    4.90
 -10   0  11    9.60    9.20
  -9   0  11 1011.50   32.10
  -7   0  11   12.40    7.00
  -7   0  11    6.80    3.50
  -6   0  11   -1.50    3.00
  -6   0  11    2.40    5.20
   6   0 -11   -8.80    4.60
   5   0 -11 3938.41   92.09
  -5   0  11 3813.82   89.99
  -4   0  11    0.70    3.70
   4   0 -11   -3.10    4.20
  -3   0  11 2988.20   69.89
   3   0 -11 2963.50   71.59
   2   0 -11   -7.10    3.00
   2   0 -11    1.10    1.90
  -2   0  11    2.00    3.40
  -1   0  11  681.73   22.80
   1   0 -11  706.03   24.50
  -1   0  11  703.13   27.50
   0   0 -11    0.90    3.10
   0   0  11    9.10    3.50
   0   0  11    2.50    4.40
   1   0  11   39.10    5.70
   1   0  11   47.00    4.20
   1   0  11   32.20    7.50
  -1   0 -11   42.30    6.30
   2   0  11    2.30    5.70
   2   0  11   -0.40    2.60
  -2   0 -11    4.90    3.20
  -3   0 -11 1195.58   33.00
   3   0  11 1242.38   42.10
  -4   0 -11    2.70    3.30
   4   0  11    1.20    7.40
   5   0  11 2855.41   75.79
  -5   0 -11 2813.52   64.19
  -6   0 -11    2.80    4.10
   6   0  11   -4.80    7.90
   7   0  11  291.17   22.80
  -7   0 -11  321.07   16.00
  -8   0 -11    2.40    5.50
   8   0  11  -17.40   11.30
 -11  -1  11   64.89   14.10
 -11  -1  11   48.80    9.80
 -11   1  11   70.69   18.00
 -11   1  11   48.70    7.00
 -10  -1  11  162.58   15.30
 -10  -1  11  159.58   18.60
 -10   1  11  176.68   11.60
 -10   1  11  178.58   20.20
  -9  -1  11    5.90    5.60
  -9   1  11    1.00    8.30
  -9   1  11   17.40    4.60
  -8  -1  11 1384.06   41.90
   8  -1 -11 1367.56   46.60
  -8   1  11 1388.06   38.60
  -7  -1  11    6.60    6.30
  -7  -1  11    3.60    2.30
   7  -1 -11    6.90    7.30
  -7   1  11    1.00    6.00
  -7   1  11    6.70    4.40
  -6  -1  11 2429.26   64.19
   6  -1 -11 2426.16   65.19
  -6  -1  11 2353.16   51.29
  -6   1  11 2425.46   58.29
  -6   1  11 2378.26   64.39
   5  -1 -11   38.80    7.90
  -5  -1  11   62.49    9.30
  -5   1  11   57.09    8.10
  -5   1  11   70.69   10.00
   4  -1 -11 1148.79   37.60
  -4  -1  11 1165.48   36.00
  -4   1  11 1179.38   37.30
  -4   1  11 1179.08   36.70
   3  -1 -11  334.17   18.10
  -3  -1  11  349.07   16.70
  -3   1  11  339.37   17.60
  -3   1  11  366.66   19.20
   3   1 -11  343.77   17.90
   2  -1 -11  546.85   18.70
   2  -1 -11  570.14   23.30
  -2  -1  11  536.65   20.00
  -2   1  11  549.65   22.00
   2   1 -11  571.34   22.40
  -2   1  11  570.24   24.60
  -1  -1  11   31.70    5.10
   1  -1 -11   56.09    6.70
   1  -1 -11   48.50    7.80
   1   1 -11   45.40    6.40
  -1   1  11   37.70    7.90
  -1   1  11   43.50    6.80
   0  -1 -11 3083.39   70.99
   0  -1  11 2928.41   63.69
   0  -1  11 2947.61   73.99
   0   1  11 3036.90   76.49
   0   1  11 3044.10   69.49
   0   1 -11 3021.00   67.59
   1  -1  11    3.10    4.90
  -1  -1 -11    3.20    3.70
   1  -1  11    0.60    3.50
  -1  -1 -11    0.40    4.90
  -1   1 -11   -3.00    2.60
   1   1  11    1.40    3.40
   1   1  11    0.60    4.90
   1   1  11    3.20    3.10
   2  -1  11 2047.70   56.99
  -2  -1 -11 2015.10   59.29
  -2  -1 -11 2062.49   51.89
   2   1  11 1979.50   48.90
  -2   1 -11 1965.90   45.10
   2   1  11 2061.59   59.39
   3  -1  11  508.25   25.20
  -3  -1 -11  544.95   21.80
  -3  -1 -11  526.35   26.90
   3   1  11  514.05   20.70
  -3   1 -11  535.25   16.10
  -4  -1 -11   25.00    6.20
   4  -1  11   15.50    7.10
   4   1  11   22.70    6.20
   4   1  11   27.50    8.90
  -4   1 -11   34.00    4.20
  -5  -1 -11    8.80    6.90
  -5  -1 -11   10.60    5.10
   5  -1  11   12.20    7.90
   5   1  11    1.50    8.20
   5   1  11    8.40    6.20
  -5   1 -11    8.10    3.00
   6  -1  11  156.58   17.40
  -6  -1 -11  164.08   13.60
  -6  -1 -11  150.58   18.40
   6   1  11  170.28   19.80
  -6   1 -11  156.68    8.30
  -7  -1 -11   19.20    7.00
   7  -1  11   21.50    9.50
  -7  -1 -11   -2.60    8.50
   7   1  11   13.30   10.80
  -7   1 -11   12.40    6.90
  -8  -1 -11  907.41   40.70
  -8  -1 -11  847.62   31.40
   8  -1  11  809.12   36.30
  -8   1 -11  870.71   24.10
  -8   1 -11  837.42   29.60
 -11  -2  11  546.65   28.40
 -11  -2  11  553.14   34.70
 -11   2  11  585.04   34.50
  10  -2 -11   40.10   11.50
 -10  -2  11    7.20    7.70
 -10   2  11   27.00   12.00
 -10   2  11   22.80    4.40
  -9  -2  11 1053.29   42.70
   9  -2 -11 1073.69   42.10
  -9  -2  11 1109.59   38.90
  -9   2  11 1110.69   43.40
  -9   2  11 1087.79   27.60
  -9   2  11 1006.40   30.00
   8  -2 -11  373.66   23.50
  -8  -2  11  350.06   23.20
  -8  -2  11  393.06   22.10
  -8   2  11  418.66   20.30
  -8   2  11  324.27   16.50
  -7  -2  11    6.60    6.80
   7  -2 -11   -8.00    5.90
  -7   2  11    3.00    4.80
  -7   2  11    6.30    4.80
  -7   2  11   -8.20    6.00
   6  -2 -11  682.93   30.00
  -6  -2  11  546.25   41.20
  -6   2  11  674.33   26.30
  -6   2  11  605.24   28.60
  -6   2  11  609.74   24.60
   5  -2 -11  864.91   33.10
  -5  -2  11  852.21   31.50
  -5   2  11  854.41   38.30
  -5   2  11  810.32   29.80
  -5   2  11  863.51   30.70
   4  -2 -11    9.60    5.40
  -4  -2  11   17.10    5.60
  -4   2  11   15.10    6.30
  -4   2  11   10.50    5.70
  -4   2  11   20.20    6.40
   3  -2 -11 1950.70   55.39
  -3  -2  11 2028.80   51.39
   3  -2 -11 2011.70   52.39
  -3   2  11 2107.49   55.19
  -3   2  11 2061.69   56.79
   3   2 -11 1993.90   44.80
  -3   2  11 2032.70   54.99
   2  -2 -11   14.40    5.00
   2  -2 -11    6.70    4.90
  -2  -2  11   12.50    4.30
  -2   2  11    0.90    5.60
  -2   2  11    5.30    4.70
   1  -2 -11 1641.34   46.70
   1  -2 -11 1564.74   42.70
   1  -2 -11 1572.24   47.10
  -1  -2  11 1569.44   38.40
  -1   2  11 1639.94   50.09
  -1   2  11 1553.94   44.70
   0  -2 -11  263.77   17.70
   0  -2 -11  260.87   14.60
   0  -2  11  231.18   10.80
   0  -2 -11  264.17   16.40
   0   2  11  216.68   17.60
   0   2  11  241.88   15.30
  -1  -2 -11    9.20    5.00
   1  -2  11    4.40    1.70
  -1  -2 -11    4.80    5.70
   1   2  11    1.40    6.50
   1   2  11   11.80    4.80
  -2  -2 -11  336.47   18.90
   2  -2  11  343.87   11.60
  -2  -2 -11  342.47   21.90
   2  -2  11  355.86   20.70
   2   2  11  349.57   35.70
   2   2  11  357.26   18.20
  -3  -2 -11  320.47   29.40
   3  -2  11  384.26   21.50
  -3  -2 -11  330.47   18.90
   3   2  11  346.77   18.70
  -4  -2 -11   64.79   11.80
  -4  -2 -11   53.99    9.20
   4  -2  11   49.60    9.90
   4   2  11   47.40    8.80
  -5  -2 -11 1547.75   53.09
  -5  -2 -11 1213.08   59.69
   5  -2  11 1497.35   47.00
   5   2  11 1419.56   50.99
   5   2  11 1453.45   46.20
  -6  -2 -11  200.88   21.10
  -6  -2 -11  173.48   15.80
   6  -2  11  164.08   17.90
   6   2  11  143.19   18.20
   6   2  11  182.08   17.80
  -7  -2 -11  228.98   18.40
  -7  -2 -11  186.68   21.90
   7  -2  11  170.98   19.30
   7   2  11  211.38   20.70
   7   2  11  162.58   29.60
 -10  -3  11    8.40   12.10
 -10  -3  11   22.50    9.90
  10  -3 -11   22.20   12.10
 -10   3  11    1.50   11.80
  -9  -3  11  181.58   20.80
  -9  -3  11  178.98   19.30
   9  -3 -11  194.48   20.70
  -9   3  11  201.58   22.20
  -8  -3  11  529.55   29.30
  -8  -3  11  526.85   27.50
   8  -3 -11  562.54   29.70
  -8   3  11  495.35   12.10
  -8   3  11  516.65   26.10
  -8   3  11  543.65   29.70
  -7  -3  11   15.90    8.60
   7  -3 -11   40.70   10.40
  -7  -3  11   17.60    7.60
  -7   3  11   20.20    4.60
  -7   3  11   23.00    7.70
  -6  -3  11 1107.09   39.80
   6  -3 -11 1120.09   40.80
   6   3 -11 1133.89   37.40
  -6   3  11 1154.78   39.50
  -6   3  11 1083.59   31.40
  -6   3  11 1132.09   48.50
   5  -3 -11   63.59   11.00
  -5  -3  11   81.79   11.00
  -5  -3  11   82.39    7.00
   5   3 -11   83.69   10.20
  -5   3  11   49.60   10.10
  -5   3  11   73.19   18.80
  -5   3  11   90.79   10.40
  -4  -3  11  149.19   13.00
   4  -3 -11  148.69   14.90
  -4   3  11  143.09   13.20
   4   3 -11  133.69   10.90
  -4   3  11  152.78   15.60
  -4   3  11  136.39   14.10
  -3  -3  11 1404.26   40.10
   3  -3 -11 1390.76   44.90
   3  -3 -11 1414.96   44.30
  -3   3  11 1313.27   43.60
  -3   3  11 1382.56   43.60
  -3   3  11 1405.56   44.50
   3   3 -11 1430.26   36.40
   2  -3 -11  247.58   16.20
  -2  -3  11  227.38   13.10
   2  -3 -11  212.78   16.10
   2  -3 -11  219.18   15.80
  -2   3  11  265.87   17.70
  -2   3  11  217.18   17.60
  -2   3  11  236.58   16.80
   1  -3 -11  769.22   30.90
   1  -3 -11  750.32   29.40
   1  -3 -11  761.82   31.00
  -1  -3  11  747.43   22.80
  -1   3  11  755.62   32.50
  -1   3  11  782.32   30.40
  -1   3  11  735.83   30.50
   0  -3  11 1037.40   25.80
   0  -3 -11  999.40   37.70
   0  -3 -11 1088.09   37.70
   0  -3 -11 1034.50   35.80
   0   3  11 1046.50   40.10
  -1  -3 -11    1.80    6.20
  -1  -3 -11    4.10    7.60
   1  -3  11   11.80    3.90
   1   3  11    3.60    7.50
   1   3  11    3.70    5.70
  -2  -3 -11  985.50   36.20
  -2  -3 -11  947.91   38.60
   2  -3  11  937.71   26.50
   2   3  11 1054.79   41.70
   2   3  11  926.21   34.70
  -3  -3 -11  624.44   31.10
   3  -3  11  524.95   19.80
   3  -3  11  592.24   39.70
  -3  -3 -11  527.85   26.20
   3   3  11  534.35   26.00
  -4  -3 -11  138.29   15.40
  -4  -3 -11  126.79   16.40
   4  -3  11  154.38   16.10
   4   3  11  167.68   16.30
   5  -3  11  176.58   17.40
  -5  -3 -11  171.78   19.40
  -5  -3 -11  165.98   17.60
   5   3  11  191.58   18.60
   5   3  11  149.09   18.70
   6  -3  11  167.88   18.00
  -6  -3 -11  146.79   19.00
  -6  -3 -11  162.68   18.10
   6   3  11  170.18   19.90
   6   3  11  140.49   19.40
  -7  -3 -11   65.09   15.40
   7  -3  11   67.29   13.00
  -7  -3 -11   80.79   14.30
   7   3  11   91.99   16.10
   9  -4 -11  139.49   19.50
  -9  -4  11  140.09   20.90
  -9  -4  11  158.58   19.30
   9   4 -11  182.68   23.30
  -9   4  11  130.09   19.70
   8  -4 -11  550.44   31.20
  -8  -4  11  520.45   30.30
  -8  -4  11  619.64   43.40
   8   4 -11  526.25   30.10
  -8   4  11  486.55   32.00
   7  -4 -11   -4.50    8.60
  -7  -4  11    0.80    8.20
  -7  -4  11    5.80    9.60
  -7   4  11    7.10    8.00
  -7   4  11   -6.30    9.10
   7   4 -11   15.60    8.70
  -6  -4  11  632.54   30.70
   6  -4 -11  686.23   31.90
  -6  -4  11  673.33   32.10
   6  -4 -11  659.33   33.20
  -6   4  11  649.64   19.50
   6   4 -11  667.53   28.90
  -6   4  11  622.94   31.70
  -6   4  11  630.04   30.50
  -5  -4  11   68.39   11.40
   5  -4 -11   66.79   12.20
  -5  -4  11   76.69   13.10
   5  -4 -11   47.80   11.80
  -5  -4  11   81.69    8.00
  -5   4  11   90.39    9.10
  -5   4  11   77.89   13.00
   5   4 -11   83.09   11.80
  -5   4  11   63.19   11.30
  -4  -4  11  123.89   14.20
   4  -4 -11  138.89   15.40
  -4  -4  11  143.39   11.00
  -4   4  11  138.69   15.70
  -4   4  11   84.49   14.80
   4   4 -11  120.79   12.00
  -4   4  11  151.18   12.80
  -3  -4  11  793.12   29.00
  -3  -4  11  770.52   27.20
   3  -4 -11  754.12   28.90
   3  -4 -11  757.72   33.30
   3  -4 -11  783.32   34.50
   3   4 -11  792.42   27.10
  -3   4  11  740.53   32.40
  -3   4  11  816.52   30.30
   2  -4 -11   70.49   12.40
  -2  -4  11   70.89    8.80
   2  -4 -11   62.39   10.60
   2  -4 -11   79.89   11.30
  -2   4  11  102.89   14.40
  -2   4  11   79.99   11.90
   1  -4 -11  422.26   24.00
   1  -4 -11  416.36   23.30
   1  -4 -11  409.16   24.10
  -1  -4  11  418.06   16.80
  -1   4  11  402.16   36.30
  -1   4  11  400.36   24.50
   0  -4 -11  846.22   36.80
   0  -4 -11  829.72   34.70
   0  -4 -11  824.62   34.30
   0  -4  11  776.62   21.80
   0   4  11  840.32   36.30
   0   4  11  824.82   35.00
  -1  -4 -11   11.10    7.90
  -1  -4 -11   11.50    8.30
   1  -4  11   24.20    6.10
   1   4  11   27.70    9.30
  -2  -4 -11  782.62   34.10
  -2  -4 -11  696.23   34.60
   2  -4  11  746.83   25.80
   2   4  11  753.82   37.10
   2   4  11  815.02   36.00
   2   4  11  762.72   33.70
  -3  -4 -11  225.08   20.50
  -3  -4 -11  258.07   22.90
   3  -4  11  234.08   19.00
   3  -4  11  255.27   15.70
   3   4  11  237.88   25.00
   3   4  11  267.17   21.30
   4  -4  11   46.80    9.30
   4  -4  11   61.09   12.00
  -4  -4 -11   43.30   12.60
  -4  -4 -11   49.80   11.50
   4   4  11   48.70   19.60
   4   4  11   42.30   11.20
  -5  -4 -11  344.77   37.50
   5  -4  11  336.27   20.30
  -5  -4 -11  307.07   23.80
   5  -4  11  328.37   22.70
   5   4  11  344.57   26.40
   5   4  11  325.17   31.10
  -6  -5  11   83.39   21.20
   6  -5 -11   89.29   15.20
   6  -5 -11   93.29   17.70
  -6  -5  11  113.09   16.60
   6   5 -11   74.89   12.40
  -6   5  11   95.59   17.30
  -5  -5  11  312.67   15.20
   5  -5 -11  277.77   26.60
  -5  -5  11  299.47   24.80
   5  -5 -11  296.67   23.90
  -5  -5  11  319.87   23.50
  -5   5  11  276.97   14.10
  -5   5  11  280.47   24.30
   5   5 -11  293.27   20.60
   4  -5 -11   -3.60   10.00
  -4  -5  11   15.40    6.90
  -4  -5  11   23.00   10.20
   4  -5 -11    9.30    9.30
  -4  -5  11    9.20    8.60
  -4   5  11   16.00    9.90
  -4   5  11    2.10    9.70
  -4   5  11   12.90    6.50
   4   5 -11    6.50    8.50
  -3  -5  11  888.11   35.80
  -3  -5  11  881.11   31.70
  -3  -5  11  973.00   39.20
   3  -5 -11  940.31   40.90
   3  -5 -11  900.81   39.00
   3  -5 -11  884.71   32.80
  -3   5  11  926.61   32.70
  -3   5  11  828.32   37.50
   2  -5 -11   -6.50    8.20
  -2  -5  11   -3.60    7.50
  -2  -5  11    1.10    6.50
   2  -5 -11   -1.40    9.60
  -2   5  11    0.80    8.90
  -2   5  11    6.60    8.60
   1  -5 -11  495.05   27.40
   1  -5 -11  477.75   29.40
   1  -5 -11  579.14   30.40
  -1  -5  11  511.05   20.60
  -1  -5  11  543.45   27.50
  -1   5  11  469.85   28.60
  -1   5  11  549.74   33.60
   0  -5 -11  127.29   16.60
   0  -5  11  103.29   15.10
   0  -5 -11   92.09   14.90
   0  -5  11  133.09    9.70
   0  -5 -11   82.19   13.60
   0  -5  11  123.89    9.10
   0   5  11  167.28   19.80
   0   5  11  108.49   16.70
   1  -5  11   13.70   10.90
  -1  -5 -11   14.10    9.70
  -1  -5 -11   16.10   10.10
   1   5  11    8.80   10.30
   1   5  11   16.30   12.10
   2  -5  11   86.99   19.10
  -2  -5 -11  173.18   19.90
  -2  -5 -11  185.98   22.00
   2  -5  11  156.58   16.40
   2   5  11  184.48   21.20
   2   5  11  166.18   22.20
  -3  -5 -11  386.16   29.50
  -3  -5 -11  456.15   32.10
   3   5  11  432.36   29.10
   3   5  11  436.66   30.50
   3   5  11  382.86   32.60
 -11   0  12   -1.80   10.60
 -11   0  12    6.70    6.10
 -10   0  12  755.02   36.10
 -10   0  12  762.12   27.80
  -9   0  12    4.20    5.30
  -8   0  12 1507.95   37.90
  -7   0  12   -1.10    5.60
  -7   0  12    0.10    3.10
  -6   0  12 1103.79   39.40
  -6   0  12 1131.19   31.50
   6   0 -12 1098.09   39.40
   5   0 -12   -1.40    5.30
  -5   0  12   -3.70    4.70
   4   0 -12   64.59    9.20
  -4   0  12   66.39    8.90
  -3   0  12    3.50    4.00
   3   0 -12    3.10    3.90
   2   0 -12 2431.16   60.59
  -2   0  12 2401.76   58.49
   2   0 -12 2403.46   49.30
  -2   0  12 2399.56   63.09
  -1   0  12   -0.10    3.00
   1   0 -12    4.30    4.10
  -1   0  12   -6.60    4.40
   0   0 -12 6029.20  125.29
   0   0  12 6002.30  122.49
   0   0  12 5975.20  132.49
   1   0  12   -1.30    3.00
   1   0  12    8.20    5.60
  -1   0 -12    5.40    3.70
  -2   0 -12 1029.80   30.40
   2   0  12 1050.19   26.50
   2   0  12 1018.60   37.90
  -3   0 -12    1.40    3.50
   3   0  12    7.90    3.80
   3   0  12    4.70    6.60
  -4   0 -12   24.00    5.20
   4   0  12    7.40    7.80
  -5   0 -12    2.40    4.10
   5   0  12    2.10    7.60
   6   0  12 1291.07   45.90
  -6   0 -12 1222.58   34.80
  -7   0 -12    6.80    5.00
   7   0  12    0.50   11.00
   8   0  12  889.21   58.59
  -8   0 -12  883.41   28.70
 -11  -1  12  365.66   21.80
 -11  -1  12  393.86   28.70
 -11   1  12  380.86   17.10
 -11   1  12  372.56   28.90
 -10  -1  12   25.50    8.30
 -10  -1  12   16.50   10.80
 -10   1  12   20.20    5.80
 -10   1  12   24.00   11.50
  -9  -1  12  216.58   21.30
  -9  -1  12  242.78   17.10
  -9   1  12  247.38   21.00
  -9   1  12  235.98   13.20
   8  -1 -12  231.28   19.40
  -8  -1  12  265.87   20.00
  -8   1  12  257.97   14.80
   7  -1 -12  595.84   28.70
  -7  -1  12  599.54   27.80
  -7  -1  12  586.74   17.10
  -7   1  12  604.74   22.90
  -6  -1  12   32.10    8.50
   6  -1 -12   25.40    7.90
  -6   1  12   35.90    8.40
  -6   1  12   24.90    5.90
   5  -1 -12 1982.40   57.29
  -5  -1  12 2098.39   56.19
  -5   1  12 2127.99   55.69
  -5   1  12 2093.49   53.39
  -5   1  12 2049.40   56.89
  -4  -1  12    5.90    4.60
   4  -1 -12   -3.40    4.90
  -4   1  12    2.10    4.90
  -4   1  12    0.00    5.10
   3  -1 -12 3205.98   71.99
   3  -1 -12 3219.48   78.89
  -3  -1  12 3330.57   75.69
  -3   1  12 3363.06   78.29
   3   1 -12 3327.37   78.79
  -3   1  12 3282.37   80.29
   2  -1 -12  173.38   10.20
  -2  -1  12  205.78   11.90
   2  -1 -12  171.48   13.40
  -2   1  12  201.58   15.70
   2   1 -12  175.68   13.20
  -2   1  12  183.58   13.00
   1  -1 -12   27.40    5.00
   1  -1 -12   29.90    6.50
  -1  -1  12   27.60    4.90
  -1   1  12   26.60    6.20
   1   1 -12   31.90    6.30
  -1   1  12   35.30    8.40
   0  -1  12  298.37   12.50
   0  -1  12  273.87   18.20
   0  -1 -12  289.17   16.10
   0   1 -12  262.47   13.90
   0   1  12  327.27   16.30
   0   1  12  306.97   19.80
  -1  -1 -12  921.81   31.00
   1  -1  12  977.30   35.30
   1  -1  12  969.60   24.70
   1   1  12  899.11   26.70
   1   1  12  927.31   29.80
   1   1  12  936.51   36.30
  -2  -1 -12   72.89    9.00
  -2  -1 -12   71.69   11.70
   2  -1  12   91.49   13.20
   2   1  12   87.09    8.40
  -2   1 -12   62.59    6.90
  -3  -1 -12 3774.62   86.29
  -3  -1 -12 4282.07  129.99
  -3   1 -12 3596.94   77.69
   3   1  12 3688.63   84.09
   3   1  12 3872.81   96.59
  -4  -1 -12    9.30    8.10
   4  -1  12    6.30    6.80
  -4  -1 -12   10.60    5.40
  -4   1 -12    7.80    3.30
   4   1  12    7.60    8.00
   4   1  12   11.00    5.60
  -5  -1 -12  866.91   30.10
   5  -1  12  860.01   35.60
  -5  -1 -12  917.31   39.20
   5   1  12  837.82   36.70
   5   1  12  870.21   31.70
  -5   1 -12  837.72   22.00
  -6  -1 -12   45.90    8.30
  -6  -1 -12   59.49   12.80
   6  -1  12   40.80   10.60
   6   1  12   75.39   14.40
   6   1  12   46.10   10.40
  -6   1 -12   53.59    5.90
  -7  -1 -12  120.19   13.30
  -7  -1 -12  120.09   17.60
   7  -1  12  102.19   15.80
   7   1  12  135.49   17.40
  -7   1 -12  111.39    7.40
 -11  -2  12   88.99   13.20
 -11   2  12  122.19   19.20
 -11   2  12  108.29    7.80
 -10  -2  12  483.25   25.80
 -10  -2  12  403.06   28.00
  10  -2 -12  413.76   26.90
 -10   2  12  422.36   14.80
 -10   2  12  441.96   33.50
 -10   2  12  435.36   17.70
  -9  -2  12   -6.80    6.40
   9  -2 -12    7.00    9.20
  -9  -2  12    3.50    9.20
  -9   2  12   -1.90    5.30
  -9   2  12    1.40    3.50
  -9   2  12    3.20    8.80
  -8  -2  12  905.21   34.30
  -8  -2  12  916.61   37.20
   8  -2 -12  824.92   35.70
  -8   2  12  851.61   29.20
  -8   2  12  784.02   35.30
  -8   2  12  853.01   31.30
  -7  -2  12   64.79   11.40
   7  -2 -12   45.70   10.00
  -7   2  12   61.29    9.40
  -7   2  12   59.99    9.50
  -6  -2  12  545.65   25.40
   6  -2 -12  534.55   26.50
  -6   2  12  497.35   23.10
  -6   2  12  513.35   23.50
  -5  -2  12 1045.90   35.50
   5  -2 -12 1056.79   38.00
  -5   2  12 1023.30   36.90
  -5   2  12  992.20   35.10
  -5   2  12  976.50   34.40
   4  -2 -12  173.98   13.60
  -4  -2  12  147.99   12.90
   4  -2 -12  158.58   14.70
   4   2 -12  156.88    9.60
  -4   2  12  137.29   23.80
  -4   2  12  182.88   14.30
  -4   2  12  168.18   14.80
  -3  -2  12  110.19   10.20
   3  -2 -12  106.99   11.10
   3  -2 -12  107.29   12.40
  -3   2  12  104.69   13.00
  -3   2  12   91.69   11.60
   3   2 -12  115.29    6.70
  -2  -2  12 1370.36   37.20
   2  -2 -12 1355.06   39.40
   2  -2 -12 1437.76   43.90
  -2   2  12 1465.05   46.60
  -2   2  12 1369.66   42.10
   1  -2 -12   53.49    8.20
  -1  -2  12   56.19    6.50
   1  -2 -12   51.09    9.10
  -1   2  12   46.10    8.40
  -1   2  12   72.59   12.20
   0  -2  12 2670.73   58.19
   0  -2 -12 2850.91   69.79
   0  -2 -12 2564.94   71.19
   0   2  12 2700.23   67.39
   0   2  12 2715.63   74.19
  -1  -2 -12  554.04   27.60
   1  -2  12  566.84   14.20
  -1  -2 -12  589.04   25.30
   1  -2  12  588.64   27.00
   1   2  12  551.04   22.50
   2  -2  12  849.02   20.20
  -2  -2 -12  866.31   31.80
   2  -2  12  908.61   37.20
   2   2  12  940.41   38.10
   2   2  12  885.11   30.40
  -3  -2 -12  566.94   29.20
  -3  -2 -12  496.15   23.60
   3  -2  12  455.25   25.40
   3   2  12  476.05   22.30
  -4  -2 -12  180.28   15.40
  -4  -2 -12  157.98   17.80
   4  -2  12  147.69   16.40
   4   2  12  164.88   15.00
   5  -2  12  376.96   23.40
  -5  -2 -12  403.96   27.20
  -5  -2 -12  338.87   20.40
   5   2  12  374.06   22.70
   5   2  12  362.16   27.30
   6  -2  12  831.72   36.10
  -6  -2 -12  982.10   42.60
  -6  -2 -12  868.61   33.80
   6   2  12  857.21   35.70
   6   2  12  919.41   41.90
  -7  -2 -12    8.80   12.10
   7  -2  12   10.50    9.80
  -7  -2 -12   31.80    9.90
   7   2  12   43.20   12.00
   7   2  12   20.40   13.50
 -10  -3  12  115.59   15.90
  10  -3 -12  108.89   17.80
 -10  -3  12   74.79   16.90
 -10   3  12  105.99   18.50
   9  -3 -12   92.99   15.70
  -9  -3  12   46.20   11.50
  -9   3  12   46.20   14.30
  -8  -3  12  523.95   29.40
  -8  -3  12  518.95   28.00
   8  -3 -12  509.55   28.60
  -8   3  12  510.85   29.10
  -8   3  12  488.65   25.60
  -7  -3  12  146.09   16.80
   7  -3 -12  133.39   16.60
  -7  -3  12  171.48   17.10
  -7   3  12  131.09   16.70
  -7   3  12  133.59   10.50
  -7   3  12  140.19   15.00
   6  -3 -12  148.09   17.00
  -6  -3  12  141.19   15.80
  -6  -3  12  171.28    7.00
  -6   3  12  169.98   15.50
  -6   3  12  154.78   12.60
   6   3 -12  151.68   13.50
   5  -3 -12  587.04   27.80
   5  -3 -12  546.25   27.20
  -5  -3  12  544.95   39.90
  -5   3  12  528.45   23.90
   5   3 -12  535.45   21.90
  -5   3  12  559.94   26.50
   4  -3 -12  178.88   30.10
  -4  -3  12  157.58   13.80
   4  -3 -12  170.28   15.70
  -4   3  12  160.38   15.10
   4   3 -12  147.39   10.80
  -4   3  12  154.88   14.90
   3  -3 -12 1900.61   56.49
   3  -3 -12 1954.00   54.99
  -3   3  12 1868.01   55.69
   3   3 -12 1940.21   45.10
  -3   3  12 1928.61   57.09
   2  -3 -12 1261.27   45.80
   2  -3 -12 1288.47   41.40
  -2  -3  12 1325.47   36.00
  -2   3  12 1247.48   42.20
  -2   3  12 1299.67   44.30
  -2   3  12 1313.87   44.90
  -1  -3  12    5.20    3.50
   1  -3 -12   12.30    6.30
   1  -3 -12   -2.50    4.80
   1  -3 -12    7.10    7.10
  -1   3  12    3.10    7.70
  -1   3  12   13.00    6.30
   0  -3 -12  878.41   32.70
   0  -3 -12  883.51   35.40
   0  -3 -12  869.81   35.50
   0  -3  12  885.21   23.10
   0   3  12  928.81   38.40
  -1  -3 -12  210.58   18.60
  -1  -3 -12  194.58   15.80
   1   3  12  191.68   15.20
   1   3  12  188.98   19.90
   2  -3  12  238.28   18.60
  -2  -3 -12  233.78   20.00
   2  -3  12  229.58   10.70
  -2  -3 -12  244.78   18.00
   2   3  12  208.08   16.50
   3  -3  12  825.82   33.80
  -3  -3 -12  832.22   33.70
  -3  -3 -12  833.82   37.50
   3  -3  12  788.02   23.90
   3   3  12  702.03   46.50
   3   3  12  775.42   37.60
   4  -3  12   47.80   10.00
  -4  -3 -12   50.69   11.90
  -4  -3 -12   50.59   10.80
   4  -3  12   55.69    8.30
   4   3  12   48.60   12.80
   4   3  12   42.70   10.20
  -5  -3 -12  442.36   29.30
   5  -3  12  425.96   25.20
  -5  -3 -12  439.86   25.90
   5   3  12  418.16   26.10
   6  -3  12  318.57   23.40
  -6  -3 -12  327.67   23.20
   6   3  12  262.77   23.50
   6   3  12  267.17   27.00
  -8  -4  12  385.06   44.40
  -8  -4  12  431.26   43.20
   8  -4 -12  320.77   25.40
  -8   4  12  342.27   24.90
  -8   4  12  367.16   28.30
   8   4 -12  349.07   24.90
  -7  -4  12  180.48   20.00
  -7  -4  12  200.68   21.50
   7  -4 -12  188.68   22.50
   7  -4 -12  231.88   22.30
  -7   4  12  214.48   19.90
   7   4 -12  221.58   19.00
  -7   4  12  205.38   22.80
  -6  -4  12  162.48   18.50
  -6  -4  12  168.18   19.20
   6  -4 -12  176.48   20.80
  -6  -4  12  190.48    8.10
   6  -4 -12  190.28   18.70
  -6   4  12  198.18   19.50
  -6   4  12  170.78   18.20
  -6   4  12  178.88   11.10
   6   4 -12  169.78   16.20
  -5  -4  12  898.41   25.80
   5  -4 -12  903.01   38.60
   5  -4 -12  880.21   37.60
  -5  -4  12  857.61   34.30
  -5   4  12  900.01   29.00
  -5   4  12  896.91   38.10
  -5   4  12  818.72   35.50
   5   4 -12  871.81   30.90
  -4  -4  12   -1.60    4.70
   4  -4 -12   -0.60    7.40
  -4  -4  12  -10.50   11.50
  -4   4  12    6.10    7.40
  -4   4  12   -3.40    5.40
  -4   4  12    3.90    8.30
   4   4 -12    3.40    5.30
   3  -4 -12  553.74   28.60
  -3  -4  12  524.45   23.00
  -3   4  12  530.65   25.60
  -3   4  12  506.95   27.00
  -2  -4  12  163.18   12.50
   2  -4 -12  147.59   17.30
   2  -4 -12  178.88   16.30
   2  -4 -12  190.78   17.90
  -2   4  12  198.88   18.40
  -2   4  12  206.88   26.80
   1  -4 -12   48.60   10.40
   1  -4 -12   67.79   11.90
  -1  -4  12   48.80    6.60
  -1   4  12   63.69   11.70
  -1   4  12   60.79   13.20
   0  -4 -12  236.88   25.30
   0  -4 -12  339.27   23.10
   0  -4 -12  391.96   24.10
   0   4  12  292.67   22.30
   0   4  12  344.67   26.20
  -1  -4 -12  297.07   22.10
  -1  -4 -12  358.86   24.40
   1   4  12  310.47   23.40
   1   4  12  225.78   26.80
   2  -4  12  221.58   13.90
  -2  -4 -12  226.28   19.20
  -2  -4 -12  245.18   21.90
   2   4  12  218.38   19.50
   2   4  12  229.48   25.10
  -3  -4 -12  671.73   35.10
   3  -4  12  713.73   31.70
  -3  -4 -12  662.43   32.30
   3  -4  12  639.94   24.10
   3   4  12  680.73   37.90
   3   4  12  686.43   32.80
  -4  -4 -12   12.80   11.70
  -4  -4 -12   -0.40    9.40
   4  -4  12   -7.90    8.90
   4  -4  12    3.70    6.70
   4   4  12  -12.60   12.70
   4   4  12    9.10    8.70
  -5  -4 -12  804.92   42.30
   5  -4  12  707.93   28.60
  -5  -4 -12  774.72   53.29
   5  -4  12  806.22   34.40
   5   4  12  762.12   37.30
   6  -5 -12  302.97   29.20
  -6  -5  12  355.36   26.10
  -6  -5  12  345.87   27.20
  -6   5  12  340.77   26.80
   6   5 -12  320.27   22.30
  -6   5  12  328.77   28.40
  -6   5  12  306.77   13.10
  -5  -5  12  110.19   21.40
   5  -5 -12   49.30   13.80
  -5  -5  12   83.79   13.20
  -5  -5  12   90.99    9.70
   5  -5 -12   74.39   15.30
   5   5 -12   84.49   12.50
  -5   5  12   71.59   15.80
  -5   5  12  114.59   11.60
  -4  -5  12    8.70    8.50
   4  -5 -12   14.60   16.60
  -4  -5  12    1.90    6.50
   4  -5 -12    0.30   10.70
  -4  -5  12   22.20   10.40
  -4   5  12    6.40    9.40
  -4   5  12    3.60    6.70
  -4   5  12   13.60   11.00
  -3  -5  12   28.00   11.50
   3  -5 -12   24.50    9.20
   3  -5 -12    7.20   10.10
   3  -5 -12   24.70   11.40
  -3  -5  12   44.90   11.20
  -3  -5  12   34.30   11.40
  -3   5  12   38.10   11.10
  -3   5  12   25.40    9.30
  -2  -5  12  791.32   28.60
   2  -5 -12  729.73   36.80
  -2  -5  12  784.62   32.20
   2  -5 -12  790.32   36.60
   2  -5 -12  855.61   34.40
  -2   5  12  865.01   35.10
  -2   5  12  833.72   38.00
   1  -5 -12   25.00   10.60
  -1  -5  12    7.80    5.60
  -1  -5  12    9.00    5.20
   1  -5 -12    7.50    9.80
   1  -5 -12    5.30    9.80
  -1  -5  12   27.40   10.30
  -1   5  12   22.90   11.10
   0  -5  12  681.63   19.20
   0  -5 -12  676.63   33.90
   0  -5 -12  668.53   33.70
   0  -5  12  569.54   31.50
   0   5  12  671.93   34.60
   0   5  12  706.33   35.70
  -1  -5 -12    3.00   10.30
   1  -5  12  -12.10   11.80
  -1  -5 -12    8.30   10.80
   1   5  12    8.70   11.00
   1   5  12   -7.50   11.40
   2  -5  12  205.28   17.00
  -2  -5 -12  197.38   23.20
  -2  -5 -12  235.68   24.30
   2   5  12  226.88   24.40
   2   5  12  202.38   25.30
 -11   0  13  459.25   30.40
 -11   0  13  445.26   22.50
 -10   0  13   -0.10    5.20
 -10   0  13  -18.50    8.90
  -8   0  13    2.80    3.80
  -7   0  13 1429.16   37.20
  -7   0  13 1416.06   46.60
   7   0 -13 1336.17   46.80
  -6   0  13   -0.80    5.30
   6   0 -13   18.90    7.20
  -6   0  13    1.90    3.60
   5   0 -13 2586.94   69.69
  -5   0  13 2656.73   67.99
   4   0 -13    1.10    4.90
  -4   0  13    4.70    4.60
   3   0 -13  934.41   33.20
  -3   0  13  968.80   31.70
   2   0 -13    2.20    2.10
  -2   0  13    0.50    4.10
   2   0 -13    2.60    4.50
  -2   0  13    3.70    5.00
  -1   0  13    9.60    6.00
  -1   0  13    4.80    3.80
   1   0 -13   15.10    5.40
   0   0  13   22.00    7.10
   0   0  13   26.30    5.30
  -1   0 -13 3208.08   74.89
   1   0  13 3357.46   72.69
   1   0  13 3284.77   85.19
  -2   0 -13   -1.50    3.50
   2   0  13    7.90    7.10
   2   0  13   -3.80    2.60
  -3   0 -13 1693.43   43.40
   3   0  13 1675.53   53.49
   3   0  13 1621.54   40.20
   4   0  13    0.60    4.30
   4   0  13    1.40    7.80
  -4   0 -13    7.20    4.80
   5   0  13  181.58   20.20
  -5   0 -13  206.68   12.70
   6   0  13    1.80    9.90
  -6   0 -13   -4.60    4.70
  -7   0 -13  152.58   12.60
   7   0  13  202.28   22.90
 -11  -1  13   -2.20   11.70
 -11  -1  13   -2.40    6.70
 -11   1  13   -0.60    5.30
 -11   1  13   -9.90   11.00
 -10  -1  13 1010.60   36.10
 -10   1  13 1011.40   53.19
 -10   1  13  972.80   30.40
   9  -1 -13   23.10    9.50
  -9  -1  13   25.30    7.80
  -9  -1  13   14.20    9.40
  -9   1  13   20.80    9.60
  -9   1  13   30.10    7.00
  -8  -1  13 1783.42   56.49
  -8  -1  13 1848.42   39.80
   8  -1 -13 1850.31   57.99
  -8   1  13 1817.22   48.30
  -7  -1  13  189.38    9.70
   7  -1 -13  175.78   17.50
  -7  -1  13  208.98   17.00
  -7   1  13  172.58   12.90
  -6  -1  13  156.48   15.00
  -6   1  13  118.39   14.30
  -6   1  13  164.38   14.00
  -6   1  13  159.18   12.40
   5  -1 -13  118.09   13.30
  -5  -1  13  136.19   13.30
  -5   1  13  126.39   11.80
  -5   1  13  133.39   13.30
   4  -1 -13 1322.97   43.00
  -4  -1  13 1343.97   40.50
  -4   1  13 1335.17   42.80
  -4   1  13 1331.07   41.90
   3  -1 -13   56.59    7.20
  -3  -1  13   43.30    7.30
   3  -1 -13   44.00    8.70
  -3   1  13   50.19    9.90
  -3   1  13   45.70    8.60
   3   1 -13   46.40    8.50
   2  -1 -13 3139.69   76.49
  -2  -1  13 3114.29   71.09
   2  -1 -13 3107.69   67.69
  -2   1  13 3222.18   80.39
   2   1 -13 3053.29   74.79
  -2   1  13 3098.79   74.29
   1  -1 -13   33.80    7.10
  -1  -1  13   39.70    5.70
   1  -1 -13   42.40    5.90
  -1   1  13   45.00    9.20
   1   1 -13   48.50    8.10
  -1   1  13   34.80    6.90
   0  -1  13 1347.47   44.10
   0  -1 -13 1298.47   39.90
   0  -1  13 1265.57   33.40
   0   1 -13 1335.77   37.30
   0   1  13 1359.56   45.50
   0   1  13 1327.77   38.40
   1  -1  13   65.19    6.60
  -1  -1 -13   75.19    9.80
   1  -1  13   84.69   19.20
   1   1  13   83.79   15.40
  -1   1 -13   77.49    8.50
  -2  -1 -13   59.89    9.40
   2  -1  13   58.39   10.80
   2   1  13   66.79    7.90
   2   1  13   60.69   15.10
  -2   1 -13   54.49   10.10
  -3  -1 -13   67.99   12.70
   3  -1  13   59.19   11.20
  -3  -1 -13   50.19    8.30
   3   1  13   55.09   12.70
  -3   1 -13   59.89    7.00
   3   1  13   74.49    9.90
  -4  -1 -13  199.98   14.50
  -4  -1 -13  222.38   20.40
   4  -1  13  188.98   17.80
  -4   1 -13  176.38    9.30
   4   1  13  220.08   14.60
   4   1  13  248.58   20.30
  -5  -1 -13   37.30   11.10
   5  -1  13   25.80    9.60
  -5  -1 -13   20.80    6.70
   5   1  13   21.30   11.00
   5   1  13   14.00    7.10
  -5   1 -13   12.10    3.80
   6  -1  13 1474.85   51.29
  -6  -1 -13 1517.05   44.20
  -6  -1 -13 1538.15   55.19
   6   1  13 1503.85   53.79
   6   1  13 1544.45   47.20
  -6   1 -13 1468.75   33.10
   7  -1  13   31.00   11.90
  -7  -1 -13   25.30    9.00
  -7  -1 -13   26.20   12.70
  -7   1 -13   12.10    3.30
   7   1  13    5.80    9.10
   7   1  13   20.40   13.20
  -7   1 -13   16.30    3.70
 -10  -2  13  384.66   28.20
  10  -2 -13  395.46   27.40
 -10  -2  13  393.36   24.50
 -10   2  13  355.06   18.10
 -10   2  13  434.56   29.60
 -10   2  13  373.76   14.80
  -9  -2  13  125.89   17.40
  -9  -2  13  155.68   16.10
   9  -2 -13  123.49   17.00
  -9   2  13  130.39   13.40
  -9   2  13  122.69   13.80
  -9   2  13  130.49   17.80
  -8  -2  13  138.19   16.80
   8  -2 -13  108.29   15.20
  -8   2  13  154.88   17.90
  -8   2  13  148.19   13.80
  -8   2  13  137.79   23.70
   7  -2 -13  703.13   32.30
  -7  -2  13  698.93   16.20
  -7  -2  13  739.23   32.30
  -7   2  13  685.93   27.90
  -7   2  13  705.03   28.20
   6  -2 -13   11.50    7.50
  -6  -2  13   32.40    9.00
  -6   2  13   29.70    7.10
  -6   2  13   23.30    7.70
   5  -2 -13 2556.74   69.29
  -5  -2  13 2502.35   65.49
  -5   2  13 2507.35   65.29
  -5   2  13 2527.55   66.99
   4  -2 -13    4.70    5.60
   4  -2 -13    4.10    6.10
  -4  -2  13    7.70    4.50
  -4   2  13    5.50    5.60
  -4   2  13    0.90    5.40
  -4   2  13    0.40    6.30
  -3  -2  13  648.94   24.40
   3  -2 -13  675.93   25.50
   3  -2 -13  680.33   29.20
  -3   2  13  727.13   30.90
  -3   2  13  673.23   32.30
   3   2 -13  648.04   16.80
   2  -2 -13  825.32   32.10
   2  -2 -13  830.32   28.40
  -2  -2  13  831.22   26.80
  -2   2  13  900.91   37.60
  -2   2  13  867.51   35.40
  -1  -2  13   33.90    5.50
   1  -2 -13   34.90    6.50
   1  -2 -13   35.30    8.20
  -1   2  13   35.70    9.80
  -1   2  13   33.00    7.80
   0  -2  13  797.92   22.00
   0  -2 -13  789.12   31.10
   0  -2 -13  845.92   34.40
   0   2  13  841.92   30.80
   0   2  13  830.02   42.20
   1  -2  13 1250.37   27.70
  -1  -2 -13 1294.57   41.40
   1  -2  13 1222.18   42.90
   1   2  13 1316.17   47.20
   2  -2  13    5.10    6.80
  -2  -2 -13   14.60    7.80
  -2  -2 -13    7.00    5.70
   2   2  13    8.40    7.30
   2   2  13   13.70    5.60
  -3  -2 -13 1282.77   41.60
   3  -2  13 1218.58   44.00
  -3  -2 -13 1298.37   48.00
   3   2  13 1292.67   39.80
  -4  -2 -13  226.98   21.40
  -4  -2 -13  189.88   16.10
   4  -2  13  175.88   18.60
   4   2  13  175.08   27.70
   4   2  13  195.58   15.90
   5  -2  13  236.78   21.10
  -5  -2 -13  221.08   17.70
  -5  -2 -13  255.37   23.60
   5   2  13  262.47   25.10
   6  -2  13  246.08   23.10
  -6  -2 -13  218.78   23.80
  -6  -2 -13  230.98   18.80
   6   2  13  204.18   24.20
   6   2  13  221.28   19.70
  -9  -3  13   19.70   12.10
   9  -3 -13    6.40   11.30
  -9  -3  13   -7.90    8.00
  -9   3  13    9.90   11.70
  -9   3  13    1.00    2.40
  -9   3  13    6.00    8.20
  -9   3  13    3.60    3.10
   8  -3 -13  315.17   24.70
  -8  -3  13  335.37   25.20
  -8  -3  13  304.77   22.80
  -8   3  13  320.27   14.60
  -8   3  13  361.36   22.50
  -8   3  13  319.37   24.70
   7  -3 -13  712.23   34.00
  -7  -3  13  687.03   32.50
  -7   3  13  673.63   33.30
  -7   3  13  689.23   30.50
  -7   3  13  641.64   24.50
   6  -3 -13   15.20    8.70
  -6  -3  13   45.30    9.60
  -6   3  13   27.00    7.90
  -6   3  13   37.80    9.60
  -6   3  13   15.60    8.50
   6   3 -13   38.10    8.10
   5  -3 -13 1017.10   39.80
   5  -3 -13 1092.69   39.40
  -5  -3  13 1071.19   38.00
   5   3 -13 1024.80   31.50
  -5   3  13  946.21   35.60
  -5   3  13 1069.39   38.50
   4  -3 -13  514.35   27.20
   4  -3 -13  548.55   27.20
  -4  -3  13  545.85   23.90
  -4   3  13  527.35   26.60
   4   3 -13  532.95   19.10
  -4   3  13  541.95   26.80
   3  -3 -13  662.43   30.10
  -3  -3  13  626.84   24.30
   3  -3 -13  617.84   27.50
  -3   3  13  606.94   28.60
  -3   3  13  614.04   29.60
  -2  -3  13  625.24   22.20
   2  -3 -13  576.54   28.20
   2  -3 -13  626.24   26.80
  -2   3  13  624.74   30.60
  -2   3  13  623.04   29.00
  -2   3  13  597.94   27.50
   1  -3 -13   60.39   10.90
  -1  -3  13   70.19    7.40
   1  -3 -13   88.39   12.60
   1  -3 -13   60.19   10.50
  -1   3  13   58.19   13.00
  -1   3  13   72.99   11.50
   0  -3  13  957.00   24.10
   0  -3 -13  912.91   37.60
   0  -3 -13  934.11   36.80
   0   3  13 1034.20   41.80
  -1  -3 -13  294.67   22.00
  -1  -3 -13  277.77   20.10
   2  -3  13    4.30    7.90
  -2  -3 -13   10.80    7.30
  -2  -3 -13    1.10    7.70
   2  -3  13    9.40    3.40
   2   3  13    6.70   10.10
   2   3  13   18.00    7.50
   3  -3  13  633.34   30.70
  -3  -3 -13  618.94   33.10
   3  -3  13  636.74   19.70
  -3  -3 -13  686.93   30.90
   3   3  13  609.64   28.70
   3   3  13  655.33   35.60
  -4  -3 -13  325.07   25.30
  -4  -3 -13  285.07   21.40
   4  -3  13  269.87   21.80
   4  -3  13  282.47   14.40
   4   3  13  266.47   26.10
   4   3  13  272.87   20.40
  -5  -3 -13  115.89   18.50
  -5  -3 -13  119.19   16.00
   5  -3  13  131.99   16.50
   5   3  13  151.58   18.50
   5   3  13  133.99   18.50
  -8  -4  13  339.87   26.30
   8  -4 -13  300.77   28.10
  -8  -4  13  296.77   26.30
  -8   4  13  273.17   27.60
  -8   4  13  244.78   22.40
   8   4 -13  312.47   23.20
   7  -4 -13   78.89   17.40
  -7  -4  13   76.59   14.30
   7  -4 -13  111.09   16.90
  -7  -4  13  108.99   16.00
  -7   4  13  106.29   16.10
  -7   4  13  108.19    8.70
  -7   4  13   90.69   16.90
   7   4 -13   93.29   13.00
   6  -4 -13   42.80   11.70
  -6  -4  13   65.19   12.20
   6  -4 -13   52.19   13.00
  -6  -4  13   59.49   12.50
   6   4 -13   65.09   11.10
  -6   4  13   45.90   11.70
  -6   4  13   58.99    8.50
  -6   4  13   54.79   12.60
   5  -4 -13  388.26   26.00
   5  -4 -13  375.36   25.00
  -5  -4  13  382.66   16.30
  -5  -4  13  384.46   23.00
  -5   4  13  372.16   24.10
   5   4 -13  367.16   19.30
  -5   4  13  398.16   19.80
  -5   4  13  351.86   24.60
   4  -4 -13  285.67   21.70
   4  -4 -13  194.08   20.10
  -4  -4  13  198.38   14.10
  -4  -4  13  223.68   20.80
  -4   4  13  215.58   17.50
   4   4 -13  222.38   14.30
  -4   4  13  214.58   19.70
  -4   4  13  229.08   21.00
   3  -4 -13   10.90    8.10
  -3  -4  13   11.60    5.80
  -3   4  13    4.50    7.90
  -3   4  13    6.70    7.80
  -3   4  13    5.30    8.10
  -2  -4  13  764.22   26.30
   2  -4 -13  821.72   47.20
   2  -4 -13  833.12   35.40
  -2   4  13  807.62   35.70
  -2   4  13  780.22   35.10
  -1  -4  13   94.19    8.70
   1  -4 -13   85.59   14.10
   1  -4 -13  104.49   14.70
  -1   4  13   83.19   14.40
  -1   4  13   91.29   14.70
   0  -4  13  781.42   19.70
   0  -4 -13  819.12   36.10
   0  -4 -13  800.22   35.60
   0   4  13  857.01   37.50
  -1  -4 -13  224.98   21.40
  -1  -4 -13  214.18   20.10
   1   4  13  227.28   21.50
   1   4  13  211.68   23.80
  -2  -4 -13    6.60    9.60
  -2  -4 -13   18.30    9.90
   2   4  13    6.80   11.40
   2   4  13   -0.10    7.50
   3  -4  13  269.47   15.10
   3  -4  13  293.47   23.60
  -3  -4 -13  318.57   24.40
  -3  -4 -13  273.67   24.70
   3   4  13  295.87   23.20
   3   4  13  301.07   28.60
   4  -4  13  520.85   28.60
  -4  -4 -13  459.25   28.60
  -4  -4 -13  438.26   34.90
   4  -4  13  434.26   20.00
   4   4  13  461.65   28.70
   4   4  13  465.05   34.40
  -5  -5  13  538.35   21.10
   5  -5 -13  542.25   34.10
   5  -5 -13  558.24   37.10
  -5  -5  13  528.85   32.90
  -5  -5  13  574.04   29.80
  -5   5  13  529.05   31.20
  -5   5  13  548.25   34.50
  -5   5  13  556.34   22.70
   5   5 -13  528.15   26.70
  -4  -5  13    3.50    9.10
  -4  -5  13   13.60   12.00
   4  -5 -13    1.60   17.50
   4  -5 -13   -7.20   11.40
  -4  -5  13   -3.20    7.00
  -4   5  13    5.90   11.50
  -4   5  13   12.10   19.00
  -3  -5  13  279.87   19.80
  -3  -5  13  267.97   22.60
   3  -5 -13  258.67   23.70
  -3   5  13  302.17   37.80
  -3   5  13  258.57   20.60
  -2  -5  13  164.78   14.10
  -2  -5  13  158.48   16.60
   2  -5 -13  152.28   26.10
   2  -5 -13  147.69   16.80
   2  -5 -13  147.79   19.40
  -2   5  13  155.78   20.50
   1  -5 -13   79.19   18.90
  -1  -5  13   51.29    7.40
  -1  -5  13   67.29    7.50
   1  -5 -13   87.89   15.10
   1  -5 -13   82.49   21.20
  -1  -5  13   56.29   13.50
  -1   5  13   41.70   13.40
  -1   5  13   73.79   15.00
   0  -5  13   79.69   15.50
   0  -5  13  130.49    7.70
   0  -5 -13  123.39   18.10
   0  -5  13  123.59    6.70
   0   5  13  197.58   24.20
   0   5  13  104.89   18.10
  -1  -5 -13  467.65   30.80
  -1  -5 -13  493.05   31.00
   1   5  13  413.86   51.39
 -11   0  14    3.70    6.50
 -11   0  14    4.00   12.50
 -10   0  14  820.52   30.80
 -10   0  14  775.72   44.10
  -9   0  14  -13.80    8.40
  -9   0  14   -1.70    3.90
  -8   0  14  194.88   18.90
  -8   0  14  219.08   12.60
   7   0 -14    1.20    7.10
  -7   0  14    4.90    4.20
  -7   0  14    9.00    7.00
  -6   0  14  104.49   10.00
  -6   0  14   94.99   12.40
   5   0 -14   -2.40    6.50
  -5   0  14    0.30   10.80
   4   0 -14 1770.72   52.89
  -4   0  14 1819.62   50.69
   3   0 -14   -0.60    2.70
  -3   0  14    2.60    5.40
  -3   0  14   -1.60    4.20
   3   0 -14   -4.70    4.90
  -2   0  14 3556.04   80.69
   2   0 -14 3471.15   83.79
  -2   0  14 3522.15   87.69
  -1   0  14    6.10    6.10
   1   0 -14   -1.00    4.50
  -1   0  14   -0.10    3.50
   0   0  14  296.87   21.10
   0   0  14  282.07   14.70
   0   0 -14  288.27   16.40
  -1   0 -14   11.00    4.80
   1   0  14    7.40    3.80
   1   0  14   -6.30    6.00
   2   0  14  186.28    8.70
   2   0  14  165.38   16.90
  -2   0 -14  200.98   13.40
   3   0  14  -11.80    7.20
   3   0  14   -2.10    3.50
  -3   0 -14    0.50    4.30
  -4   0 -14 2179.28   53.39
   4   0  14 2082.19   65.29
   4   0  14 2225.28   52.29
   5   0  14   -4.10    9.50
  -5   0 -14    7.00    4.80
   5   0  14    0.70    5.30
  -6   0 -14  742.23   25.60
   6   0  14  758.62   37.60
   6   0  14  747.03   28.70
 -11  -1  14    7.80    8.30
 -11   1  14   12.50    6.50
 -11   1  14    4.00   20.20
 -10  -1  14   90.29   12.00
 -10  -1  14  119.29   17.20
 -10   1  14   78.19   14.80
 -10   1  14   93.99   11.00
  -9  -1  14  294.37   22.90
   9  -1 -14  296.97   22.90
  -9   1  14  285.37   22.80
  -9   1  14  247.28   15.70
  -8  -1  14   12.90    8.70
   8  -1 -14   -1.40    8.40
  -8  -1  14   -4.20    4.80
  -8   1  14    6.00    5.00
  -7  -1  14 1312.07   44.90
   7  -1 -14 1273.17   45.70
  -7  -1  14 1295.77   33.00
  -7   1  14 1319.17   42.00
  -7   1  14 1294.17   38.70
  -6  -1  14    5.40    6.40
   6  -1 -14   -0.40    6.30
  -6   1  14    6.50    6.10
  -6   1  14   -0.20    6.20
  -6   1  14    1.00    4.70
  -5  -1  14  843.22   32.00
   5  -1 -14  890.81   36.00
  -5   1  14  849.61   33.00
  -5   1  14  839.92   30.30
  -5   1  14  882.41   33.60
   4  -1 -14  179.18   15.70
  -4  -1  14  196.48   14.90
  -4   1  14  229.28   17.50
   4   1 -14  223.68   17.30
  -3  -1  14    7.30    4.60
   3  -1 -14    0.80    6.00
   3  -1 -14    2.90    3.60
  -3   1  14   -2.50    5.30
   3   1 -14   -1.00    5.50
  -3   1  14   -0.40    4.80
   2  -1 -14  256.97   12.30
  -2  -1  14  220.28   13.50
   2  -1 -14  227.78   16.50
   2   1 -14  218.08   16.00
  -2   1  14  264.47   19.50
  -2   1  14  258.17   15.80
  -1  -1  14 1365.16   47.30
  -1  -1  14 1409.76   37.80
   1  -1 -14 1372.56   43.30
  -1   1  14 1538.15   53.49
   1   1 -14 1413.66   41.50
  -1   1  14 1497.65   42.50
   0  -1  14   -1.50    6.10
   0  -1 -14    5.00    5.40
   0  -1  14    2.50    3.30
   0   1 -14   -1.20    4.40
   0   1  14    3.10    6.60
   0   1  14    1.70    4.60
  -1  -1 -14 2216.68   58.39
   1  -1  14 2226.28   64.29
   1  -1  14 2292.97   50.29
  -1   1 -14 2168.98   53.59
   2  -1  14    2.40    7.50
  -2  -1 -14   -0.30    4.80
   2   1  14    4.10    4.20
  -2   1 -14   14.80    4.70
  -3  -1 -14  888.91   31.10
   3  -1  14  877.31   21.20
   3  -1  14  892.71   37.00
   3   1  14  828.82   46.40
  -3   1 -14  789.02   26.00
   3   1  14  902.61   28.50
   4  -1  14  112.79   16.20
  -4  -1 -14  128.29   13.20
   4   1  14  123.09   12.40
   4   1  14  139.09   17.70
  -4   1 -14  117.89    8.20
  -5  -1 -14    5.80    6.10
   5  -1  14   11.00   10.10
  -5  -1 -14    9.50    9.30
  -5   1 -14    4.50    3.30
   5   1  14    0.30    6.40
   5   1  14    0.80    9.90
  -6  -1 -14   49.30   13.90
   6  -1  14   35.60   13.00
  -6  -1 -14   47.50    9.20
  -6   1 -14   52.49    4.70
   6   1  14   81.79   17.10
   6   1  14   43.50   12.10
 -10  -2  14  303.17   22.40
 -10  -2  14  278.87   25.90
  10  -2 -14  277.67   33.10
 -10   2  14  262.67   13.50
 -10   2  14  277.87   26.50
 -10   2  14  304.27   18.10
  -9  -2  14  101.29   16.60
   9  -2 -14   82.19   15.60
  -9  -2  14   73.09   12.00
  -9   2  14   60.89   10.30
  -9   2  14   85.09   12.00
  -9   2  14   92.99   17.60
  -8  -2  14  246.88   21.10
   8  -2 -14  238.38   21.70
  -8   2  14  226.98   17.40
  -8   2  14  242.88   21.70
  -8   2  14  288.17   18.30
  -7  -2  14  185.98    8.30
   7  -2 -14  199.58   19.30
  -7  -2  14  208.58   18.30
  -7   2  14  183.98   19.20
  -7   2  14  192.48   16.80
  -6  -2  14  182.28   16.30
   6  -2 -14  175.18   17.80
  -6   2  14  218.48   23.70
  -6   2  14  226.98   17.80
   5  -2 -14  116.69   14.90
  -5  -2  14  116.99   18.40
  -5   2  14  128.99   13.90
  -5   2  14  138.39   15.30
   4  -2 -14  685.23   30.30
   4  -2 -14  691.13   26.90
  -4  -2  14  682.83   26.90
  -4   2  14  707.63   29.60
  -4   2  14  695.43   31.10
   4   2 -14  688.43   19.50
  -4   2  14  689.83   29.00
  -3  -2  14    9.20    5.20
   3  -2 -14    6.50    5.00
  -3   2  14    5.30    5.90
  -3   2  14   13.90    8.00
   2  -2 -14 1934.71   55.39
   2  -2 -14 1763.42   48.10
  -2  -2  14 1838.72   46.80
  -2   2  14 1935.11   58.79
  -2   2  14 1819.02   52.89
   1  -2 -14  193.18   13.40
   1  -2 -14  193.38   16.20
  -1  -2  14  194.08   11.00
  -1   2  14  180.68   15.70
  -1   2  14  192.08   18.50
   0  -2 -14  171.88   15.70
   0  -2  14  178.08    9.30
   0   2  14  195.58   19.70
   0   2  14  188.48   15.40
   1  -2  14  433.06   25.00
  -1  -2 -14  428.76   22.50
  -1  -2 -14  444.06   25.80
   1   2  14  414.36   26.90
  -2  -2 -14  462.85   29.00
   2  -2  14  459.35   26.40
  -2  -2 -14  466.45   27.40
   2   2  14  455.45   21.30
  -3  -2 -14  150.08   19.10
  -3  -2 -14  145.69   15.00
   3  -2  14  112.89   14.70
   3   2  14  129.09   13.50
   4  -2  14 1030.40   40.90
  -4  -2 -14  978.30   36.40
  -4  -2 -14  975.70   43.20
   4   2  14  997.70   44.30
   4   2  14 1033.60   36.00
  -5  -2 -14    4.50    9.70
  -5  -2 -14    5.00    7.10
   5  -2  14    4.80    9.80
   5   2  14  -11.30   13.10
   5   2  14   -2.90    7.50
   6  -2  14  420.26   29.30
  -6  -2 -14  423.06   35.90
  -6  -2 -14  407.06   24.00
   6   2  14  441.96   32.30
   6   2  14  384.46   25.20
   9  -3 -14  196.88   32.60
  -9  -3  14  134.19   17.20
  -9  -3  14  174.98   21.00
  -9   3  14  180.08   18.80
  -9   3  14  171.48   10.60
  -9   3  14  162.28   20.50
  -8  -3  14  105.59   15.30
  -8  -3  14   91.09   15.30
   8  -3 -14  108.09   17.10
  -8   3  14   98.59   11.60
  -8   3  14  100.59   14.60
   7  -3 -14  715.33   35.00
  -7  -3  14  716.83   33.10
   7   3 -14  760.82   29.60
  -7   3  14  735.23   35.30
  -7   3  14  715.13   32.10
  -7   3  14  706.93   27.80
   6  -3 -14  100.19   15.00
  -6  -3  14   71.69   12.30
   6   3 -14   92.09   11.10
  -6   3  14  102.99   12.80
  -6   3  14   66.49   12.80
  -6   3  14  105.09   14.30
   5  -3 -14  503.25   27.30
   5  -3 -14  515.15   26.60
  -5  -3  14  523.15   25.20
   5   3 -14  480.15   19.50
  -5   3  14  504.65   26.30
  -5   3  14  526.95   26.70
   4  -3 -14  566.44   28.60
  -4  -3  14  558.64   24.30
   4  -3 -14  555.84   26.70
  -4   3  14  513.55   27.80
  -4   3  14  530.35   26.90
   4   3 -14  540.05   18.50
   3  -3 -14   14.60   12.30
   3  -3 -14    6.10    7.40
  -3  -3  14   14.30    5.70
  -3   3  14   15.50    9.50
  -3   3  14   15.40    9.00
  -3   3  14   12.60    7.00
   2  -3 -14  297.67   21.00
   2  -3 -14  310.97   19.10
  -2  -3  14  287.77   14.90
  -2   3  14  298.87   23.20
  -2   3  14  273.17   20.50
  -2   3  14  303.67   20.80
   1  -3 -14  316.57   21.70
  -1  -3  14  377.36   14.80
   1  -3 -14  356.16   20.50
  -1   3  14  400.26   22.40
  -1   3  14  364.16   26.10
   0  -3 -14   16.40    8.50
   0  -3  14   20.20    3.50
   0  -3 -14   29.70    9.00
  -1  -3 -14  911.41   39.00
  -1  -3 -14  948.81   37.10
   1   3  14  892.61   42.00
   2  -3  14  106.79   14.80
  -2  -3 -14   95.89   15.10
  -2  -3 -14   84.09   12.80
   2   3  14   88.49   17.00
   2   3  14  101.89   16.90
   3  -3  14  369.46   25.40
  -3  -3 -14  419.66   25.00
   3  -3  14  401.46   13.50
  -3  -3 -14  372.36   27.40
   3   3  14  360.96   29.40
   3   3  14  371.16   22.80
   4  -3  14  279.97   13.60
  -4  -3 -14  319.87   26.80
   4  -3  14  304.27   24.70
  -4  -3 -14  324.27   22.50
   4   3  14  324.87   30.00
   4   3  14  325.17   22.40
   5  -3  14   -0.30   11.50
  -5  -3 -14   -5.50    9.10
  -5  -3 -14   -5.10   11.90
   5  -3  14   -6.40    6.10
   5   3  14    2.30   16.10
   5   3  14   -1.50    9.30
  -7  -4  14  389.76   27.50
   7  -4 -14  367.86   28.20
   7  -4 -14  257.37   33.70
  -7   4  14  336.37   24.70
  -7   4  14  349.96   28.30
   7   4 -14  399.16   23.50
  -7   4  14  339.27   15.70
  -6  -4  14   97.59   14.20
   6  -4 -14  110.19   17.10
   6  -4 -14   94.39   15.00
  -6  -4  14  105.69    8.50
   6   4 -14   93.09   12.70
  -6   4  14  123.39   12.90
  -6   4  14  100.89   14.90
  -6   4  14   96.79   16.40
   5  -4 -14  366.66   26.00
  -5  -4  14  372.36   17.10
   5  -4 -14  421.26   27.40
  -5  -4  14  409.46   23.70
  -5   4  14  412.86   30.90
  -5   4  14  384.06   25.60
  -5   4  14  409.26   22.10
   5   4 -14  394.26   19.40
   4  -4 -14  204.28   20.60
  -4  -4  14  259.17   18.20
   4  -4 -14  277.77   22.60
  -4   4  14  270.37   21.60
  -4   4  14  231.68   19.70
  -4   4  14  267.57   21.20
   3  -4 -14    4.20    8.00
  -3  -4  14    0.70    5.90
   3  -4 -14    5.80    8.40
  -3   4  14    5.60    8.80
  -3   4  14    3.50    8.80
  -3   4  14   -0.40    8.10
  -2  -4  14  582.14   21.90
   2  -4 -14  555.04   30.50
  -2   4  14  577.24   30.40
  -2   4  14  594.94   30.50
  -2   4  14  546.55   31.40
  -1  -4  14  482.75   17.20
   1  -4 -14  481.15   27.70
   1  -4 -14  474.55   27.30
  -1   4  14  471.35   28.40
   0  -4 -14   13.50    9.60
   0  -4  14   33.90    3.70
   0  -4  14   23.70    2.70
   0  -4 -14   31.40   10.70
   0   4  14   33.30   11.20
   0   4  14   31.10   13.50
  -1  -4 -14  835.72   36.80
  -1  -4 -14  812.82   38.60
   1   4  14  840.72   38.80
   1   4  14  798.02   41.10
  -2  -4 -14   28.00   11.20
  -2  -4 -14   35.10   12.40
   2  -4  14   19.60   10.30
   3  -4  14  215.88   22.80
   3  -4  14  237.38   13.00
  -3  -4 -14  258.17   22.80
  -3  -4 -14  302.47   41.50
   3   4  14  227.18   22.20
   3   4  14  260.07   29.80
  -3  -5  14    4.90    9.20
   3  -5 -14    1.90    9.40
  -3  -5  14   -2.40    9.00
   3  -5 -14    4.60   10.80
  -3   5  14   -6.60   10.10
   2  -5 -14  308.17   26.10
  -2  -5  14  296.57   17.30
   2  -5 -14  338.07   24.20
   2  -5 -14  319.17   28.20
  -2  -5  14  295.37   22.80
  -2   5  14  301.17   25.40
  -2   5  14  309.87   26.20
  -1  -5  14   -6.40   10.50
   1  -5 -14   49.10   13.20
   1  -5 -14   16.10   11.80
   1  -5 -14   19.40    9.80
  -1  -5  14   24.00    5.70
  -1  -5  14   15.70    5.30
  -1   5  14   47.50   13.40
  -1   5  14   16.30   12.20
 -10   0  15    0.70   10.50
 -10   0  15    4.60    6.40
  -9   0  15  747.23   35.60
  -9   0  15  716.33   23.90
  -8   0  15   -2.20    4.10
  -8   0  15   -7.40    8.40
   7   0 -15 1305.47   47.00
  -7   0  15 1275.27   36.70
  -7   0  15 1329.27   45.70
  -6   0  15    8.80    6.90
   6   0 -15    4.00    8.00
   5   0 -15  332.87   22.10
  -5   0  15  294.87   19.00
   4   0 -15   -9.80    5.50
  -4   0  15    1.00    5.10
  -3   0  15  919.81   31.80
  -3   0  15  881.71   36.70
   3   0 -15  884.41   22.20
   3   0 -15  907.01   34.30
   2   0 -15    5.70    5.60
  -2   0  15   10.40    6.70
  -2   0  15    4.00    4.50
  -1   0  15 1714.93   46.00
   1   0 -15 1725.03   49.40
  -1   0  15 1734.13   54.49
   0   0  15    3.60    4.30
   0   0 -15    0.40    4.90
  -1   0 -15  902.01   30.80
   1   0  15  872.81   27.80
  -2   0 -15    0.10    4.90
   2   0  15   -6.70    7.30
  -3   0 -15   12.60    5.70
   3   0  15   10.90    9.10
   3   0  15    5.70    4.10
   4   0  15   -0.70   10.00
   4   0  15   -0.30    4.60
  -4   0 -15   -2.30    4.80
  -5   0 -15  136.29   11.90
   5   0  15  139.19   18.80
   5   0  15  124.39   12.20
   6   0  15    5.80   13.40
  -6   0 -15    1.20    5.80
   6   0  15   -8.60    6.90
 -10  -1  15  439.96   28.50
 -10  -1  15  375.16   23.10
 -10   1  15  407.96   19.60
 -10   1  15  416.16   29.30
  -9  -1  15   82.89   15.50
   9  -1 -15   43.80   13.10
  -9   1  15   37.50   12.40
  -9   1  15   48.40    8.70
  -8  -1  15   70.89    7.20
  -8  -1  15   70.09   13.70
   8  -1 -15   79.29   13.30
  -8   1  15   59.79    8.90
  -8   1  15   74.99   13.90
  -8   1  15   51.19   10.10
  -7  -1  15   29.90    5.80
  -7  -1  15   19.70    9.30
   7  -1 -15   19.10    9.40
  -7   1  15   20.40    6.60
  -7   1  15   44.40   10.50
  -7   1  15   26.70    9.00
  -6  -1  15 1227.58   42.20
   6  -1 -15 1173.18   43.60
  -6   1  15 1221.88   43.10
  -6   1  15 1259.37   42.30
  -6   1  15 1249.68   39.00
   5  -1 -15    9.50    6.90
  -5  -1  15   -1.80    5.80
  -5   1  15    2.30    6.60
  -5   1  15    3.00    6.50
   4  -1 -15 1830.62   55.89
   4  -1 -15 1725.53   44.80
  -4  -1  15 1744.23   49.60
  -4   1  15 1730.73   54.09
   4   1 -15 1792.52   53.89
  -4   1  15 1788.62   51.99
   3  -1 -15   -4.20    3.40
   3  -1 -15   -3.80    5.50
  -3  -1  15    1.80    4.40
  -3   1  15    0.90    8.30
   3   1 -15   -8.70    5.20
  -2  -1  15  561.44   22.20
   2  -1 -15  561.84   19.20
   2  -1 -15  576.44   26.80
  -2   1  15  602.84   25.10
  -2   1  15  623.84   29.90
   2   1 -15  556.54   25.70
   1  -1 -15   25.40    7.60
  -1  -1  15   24.30    5.70
  -1   1  15   19.40    8.80
   1   1 -15   26.20    6.80
  -1   1  15   22.20    6.90
   0  -1  15   11.00    7.30
   0  -1  15   10.00    4.20
   0  -1 -15    3.90    5.40
   0   1 -15    9.80    5.20
   0   1  15    8.60    7.30
   0   1  15   -2.20    5.10
   1  -1  15   72.79    7.50
   1  -1  15   79.89   13.20
  -1  -1 -15   81.19   10.80
  -1   1 -15   82.29    9.40
   2  -1  15  752.12   34.30
  -2  -1 -15  745.93   28.70
   2   1  15  773.92   24.40
  -2   1 -15  672.23   23.60
   3  -1  15   -5.90    8.10
  -3  -1 -15   12.60    6.20
   3   1  15    3.10    5.00
   3   1  15    2.00    9.90
   4  -1  15 1340.97   49.10
  -4  -1 -15 1322.07   41.30
   4   1  15 1326.07   50.79
  -4   1 -15 1326.47   32.30
   4   1  15 1415.26   39.80
  -5  -1 -15   43.30    9.20
   5  -1  15   62.59   15.30
   5   1  15   34.30   20.40
  -5   1 -15   53.79    5.60
   5   1  15   78.59   11.20
  -6  -1 -15   48.60   10.50
   6   1  15   80.19   17.30
 -10  -2  15   -9.10   11.60
  10  -2 -15    4.90   12.20
 -10  -2  15   -1.00    8.90
 -10   2  15    0.10    5.20
 -10   2  15    6.20   12.80
 -10   2  15    5.60    7.90
  -9  -2  15  661.33   31.70
   9  -2 -15  709.13   37.00
  -9  -2  15  676.33   51.69
  -9   2  15  657.83   36.10
  -9   2  15  693.23   29.40
  -9   2  15  750.72   30.20
  -8  -2  15   -5.10    8.50
   8  -2 -15   12.40   10.40
  -8   2  15    0.60    6.20
  -8   2  15   -2.40    7.10
  -8   2  15   -4.30    9.10
   7  -2 -15  930.31   39.60
  -7  -2  15 1003.80   27.20
  -7  -2  15  866.21   36.40
  -7   2  15  927.01   35.90
  -7   2  15  950.70   34.70
   6  -2 -15   73.69   12.50
  -6  -2  15  105.09   13.60
  -6   2  15   68.29   11.30
  -6   2  15   85.19   11.60
   5  -2 -15  158.38   14.60
   5  -2 -15  171.38   16.60
  -5  -2  15  137.89   14.70
  -5   2  15  144.69   16.90
   5   2 -15  154.18   10.00
  -5   2  15  170.68   15.40
  -5   2  15  168.18   16.60
  -4  -2  15  919.61   32.00
   4  -2 -15  862.71   30.80
   4  -2 -15  842.92   35.10
   4   2 -15  878.91   21.40
  -4   2  15  887.71   34.20
  -4   2  15  872.01   34.70
  -4   2  15  900.01   36.90
   3  -2 -15  504.55   21.90
  -3  -2  15  530.35   22.30
   3  -2 -15  504.35   26.20
  -3   2  15  512.85   25.20
  -3   2  15  533.35   43.10
   2  -2 -15   61.99    8.70
   2  -2 -15   63.69   10.70
  -2  -2  15   74.69    8.60
  -2   2  15   41.80   10.90
  -2   2  15   68.99   11.40
   1  -2 -15 1363.06   46.90
  -1  -2  15 1417.46   36.90
  -1   2  15 1562.44   52.29
  -1   2  15 1410.06   44.60
   0  -2  15    2.90    7.40
   0  -2  15    8.40    3.60
   0  -2 -15    8.70    7.30
   0   2  15   10.40   10.70
   0   2  15   14.10    7.00
   1  -2  15  906.81   38.00
  -1  -2 -15  962.70   35.90
  -2  -2 -15  223.38   17.80
  -2  -2 -15  247.78   22.10
   2  -2  15  252.27   22.10
   2   2  15  254.47   16.60
   3  -2  15   50.29   12.40
  -3  -2 -15   54.19   10.80
  -3  -2 -15   55.29   13.10
   3   2  15   52.19    9.90
   3   2  15   54.79   13.80
  -4  -2 -15   74.89   14.70
  -4  -2 -15   77.49   11.60
   4  -2  15  108.29   17.10
   4   2  15   30.80   23.50
   4   2  15   96.79   12.90
  -5  -2 -15  174.08   17.40
   5  -2  15  153.78   19.80
   5   2  15  175.78   17.20
   5   2  15  161.38   21.90
  -8  -3  15    0.50    9.50
  -8  -3  15   12.90   11.40
   8  -3 -15   17.80   11.60
  -8   3  15   10.90    8.90
  -8   3  15   -9.20   10.50
  -8   3  15    6.10    7.30
   7  -3 -15  282.37   24.10
  -7  -3  15  321.07    9.40
  -7  -3  15  317.37   23.50
  -7   3  15  325.27   39.30
  -7   3  15  297.17   21.70
  -7   3  15  291.87   20.40
   7   3 -15  319.27   18.70
   6  -3 -15  358.96   25.40
  -6  -3  15  371.26   23.40
  -6   3  15  310.07   21.70
   6   3 -15  353.86   17.50
  -6   3  15  326.67   21.50
  -6   3  15  300.07   23.70
   5  -3 -15    7.40    7.90
  -5  -3  15   25.30    8.20
   5  -3 -15   13.50    8.70
  -5   3  15   -1.90    8.10
   5   3 -15   30.40    6.20
  -5   3  15   23.90    9.20
  -5   3  15   21.10    9.70
  -4  -3  15  687.73   27.40
   4  -3 -15  611.34   31.30
   4  -3 -15  655.93   29.30
  -4   3  15  696.23   31.80
  -4   3  15  660.73   31.00
  -3  -3  15   58.39    8.70
   3  -3 -15   52.89   11.00
   3  -3 -15   60.49   11.00
  -3   3  15   67.39   12.20
  -3   3  15   49.40   11.60
  -3   3  15   39.20    9.90
   2  -3 -15  431.16   36.70
  -2  -3  15  409.76   17.90
   2  -3 -15  396.36   24.60
  -2   3  15  409.66   24.40
  -2   3  15  433.96   28.00
   1  -3 -15  565.44   28.60
   1  -3 -15  550.84   30.90
  -1  -3  15  572.54   18.90
  -1   3  15  588.04   28.20
   0  -3  15   77.99    6.30
   0  -3 -15   97.69   15.20
   0  -3 -15   71.69   12.40
   0   3  15   97.59   16.10
  -1  -3 -15  472.95   26.80
   1  -3  15  449.56   27.20
  -1  -3 -15  487.55   29.30
   1   3  15  499.85   32.40
  -2  -3 -15  284.87   24.30
   2  -3  15  299.47   24.10
  -2  -3 -15  294.67   21.70
   2   3  15  285.47   27.40
  -3  -3 -15   48.80   11.00
   3  -3  15   40.90   12.70
  -3  -3 -15    0.80   10.90
   3   3  15   47.20   11.40
   3   3  15   40.50   15.10
  -4  -3 -15  396.06   35.70
   4  -3  15  382.16   28.30
  -4  -3 -15  376.66   25.80
   4   3  15  388.36   32.20
   4   3  15  359.46   24.30
   7  -4 -15  127.99   17.50
  -7  -4  15  128.69   16.90
   7  -4 -15  119.19   18.30
  -7  -4  15  135.39   17.70
  -7   4  15  138.19   12.90
  -7   4  15  119.89   19.40
   7   4 -15  109.59   17.20
   6  -4 -15  257.77   28.60
  -6  -4  15  291.47   22.50
  -6  -4  15  275.27   13.10
   6  -4 -15  277.47   25.00
  -6   4  15  288.17   25.20
  -6   4  15  299.27   24.20
   6   4 -15  269.97   17.50
  -6   4  15  274.07   18.40
   5  -4 -15    9.30    8.90
  -5  -4  15    8.70    6.10
  -5  -4  15    4.90    8.40
   5  -4 -15   21.10   11.50
   5   4 -15   12.10    6.60
  -5   4  15    0.00    8.20
  -5   4  15    8.20    9.40
  -5   4  15   -0.60    9.70
   4  -4 -15  472.65   27.50
   4  -4 -15  504.75   30.00
  -4  -4  15  507.55   24.40
  -4   4  15  500.45   30.20
  -4   4  15  489.65   28.00
  -4   4  15  512.35   29.40
  -3  -4  15   33.90    7.90
   3  -4 -15    8.50   10.00
   3  -4 -15   15.20    8.20
  -3   4  15   17.90   10.50
  -3   4  15   30.00   10.90
   2  -4 -15  383.56   25.60
  -2  -4  15  382.56   17.30
   2  -4 -15  299.07   23.40
  -2   4  15  381.56   26.10
   1  -4 -15  318.47   24.20
   1  -4 -15  278.57   22.10
   1  -4 -15  321.67   23.80
  -1  -4  15  295.27   12.90
  -1   4  15  274.17   23.60
  -1   4  15  287.27   26.90
   0  -4 -15   28.20   10.70
   0  -4 -15   14.20   10.30
   0   4  15   14.10   12.80
   0   4  15   35.00   12.20
  -1  -4 -15  216.18   21.60
  -1  -4 -15  254.97   24.30
   1   4  15  334.77   49.99
  -2  -4 -15  414.86   30.70
   2  -4  15  405.06   29.00
  -2  -4 -15  344.87   26.20
   2   4  15  424.46   33.90
 -10   0  16  -21.30   11.00
  -9   0  16    2.40    5.00
  -8   0  16  429.66   27.00
  -8   0  16  406.56   18.20
  -7   0  16   -5.00    4.40
  -7   0  16    4.50    8.10
   7   0 -16    0.80    8.00
  -6   0  16 1482.05   48.00
   6   0 -16 1423.36   50.29
  -5   0  16    2.80    5.90
   5   0 -16   -2.20    7.50
  -4   0  16 1497.45   49.50
   4   0 -16 1477.95   48.90
   4   0 -16 1474.05   35.30
  -4   0  16 1512.85   46.10
   3   0 -16    1.30    2.30
  -3   0  16    8.70    7.40
   3   0 -16   -2.20    6.40
  -3   0  16    4.00    5.60
  -2   0  16   33.40    9.10
  -2   0  16   33.80    7.30
   2   0 -16   45.90    9.20
  -1   0  16    7.10    6.90
   1   0 -16    0.60    5.60
  -1   0  16    5.20    4.70
   0   0  16  928.31   29.80
   0   0 -16  869.41   32.00
  -1   0 -16    6.50    5.70
   2   0  16 3123.49   84.99
  -2   0 -16 2969.10   72.49
   3   0  16  -10.30    8.80
  -3   0 -16   -6.60    5.00
   4   0  16  422.46   29.00
   4   0  16  429.26   17.10
  -4   0 -16  413.56   19.60
  -5   0 -16   -6.40    5.70
   5   0  16   -5.00    6.10
   5   0  16   -1.80   11.90
 -10  -1  16   14.80    8.50
 -10  -1  16  -21.60   11.30
 -10   1  16    2.70   12.00
 -10   1  16   14.30    9.20
 -10   1  16    5.20    6.80
   9  -1 -16  639.94   34.20
  -9  -1  16  626.84   18.80
  -9   1  16  639.64   34.20
  -9   1  16  572.74   28.50
  -9   1  16  663.63   25.90
   8  -1 -16    7.80    9.60
  -8  -1  16   -0.20    8.60
  -8  -1  16   15.70    4.60
  -8   1  16    2.80    6.30
  -8   1  16    7.00    8.10
  -8   1  16   16.80   10.20
  -7  -1  16  240.88   20.00
   7  -1 -16  288.97   23.30
  -7  -1  16  283.27   14.30
  -7   1  16  281.47   21.60
  -7   1  16  238.48   16.70
  -7   1  16  254.07   20.00
   6  -1 -16  304.77   22.70
  -6  -1  16  322.77   21.50
  -6   1  16  311.57   21.80
  -6   1  16  330.97   19.20
  -6   1  16  313.97   21.70
   5  -1 -16  255.87   19.70
  -5  -1  16  226.88   17.10
  -5   1  16  219.98   18.40
  -5   1  16  216.58   18.90
   4  -1 -16    5.60    4.90
  -4  -1  16   22.20    7.20
   4  -1 -16   11.80    7.90
  -4   1  16    9.60    7.30
   4   1 -16   -0.30    7.00
  -4   1  16   17.60    8.20
  -3  -1  16 1029.60   33.70
   3  -1 -16 1016.80   28.70
   3  -1 -16  912.21   43.30
  -3   1  16  992.40   35.70
  -3   1  16 1017.20   40.10
   3   1 -16 1014.80   37.60
  -2  -1  16    8.60    4.80
   2  -1 -16    5.10    6.50
  -2   1  16   14.70    8.20
  -2   1  16   -2.20    5.50
   2   1 -16   14.40    7.20
  -1  -1  16 2130.69   52.29
   1  -1 -16 2182.98   59.89
   1   1 -16 2047.80   56.79
  -1   1  16 2102.39   64.49
   0  -1  16   58.59   12.70
   0  -1 -16   61.09   10.40
   0  -1  16   86.09    9.00
   0   1  16   72.19   11.20
   0   1 -16   70.89    9.60
  -1  -1 -16  298.77   18.90
   1  -1  16  330.27   23.80
  -1   1 -16  284.37   16.20
  -2  -1 -16  195.38   15.90
   2  -1  16  244.28   22.10
  -2   1 -16  162.38   12.30
  -3  -1 -16  244.48   17.40
   3  -1  16  275.37   23.70
   3   1  16  288.47   25.40
   3   1  16  246.38   14.60
  -3   1 -16  253.17   14.20
   4  -1  16   84.49   15.40
  -4  -1 -16   73.49   11.30
   4  -1  16   81.69    6.60
   4   1  16   75.59   10.00
  -4   1 -16   71.89    7.60
   5  -1  16  998.10   27.20
   5  -1  16  799.22   47.90
  -5  -1 -16  918.31   46.40
   5   1  16  965.20   33.00
   5   1  16  992.90   44.10
  -9  -2  16  189.98   21.60
  -9   2  16  160.78   17.10
  -9   2  16  170.48   20.10
  -9   2  16  153.18   18.10
   8  -2 -16  240.08   23.50
  -8  -2  16  199.68   21.50
  -8  -2  16  237.98    8.60
  -8   2  16  247.78   18.40
  -8   2  16  263.07   26.70
  -8   2  16  233.78   20.10
   7  -2 -16   35.80   10.90
  -7  -2  16   16.40    9.20
  -7   2  16   16.00   10.70
  -7   2  16   19.30    7.80
  -7   2  16   30.30    9.60
   6  -2 -16  580.54   30.40
  -6  -2  16  531.45   26.80
  -6   2  16  495.15   25.90
  -6   2  16  561.84   33.10
  -6   2  16  555.04   29.00
   5  -2 -16   67.79   10.20
   5  -2 -16   64.99   12.10
  -5  -2  16   47.50    9.80
  -5   2  16   71.99   14.50
  -5   2  16   50.49   10.40
  -5   2  16   60.39   10.90
   4  -2 -16  991.50   39.00
  -4  -2  16  992.30   34.50
   4  -2 -16  980.40   33.20
  -4   2  16 1032.30   40.90
  -4   2  16  940.31   37.30
   3  -2 -16  349.27   18.30
   3  -2 -16  372.76   23.20
  -3  -2  16  354.46   18.10
  -3   2  16  355.16   25.20
  -3   2  16  356.36   21.50
  -2  -2  16   10.40    4.80
   2  -2 -16    2.40    7.10
   2  -2 -16    7.60    5.50
  -2   2  16   -4.10    8.30
  -2   2  16   10.60    7.50
  -1  -2  16  288.37   14.10
   1  -2 -16  323.57   21.40
  -1   2  16  315.27   19.90
   0  -2  16  487.45   16.60
   0  -2  16  501.75   28.60
   0  -2 -16  495.45   25.60
   0   2  16  416.46   29.40
   0   2  16  478.65   24.10
  -1  -2 -16    8.10    7.50
   1  -2  16    2.30    8.70
   1   2  16    7.80   10.30
  -2  -2 -16 1076.69   38.90
   2  -2  16 1053.89   43.10
   2   2  16  986.80   43.80
  -3  -2 -16   55.09   11.30
   3  -2  16   63.19   13.70
   3   2  16   78.29   11.40
  -4  -2 -16  268.67   20.40
  -4  -2 -16  331.07   31.40
   4  -2  16  293.67   26.30
   4   2  16  244.78   26.00
   4   2  16  302.37   19.90
   8  -3 -16   87.99   18.00
  -8  -3  16   85.49   20.70
   8   3 -16   82.79   12.70
  -8   3  16  118.19   15.80
  -8   3  16   81.29   12.40
  -8   3  16  100.69   17.20
  -7  -3  16  109.09   16.10
   7  -3 -16  109.99   16.80
   7  -3 -16   76.49   14.70
  -7   3  16  115.09   15.00
  -7   3  16  105.49   14.80
   7   3 -16  111.69   13.10
  -7   3  16   75.19   15.00
   6  -3 -16  440.86   27.80
  -6  -3  16  428.86   25.30
  -6   3  16  450.05   27.00
   6   3 -16  459.75   19.50
  -6   3  16  462.25   26.40
   5  -3 -16    4.00    7.40
  -5  -3  16   10.10    7.60
   5  -3 -16   50.29   11.90
  -5   3  16   29.70   10.00
  -5   3  16   21.20    9.60
  -5   3  16   17.00    9.60
   5   3 -16   25.70    5.60
   4  -3 -16   62.89   11.30
   4  -3 -16   70.39   13.30
  -4   3  16   54.79   12.80
  -4   3  16   82.99   13.90
  -4   3  16   37.40   11.10
   3  -3 -16  511.15   28.80
   3  -3 -16  533.75   25.50
  -3  -3  16  537.85   22.70
  -3   3  16  485.75   27.50
  -3   3  16  524.05   31.50
  -3   3  16  542.85   28.50
   2  -3 -16    4.90    7.90
   2  -3 -16    2.60    7.20
  -2  -3  16    0.40    4.60
  -2   3  16    1.70    8.00
   1  -3 -16  642.14   31.40
  -1  -3  16  645.24   20.70
  -1   3  16  664.13   36.00
  -1   3  16  673.53   31.20
   0  -3  16  361.86   11.70
   0  -3 -16  382.96   24.50
   0   3  16  347.57   28.90
  -1  -3 -16  183.18   19.30
   1  -3  16  197.18   21.30
  -1  -3 -16  180.38   21.00
   1   3  16  183.78   21.90
  -2  -3 -16  360.86   25.40
   2  -3  16  367.26   27.70
  -2  -3 -16  402.76   29.30
   2   3  16  380.46   31.50
   3  -3  16   85.49   16.00
  -3  -3 -16   35.40   11.00
  -3  -3 -16   58.99   23.50
   3   3  16   54.79   12.50
   3   3  16   78.39   18.90
  -6  -4  16  187.68   20.70
   6  -4 -16  194.48   22.10
  -6  -4  16  231.58   13.30
  -6   4  16  240.98   36.20
  -6   4  16  206.18   35.60
   6   4 -16  251.87   16.60
  -6   4  16  228.68   20.80
   5  -4 -16   70.29   12.90
   5  -4 -16   92.59   25.80
  -5  -4  16   51.79   11.50
  -5   4  16   38.80   12.50
  -5   4  16   85.79   17.10
  -5   4  16   58.39   12.50
   4  -4 -16  209.78   21.70
  -4  -4  16  230.08   17.80
   4  -4 -16  229.78   22.90
  -4   4  16  245.48   22.60
  -4   4  16  191.98   22.20
  -4   4  16  228.98   23.30
   3  -4 -16  942.01   38.30
  -3  -4  16  893.61   30.90
   3  -4 -16  904.51   41.10
  -3   4  16  946.81   40.80
  -3   4  16  872.91   39.40
   2  -4 -16    3.10    8.30
   2  -4 -16    3.60   10.30
  -2  -4  16    5.70    5.70
  -2   4  16   12.60   10.00
  -2   4  16   11.50   13.20
  -2   4  16   10.90   10.40
  -1  -4  16  347.67   13.50
   1  -4 -16  343.27   26.00
  -1   4  16  337.47   30.30
  -1   4  16  340.27   27.40
   0  -4 -16   49.99   14.20
   0  -4 -16   51.59   13.90
   0   4  16   63.69   24.30
  -1  -4 -16   68.59   16.00
   1  -4  16   92.59   19.20
   1   4  16   50.69   18.10
  -9   0  17 1037.90   31.40
  -9   0  17  934.41   42.10
  -8   0  17    2.20    9.30
  -8   0  17   -6.50    5.10
  -7   0  17   16.70    8.80
   7   0 -17  -10.70    8.10
  -7   0  17    5.70    5.50
   6   0 -17   -2.10    9.10
  -6   0  17   -8.10    6.80
  -5   0  17  904.01   35.40
  -5   0  17  933.41   51.19
   5   0 -17  892.31   38.00
  -4   0  17   -5.90   10.50
   4   0 -17   -7.00    7.70
  -4   0  17    5.80    6.40
  -3   0  17 1620.64   47.60
   3   0 -17 1598.84   51.19
   2   0 -17    2.90    7.10
  -2   0  17   -9.10    4.70
   1   0 -17  762.12   31.30
  -1   0  17  833.32   29.00
   0   0  17   -3.60    5.00
   0   0 -17   -6.70    5.60
   1   0  17   -1.50   10.30
  -1   0 -17   -2.40    6.10
  -2   0 -17    7.90    6.50
   2   0  17   -1.80    9.80
  -3   0 -17  160.68   14.30
   3   0  17  134.79   18.60
  -4   0 -17    4.10    6.60
   4   0  17   -6.60   12.80
   4   0  17   -3.00    4.90
  -9  -1  17   20.40   11.80
   9  -1 -17   39.70   16.00
  -9  -1  17   35.70    5.90
  -9   1  17   29.50    9.80
  -9   1  17   38.60   10.50
  -9   1  17   35.40   12.80
   8  -1 -17  711.73   35.70
  -8  -1  17  671.03   22.40
  -8  -1  17  650.33   33.00
  -8   1  17  648.34   31.50
  -8   1  17  692.13   32.70
  -7  -1  17  -11.40    7.80
   7  -1 -17    8.40    9.80
  -7  -1  17    0.30    4.70
  -7   1  17   11.80    8.10
  -7   1  17   -3.00    8.30
  -7   1  17    3.60    7.00
  -6  -1  17 1602.04   50.99
   6  -1 -17 1558.24   53.99
  -6   1  17 1644.94   52.69
  -6   1  17 1676.53   49.90
  -6   1  17 1575.94   52.59
   5  -1 -17    9.90    8.30
  -5  -1  17   -4.90    6.30
   5  -1 -17   12.20    5.70
  -5   1  17    0.60    7.00
  -5   1  17   10.00    8.50
  -4  -1  17  206.28   15.80
   4  -1 -17  212.38   12.50
   4  -1 -17  261.57   20.20
   4   1 -17  211.78   19.50
  -4   1  17  224.48   18.10
  -4   1  17  237.48   20.60
   3  -1 -17  144.19   16.20
  -3  -1  17  142.69   13.50
   3  -1 -17  139.79    9.80
  -3   1  17  156.28   18.70
   3   1 -17  113.99   14.40
  -3   1  17  106.59   13.40
  -2  -1  17  141.29   12.30
   2  -1 -17  136.69   18.40
  -2   1  17  144.19   14.40
   2   1 -17  128.19   14.90
   1  -1 -17  149.49   19.40
  -1  -1  17  156.88   12.00
  -1   1  17  145.19   14.40
   1   1 -17  119.59   13.70
   0  -1 -17 1612.74   49.40
   0  -1  17 1568.64   54.69
   0  -1  17 1647.44   41.70
   0   1  17 1661.93   47.30
   0   1 -17 1495.55   45.40
   0   1  17 1639.24   56.29
  -1  -1 -17   12.50    7.40
   1  -1  17   28.70   10.80
   1   1  17    9.20    9.20
  -1   1 -17   11.10    5.50
  -2  -1 -17  734.73   30.50
   2  -1  17  787.22   38.00
  -2   1 -17  720.83   25.40
   2   1  17  832.62   39.10
  -3  -1 -17   -4.40    7.40
   3  -1  17  -26.30   10.20
  -3   1 -17   -1.60    4.60
   3   1  17    9.30   13.20
  -4  -1 -17   65.19   10.70
   4  -1  17   57.79   14.60
   4   1  17   57.19   15.80
   4   1  17   92.29   11.00
  -4   1 -17   65.19    6.30
   9  -2 -17  272.97   26.60
  -9  -2  17  324.97   26.80
  -9   2  17  324.57   21.60
   8  -2 -17  332.17   28.40
  -8  -2  17  359.86   29.30
  -8   2  17  402.06   25.40
  -8   2  17  358.06   22.50
  -8   2  17  370.96   28.80
  -7  -2  17    2.30    9.30
   7  -2 -17    0.60    9.60
  -7   2  17   -7.50    7.10
  -7   2  17    6.30    9.10
   6  -2 -17  263.97   18.90
  -6  -2  17  252.77   20.30
   6  -2 -17  295.77   23.80
  -6   2  17  250.07   21.90
  -6   2  17  248.58   18.90
   6   2 -17  272.07   13.80
  -6   2  17  266.27   21.30
  -5  -2  17  862.61   33.80
   5  -2 -17  890.11   32.50
   5  -2 -17  925.81   39.10
  -5   2  17  951.60   39.40
   5   2 -17  869.91   21.90
  -5   2  17  922.11   36.20
  -5   2  17  868.91   37.10
   4  -2 -17   42.80    8.60
   4  -2 -17   29.90   10.50
  -4  -2  17   62.49   10.50
  -4   2  17   46.00   10.90
  -4   2  17   40.80   11.60
   3  -2 -17 1114.49   35.00
  -3  -2  17 1155.78   36.00
   3  -2 -17 1149.29   43.50
  -3   2  17 1153.28   41.40
   2  -2 -17   21.10    9.20
  -2  -2  17   26.80    6.40
   2  -2 -17   26.30    7.10
  -2   2  17   23.40    8.10
  -1  -2  17  484.85   29.00
   1  -2 -17  529.15   27.90
  -1  -2  17  490.25   18.70
  -1   2  17  497.65   25.30
  -1   2  17  554.04   32.30
   0  -2 -17  167.98   17.50
   0  -2  17  181.68   10.40
   0  -2  17  175.98   20.70
   0   2  17  196.38   22.60
  -1  -2 -17    4.60    7.90
   1  -2  17    0.40   10.00
   1   2  17  -15.90   10.00
   2  -2  17  292.57   25.10
  -2  -2 -17  329.27   22.40
   2   2  17  288.87   43.80
  -3  -2 -17  389.86   24.10
   3   2  17  390.46   31.50
   3   2  17  376.16   20.40
  -7  -3  17   -3.40   10.00
   7  -3 -17   -1.90   12.40
   7  -3 -17   -3.30   10.00
  -7   3  17   -0.70    9.00
  -7   3  17    7.40   12.30
   7   3 -17   -0.10    6.30
  -7   3  17  -21.30   10.60
   6  -3 -17  395.56   26.70
   6  -3 -17  470.05   29.50
  -6  -3  17  467.85   26.20
  -6   3  17  370.66   27.20
  -6   3  17  423.86   28.10
  -6   3  17  431.26   26.50
   6   3 -17  458.05   18.30
  -5  -3  17  209.78   17.80
   5  -3 -17  232.68   22.60
  -5   3  17  195.18   19.70
  -5   3  17  207.58   22.90
  -5   3  17  214.98   31.20
   4  -3 -17   80.59   12.50
   4  -3 -17   55.89   13.00
  -4  -3  17   76.09   11.30
  -4   3  17   57.89   12.60
  -4   3  17   62.09   13.80
  -3  -3  17  753.02   27.10
   3  -3 -17  675.53   29.40
   3  -3 -17  718.83   34.70
  -3   3  17  717.33   33.90
  -3   3  17  664.23   33.60
   2  -3 -17   86.69   12.60
  -2  -3  17   73.99    8.80
   2  -3 -17   83.69   14.70
  -2   3  17   87.89   15.70
  -2   3  17  103.69   14.80
  -1  -3  17  413.46   16.00
   1  -3 -17  455.35   27.50
  -1   3  17  491.05   32.10
  -1   3  17  419.36   26.00
   0  -3 -17  385.86   26.00
   0  -3  17  390.86   11.40
   0  -3  17  425.56   28.60
   0   3  17  377.46   30.80
  -1  -3 -17    8.20    9.20
   1  -3  17   11.80   13.50
   1   3  17   16.20   13.50
   2  -3  17  349.07   35.50
  -2  -3 -17  369.86   25.40
   2   3  17  408.46   34.10
   4  -4 -17  199.38   22.70
  -4  -4  17  188.68   17.10
   4  -4 -17  117.79   15.30
  -4   4  17  210.78   23.00
  -4   4  17  198.38   26.80
  -4   4  17  162.28   26.10
   3  -4 -17  198.18   22.70
  -3  -4  17  187.78   15.40
   3  -4 -17  171.08   19.40
  -3   4  17  151.68   19.80
  -3   4  17  162.08   19.70
  -3   4  17  144.99   18.30
  -2  -4  17   87.69    9.40
   2  -4 -17   65.29   15.30
   2  -4 -17  111.29   15.90
  -2   4  17  115.69   17.80
  -2   4  17  105.89   18.80
  -1  -4  17  128.59    8.70
   1  -4 -17  137.69   19.30
  -1   4  17  120.39   19.30
  -9   0  18   13.20   12.10
  -9   0  18   -1.40    5.90
  -8   0  18  749.92   54.39
  -8   0  18  861.11   29.50
  -7   0  18   -7.50    8.50
   7   0 -18   11.50   10.20
  -7   0  18   -4.30    5.50
  -6   0  18  199.08   20.50
  -6   0  18  294.17   21.60
   6   0 -18  284.87   24.30
  -5   0  18    7.60    8.40
   5   0 -18   -5.30    8.20
   5   0 -18   -1.00    4.00
  -5   0  18    5.00    7.90
   4   0 -18   49.70   11.50
  -4   0  18   28.50   10.90
  -4   0  18   58.59    9.90
   4   0 -18   67.69    5.90
   3   0 -18   -2.00    8.30
  -3   0  18   -9.30    5.70
  -3   0  18   -2.40    8.30
  -2   0  18  961.20   41.60
  -2   0  18 1095.29   35.90
   2   0 -18 1070.59   39.50
  -1   0  18   -3.00    6.50
   1   0 -18    7.50    7.40
  -1   0  18    6.50    8.90
   0   0  18 1246.58   37.70
   0   0 -18 1229.48   41.20
  -1   0 -18   -1.80    6.30
   1   0  18   -2.60   10.10
  -2   0 -18  436.06   22.20
   3   0  18   -7.30   12.00
  -3   0 -18    4.30    7.20
  -9  -1  18   60.99   14.50
   9  -1 -18   30.30   13.60
  -9  -1  18   63.49    7.70
  -9   1  18   57.09    9.90
  -9   1  18   50.59   22.10
   8  -1 -18    9.20   12.10
  -8  -1  18   21.60    6.40
  -8   1  18   29.00   12.30
  -8   1  18   14.20    8.10
  -7  -1  18  142.39   17.20
   7  -1 -18  144.29   18.50
  -7   1  18  162.58   15.50
  -7   1  18  144.29   17.60
   6  -1 -18    3.70    9.50
  -6  -1  18   17.20    9.50
   6  -1 -18    8.20    6.50
  -6   1  18   -1.90    6.70
  -6   1  18    4.30    8.90
  -5  -1  18  506.65   25.80
   5  -1 -18  512.75   21.00
   5  -1 -18  561.04   29.80
  -5   1  18  526.25   27.60
   4  -1 -18   30.70    9.90
   4  -1 -18   21.40    5.80
  -4  -1  18   12.90    7.40
  -4   1  18  -16.10    6.80
   4   1 -18    5.60    9.70
   3  -1 -18 1277.87   33.70
  -3  -1  18 1332.07   49.20
   3  -1 -18 1428.96   47.80
  -3  -1  18 1277.77   46.50
  -3   1  18 1349.16   44.00
   3   1 -18 1256.17   45.20
   2  -1 -18   51.79   11.30
  -2  -1  18   66.99    9.30
  -2   1  18   64.29   11.20
   2   1 -18   61.99   11.50
  -2   1  18   56.99   12.90
   1  -1 -18   18.30    8.70
  -1  -1  18   16.20   11.10
  -1  -1  18   22.90    6.40
  -1   1  18   15.50    7.80
   1   1 -18    8.50    7.50
  -1   1  18   21.90   10.80
   0  -1  18  107.99   10.70
   0  -1  18  120.09   17.10
   0  -1 -18  119.59   14.60
   0   1  18   99.99   16.10
   0   1 -18  110.99   12.70
   0   1  18  126.89   14.10
   1  -1  18  349.27   27.70
  -1  -1 -18  372.26   22.20
   1   1  18  323.77   26.80
  -1   1 -18  346.67   18.80
  -2  -1 -18    9.90    7.80
  -2   1 -18   20.10    6.50
   2   1  18    7.80   12.70
   3  -1  18 1052.99   46.50
  -3  -1 -18 1032.50   37.20
  -3   1 -18 1012.70   28.90
   3   1  18 1023.30   47.20
  -8  -2  18  551.14   32.10
  -8  -2  18  533.15   17.80
   8  -2 -18  551.94   34.10
  -8   2  18  557.74   30.70
  -8   2  18  486.45   33.10
  -8   2  18  544.25   27.40
  -7  -2  18   24.20   11.90
   7  -2 -18   34.40   11.40
   7  -2 -18   28.00   12.40
  -7   2  18   23.00   11.60
  -7   2  18   35.80   11.90
  -7   2  18   20.30    8.90
  -6  -2  18  286.87   21.10
   6  -2 -18  215.78   18.10
   6  -2 -18  266.57   24.20
  -6   2  18  245.08   20.10
   6   2 -18  238.18   11.90
  -6   2  18  220.08   25.90
   5  -2 -18  147.49   15.10
   5  -2 -18  176.38   20.00
  -5  -2  18  132.59   14.70
  -5   2  18  145.09   17.10
  -5   2  18  142.79   17.80
   4  -2 -18   12.50    6.60
  -4  -2  18   10.70    7.20
   4  -2 -18    5.30    8.90
  -4   2  18    0.70    9.00
   3  -2 -18  163.18   13.40
  -3  -2  18  152.48   14.10
   3  -2 -18  178.78   18.60
  -3   2  18  130.59   18.40
  -3   2  18  145.19   16.60
  -2  -2  18  458.75   20.10
   2  -2 -18  489.95   27.50
  -2   2  18  462.95   25.60
  -2   2  18  443.96   30.10
  -1  -2  18    1.70   10.30
   1  -2 -18   10.10    8.40
  -1  -2  18   10.60    5.20
  -1   2  18    9.80   10.80
  -1   2  18   14.20    8.80
   0  -2 -18  735.03   33.60
   0  -2  18  724.23   36.80
   0  -2  18  742.73   22.30
   0   2  18  795.62   39.60
  -1  -2 -18   13.80    9.00
   1   2  18   12.30   14.10
   2  -2  18  244.78   26.20
  -2  -2 -18  256.27   21.40
   2   2  18  256.47   28.60
  -6  -3  18  131.19   15.80
   6  -3 -18  144.69   21.50
   6  -3 -18  100.99   14.70
  -6   3  18  140.19   17.10
   6   3 -18  129.49   10.50
  -6   3  18  110.39   19.30
  -6   3  18  139.79   18.50
  -5  -3  18  371.66   23.50
   5  -3 -18  429.16   30.10
  -5   3  18  398.16   26.30
  -5   3  18  433.46   28.40
   4  -3 -18    5.50   10.80
  -4  -3  18   14.60    7.60
   4  -3 -18   -3.80    7.80
  -4   3  18   -0.50    9.00
  -4   3  18   -5.70   11.60
  -4   3  18    0.40   10.30
  -3  -3  18  375.96   19.40
   3  -3 -18  358.36   21.90
   3  -3 -18  408.06   28.30
  -3   3  18  383.96   26.70
  -3   3  18  348.07   27.60
  -3   3  18  431.16   31.00
   2  -3 -18  247.98   23.90
  -2  -3  18  255.97   14.70
   2  -3 -18  233.88   18.50
  -2   3  18  211.08   25.30
   1  -3 -18    6.10   10.30
  -1  -3  18   13.30    5.00
  -1   3  18   34.10   14.20
   0  -3  18  327.77   28.60
   0  -3 -18  311.17   25.70
   0   3  18  368.46   31.60
   1  -3  18  155.08   20.20
  -1  -3 -18  159.78   19.20
   1   3  18  174.18   23.20
  -8   0  19  -14.50   10.30
  -8   0  19    2.60    6.90
  -7   0  19  581.74   30.00
  -7   0  19  545.75   31.10
   7   0 -19  516.75   32.30
  -7   0  19  473.05   29.60
  -6   0  19  -14.70    9.10
  -6   0  19    7.40    9.10
   6   0 -19    3.90   10.50
   5   0 -19 1166.28   45.60
  -5   0  19 1149.69   41.60
  -5   0  19 1101.79   45.30
   5   0 -19 1130.49   28.70
  -4   0  19    8.10    7.60
  -4   0  19  -12.00    8.30
   4   0 -19   -4.30    8.70
  -3   0  19  302.57   19.80
   3   0 -19  282.77   22.20
  -3   0  19  307.77   25.20
  -2   0  19    0.80    6.00
   2   0 -19    6.40    8.20
  -2   0  19    6.80   10.00
  -1   0  19   72.19   10.20
  -1   0  19   67.89   15.30
   1   0 -19   49.80   10.50
   0   0  19   -5.10   10.70
   0   0  19    7.80    7.50
   0   0 -19   10.70    7.70
   1   0  19  417.66   30.20
  -1   0 -19  376.76   22.20
   2   0  19   22.00   12.70
  -2   0 -19    3.60    7.50
  -8  -1  19  488.25   20.40
   8  -1 -19  412.56   35.10
  -8  -1  19  464.65   29.50
  -8   1  19  459.15   31.40
  -8   1  19  478.75   24.50
  -8   1  19  441.46   29.30
   7  -1 -19   -0.80   11.70
  -7  -1  19    0.20   10.20
  -7   1  19   -3.00    9.90
  -7   1  19   11.90    7.70
  -7   1  19    1.20    9.90
   6  -1 -19    9.80   11.70
  -6  -1  19   22.40   10.10
   6  -1 -19   20.20    8.00
  -6   1  19    4.60   10.30
  -6   1  19   15.20   10.10
  -6   1  19   18.80    8.40
  -5  -1  19  163.28   17.50
   5  -1 -19  135.69   17.60
   5  -1 -19  173.88   12.80
  -5   1  19  148.39   18.00
  -5   1  19  187.28   18.20
  -4  -1  19  668.73   29.20
   4  -1 -19  664.93   22.10
   4  -1 -19  678.73   33.40
  -4  -1  19  678.23   35.30
  -4   1  19  690.03   31.80
  -4   1  19  664.53   35.20
  -3  -1  19    6.90    7.30
   3  -1 -19   16.90    9.70
  -3  -1  19    1.00    9.30
  -3   1  19    9.10   10.60
  -3   1  19    5.80    7.80
   3   1 -19    9.20   10.80
  -2  -1  19  834.92   39.50
  -2  -1  19  804.52   34.60
   2  -1 -19  836.82   36.10
  -2   1  19  840.32   33.60
   2   1 -19  874.51   35.50
  -2   1  19  846.42   39.90
  -1  -1  19    2.10    5.50
   1  -1 -19   10.00    8.30
  -1  -1  19    3.00   10.60
   1   1 -19  -14.90    7.30
  -1   1  19   -0.90   10.30
  -1   1  19    2.90    7.00
   0  -1 -19  458.55   26.20
   0  -1  19  456.85   19.40
   0   1  19  470.05   23.90
   0   1  19  471.35   44.70
   0   1 -19  425.46   23.60
  -1  -1 -19    2.90    7.80
   1  -1  19    1.10   12.00
   1   1  19  -12.10   12.00
  -1   1 -19   -4.40    6.60
  -2  -1 -19   19.20    9.10
   2  -1  19    5.20   12.60
  -2   1 -19    8.50    6.80
   2   1  19   -4.90   12.90
   7  -2 -19  540.75   33.90
  -7  -2  19  553.84   31.20
  -7   2  19  502.95   32.20
  -7   2  19  568.24   29.00
   7   2 -19  514.45   20.10
  -7   2  19  518.15   49.50
  -6  -2  19   -4.60    9.00
   6  -2 -19    8.40    8.10
   6  -2 -19   21.00   11.10
  -6   2  19    5.50   11.00
  -6   2  19   17.50   11.20
  -6   2  19   16.10    9.10
   5  -2 -19  561.34   25.20
   5  -2 -19  589.04   33.00
  -5  -2  19  569.84   27.90
  -5   2  19  613.44   34.20
  -5   2  19  544.95   29.10
   4  -2 -19   20.20    7.80
   4  -2 -19   12.70   10.50
  -4  -2  19   35.00    8.60
  -4   2  19   27.20    9.80
  -4   2  19   28.90   12.20
  -3  -2  19   95.79   13.50
   3  -2 -19  107.59   12.60
   3  -2 -19  134.49   17.90
  -3   2  19  127.99   20.10
  -3   2  19  105.49   14.60
  -2  -2  19  201.08   26.90
   2  -2 -19  207.08   21.50
  -2  -2  19  180.28   14.30
  -2   2  19  190.28   18.80
  -2   2  19  145.69   19.70
  -1  -2  19   71.59    8.90
  -1  -2  19   85.19   16.80
   1  -2 -19   82.29   13.40
  -1   2  19   86.49   13.80
  -1   2  19   68.19   17.50
   0  -2  19  136.89   19.40
   0  -2  19  156.48   10.60
   0  -2 -19  187.48   19.90
   0   2  19  174.88   22.30
   1  -2  19  487.15   33.70
  -1  -2 -19  491.15   27.70
   1   2  19  504.85   35.70
   5  -3 -19  329.17   28.30
  -5  -3  19  330.47   22.60
  -5   3  19  304.17   39.40
  -5   3  19  284.67   28.70
   4  -3 -19   76.99   14.70
  -4  -3  19   89.49   12.10
   4  -3 -19   91.29   25.40
  -4   3  19  106.89   17.60
  -4   3  19   77.09   15.40
   3  -3 -19   53.39   11.20
   3  -3 -19   45.80   16.50
  -3  -3  19   59.29   10.50
  -3   3  19   43.60   16.10
  -3   3  19   48.10   13.20
  -2  -3  19  509.25   20.60
   2  -3 -19  548.85   31.90
  -2   3  19  499.75   30.90
  -1  -3  19   30.60    5.90
  -1  -3  19   29.00   14.00
   1  -3 -19   39.20   13.70
  -1   3  19   33.30   15.50
  -7   0  20   -0.30   10.70
  -7   0  20    9.80   11.00
  -7   0  20    0.70    6.90
   7   0 -20  -14.70   11.40
   6   0 -20  329.07   28.00
  -6   0  20  337.57   24.70
  -6   0  20  291.47   25.80
   6   0 -20  275.37   14.10
  -5   0  20   -5.70   10.70
   5   0 -20   -5.30    5.80
  -5   0  20   -4.30    9.00
   5   0 -20   -5.40   10.20
  -4   0  20  409.36   24.40
   4   0 -20  365.26   26.80
  -4   0  20  434.46   29.50
   3   0 -20   -4.50    9.60
  -3   0  20   -2.80   10.40
  -3   0  20   -0.50    7.20
   2   0 -20  836.82   36.60
  -2   0  20  846.42   32.40
  -1   0  20   18.70   11.90
   1   0 -20  -15.40    8.40
  -1   0  20    1.80    6.50
   0   0  20   49.99   14.80
   0   0  20   77.79   10.60
   1   0  20   -3.30   13.20
  -1   0 -20    7.90    8.50
  -7  -1  20  481.75   33.20
   7  -1 -20  457.95   23.30
  -7   1  20  451.25   30.40
  -7   1  20  409.76   24.60
  -7   1  20  484.15   31.20
   6  -1 -20   32.70    8.30
  -6  -1  20   22.60   10.30
   6  -1 -20   29.20   13.20
  -6   1  20   35.90   10.70
  -6   1  20   30.60   12.10
  -6   1  20   30.40   12.50
   5  -1 -20  485.25   30.70
  -5  -1  20  543.85   28.10
   5  -1 -20  471.55   19.60
  -5   1  20  470.35   31.40
  -5   1  20  493.35   27.90
  -4  -1  20   49.80   15.70
   4  -1 -20   59.39    7.70
  -4  -1  20   54.29   11.00
   4  -1 -20   67.19   14.10
  -4   1  20   44.20   14.10
  -4   1  20   63.99   12.70
  -3  -1  20   80.09   15.90
  -3  -1  20   85.19   11.80
   3  -1 -20   85.89   14.50
  -3   1  20   79.99   13.40
  -3   1  20   99.29   16.70
   3   1 -20   69.19   13.10
   2  -1 -20   11.20   10.30
  -2  -1  20   25.20    7.30
  -2  -1  20   24.60   13.50
   2   1 -20   13.30    9.30
  -2   1  20   17.50    8.80
   1  -1 -20  427.76   26.80
  -1  -1  20  464.25   21.10
  -1  -1  20  443.26   31.40
  -1   1  20  477.55   25.10
   1   1 -20  366.26   24.10
  -1   1  20  454.85   32.30
   0  -1  20    8.20    5.90
   0  -1 -20   -6.50    8.60
   0  -1  20   -9.70   11.80
   0   1 -20    8.20    8.50
   0   1  20    1.00   11.60
  -1  -1 -20  925.61   37.60
   1  -1  20  935.31   48.30
   1   1  20  870.31   56.69
  -1   1 -20  977.50   33.40
  -6  -2  20   56.29   12.40
   6  -2 -20   35.80   14.10
   6  -2 -20   74.59   12.80
  -6   2  20   66.09   15.10
  -6   2  20   54.59   13.10
  -6   2  20   27.70   12.90
   5  -2 -20    1.90   12.10
  -5  -2  20    7.50    8.90
   5  -2 -20   22.50    9.00
  -5   2  20   24.30   11.30
  -5   2  20   33.50   12.40
  -5   2  20    1.70   12.20
  -4  -2  20  444.36   23.70
   4  -2 -20  410.46   20.30
   4  -2 -20  379.46   28.10
  -4   2  20  374.86   31.00
  -4   2  20  414.26   27.10
  -3  -2  20  -11.70   12.10
   3  -2 -20   -9.60   10.00
  -3  -2  20   14.40    7.60
  -3   2  20   -8.80   13.40
  -2  -2  20  623.24   24.70
  -2  -2  20  676.33   37.30
   2  -2 -20  628.34   34.20
  -2   2  20  610.94   35.50
  -2   2  20  716.43   39.70
  -1  -2  20   93.29   17.50
   1  -2 -20  108.89   16.80
  -1  -2  20  111.49   11.50
  -1   2  20   97.39   19.90
  -1   2  20  100.99   14.40
   0  -2 -20   33.90   12.30
  -6   0  21   -3.10   11.60
   6   0 -21   -2.50    5.00
  -6   0  21   -4.70   10.40
   6   0 -21    3.90   12.00
  -5   0  21   45.10   11.60
   5   0 -21   16.80   12.90
  -5   0  21   26.80   13.90
   4   0 -21   -2.60   11.00
  -4   0  21  -21.60   11.20
  -4   0  21   14.30    9.10
  -3   0  21  248.38   20.20
   3   0 -21  228.58   23.30
  -3   0  21  186.08   21.70
   2   0 -21    0.20    9.70
  -2   0  21    8.20   12.40
  -2   0  21   -7.10    7.50
  -1   0  21  948.51   34.50
   1   0 -21 1035.60   40.30
  -1   0  21  911.81   46.30
   5  -1 -21   10.40    5.90
  -5  -1  21   10.50    9.70
  -5  -1  21    4.50   12.90
   5  -1 -21   -4.50   11.30
  -5   1  21   20.30   23.10
  -5   1  21   19.20   11.50
   4  -1 -21  688.33   36.30
  -4  -1  21  692.63   30.10
  -4  -1  21  679.03   37.80
  -4   1  21  599.94   37.50
  -4   1  21  600.94   37.20
   3  -1 -21   15.40   11.20
  -3  -1  21   12.40    8.20
  -3  -1  21   10.70   12.20
  -3   1  21    5.90    9.40
  -3   1  21   -4.20   12.10
  -2  -1  21  236.48   28.10
  -2  -1  21  273.57   19.00
   2  -1 -21  287.07   24.10
  -2   1  21  321.07   29.60
   2   1 -21  283.27   23.60
  -2   1  21  302.77   22.50
  -1  -1  21   36.80    8.70
   1  -1 -21   34.10   11.90
  -1  -1  21   51.19   23.90
  -1   1  21   36.80   10.50
   1   1 -21   30.80   11.00
  -1   1  21   31.10   14.90
   0   0   0    0.00    0.00

_computing_structure_solution     'SHELXT 2018/2 (Sheldrick, 2018)'
;
loop_
_space_group_symop_operation_xyz
'x, y, z'
'-x+1/2, y, -z+1/2'
'-x, -y, -z'
'x-1/2, -y, z-1/2'
loop_
_atom_site_label
_atom_site_type_symbol
_atom_site_fract_x
_atom_site_fract_y
_atom_site_fract_z
_atom_site_U_iso_or_equiv
_atom_site_adp_type
_atom_site_occupancy
_atom_site_site_symmetry_order
_atom_site_calc_flag
_atom_site_refinement_flags_posn
_atom_site_refinement_flags_adp
_atom_site_refinement_flags_occupancy
_atom_site_disorder_assembly
_atom_site_disorder_group
C1 C 0.7297(2) 0.2244(4) 0.49638(12) 0.0233(4) Uani 1 1 d . . . . .
C2 C 0.6925(2) 0.4314(3) 0.43771(11) 0.0195(4) Uani 1 1 d . . . . .
C3 C 0.7939(2) 0.5837(4) 0.42147(12) 0.0232(4) Uani 1 1 d . . . . .
H3 H 0.890331 0.554152 0.447902 0.028 Uiso 1 1 calc R U . . .
C4 C 0.7587(2) 0.7815(4) 0.36695(12) 0.0260(4) Uani 1 1 d . . . . .
H4 H 0.829807 0.884976 0.355846 0.031 Uiso 1 1 calc R U . . .
C5 C 0.6208(2) 0.8214(4) 0.33053(12) 0.0256(4) Uani 1 1 d . . . . .
H5 H 0.594390 0.955764 0.293724 0.031 Uiso 1 1 calc R U . . .
C6 C 0.5477(2) 0.4761(4) 0.39741(11) 0.0207(4) Uani 1 1 d . . . . .
I1 I 0.93578(2) 0.71135(2) 0.66484(2) 0.02275(5) Uani 1 1 d . . . . .
N1 N 0.51953(18) 0.6717(3) 0.34593(10) 0.0224(4) Uani 1 1 d . . . . .
H1 H 0.430810 0.703382 0.321120 0.027 Uiso 1 1 calc R U . . .
N2 N 0.44045(18) 0.3395(3) 0.40588(11) 0.0268(4) Uani 1 1 d . . . . .
H2A H 0.353855 0.376613 0.378475 0.032 Uiso 1 1 calc R U . . .
H2B H 0.455659 0.211288 0.438917 0.032 Uiso 1 1 calc R U . . .
O1 O 0.64255(16) 0.1108(3) 0.52111(10) 0.0331(4) Uani 1 1 d . . . . .
O2 O 0.86643(14) 0.1751(3) 0.51909(9) 0.0253(3) Uani 1 1 d . . . . .
H2 H 0.881736 0.059259 0.553009 0.038 Uiso 1 1 calc R U . . .
O1W O 0.250000 0.8468(4) 0.250000 0.0269(5) Uani 1 2 d S T P . .
H1W H 0.216(3) 0.938(5) 0.2779(15) 0.040 Uiso 1 1 d . U . . .
loop_
_atom_site_aniso_label
_atom_site_aniso_U_11
_atom_site_aniso_U_22
_atom_site_aniso_U_33
_atom_site_aniso_U_23
_atom_site_aniso_U_13
_atom_site_aniso_U_12
C1 0.0236(11) 0.0227(10) 0.0229(10) -0.0007(8) 0.0052(8) -0.0013(8)
C2 0.0194(10) 0.0204(10) 0.0180(10) -0.0011(7) 0.0038(8) 0.0002(8)
C3 0.0201(10) 0.0262(11) 0.0222(10) -0.0005(8) 0.0037(8) -0.0011(8)
C4 0.0259(11) 0.0266(10) 0.0264(11) 0.0015(9) 0.0088(9) -0.0065(9)
C5 0.0314(12) 0.0219(10) 0.0230(11) 0.0036(8) 0.0065(9) -0.0011(9)
C6 0.0217(10) 0.0206(9) 0.0193(10) -0.0030(8) 0.0047(8) -0.0017(8)
I1 0.02115(7) 0.02359(7) 0.02249(7) 0.00059(5) 0.00406(5) -0.00012(6)
N1 0.0196(8) 0.0243(9) 0.0217(9) 0.0011(7) 0.0030(7) 0.0010(7)
N2 0.0169(8) 0.0300(10) 0.0303(10) 0.0058(7) 0.0009(7) -0.0024(7)
O1 0.0241(8) 0.0345(8) 0.0407(9) 0.0156(7) 0.0085(7) -0.0023(7)
O2 0.0200(7) 0.0273(8) 0.0264(8) 0.0073(6) 0.0024(6) 0.0018(6)
O1W 0.0230(11) 0.0281(12) 0.0313(13) 0.000 0.0101(9) 0.000
loop_
_atom_type_symbol
_atom_type_description
_atom_type_scat_dispersion_real
_atom_type_scat_dispersion_imag
_atom_type_scat_source
C C 0.0033 0.0016 'International Tables Vol C Tables 4.2.6.8 and 6.1.1.4'
H H 0.0000 0.0000 'International Tables Vol C Tables 4.2.6.8 and 6.1.1.4'
I I -0.4742 1.8119 'International Tables Vol C Tables 4.2.6.8 and 6.1.1.4'
O O 0.0106 0.0060 'International Tables Vol C Tables 4.2.6.8 and 6.1.1.4'
N N 0.0061 0.0033 'International Tables Vol C Tables 4.2.6.8 and 6.1.1.4'
loop_
_geom_angle_atom_site_label_1
_geom_angle_atom_site_label_2
_geom_angle_atom_site_label_3
_geom_angle
_geom_angle_site_symmetry_1
_geom_angle_site_symmetry_3
O1 C1 C2 123.18(19) . .
O1 C1 O2 123.38(19) . .
O2 C1 C2 113.44(17) . .
C3 C2 C1 121.62(18) . .
C3 C2 C6 118.89(18) . .
C6 C2 C1 119.48(18) . .
C2 C3 H3 119.2 . .
C2 C3 C4 121.64(19) . .
C4 C3 H3 119.2 . .
C3 C4 H4 120.9 . .
C5 C4 C3 118.17(19) . .
C5 C4 H4 120.9 . .
C4 C5 H5 119.6 . .
C4 C5 N1 120.77(19) . .
N1 C5 H5 119.6 . .
N1 C6 C2 116.98(18) . .
N2 C6 C2 124.95(18) . .
N2 C6 N1 118.07(18) . .
C5 N1 H1 118.2 . .
C6 N1 C5 123.55(19) . .
C6 N1 H1 118.2 . .
C6 N2 H2A 120.0 . .
C6 N2 H2B 120.0 . .
H2A N2 H2B 120.0 . .
C1 O2 H2 109.5 . .
H1W O1W H1W 107(4) . 2
loop_
_geom_bond_atom_site_label_1
_geom_bond_atom_site_label_2
_geom_bond_distance
_geom_bond_site_symmetry_2
C1 C2 1.482(3) .
C1 O1 1.218(2) .
C1 O2 1.322(2) .
C2 C3 1.372(3) .
C2 C6 1.429(3) .
C3 H3 0.9500 .
C3 C4 1.399(3) .
C4 H4 0.9500 .
C4 C5 1.351(3) .
C5 H5 0.9500 .
C5 N1 1.358(3) .
C6 N1 1.355(2) .
C6 N2 1.322(3) .
N1 H1 0.8800 .
N2 H2A 0.8800 .
N2 H2B 0.8800 .
O2 H2 0.8400 .
O1W H1W 0.82(2) .
O1W H1W 0.82(2) 2
loop_
_geom_torsion_atom_site_label_1
_geom_torsion_atom_site_label_2
_geom_torsion_atom_site_label_3
_geom_torsion_atom_site_label_4
_geom_torsion
_geom_torsion_site_symmetry_1
_geom_torsion_site_symmetry_2
_geom_torsion_site_symmetry_3
_geom_torsion_site_symmetry_4
C1 C2 C3 C4 -179.03(18) . . . .
C1 C2 C6 N1 178.37(17) . . . .
C1 C2 C6 N2 -2.6(3) . . . .
C2 C3 C4 C5 0.5(3) . . . .
C2 C6 N1 C5 0.9(3) . . . .
C3 C2 C6 N1 -1.0(3) . . . .
C3 C2 C6 N2 177.99(19) . . . .
C3 C4 C5 N1 -0.7(3) . . . .
C4 C5 N1 C6 -0.1(3) . . . .
C6 C2 C3 C4 0.3(3) . . . .
N2 C6 N1 C5 -178.17(19) . . . .
O1 C1 C2 C3 168.5(2) . . . .
O1 C1 C2 C6 -10.9(3) . . . .
O2 C1 C2 C3 -11.6(3) . . . .
O2 C1 C2 C6 169.04(17) . . . .
