#------------------------------------------------------------------------------
#$Date: 2022-03-22 11:16:26 +0200 (Tue, 22 Mar 2022) $
#$Revision: 273890 $
#$URL: file:///home/coder/svn-repositories/cod/cif/8/10/48/8104827.cif $
#------------------------------------------------------------------------------
#
# This file is available in the Crystallography Open Database (COD),
# http://www.crystallography.net/
#
# All data on this site have been placed in the public domain by the
# contributors.
#
data_8104827
loop_
_publ_author_name
'Xu, Xindi'
'Tian, Hui'
'Wang, Xia'
'Wang, Man'
'Wu, Qiong'
_publ_section_title
;
 Crystal structure of
 4-bromo-N&#x2032;-[(3-chloro-2-hydroxyphenyl)methylidene]benzohydrazide,
 C14H7Br2N2O2
;
_journal_issue                   2
_journal_name_full
'Zeitschrift f\"ur Kristallographie - New Crystal Structures'
_journal_page_first              347
_journal_page_last               348
_journal_paper_doi               10.1515/ncrs-2020-0586
_journal_volume                  236
_journal_year                    2021
_chemical_formula_moiety         'C14 H7 Br2 N2 O2'
_chemical_formula_sum            'C14 H10 Br2 N2 O2'
_chemical_formula_weight         398.06
_space_group_crystal_system      monoclinic
_space_group_IT_number           14
_space_group_name_Hall           '-P 2yn'
_space_group_name_H-M_alt        'P 1 21/n 1'
_atom_sites_solution_hydrogens   geom
_atom_sites_solution_primary     iterative
_cell_angle_alpha                90
_cell_angle_beta                 91.0784(14)
_cell_angle_gamma                90
_cell_formula_units_Z            2
_cell_length_a                   4.8308(2)
_cell_length_b                   6.1438(2)
_cell_length_c                   23.0836(9)
_cell_measurement_reflns_used    3064
_cell_measurement_temperature    150.0
_cell_measurement_theta_max      26.32
_cell_measurement_theta_min      3.53
_cell_volume                     684.99(4)
_computing_cell_refinement       'SAINT v8.37A (Bruker, 2015)'
_computing_data_reduction        'SAINT v8.37A (Bruker, 2015)'
_computing_molecular_graphics    'Olex2 1.3 (Dolomanov et al., 2009)'
_computing_publication_material  'Olex2 1.3 (Dolomanov et al., 2009)'
_computing_structure_refinement  'SHELXL 2018/3 (Sheldrick, 2015)'
_computing_structure_solution    'olex2.solve 1.3 (Bourhis et al., 2015)'
_diffrn_ambient_temperature      150.0
_diffrn_measured_fraction_theta_full 0.998
_diffrn_measured_fraction_theta_max 0.998
_diffrn_measurement_device_type  'Bruker APEX-II CCD'
_diffrn_measurement_method       '\f and \w scans'
_diffrn_radiation_type           MoK\a
_diffrn_radiation_wavelength     0.71073
_diffrn_reflns_av_R_equivalents  0.0319
_diffrn_reflns_av_unetI/netI     0.0210
_diffrn_reflns_Laue_measured_fraction_full 0.998
_diffrn_reflns_Laue_measured_fraction_max 0.998
_diffrn_reflns_limit_h_max       6
_diffrn_reflns_limit_h_min       -5
_diffrn_reflns_limit_k_max       7
_diffrn_reflns_limit_k_min       -7
_diffrn_reflns_limit_l_max       28
_diffrn_reflns_limit_l_min       -28
_diffrn_reflns_number            7475
_diffrn_reflns_point_group_measured_fraction_full 0.998
_diffrn_reflns_point_group_measured_fraction_max 0.998
_diffrn_reflns_theta_full        25.242
_diffrn_reflns_theta_max         26.368
_diffrn_reflns_theta_min         3.432
_diffrn_source_current           30.0
_diffrn_source_power             1.5
_diffrn_source_voltage           50.0
_diffrn_standards_number         0
_exptl_absorpt_coefficient_mu    5.919
_exptl_absorpt_correction_T_max  0.0276
_exptl_absorpt_correction_T_min  0.0087
_exptl_absorpt_correction_type   none
_exptl_absorpt_process_details
;
SADABS-2016/2 (Bruker,2016/2) was used for absorption correction.
wR2(int) was 0.0929 before and 0.0473 after correction.
The Ratio of minimum to maximum transmission is 0.3152.
The \l/2 correction factor is Not present.
;
_exptl_crystal_colour            'clear light yellow'
_exptl_crystal_colour_lustre     clear
_exptl_crystal_colour_modifier   light
_exptl_crystal_colour_primary    yellow
_exptl_crystal_density_diffrn    1.930
_exptl_crystal_description       needle
_exptl_crystal_F_000             388
_exptl_crystal_size_max          0.2
_exptl_crystal_size_mid          0.2
_exptl_crystal_size_min          0.18
_refine_diff_density_max         0.458
_refine_diff_density_min         -0.606
_refine_diff_density_rms         0.105
_refine_ls_extinction_coef       .
_refine_ls_extinction_method     none
_refine_ls_goodness_of_fit_ref   1.206
_refine_ls_hydrogen_treatment    constr
_refine_ls_matrix_type           full
_refine_ls_number_parameters     101
_refine_ls_number_reflns         1392
_refine_ls_number_restraints     0
_refine_ls_restrained_S_all      1.206
_refine_ls_R_factor_all          0.0528
_refine_ls_R_factor_gt           0.0477
_refine_ls_shift/su_max          0.000
_refine_ls_shift/su_mean         0.000
_refine_ls_structure_factor_coef Fsqd
_refine_ls_weighting_details
'w=1/[\s^2^(Fo^2^)+4.5954P] where P=(Fo^2^+2Fc^2^)/3'
_refine_ls_weighting_scheme      calc
_refine_ls_wR_factor_gt          0.1087
_refine_ls_wR_factor_ref         0.1108
_reflns_Friedel_coverage         0.000
_reflns_Friedel_fraction_full    .
_reflns_Friedel_fraction_max     .
_reflns_number_gt                1256
_reflns_number_total             1392
_reflns_threshold_expression     'I > 2\s(I)'
_cod_data_source_file            suppl_j_ncrs-2020-0586_suppl.cif
_cod_data_source_block           mo_1022_2_0m
_cod_database_code               8104827
_shelx_space_group_comment
;
The symmetry employed for this shelxl refinement is uniquely defined
by the following loop, which should always be used as a source of
symmetry information in preference to the above space-group names.
They are only intended as comments.
;
_shelx_estimated_absorpt_t_max   0.416
_shelx_estimated_absorpt_t_min   0.384
_olex2_refinement_description
;
1. Fixed Uiso
 At 1.2 times of:
  All C(H) groups
 At 1.5 times of:
  All O(H) groups
2. Others
 Fixed Sof: O1(0.5) H1(0.5) O2(0.5)
3.a Aromatic/amide H refined with riding coordinates:
 C6(H6), C5(H5), C3(H3)
3.b Idealised tetrahedral OH refined as rotating group:
 O1(H1)
;
_shelx_res_file
;
TITL
    mo_1022_2_0m.res
    created by SHELXL-2018/3 at 12:07:43 on 22-Oct-2020
CELL 0.71073 4.8308 6.1438 23.0836 90 91.0784 90
ZERR 2 0.0002 0.0002 0.0009 0 0.0014 0
LATT 1
SYMM 0.5-X,0.5+Y,0.5-Z
SFAC C H Br N O
UNIT 28 20 4 4 4

L.S. 16
PLAN  2
SIZE 0.18 0.2 0.2
TEMP -123.15
CONF
MORE -1
BOND $H
fmap 2
acta
REM <olex2.extras>
REM <HklSrc "%.\\mo_1022_2_0m.hkl">
REM </olex2.extras>

WGHT    0.000000    4.595400
FVAR       0.18320
BR1   3    0.191857    0.442261    0.295633    11.00000    0.05392    0.04443 =
         0.05080    0.01072    0.00340   -0.00172
O1    5    0.335172   -0.067603    0.469836    10.50000    0.04052    0.04277 =
         0.03584   -0.00004   -0.00263   -0.01082
AFIX 147
H1    2    0.259304   -0.160050    0.491143    10.50000   -1.50000
AFIX   0
O2    5   -0.391482   -0.396828    0.447897    10.50000    0.03691    0.03124 =
         0.05778   -0.00455    0.00183   -0.00175
N1    4    0.037977   -0.412068    0.483805    11.00000    0.03385    0.03258 =
         0.05230   -0.00043    0.00489   -0.00448
C2    1    0.164337   -0.013440    0.427419    11.00000    0.03816    0.03866 =
         0.04323   -0.00144   -0.00493   -0.00565
C6    1   -0.207003   -0.101263    0.359287    11.00000    0.03482    0.03856 =
         0.05499   -0.00670   -0.00117   -0.00164
AFIX  43
H6    2   -0.357737   -0.191717    0.347766    11.00000   -1.20000
AFIX   0
C1    1   -0.062110   -0.147756    0.410391    11.00000    0.03414    0.03140 =
         0.04518    0.00035    0.00250   -0.00335
C4    1    0.086741    0.204760    0.342982    11.00000    0.03957    0.03435 =
         0.03984   -0.00106    0.01000    0.00276
C7    1   -0.144677   -0.339308    0.445055    11.00000    0.03915    0.03952 =
         0.05310    0.00427   -0.00115   -0.00632
C5    1   -0.137115    0.072857    0.324977    11.00000    0.03727    0.04703 =
         0.04094   -0.00152   -0.00040   -0.00041
AFIX  43
H5    2   -0.237255    0.103173    0.290092    11.00000   -1.20000
AFIX   0
C3    1    0.232771    0.165322    0.393259    11.00000    0.03802    0.03393 =
         0.04522   -0.00179    0.00372   -0.00653
AFIX  43
H3    2    0.379983    0.259160    0.404846    11.00000   -1.20000
AFIX   0
HKLF 4




REM
REM wR2 = 0.1108, GooF = S = 1.206, Restrained GooF = 1.206 for all data
REM R1 = 0.0477 for 1256 Fo > 4sig(Fo) and 0.0528 for all 1392 data
REM 101 parameters refined using 0 restraints

END

WGHT      0.0000      4.6070

REM Highest difference peak  0.458,  deepest hole -0.606,  1-sigma level  0.105
Q1    1   0.1395  0.4172  0.2506  11.00000  0.05    0.46
Q2    1   0.1925  0.4481  0.3400  11.00000  0.05    0.45
;
_shelx_hkl_file
;
  -1   0   0    0.76    0.10
   1   0   0    0.52    0.10
   2   0   0  207.79    4.17
   2   0   0  214.76    4.16
   3   0   0    0.79    0.21
   3   0   0    0.14    0.18
   4   0   0    0.94    0.26
   4   0   0    1.08    0.27
   5   0   0    0.25    0.26
   5   0   0    0.31    0.27
   6   0   0    1.54    0.40
   6   0   0    1.72    0.38
   0  -1   0    0.45    0.09
   0  -1   0    0.65    0.10
   0   1   0    0.80    0.10
   0   1   0    0.64    0.10
  -1  -1   0   17.11    0.57
  -1  -1   0   17.37    0.57
   1   1   0   15.89    0.56
   1   1   0   15.39    0.56
  -2  -1   0   49.39    1.29
  -2  -1   0   51.13    1.32
   2   1   0   50.62    1.32
   2   1   0   50.48    1.33
  -3  -1   0   37.59    1.08
  -3  -1   0   39.03    1.12
   3   1   0   36.06    1.13
   3   1   0   35.92    1.14
  -4  -1   0    8.32    0.54
   4  -1   0    9.35    0.49
  -4  -1   0    8.28    0.50
   4  -1   0    7.79    0.47
   4   1   0    9.02    0.62
   4   1   0    8.27    0.61
   5  -1   0   15.72    0.68
   5  -1   0   15.50    0.69
   5   1   0   16.04    0.82
   5   1   0   15.28    0.79
   0  -2   0  289.96    5.72
   0  -2   0  304.80    5.74
   0   2   0  295.59    5.71
   0   2   0  296.85    5.69
  -1  -2   0  122.29    2.63
  -1  -2   0  115.69    2.60
   1   2   0  119.67    2.63
   1   2   0  123.14    2.63
  -2  -2   0   76.28    1.89
  -2  -2   0   74.33    1.87
   2   2   0   76.63    1.91
   2   2   0   75.67    1.89
  -3  -2   0    5.52    0.50
  -3  -2   0    6.00    0.51
   3   2   0    6.86    0.57
   3   2   0    6.39    0.56
  -4  -2   0    0.30    0.25
  -4  -2   0    0.23    0.25
   4   2   0    0.32    0.33
   4   2   0    0.14    0.27
  -5  -2   0   10.98    0.66
  -5  -2   0    9.23    0.61
   5   2   0   10.90    0.75
   5   2   0   10.47    0.74
   0  -3   0    1.01    0.22
   0  -3   0    0.78    0.22
   0   3   0    0.80    0.21
  -1  -3   0   13.05    0.64
  -1  -3   0   13.05    0.65
   1  -3   0   12.64    0.47
   1   3   0   13.33    0.64
   1   3   0   12.74    0.64
  -2  -3   0   22.53    0.92
  -2  -3   0   23.88    0.93
   2   3   0   22.58    0.93
   2   3   0   23.49    0.93
  -3  -3   0    5.31    0.55
  -3  -3   0    5.28    0.56
   3   3   0    5.61    0.57
   3   3   0    4.26    0.50
  -4  -3   0   36.48    1.24
  -4  -3   0   36.01    1.25
   4   3   0   37.93    1.32
   4   3   0   34.76    1.29
  -5  -3   0    1.95    0.39
  -5  -3   0    1.12    0.36
   5   3   0    1.78    0.43
   5   3   0    1.72    0.43
   0  -4   0   10.72    0.59
   0  -4   0   11.48    0.61
   0   4   0   11.94    0.59
   0   4   0   11.60    0.56
  -1  -4   0  150.42    3.37
   1  -4   0  151.06    3.13
   1  -4   0  153.73    3.16
  -1  -4   0  153.00    3.38
   1   4   0  147.21    3.31
   1   4   0  151.64    3.34
  -2  -4   0    4.99    0.54
  -2  -4   0    3.81    0.47
   2   4   0    3.77    0.47
   2   4   0    6.02    0.60
  -3  -4   0    4.45    0.63
  -3  -4   0    5.44    0.59
   3   4   0    5.89    0.63
  -4  -4   0    0.45    0.32
   4   4   0    0.26    0.32
   4   4   0    0.34    0.34
  -5  -4   0   -0.03    0.38
  -5  -4   0    0.59    0.36
   5   4   0    1.20    0.45
   0  -5   0    0.26    0.24
   0  -5   0    0.51    0.27
   0   5   0    0.33    0.24
   0   5   0    0.28    0.21
  -1  -5   0    5.47    0.57
   1  -5   0    5.33    0.46
   1  -5   0    6.43    0.48
  -1  -5   0    6.48    0.58
   1   5   0    7.52    0.60
  -2  -5   0    7.42    0.67
  -2  -5   0    7.26    0.64
   2   5   0    7.60    0.66
   2   5   0    7.00    0.64
  -3  -5   0   -0.02    0.28
  -3  -5   0    0.31    0.33
   3   5   0    0.64    0.38
   3   5   0    0.97    0.35
  -4  -5   0   11.60    0.84
  -4  -5   0    9.57    0.78
   4   5   0   11.30    0.89
   4   5   0   11.92    0.86
   0  -6   0   11.97    0.71
   0  -6   0   11.21    0.69
   1  -6   0   23.47    0.89
  -1  -6   0   25.06    1.04
  -1  -6   0   23.58    1.02
   1  -6   0   22.98    0.89
   1   6   0   22.86    0.94
   1   6   0   22.64    0.97
  -2  -6   0    2.23    0.43
  -2  -6   0    2.07    0.42
   2  -6   0    2.96    0.34
   2  -6   0    2.75    0.34
  -3  -6   0    2.78    0.57
  -3  -6   0    3.15    0.50
   3   6   0    3.74    0.57
   0  -7   0   -0.37    0.29
   0  -7   0   -0.03    0.28
  -1  -7   0    2.29    0.43
   1  -7   0    1.56    0.37
  -1  -7   0    2.03    0.43
   1  -7   0    2.36    0.38
   1   7   0    1.28    0.40
  -2  -7   0    4.09    0.65
   2  -7   0    4.12    0.43
   2  -7   0    3.89    0.43
  -2  -7   0    3.51    0.54
   2   7   0    3.23    0.54
   2   7   0    3.72    0.52
   6   0  -1   -0.63    0.28
   6   0  -1   -0.36    0.32
   5   0  -1    5.90    0.54
   5   0  -1    6.03    0.53
   4   0  -1   -0.09    0.19
   4   0  -1    0.01    0.21
   3   0  -1    5.85    0.42
   3   0  -1    4.64    0.40
   1   0  -1   39.20    0.92
  -1   0   1   44.65    0.91
  -1   0   1   45.88    0.92
   1   0  -1   39.68    0.92
   3   0   1   70.56    1.69
   3   0   1   72.82    1.73
   4   0   1    0.30    0.22
   4   0   1   -0.22    0.20
   5   0   1    2.32    0.37
   5   0   1    1.04    0.32
   6   0   1   -0.01    0.30
   6   0   1    0.34    0.33
   5  -1  -1    1.13    0.27
   5  -1  -1    1.60    0.29
   5   1  -1    1.81    0.38
   5   1  -1    0.96    0.34
  -4  -1   1   45.77    1.23
  -4  -1   1   44.99    1.25
   4  -1  -1   45.18    1.18
   4  -1  -1   46.82    1.19
   4   1  -1   44.80    1.34
   4   1  -1   44.85    1.35
  -3  -1   1   12.31    0.59
  -3  -1   1   12.88    0.61
   3   1  -1   12.97    0.65
   3   1  -1   12.12    0.63
  -2  -1   1   93.53    2.14
  -2  -1   1   93.30    2.10
   2   1  -1   95.09    2.13
   2   1  -1   92.85    2.13
  -1  -1   1  140.55    2.90
  -1  -1   1  142.20    2.90
   1   1  -1  142.63    2.91
   0  -1   1    0.99    0.13
   0  -1  -1    0.83    0.11
   0  -1   1    0.93    0.12
   0   1   1    1.12    0.12
   0   1  -1    0.75    0.11
   0   1   1    0.96    0.12
   0   1  -1    0.93    0.12
  -1  -1  -1   21.52    0.67
  -1  -1  -1   21.74    0.67
   1   1   1   21.62    0.67
  -2  -1  -1  163.82    3.39
  -2  -1  -1  164.75    3.42
   2   1   1  164.55    3.44
   2   1   1  160.96    3.41
  -3  -1  -1   17.06    0.69
  -3  -1  -1   17.62    0.73
   3   1   1   17.43    0.76
   3   1   1   17.67    0.76
   4  -1   1   32.52    0.96
  -4  -1  -1   32.32    1.04
   4  -1   1   33.06    0.97
  -4  -1  -1   30.96    0.97
   4   1   1   32.94    1.12
   4   1   1   33.83    1.13
   5  -1   1    0.59    0.25
   5  -1   1    0.94    0.28
   5   1   1    0.91    0.35
   5   1   1    0.12    0.30
  -5  -2   1    4.89    0.53
  -5  -2   1    4.64    0.51
   5   2  -1    5.09    0.57
   5   2  -1    4.41    0.51
  -4  -2   1    2.47    0.37
  -4  -2   1    2.22    0.37
   4   2  -1    2.07    0.48
   4   2  -1    1.95    0.39
  -3  -2   1    3.03    0.39
  -3  -2   1    3.15    0.39
   3   2  -1    2.86    0.40
   3   2  -1    3.22    0.40
  -2  -2   1   66.69    1.69
  -2  -2   1   64.03    1.67
   2   2  -1   61.60    1.67
   2   2  -1   66.54    1.70
  -1  -2   1   79.76    1.90
  -1  -2   1   82.25    1.91
   1   2  -1   81.78    1.91
   0  -2  -1  103.35    2.26
   0  -2   1  105.23    2.27
   0  -2   1  112.37    2.30
   0  -2  -1  109.61    2.27
   0   2   1  109.71    2.25
   0   2  -1  108.93    2.28
   0   2  -1  109.35    2.25
   0   2   1  107.40    2.25
  -1  -2  -1  138.20    2.92
   1   2   1  133.85    2.91
   1   2   1  133.81    2.90
  -2  -2  -1   25.85    0.91
  -2  -2  -1   23.52    0.88
   2   2   1   24.73    0.91
   2   2   1   25.12    0.91
  -3  -2  -1   26.82    0.98
  -3  -2  -1   27.32    0.99
   3   2   1   25.50    1.00
   3   2   1   25.93    1.00
  -4  -2  -1   11.90    0.67
  -4  -2  -1   12.04    0.69
   4   2   1   11.34    0.73
   4   2   1   10.94    0.75
  -5  -2  -1    0.22    0.26
  -5  -2  -1    0.33    0.27
   5   2   1    0.33    0.34
   5   2   1    0.84    0.37
  -5  -3   1    6.03    0.61
  -5  -3   1    4.79    0.53
   5   3  -1    6.23    0.68
   5   3  -1    4.98    0.61
  -4  -3   1   14.02    0.79
  -4  -3   1   16.79    0.82
   4   3  -1   14.58    0.86
   4   3  -1   15.02    0.85
  -3  -3   1   72.25    1.91
  -3  -3   1   70.57    1.90
   3   3  -1   68.46    1.92
   3   3  -1   70.59    1.94
  -2  -3   1   19.55    0.84
  -2  -3   1   18.85    0.84
   2   3  -1   19.46    0.85
   2   3  -1   18.41    0.84
  -1  -3   1   37.76    1.17
  -1  -3   1   39.24    1.18
   1   3  -1   37.26    1.15
   1   3  -1   38.42    1.17
   0  -3   1    6.42    0.44
   0  -3  -1    6.84    0.43
   0  -3  -1    6.17    0.43
   0  -3   1    6.62    0.43
   0   3   1    6.95    0.42
   0   3   1    5.88    0.40
   0   3  -1    6.91    0.45
   0   3  -1    6.23    0.42
  -1  -3  -1    4.64    0.44
  -1  -3  -1    4.94    0.45
   1  -3   1    5.08    0.32
   1  -3   1    5.14    0.34
   1   3   1    4.88    0.45
   1   3   1    4.46    0.44
  -2  -3  -1   11.54    0.67
  -2  -3  -1   12.49    0.69
   2   3   1   12.16    0.68
   2   3   1   12.18    0.69
  -3  -3  -1   19.25    0.89
  -3  -3  -1   22.42    0.93
   3   3   1   20.82    0.93
   3   3   1   19.97    0.92
  -4  -3  -1    1.70    0.36
  -4  -3  -1    1.30    0.35
   4   3   1    1.07    0.36
   4   3   1    1.21    0.38
  -5  -3  -1    5.33    0.56
  -5  -3  -1    5.88    0.62
   5   3   1    5.34    0.62
   5   3   1    5.90    0.62
  -5  -4   1    0.31    0.34
  -5  -4   1    0.23    0.39
   5   4  -1   -0.14    0.66
   5   4  -1    0.05    0.38
  -4  -4   1    0.44    0.33
   4   4  -1    0.53    0.34
   4   4  -1    0.23    0.32
  -3  -4   1    3.31    0.57
  -3  -4   1    4.73    0.55
   3   4  -1    3.77    0.50
  -2  -4   1   38.16    1.29
  -2  -4   1   38.39    1.30
   2   4  -1   38.31    1.30
   2   4  -1   39.65    1.30
  -1  -4   1   18.33    0.81
   1  -4  -1   15.87    0.62
  -1  -4   1   16.13    0.78
   1  -4  -1   15.47    0.62
   1   4  -1   17.94    0.79
   1   4  -1   16.94    0.78
   0  -4   1  142.57    3.09
   0  -4   1  146.40    3.11
   0  -4  -1  140.64    3.08
   0  -4  -1  136.66    3.07
   0   4   1  138.96    3.00
   0   4  -1  138.65    3.03
   0   4   1  144.69    3.00
  -1  -4  -1    5.27    0.54
  -1  -4  -1    7.17    0.56
   1  -4   1    6.56    0.44
   1  -4   1    5.67    0.42
   1   4   1    5.80    0.54
   1   4   1    7.79    0.57
  -2  -4  -1   59.07    1.72
  -2  -4  -1   61.66    1.73
   2   4   1   59.28    1.72
   2   4   1   59.47    1.70
  -3  -4  -1    0.69    0.37
  -3  -4  -1   -0.22    0.26
   3   4   1    0.88    0.34
  -4  -4  -1    3.62    0.48
   4   4   1    2.56    0.47
   4   4   1    2.62    0.48
  -5  -4  -1   -0.07    0.38
  -5  -4  -1    0.77    0.38
   5   4   1    1.15    0.46
   5   4   1   -0.03    0.51
  -4  -5   1    1.57    0.40
  -4  -5   1    1.08    0.45
   4   5  -1    1.48    0.43
   4   5  -1    0.90    0.41
   3   5  -1   26.72    1.14
   3   5  -1   28.27    1.17
  -2  -5   1    4.78    0.54
  -2  -5   1    4.74    0.64
   2   5  -1    5.03    0.56
   2   5  -1    3.85    0.48
  -1  -5   1   11.32    0.71
  -1  -5   1   10.16    0.68
   1  -5  -1   10.62    0.57
   1  -5  -1   11.36    0.58
   1   5  -1   10.41    0.67
   1   5  -1   10.64    0.66
   0  -5  -1    8.07    0.59
   0  -5   1    7.80    0.58
   0  -5   1    8.05    0.58
   0  -5  -1    8.17    0.57
   0   5   1    7.66    0.50
   0   5  -1    7.63    0.50
   0   5   1    7.53    0.52
   0   5  -1    7.19    0.54
  -1  -5  -1   13.69    0.77
  -1  -5  -1   12.84    0.75
   1  -5   1   13.48    0.64
   1  -5   1   12.66    0.63
   1   5   1   13.37    0.72
   1   5   1   13.55    0.75
  -2  -5  -1   16.74    0.88
   2  -5   1   15.64    0.61
  -2  -5  -1   14.74    0.83
   2   5   1   15.93    0.85
  -3  -5  -1    9.96    0.72
   3   5   1   10.71    0.78
   3   5   1   10.04    0.75
  -4  -5  -1    0.49    0.34
  -4  -5  -1    0.96    0.41
   4   5   1    0.78    0.39
   4   5   1    1.13    0.42
  -3  -6   1    2.60    0.59
  -3  -6   1    1.85    0.41
   3   6  -1    1.93    0.46
   3   6  -1    2.04    0.47
   2  -6  -1    3.96    0.39
  -2  -6   1    3.43    0.49
  -2  -6   1    3.78    0.50
   2  -6  -1    4.08    0.42
   1  -6  -1    4.58    0.50
  -1  -6   1    4.30    0.51
  -1  -6   1    5.51    0.61
   1  -6  -1    5.26    0.50
   1   6  -1    5.45    0.58
   1   6  -1    4.38    0.48
   0  -6  -1   13.58    0.76
   0  -6  -1   16.53    0.81
   0  -6   1   15.04    0.83
   0  -6   1   16.70    0.81
   0   6  -1   15.56    0.67
  -1  -6  -1    3.14    0.47
  -1  -6  -1    2.97    0.46
   1  -6   1    3.52    0.40
   1  -6   1    3.34    0.40
   1   6   1    3.25    0.43
   1   6   1    3.14    0.45
  -2  -6  -1   14.88    0.87
   2  -6   1   16.03    0.67
   2  -6   1   15.55    0.67
  -2  -6  -1   15.70    0.89
   2   6   1   15.93    0.86
  -3  -6  -1   -0.06    0.37
  -3  -6  -1    0.01    0.33
   3   6   1   -0.24    0.36
  -2  -7   1    3.82    0.66
   2  -7  -1    4.65    0.50
  -2  -7   1    3.65    0.55
   2  -7  -1    4.48    0.50
   2   7  -1    2.99    0.53
   2   7  -1    3.76    0.51
   1  -7  -1    2.10    0.38
  -1  -7   1    2.52    0.44
   1  -7  -1    3.44    0.43
  -1  -7   1    2.81    0.48
   1   7  -1    2.25    0.45
   1   7  -1    3.20    0.58
   0  -7  -1    1.69    0.39
   0  -7   1    1.77    0.39
   0  -7   1    1.92    0.41
   0  -7  -1    1.62    0.39
   1  -7   1    0.68    0.29
  -1  -7  -1    0.75    0.36
  -1  -7  -1    0.44    0.34
   1  -7   1    0.39    0.29
   1   7   1    0.63    0.35
  -2  -7  -1    2.81    0.50
  -2  -7  -1    2.27    0.56
   2  -7   1    1.55    0.57
   2  -7   1    2.74    0.37
   2   7   1    2.09    0.44
   2   7   1    2.20    0.49
   6   0  -2    2.33    0.41
   6   0  -2    3.46    0.47
   5   0  -2    0.19    0.25
   5   0  -2   -0.29    0.22
   4   0  -2    5.88    0.47
   4   0  -2    6.48    0.50
   3   0  -2    0.21    0.18
   3   0  -2    0.29    0.18
   2   0  -2   56.27    1.33
   2   0  -2   58.27    1.34
  -1   0   2    0.39    0.11
  -1   0   2    0.32    0.09
   1   0  -2    0.34    0.10
   1   0  -2    0.27    0.10
   1   0   2    0.32    0.13
  -1   0  -2    0.21    0.10
  -1   0  -2    0.32    0.12
   1   0   2    0.29    0.11
  -2   0  -2  272.21    5.21
   2   0   2  253.40    5.36
  -2   0  -2  268.55    5.10
   2   0   2  265.38    5.17
   3   0   2    0.15    0.20
   3   0   2    0.52    0.22
   4   0   2   15.96    0.72
   4   0   2   16.68    0.73
   5   0   2    0.26    0.29
   5   0   2    0.45    0.30
   6   0   2   -0.11    0.30
   5  -1  -2    7.27    0.50
   5  -1  -2    8.26    0.51
   5   1  -2    7.85    0.63
   5   1  -2    7.61    0.62
  -4  -1   2    2.52    0.31
  -4  -1   2    3.21    0.35
   4  -1  -2    2.76    0.31
   4  -1  -2    4.17    0.37
   4   1  -2    2.93    0.39
   4   1  -2    3.48    0.42
  -3  -1   2   94.92    2.19
  -3  -1   2   99.86    2.21
   3   1  -2   95.33    2.27
   3   1  -2   95.85    2.26
  -2  -1   2   32.85    0.96
  -2  -1   2   33.36    0.98
   2   1  -2   31.34    0.98
   2   1  -2   33.04    1.00
  -1  -1   2  124.12    2.58
  -1  -1   2  128.05    2.59
   1   1  -2  122.37    2.58
   1   1  -2  119.35    2.57
   0  -1  -2   11.18    0.36
   0  -1  -2   10.20    0.36
   0  -1   2   10.96    0.39
   0  -1   2   10.89    0.37
   0   1  -2   11.37    0.37
   0   1   2   11.09    0.35
   0   1   2   10.80    0.36
   0   1  -2   10.52    0.39
  -1  -1  -2   49.88    1.21
  -1  -1  -2   51.05    1.23
   1   1   2   48.86    1.21
   1   1   2   48.33    1.22
  -2  -1  -2    0.92    0.21
  -2  -1  -2    0.77    0.21
   2   1   2    0.95    0.23
   2   1   2    1.11    0.24
   3  -1   2   28.96    0.86
  -3  -1  -2   28.19    0.92
  -3  -1  -2   27.82    0.95
   3   1   2   28.60    0.98
   3   1   2   28.03    0.99
  -4  -1  -2    0.75    0.27
  -4  -1  -2    0.62    0.23
   4  -1   2    0.75    0.24
   4  -1   2    0.47    0.21
   4   1   2    0.78    0.30
   4   1   2    0.32    0.28
   5  -1   2    7.60    0.56
   5  -1   2    7.29    0.53
   5   1   2    7.64    0.65
   5   1   2    7.39    0.64
  -5  -2   2    1.39    0.32
  -5  -2   2    1.46    0.34
   5   2  -2    1.19    0.36
  -4  -2   2    4.99    0.51
  -4  -2   2    5.80    0.53
   4   2  -2    5.48    0.70
   4   2  -2    5.41    0.58
  -3  -2   2    0.04    0.22
  -3  -2   2    0.49    0.26
   3   2  -2    0.47    0.27
   3   2  -2    0.44    0.25
  -2  -2   2   20.80    0.81
  -2  -2   2   20.11    0.80
   2   2  -2   20.80    0.83
   2   2  -2   20.98    0.83
  -1  -2   2   39.40    1.11
  -1  -2   2   39.32    1.11
   1   2  -2   38.46    1.11
   1   2  -2   37.76    1.10
   0  -2   2   81.57    1.83
   0  -2   2   84.44    1.86
   0  -2  -2   84.55    1.82
   0  -2  -2   82.48    1.82
   0   2   2   84.43    1.80
   0   2  -2   85.79    1.82
   0   2   2   81.99    1.80
   0   2  -2   81.36    1.84
  -1  -2  -2   86.61    2.01
  -1  -2  -2   89.94    2.03
   1   2   2   86.58    2.02
   1   2   2   84.98    2.00
  -2  -2  -2  104.55    2.40
  -2  -2  -2  103.38    2.41
   2   2   2  101.39    2.41
   2   2   2  101.54    2.40
  -3  -2  -2   21.97    0.87
  -3  -2  -2   23.10    0.91
   3   2   2   20.77    0.90
   3   2   2   19.24    0.88
  -4  -2  -2    8.90    0.62
  -4  -2  -2   10.35    0.65
   4   2   2    8.89    0.68
   4   2   2   10.12    0.71
  -5  -2  -2    5.34    0.55
  -5  -2  -2    5.17    0.53
   5   2   2    5.31    0.61
   5   2   2    4.85    0.55
  -5  -3   2    1.71    0.37
  -5  -3   2    1.15    0.36
   5   3  -2    1.47    0.42
   5   3  -2    1.33    0.42
  -4  -3   2   12.96    0.75
  -4  -3   2   11.60    0.73
   4   3  -2   12.93    0.80
   4   3  -2   12.21    0.79
  -3  -3   2   25.99    1.04
  -3  -3   2   27.49    1.04
   3   3  -2   26.25    1.05
  -2  -3   2   88.37    2.18
  -2  -3   2   85.92    2.17
   2   3  -2   86.07    2.17
  -1  -3   2   51.96    1.43
  -1  -3   2   52.43    1.45
   1   3  -2   51.04    1.41
   1   3  -2   49.48    1.42
   0  -3  -2    8.33    0.47
   0  -3   2    7.70    0.48
   0  -3   2    7.79    0.47
   0  -3  -2    8.42    0.48
   0   3   2    8.15    0.45
   0   3   2    7.38    0.43
   0   3  -2    7.71    0.47
   1  -3   2    5.05    0.37
  -1  -3  -2    5.69    0.48
  -1  -3  -2    5.36    0.46
   1  -3   2    5.24    0.40
   1   3   2    5.22    0.48
   1   3   2    6.00    0.48
  -2  -3  -2    2.49    0.38
  -2  -3  -2    2.30    0.38
   2   3   2    2.78    0.39
   2   3   2    2.92    0.41
  -3  -3  -2    6.70    0.59
  -3  -3  -2    6.29    0.59
   3   3   2    6.28    0.61
   3   3   2    5.24    0.59
  -4  -3  -2    9.53    0.68
  -4  -3  -2    8.78    0.67
   4   3   2    9.14    0.73
   4   3   2    9.84    0.73
  -5  -3  -2    1.21    0.43
  -5  -3  -2    2.19    0.41
   5   3   2    1.95    0.46
   5   3   2    1.19    0.45
  -5  -4   2    3.60    0.55
  -5  -4   2    4.45    0.54
   5   4  -2    2.97    0.86
   5   4  -2    4.59    0.60
  -4  -4   2    0.74    0.32
   4   4  -2    1.03    0.39
   4   4  -2    1.25    0.38
  -3  -4   2    5.25    0.66
  -3  -4   2    6.63    0.62
   3   4  -2    5.89    0.62
  -2  -4   2   11.44    0.71
  -2  -4   2   10.99    0.69
   2   4  -2   10.26    0.70
   2   4  -2   11.30    0.71
   1  -4  -2   36.35    0.99
  -1  -4   2   35.55    1.19
   1  -4  -2   34.92    0.99
  -1  -4   2   35.79    1.18
   1   4  -2   35.02    1.17
   1   4  -2   34.19    1.15
   0  -4   2   10.76    0.62
   0  -4  -2   10.23    0.59
   0  -4   2   10.08    0.59
   0  -4  -2   10.02    0.58
   0   4   2   11.30    0.55
   0   4  -2   12.01    0.57
   0   4  -2   12.45    0.62
   0   4   2    9.37    0.52
   1  -4   2  114.62    2.48
  -1  -4  -2  118.28    2.71
   1  -4   2  114.65    2.52
  -1  -4  -2  111.98    2.68
   1   4   2  114.41    2.66
  -2  -4  -2    3.28    0.44
  -2  -4  -2    3.09    0.43
   2   4   2    3.30    0.43
   2   4   2    3.42    0.45
  -3  -4  -2   28.80    1.14
  -3  -4  -2   30.14    1.17
   3   4   2   28.06    1.14
  -4  -4  -2    0.59    0.31
  -4  -4  -2    0.53    0.36
   4   4   2    0.62    0.37
   4   4   2    0.62    0.37
  -5  -4  -2    1.43    0.43
  -5  -4  -2    0.27    0.39
   5   4   2    1.19    0.49
  -4  -5   2    2.97    0.50
  -4  -5   2    2.87    0.50
   4   5  -2    3.64    0.57
   4   5  -2    3.69    0.56
  -3  -5   2    1.54    0.36
  -3  -5   2    1.94    0.42
   3   5  -2    2.59    0.44
   3   5  -2    1.22    0.41
  -2  -5   2   30.00    1.16
   2   5  -2   28.96    1.15
   2   5  -2   29.18    1.31
   1  -5  -2    8.54    0.53
   1  -5  -2    8.63    0.52
  -1  -5   2    7.27    0.63
  -1  -5   2    7.68    0.62
   1   5  -2    8.20    0.63
   1   5  -2    9.35    0.62
   0  -5  -2   27.23    0.98
   0  -5  -2   27.89    0.99
   0  -5   2   26.09    0.98
   0  -5   2   27.17    0.99
   0   5  -2   26.44    0.95
   0   5   2   24.94    0.86
   0   5   2   25.20    0.87
   1  -5   2   10.55    0.58
  -1  -5  -2   10.48    0.70
   1  -5   2   10.99    0.60
  -1  -5  -2   11.55    0.69
   1   5   2    9.93    0.66
   1   5   2   10.43    0.66
   2  -5   2    6.99    0.44
  -2  -5  -2    6.90    0.63
  -2  -5  -2    6.84    0.67
   2  -5   2    7.54    0.46
   2   5   2    6.81    0.64
  -3  -5  -2   -0.38    0.27
  -3  -5  -2    0.84    0.35
   3   5   2    0.61    0.33
  -4  -5  -2    8.68    0.73
  -4  -5  -2    8.64    0.78
   4   5   2    8.51    0.80
  -3  -6   2    0.21    0.32
  -3  -6   2   -0.12    0.38
   3   6  -2    0.32    0.37
   3   6  -2    0.64    0.40
   2  -6  -2    3.83    0.42
  -2  -6   2    4.15    0.51
   2  -6  -2    3.67    0.41
  -2  -6   2    6.40    0.67
   2   6  -2    4.82    0.58
   1  -6  -2   11.61    0.64
   1  -6  -2   11.24    0.64
  -1  -6   2   11.32    0.75
  -1  -6   2   11.12    0.76
   1   6  -2   11.52    0.83
   0  -6  -2    8.19    0.62
   0  -6   2   10.28    0.67
   0  -6  -2    9.92    0.67
   0  -6   2    8.52    0.81
   0   6  -2    9.36    0.62
   0   6  -2   10.20    0.56
   1  -6   2   10.82    0.63
  -1  -6  -2   10.94    0.73
   1  -6   2    9.84    0.62
  -1  -6  -2   10.17    0.73
   1   6   2   11.37    0.69
   1   6   2    8.91    0.68
  -2  -6  -2    8.81    0.72
   2  -6   2    9.02    0.55
   2  -6   2    9.07    0.54
  -2  -6  -2    8.63    0.73
   2   6   2    8.21    0.71
  -3  -6  -2    4.81    0.61
  -3  -6  -2    4.49    0.56
   3   6   2    5.47    0.61
   3   6   2    5.13    0.62
  -2  -7   2    2.73    0.52
  -2  -7   2    2.11    0.81
   2  -7  -2    3.81    0.41
   2  -7  -2    3.56    0.41
   2   7  -2    3.08    0.48
   2   7  -2    2.84    0.52
  -1  -7   2    4.24    0.54
   1  -7  -2    4.29    0.46
  -1  -7   2    3.24    0.50
   1  -7  -2    4.65    0.48
   1   7  -2    2.98    0.48
   1   7  -2    4.73    0.53
   0  -7  -2    4.59    0.52
   0  -7  -2    5.01    0.54
   0  -7   2    3.66    0.50
   0  -7   2    5.80    0.59
  -1  -7  -2    3.70    0.50
   1  -7   2    3.33    0.45
   1  -7   2    3.14    0.43
  -1  -7  -2    3.79    0.50
   1   7   2    3.40    0.48
   1   7   2    3.27    0.65
  -2  -7  -2   -0.69    0.51
  -2  -7  -2    0.52    0.43
   2  -7   2    0.63    0.29
   2  -7   2    0.91    0.50
   2   7   2    0.36    0.36
   2   7   2    0.44    0.39
   6   0  -3    0.03    0.31
   6   0  -3    0.03    0.31
   5   0  -3    9.45    0.63
   5   0  -3   11.29    0.63
   4   0  -3    0.03    0.22
   4   0  -3    0.09    0.20
   3   0  -3  108.97    2.37
   3   0  -3  107.12    2.36
   2   0  -3    0.30    0.15
   2   0  -3    0.41    0.15
  -1   0   3   13.23    0.40
   1   0  -3   13.62    0.45
  -1   0   3   12.10    0.44
   1   0  -3   13.45    0.42
   0   0  -3    0.13    0.09
   0   0   3    0.17    0.09
   0   0  -3    0.15    0.10
   0   0   3    0.11    0.09
   1   0   3  380.74    7.05
  -1   0  -3  369.55    7.12
  -1   0  -3  375.58    7.02
   1   0   3  357.70    7.10
  -2   0  -3    0.28    0.14
   2   0   3    0.14    0.17
   2   0   3    0.25    0.16
  -2   0  -3    0.01    0.17
   3   0   3  128.00    2.80
   3   0   3  131.02    2.85
   4   0   3   -0.24    0.21
   4   0   3    0.31    0.25
   5  -1  -3    3.53    0.37
   5  -1  -3    2.99    0.36
   5   1  -3    2.82    0.42
   5   1  -3    3.15    0.43
  -4  -1   3   33.47    1.02
   4  -1  -3   34.07    0.96
   4  -1  -3   34.58    0.97
   4   1  -3   33.89    1.13
   4   1  -3   34.31    1.15
  -3  -1   3   11.50    0.58
  -3  -1   3   10.99    0.57
   3   1  -3   11.36    0.63
   3   1  -3   12.02    0.62
  -2  -1   3  234.19    4.65
  -2  -1   3  232.60    4.66
   2   1  -3  231.99    4.69
   2   1  -3  228.00    4.68
  -1  -1   3  175.15    3.57
  -1  -1   3  177.10    3.57
   1   1  -3  184.51    3.60
   1   1  -3  169.52    3.56
   0  -1  -3   30.98    0.75
   0  -1   3   27.46    0.75
   0  -1   3   27.07    0.78
   0  -1  -3   29.38    0.76
   0   1  -3   30.47    0.80
   0   1   3   27.95    0.75
   0   1   3   28.59    0.72
   0   1  -3   29.93    0.76
  -1  -1  -3   14.62    0.55
   1  -1   3   13.98    0.46
   1  -1   3   13.45    0.45
  -1  -1  -3   13.85    0.56
   1   1   3   13.33    0.64
  -2  -1  -3    8.64    0.48
  -2  -1  -3    8.53    0.51
   2   1   3    8.71    0.52
   2   1   3    8.72    0.51
   3  -1   3    2.65    0.29
  -3  -1  -3    2.00    0.31
   3  -1   3    1.99    0.28
  -3  -1  -3    1.97    0.33
   3   1   3    1.58    0.31
   3   1   3    1.49    0.31
  -4  -1  -3   24.28    0.85
  -4  -1  -3   24.65    0.92
   4  -1   3   24.12    0.85
   4   1   3   26.19    0.99
   4   1   3   24.27    0.97
   5  -1   3    0.16    0.25
   5   1   3    0.62    0.34
   5   1   3    0.37    0.31
  -5  -2   3    4.87    0.51
  -5  -2   3    4.21    0.44
   5   2  -3    4.53    0.52
   5   2  -3    3.86    0.50
  -4  -2   3    5.39    0.52
  -4  -2   3    4.81    0.50
   4   2  -3    4.83    0.54
   4   2  -3    4.59    0.56
  -3  -2   3   13.96    0.70
  -3  -2   3   14.33    0.71
   3   2  -3   13.89    0.75
   3   2  -3   14.21    0.75
  -2  -2   3    5.61    0.48
  -2  -2   3    6.20    0.49
   2   2  -3    6.94    0.51
   2   2  -3    6.57    0.50
  -1  -2   3   12.06    0.57
  -1  -2   3   11.67    0.57
   1   2  -3   12.41    0.58
   1   2  -3   12.51    0.58
   0  -2   3  106.99    2.30
   0  -2  -3  107.92    2.24
   0  -2   3   97.44    2.70
   0   2  -3  107.37    2.30
   0   2  -3  108.44    2.25
   0   2   3  104.42    2.23
   0   2   3  103.96    2.20
  -1  -2  -3   70.11    1.71
   1  -2   3   71.00    1.51
   1  -2   3   69.24    1.61
  -1  -2  -3   68.04    1.70
   1   2   3   68.61    1.70
  -2  -2  -3  114.85    2.63
  -2  -2  -3  111.76    2.59
   2   2   3  113.94    2.61
   2   2   3  113.11    2.63
  -3  -2  -3   87.97    2.19
  -3  -2  -3   85.01    2.14
   3   2   3   87.68    2.21
   3   2   3   88.42    2.20
  -4  -2  -3    6.33    0.57
  -4  -2  -3    5.87    0.54
   4   2   3    6.17    0.62
   4   2   3    5.62    0.61
   5  -2   3    6.12    0.48
  -5  -2  -3    5.79    0.56
  -5  -2  -3    6.04    0.55
   5   2   3    5.65    0.60
   5   2   3    4.85    0.54
  -5  -3   3    5.49    0.61
  -5  -3   3    5.81    0.59
   5   3  -3    5.91    0.65
   5   3  -3    4.45    0.56
  -4  -3   3    1.10    0.32
  -4  -3   3    1.05    0.34
   4   3  -3    1.86    0.38
   4   3  -3    1.08    0.35
  -3  -3   3   55.61    1.61
  -3  -3   3   55.71    1.61
   3   3  -3   56.48    1.65
   3   3  -3   53.38    1.63
  -2  -3   3   40.34    1.29
  -2  -3   3   39.36    1.27
   2   3  -3   41.40    1.30
   2   3  -3   39.82    1.28
  -1  -3   3  156.82    3.44
  -1  -3   3  156.85    3.43
   1  -3  -3  160.25    3.17
   1   3  -3  157.51    3.41
   1   3  -3  158.58    3.44
   0  -3   3  108.86    2.45
   0  -3  -3  113.49    2.44
   0  -3   3  112.30    2.49
   0  -3  -3  109.07    2.44
   0   3   3  109.08    2.38
   0   3   3  111.20    2.41
   0   3  -3  109.98    2.47
   0   3  -3  111.58    2.40
   1  -3   3   29.68    0.90
  -1  -3  -3   29.24    1.00
   1  -3   3   28.87    0.84
  -1  -3  -3   30.61    1.01
   1   3   3   28.94    0.99
   1   3   3   28.45    0.98
  -2  -3  -3    0.61    0.25
  -2  -3  -3    1.11    0.28
   2   3   3    0.68    0.31
   2   3   3    1.17    0.32
  -3  -3  -3    1.80    0.36
  -3  -3  -3    1.89    0.38
   3   3   3    1.82    0.43
   3   3   3    1.34    0.36
  -4  -3  -3    1.46    0.36
  -4  -3  -3    1.38    0.36
   4   3   3    1.80    0.40
   4   3   3    1.35    0.39
  -5  -3  -3    3.13    0.47
   5   3   3    2.99    0.50
  -5  -4   3   -0.32    0.33
  -5  -4   3    0.03    0.33
   5   4  -3    0.40    0.46
   5   4  -3    0.10    0.36
  -4  -4   3    4.27    0.49
   4   4  -3    3.85    0.52
   4   4  -3    5.34    0.60
  -3  -4   3    3.00    0.44
  -3  -4   3    3.43    0.52
   3   4  -3    2.98    0.44
  -2  -4   3   24.19    1.01
  -2  -4   3   25.07    1.02
   2   4  -3   24.76    1.02
   2   4  -3   24.19    1.00
   1  -4  -3   10.15    0.49
   1  -4  -3    9.56    0.50
  -1  -4   3    9.91    0.64
  -1  -4   3   10.12    0.65
   1   4  -3   10.17    0.65
   1   4  -3    9.37    0.62
   0  -4  -3   30.98    1.01
   0  -4   3   29.44    1.01
   0  -4  -3   31.13    1.00
   0  -4   3   30.63    1.04
   0   4  -3   30.62    0.95
   0   4   3   29.60    0.94
   0   4  -3   30.81    1.02
   0   4   3   29.10    0.92
  -1  -4  -3    0.65    0.27
   1  -4   3    0.62    0.22
  -1  -4  -3    0.77    0.30
   1  -4   3    1.10    0.25
   1   4   3    1.04    0.29
   1   4   3    1.01    0.30
  -2  -4  -3   80.91    2.12
  -2  -4  -3   80.37    2.11
   2   4   3   79.10    2.11
  -3  -4  -3    1.22    0.35
  -3  -4  -3    1.14    0.36
   3   4   3    1.71    0.42
  -4  -4  -3    8.24    0.69
  -4  -4  -3    8.14    0.69
   4   4   3    7.44    0.73
  -5  -4  -3   -0.34    0.38
  -5  -4  -3    0.62    0.38
   5   4   3   -0.01    0.38
  -4  -5   3    0.21    0.37
  -4  -5   3    0.01    0.31
   4   5  -3    0.04    0.33
   4   5  -3    0.13    0.38
  -3  -5   3   16.89    0.89
  -3  -5   3   16.26    0.87
   3   5  -3   16.33    0.92
   3   5  -3   15.18    0.89
  -2  -5   3    0.72    0.33
   2   5  -3    0.77    0.35
   1  -5  -3   41.75    1.17
  -1  -5   3   39.34    1.33
  -1  -5   3   36.53    1.79
   1  -5  -3   41.86    1.17
   1   5  -3   40.14    1.29
   1   5  -3   42.16    1.33
   0  -5  -3    0.19    0.26
   0  -5  -3    0.52    0.27
   0  -5   3    0.79    0.29
   0  -5   3    0.88    0.27
   0   5   3    0.56    0.24
   0   5   3    1.18    0.28
   0   5  -3    0.39    0.26
  -1  -5  -3   19.67    0.89
  -1  -5  -3   19.31    0.92
   1  -5   3   20.44    0.80
   1  -5   3   19.33    0.78
   1   5   3   19.09    0.86
   1   5   3   20.08    0.86
  -2  -5  -3    2.98    0.44
   2  -5   3    3.98    0.38
   2  -5   3    3.55    0.35
  -2  -5  -3    3.23    0.45
   2   5   3    2.78    0.43
   2   5   3    3.03    0.50
  -3  -5  -3    2.13    0.45
   3   5   3    1.28    0.41
  -4  -5  -3    0.67    0.37
  -4  -5  -3    1.04    0.48
   4   5   3    1.00    0.43
  -3  -6   3    1.64    0.44
  -3  -6   3    0.99    0.40
   3   6  -3    1.17    0.44
   3   6  -3    1.81    0.45
  -2  -6   3    0.60    0.35
  -2  -6   3    0.72    0.37
   2  -6  -3    1.21    0.26
   2  -6  -3    0.45    0.24
   2   6  -3    1.56    0.40
   1  -6  -3    3.79    0.43
  -1  -6   3    3.29    0.45
   1  -6  -3    4.39    0.47
  -1  -6   3    4.98    0.59
   1   6  -3    4.80    0.52
   0  -6   3    9.18    0.65
   0  -6  -3    9.08    0.65
   0  -6  -3    7.98    0.63
   0   6  -3    8.66    0.54
   0   6  -3    8.75    0.63
  -1  -6  -3   10.31    0.75
  -1  -6  -3   12.09    0.75
   1  -6   3   10.56    0.65
   1  -6   3   10.95    0.65
   1   6   3   11.76    0.71
   1   6   3   10.07    0.70
  -2  -6  -3    9.89    0.74
  -2  -6  -3   11.53    0.81
   2  -6   3    9.81    0.56
   2  -6   3    9.86    0.58
   2   6   3    9.80    0.73
  -3  -6  -3   15.88    0.94
  -3  -6  -3   15.32    0.90
   3   6   3   16.05    0.99
   3   6   3   15.67    0.93
  -2  -7   3    7.03    0.79
   2  -7  -3    8.54    0.56
   2  -7  -3    7.18    0.55
   2   7  -3    7.11    0.80
   1  -7  -3    6.07    0.56
  -1  -7   3    5.36    0.59
   1  -7  -3    4.80    0.50
  -1  -7   3    5.59    0.59
   1   7  -3    6.06    0.61
   1   7  -3    5.42    0.60
   0  -7  -3    2.23    0.43
   0  -7   3    2.44    0.44
   0  -7  -3    2.49    0.41
   0  -7   3    2.41    0.41
  -1  -7  -3    1.59    0.43
  -1  -7  -3    1.07    0.36
   1  -7   3    1.10    0.33
   1  -7   3    0.59    0.31
   1   7   3    0.78    0.39
   1   7   3    0.43    0.34
   2  -7   3    1.03    0.32
  -2  -7  -3    2.17    0.48
   2  -7   3    1.13    0.32
   2   7   3    0.97    0.42
   2   7   3    1.57    0.42
   5   0  -4    0.17    0.27
   5   0  -4    0.01    0.25
   4   0  -4   23.92    0.85
   4   0  -4   24.88    0.88
   3   0  -4    0.23    0.18
   2   0  -4   56.45    1.37
   2   0  -4   58.31    1.39
  -1   0   4    0.33    0.14
  -1   0   4    0.24    0.11
   1   0  -4    0.18    0.11
   1   0  -4    0.13    0.14
   0   0  -4   11.61    0.48
   0   0   4   12.37    0.49
   0   0  -4   11.82    0.50
  -1   0  -4   -0.18    0.10
   1   0   4    0.06    0.13
   1   0   4   -0.02    0.12
  -1   0  -4   -0.22    0.14
  -2   0  -4   97.28    2.10
  -2   0  -4   98.57    2.26
   2   0   4   98.20    2.24
   3   0   4    0.22    0.22
  -3   0  -4    0.25    0.25
  -3   0  -4    0.35    0.18
   3   0   4    0.60    0.23
   4   0   4   25.54    0.95
   5   0   4   -0.19    0.25
   5  -1  -4    0.46    0.24
   5  -1  -4    0.31    0.22
   5   1  -4    0.48    0.32
   5   1  -4    0.39    0.30
  -4  -1   4    0.11    0.20
   4  -1  -4    0.64    0.22
   4  -1  -4    0.62    0.21
  -4  -1   4    0.30    0.22
   4   1  -4    0.49    0.27
   4   1  -4    0.62    0.27
  -3  -1   4   73.49    1.80
  -3  -1   4   74.68    1.80
   3   1  -4   73.48    1.86
   3   1  -4   77.40    1.90
  -2  -1   4    0.56    0.20
  -1  -1   4 1000.00   18.87
   0  -1  -4  293.35    5.55
   0  -1   4  288.83    5.59
   0  -1   4  296.12    5.65
   0  -1  -4  279.44    5.58
   0   1   4  290.08    5.59
   0   1  -4  283.13    5.63
   0   1   4  285.94    5.53
   0   1  -4  291.07    5.58
  -1  -1  -4  231.09    4.75
   1  -1   4  240.21    4.67
   1  -1   4  249.28    4.67
  -1  -1  -4  233.76    4.88
   1   1   4  237.01    4.74
  -1   1  -4  239.12    4.56
   1   1   4  234.29    4.78
  -1   1  -4  235.43    4.56
   2  -1   4    6.00    0.46
  -2  -1  -4    5.97    0.44
  -2  -1  -4    6.88    0.48
   2  -1   4    6.65    0.38
   2   1   4    5.94    0.46
   3  -1   4    0.78    0.24
  -3  -1  -4    1.04    0.28
  -3  -1  -4    0.79    0.24
   3   1   4    0.50    0.26
   3   1   4    0.41    0.24
  -4  -1  -4   10.57    0.63
  -4  -1  -4   10.97    0.58
   4  -1   4   10.18    0.58
   4   1   4    9.77    0.67
   4   1   4   10.25    0.68
   5  -1   4   21.95    0.86
   5  -1   4   22.00    0.85
   5   1   4   20.79    0.95
  -5  -2   4    9.25    0.62
  -5  -2   4   10.05    0.62
   5   2  -4    9.94    0.72
   5   2  -4   10.41    0.74
  -4  -2   4   14.77    0.74
  -4  -2   4   15.47    0.74
   4   2  -4   14.58    0.79
   4   2  -4   14.09    0.81
  -3  -2   4   12.37    0.67
  -3  -2   4   12.68    0.68
   3   2  -4   11.88    0.70
   3   2  -4   11.77    0.69
  -2  -2   4    1.10    0.27
  -2  -2   4    1.46    0.29
   2   2  -4    0.88    0.25
   2   2  -4    1.04    0.26
  -1  -2   4   73.39    1.79
   1   2  -4   73.49    1.78
   1   2  -4   71.19    1.78
   0  -2  -4   92.13    1.99
   0  -2   4   91.20    2.06
   0  -2  -4   86.60    2.13
   0  -2   4   89.33    2.02
   0   2   4   89.54    1.95
   0   2   4   89.48    1.99
   0   2  -4   93.01    2.00
  -1  -2  -4  125.41    2.73
   1  -2   4  120.43    2.67
  -1  -2  -4  124.45    2.73
   1  -2   4  121.32    2.54
   1   2   4  122.08    2.72
   1   2   4  125.96    2.73
  -2  -2  -4   10.32    0.62
  -2  -2  -4   12.05    0.65
   2   2   4   11.80    0.65
  -3  -2  -4   54.75    1.58
  -3  -2  -4   53.93    1.53
   3   2   4   53.47    1.60
   3   2   4   56.59    1.59
  -4  -2  -4   19.42    0.89
  -4  -2  -4   20.41    0.87
   4   2   4   20.84    1.05
   4   2   4   20.61    0.96
  -5  -2  -4    8.23    0.63
  -5  -2  -4    8.84    0.66
   5  -2   4    8.01    0.53
   5  -2   4    9.28    0.56
   5   2   4    9.28    0.73
  -5  -3   4    0.51    0.32
  -5  -3   4    0.36    0.30
   5   3  -4    0.11    0.33
   5   3  -4    0.25    0.35
  -4  -3   4    2.57    0.41
  -4  -3   4    2.91    0.42
   4   3  -4    3.31    0.47
   4   3  -4    3.67    0.49
  -3  -3   4    3.26    0.43
  -3  -3   4    3.94    0.47
   3   3  -4    3.87    0.47
   3   3  -4    4.05    0.48
  -2  -3   4   73.03    1.91
  -2  -3   4   72.92    1.92
   2   3  -4   72.20    1.91
   2   3  -4   72.27    1.92
  -1  -3   4   22.05    0.87
   1  -3  -4   19.73    0.66
  -1  -3   4   21.00    0.84
   1   3  -4   22.58    0.87
   1   3  -4   20.80    0.83
   0  -3  -4  273.18    5.35
   0  -3  -4  261.38    5.34
   0  -3   4  267.64    5.38
   0  -3   4  268.15    5.41
   0   3  -4  275.47    5.42
   0   3   4  259.57    5.81
   0   3   4  266.68    5.28
   0   3  -4  273.12    5.32
  -1  -3  -4   43.46    1.31
   1  -3   4   44.19    1.23
   1  -3   4   44.04    1.14
  -1  -3  -4   43.54    1.29
   1   3   4   44.61    1.30
   1   3   4   44.20    1.30
  -2  -3  -4   14.52    0.76
  -2  -3  -4   16.00    0.78
   2   3   4   16.43    0.80
  -3  -3  -4    1.04    0.33
  -3  -3  -4    1.93    0.38
   3   3   4    0.51    0.31
  -4  -3  -4    6.87    0.63
   4   3   4    6.69    0.67
  -5  -3  -4    0.48    0.34
   5   3   4    0.17    0.37
  -5  -4   4    9.97    0.78
  -5  -4   4    9.62    0.74
   5   4  -4    9.22    0.87
   5   4  -4    9.44    0.88
  -4  -4   4    0.29    0.29
   4   4  -4   -0.15    0.30
   4   4  -4    0.27    0.32
  -3  -4   4    2.89    0.45
  -3  -4   4    3.47    0.49
   3   4  -4    2.57    0.41
  -2  -4   4    2.57    0.40
  -2  -4   4    2.80    0.40
   2   4  -4    2.83    0.41
   2   4  -4    2.81    0.39
   1  -4  -4    1.08    0.23
  -1  -4   4    1.63    0.35
   1  -4  -4    1.15    0.22
  -1  -4   4    1.29    0.31
   1   4  -4    1.25    0.31
   1   4  -4    1.17    0.29
   0  -4   4    1.48    0.31
   0  -4  -4    0.61    0.25
   0  -4   4    1.41    0.29
   0  -4  -4    1.33    0.27
   0   4  -4    1.29    0.32
   0   4   4    1.23    0.26
   0   4   4    1.28    0.26
   0   4  -4    1.25    0.26
  -1  -4  -4   41.58    1.31
   1  -4   4   40.40    1.19
  -1  -4  -4   39.94    1.28
   1  -4   4   41.41    1.16
   1   4   4   40.89    1.27
   1   4   4   41.17    1.28
  -2  -4  -4    3.45    0.46
  -2  -4  -4    4.20    0.52
   2   4   4    2.84    0.43
   2   4   4    3.37    0.46
  -3  -4  -4   30.51    1.16
  -3  -4  -4   28.39    1.15
  -4  -4  -4    0.41    0.32
  -4  -4  -4    0.99    0.36
   4   4   4    0.45    0.34
  -5  -4  -4    1.70    0.43
  -5  -4  -4    1.55    0.43
   5   4   4    1.04    0.47
   5   4   4    1.70    0.45
  -4  -5   4    2.72    0.45
  -4  -5   4    3.07    0.52
   4   5  -4    2.89    0.50
   4   5  -4    3.19    0.53
  -3  -5   4    1.22    0.36
  -3  -5   4    0.58    0.32
   3   5  -4    0.64    0.36
   3   5  -4    0.43    0.33
  -2  -5   4   51.41    1.59
   2   5  -4   46.90    1.74
   2   5  -4   48.53    1.54
   1  -5  -4    7.60    0.52
   1  -5  -4    8.36    0.52
  -1  -5   4    7.72    0.64
   1   5  -4    7.03    0.62
   1   5  -4    7.89    0.61
   0  -5  -4   54.37    1.53
   0  -5   4   53.62    1.55
   0  -5   4   54.90    1.55
   0  -5  -4   53.40    1.51
   0   5   4   52.79    1.41
   0   5   4   52.32    1.39
   0   5  -4   53.36    1.51
   0   5  -4   54.39    1.42
  -1  -5  -4    4.19    0.48
   1  -5   4    3.57    0.41
  -1  -5  -4    4.44    0.71
   1  -5   4    3.34    0.39
   1   5   4    4.32    0.47
   1   5   4    4.49    0.49
   2  -5   4    7.54    0.50
  -2  -5  -4    7.38    0.63
   2  -5   4    8.01    0.49
  -2  -5  -4    7.59    0.69
   2   5   4    7.27    0.67
  -3  -5  -4    1.05    0.37
   3   5   4    1.64    0.43
   3   5   4    2.24    0.49
  -4  -5  -4    0.52    0.35
   4   5   4    1.01    0.41
   4   5   4    1.34    0.46
  -3  -6   4    2.74    0.46
  -3  -6   4    3.70    0.59
   3   6  -4    3.45    0.54
   3   6  -4    3.06    0.57
   2  -6  -4    1.96    0.30
  -2  -6   4    2.30    0.46
   2  -6  -4    2.27    0.32
  -2  -6   4    1.40    0.44
   2   6  -4    2.19    0.43
   1  -6  -4    0.18    0.24
   1  -6  -4    0.69    0.26
  -1  -6   4    0.20    0.32
  -1  -6   4    0.07    0.28
   1   6  -4   -0.03    0.35
   1   6  -4    0.57    0.30
   0  -6   4    9.07    0.68
   0  -6  -4    9.19    0.65
   0  -6  -4    8.78    0.72
   0  -6   4    8.36    0.74
   0   6  -4    9.57    0.66
   1  -6   4    6.13    0.56
  -1  -6  -4    6.20    0.66
  -1  -6  -4    7.42    0.64
   1  -6   4    6.67    0.55
   1   6   4    6.45    0.62
   1   6   4    7.83    0.62
   2  -6   4    1.13    0.27
  -2  -6  -4    0.95    0.33
   2  -6   4    0.97    0.28
  -2  -6  -4    0.69    0.37
   2   6   4    0.59    0.33
  -3  -6  -4    3.97    0.54
  -3  -6  -4    5.03    0.58
   3   6   4    4.99    0.59
   3   6   4    5.81    0.69
   2  -7  -4    4.51    0.45
  -2  -7   4    4.09    0.68
  -2  -7   4    4.84    0.64
   2  -7  -4    4.72    0.50
   2   7  -4    5.29    0.64
   1  -7  -4   10.88    0.67
  -1  -7   4   11.13    0.83
   1  -7  -4   10.56    0.69
  -1  -7   4   10.62    0.79
   1   7  -4   11.20    0.81
   0  -7  -4    6.67    0.65
   0  -7   4    5.83    0.62
   0  -7  -4    6.22    0.61
   0  -7   4    6.19    0.61
   1  -7   4    2.11    0.38
   1  -7   4    2.98    0.44
  -1  -7  -4    2.08    0.41
  -1  -7  -4    2.11    0.46
   1   7   4    2.58    0.50
   1   7   4    2.60    0.46
  -2  -7  -4    2.32    0.82
  -2  -7  -4    2.13    0.49
   2  -7   4    2.18    0.37
   2  -7   4    1.89    0.35
   2   7   4    2.05    0.44
   2   7   4    1.78    0.45
   5   0  -5   17.85    0.78
   5   0  -5   17.25    0.78
   4   0  -5    0.20    0.23
   4   0  -5   -0.01    0.21
   3   0  -5   19.29    0.74
   3   0  -5   20.00    0.72
   2   0  -5    0.17    0.15
   2   0  -5    0.12    0.17
   1   0  -5    7.60    0.37
   1   0  -5    8.59    0.44
  -1   0   5    7.85    0.36
  -1   0   5    7.89    0.42
   0   0  -5    0.17    0.16
   0   0  -5    0.47    0.18
   0   0   5    0.09    0.14
   0   0   5    0.16    0.14
  -1   0  -5  158.69    3.35
   1   0   5  154.95    3.33
  -1   0  -5  155.53    3.20
   1   0   5  158.08    3.24
  -2   0  -5   -0.20    0.19
  -2   0  -5   -0.01    0.15
   2   0   5   -0.12    0.19
   2   0   5    0.38    0.19
   3   0   5  101.73    2.39
  -3   0  -5   99.06    2.64
   3   0   5  104.16    2.35
  -3   0  -5  102.57    2.20
   4   0   5   -0.02    0.23
   5   0   5    6.23    0.59
   5   0   5    6.00    0.86
   5  -1  -5    0.19    0.23
   5  -1  -5    0.09    0.22
   5   1  -5   -0.04    0.29
   5   1  -5    0.13    0.28
  -4  -1   5    0.90    0.26
   4  -1  -5    1.22    0.23
   4  -1  -5    1.08    0.25
  -4  -1   5    0.74    0.23
   4   1  -5    0.93    0.30
   4   1  -5    1.22    0.31
  -3  -1   5    7.22    0.48
  -3  -1   5    6.86    0.49
   3   1  -5    6.84    0.53
   3   1  -5    6.92    0.51
  -2  -1   5   94.98    2.11
  -2  -1   5   93.97    2.14
   2   1  -5   91.71    2.16
   2   1  -5   88.44    2.12
  -1  -1   5   24.52    0.76
   1  -1  -5   20.79    0.62
  -1  -1   5   22.44    0.77
   1  -1  -5   22.17    0.63
   1   1  -5   21.71    0.76
   1   1  -5   21.13    0.77
   0  -1   5  560.38   10.85
   0  -1  -5  575.65   10.88
   0  -1  -5  577.38   10.83
   0  -1   5  589.60   10.94
   0   1  -5  566.57   10.85
   0   1   5  579.70   10.88
   0   1  -5  568.49   10.92
   0   1   5  572.16   10.81
   1  -1   5   20.09    0.70
   1  -1   5   20.21    0.70
  -1   1  -5   19.11    0.62
   1   1   5   19.70    0.73
  -1   1  -5   18.93    0.62
   2  -1   5   60.28    1.87
  -2  -1  -5   63.27    1.65
  -2  -1  -5   59.85    1.57
   2  -1   5   64.45    1.49
   2   1   5   64.15    1.63
   2   1   5   62.49    1.65
   3  -1   5    2.10    0.31
  -3  -1  -5    2.43    0.33
  -3  -1  -5    1.89    0.33
   3  -1   5    2.01    0.32
   3   1   5    1.63    0.32
   4  -1   5    7.41    0.54
  -4  -1  -5    8.34    0.53
  -4  -1  -5    8.54    0.59
   4  -1   5    7.60    0.53
   4   1   5    8.53    0.64
   5  -1   5    2.74    0.38
   5  -1   5    3.31    0.40
   5   1   5    3.82    0.49
   5   1   5    2.80    0.45
  -5  -2   5    9.52    0.61
  -5  -2   5    8.78    0.60
   5   2  -5    9.26    0.74
   5   2  -5    8.05    0.69
  -4  -2   5   19.70    0.85
  -4  -2   5   19.34    0.82
   4   2  -5   19.16    0.92
   4   2  -5   20.08    0.90
  -3  -2   5   34.11    1.13
  -3  -2   5   33.50    1.12
   3   2  -5   33.58    1.17
   3   2  -5   33.14    1.15
  -2  -2   5   32.93    1.09
  -2  -2   5   33.08    1.08
   2   2  -5   34.32    1.12
  -1  -2   5    1.01    0.24
  -1  -2   5    1.61    0.27
   1   2  -5    1.99    0.30
   1   2  -5    1.34    0.26
   0  -2   5    0.91    0.23
   0  -2   5    0.52    0.19
   0  -2  -5    0.79    0.21
   0  -2  -5    0.92    0.20
   0   2   5    0.65    0.17
   0   2   5    0.57    0.19
   0   2  -5    0.68    0.23
   0   2  -5    0.63    0.18
   1  -2   5  123.80    2.74
   1  -2   5  117.40    2.64
  -1  -2  -5  123.63    2.75
  -1  -2  -5  125.43    2.75
   1   2   5  125.45    2.75
   1   2   5  124.06    2.75
  -2  -2  -5   46.68    1.38
   2  -2   5   45.30    1.33
   2  -2   5   45.39    1.19
  -2  -2  -5   45.07    1.34
   2   2   5   46.71    1.37
  -3  -2  -5   18.41    0.85
  -3  -2  -5   17.74    0.82
   3  -2   5   17.41    0.76
   3   2   5   18.92    0.87
   4  -2   5   14.35    0.67
   4  -2   5   14.42    0.63
  -4  -2  -5   14.87    0.75
  -4  -2  -5   15.20    0.80
   4   2   5   13.75    0.82
   5  -2   5    4.77    0.49
  -5  -2  -5    2.76    0.43
   5  -2   5    4.17    0.47
  -5  -2  -5    3.10    0.44
   5   2   5    4.45    0.55
   5   2   5    3.69    0.50
  -5  -3   5    0.86    0.35
  -5  -3   5    0.95    0.32
   5   3  -5    0.43    0.35
   5   3  -5    0.11    0.36
  -4  -3   5    0.51    0.30
  -4  -3   5    0.38    0.28
   4   3  -5    0.52    0.32
   4   3  -5    0.87    0.38
  -3  -3   5   39.20    1.31
  -3  -3   5   40.73    1.32
   3   3  -5   39.97    1.41
   3   3  -5   41.09    1.36
  -2  -3   5    8.17    0.60
  -2  -3   5    7.42    0.59
   2   3  -5    9.16    0.62
   2   3  -5    7.86    0.60
   1  -3  -5   94.35    2.04
  -1  -3   5   97.31    2.31
  -1  -3   5   98.31    2.33
   1   3  -5   93.49    2.30
   1   3  -5   94.57    2.28
   0  -3   5   17.63    0.73
   0  -3  -5   17.35    0.69
   0  -3   5   17.85    0.76
   0   3   5   16.16    0.76
   0   3   5   17.90    0.66
   0   3  -5   18.63    0.77
   0   3  -5   18.53    0.70
   1  -3   5   47.10    1.23
  -1  -3  -5   45.71    1.37
  -1  -3  -5   45.43    1.36
   1  -3   5   48.48    1.33
   1   3   5   47.23    1.36
   1   3   5   48.30    1.37
  -2  -3  -5   17.02    0.83
  -2  -3  -5   16.46    0.80
   2   3   5   17.38    0.82
   2   3   5   17.29    0.83
  -3  -3  -5    3.70    0.47
  -3  -3  -5    4.68    0.53
  -4  -3  -5    2.58    0.44
  -4  -3  -5    2.57    0.43
   4   3   5    2.55    0.49
  -5  -3  -5    1.90    0.41
   5   3   5    1.27    0.42
  -5  -4   5    0.46    0.40
  -5  -4   5    0.16    0.34
   5   4  -5    1.25    0.42
   5   4  -5    0.77    0.43
  -4  -4   5   19.60    1.09
  -4  -4   5   24.25    1.04
   4   4  -5   24.35    1.10
   4   4  -5   24.22    1.08
  -3  -4   5    1.17    0.37
  -3  -4   5    2.42    0.44
   3   4  -5    1.56    0.38
  -2  -4   5    9.54    0.67
  -2  -4   5    9.75    0.69
   2   4  -5   10.23    0.70
   2   4  -5   10.12    0.69
   1  -4  -5    0.99    0.23
  -1  -4   5    0.92    0.30
  -1  -4   5    0.89    0.33
   1   4  -5    0.90    0.30
   1   4  -5    0.52    0.27
   0  -4   5    1.44    0.31
   0  -4  -5    1.06    0.27
   0  -4   5    1.22    0.32
   0  -4  -5    1.46    0.31
   0   4   5    1.30    0.28
   0   4   5    1.52    0.27
   0   4  -5    1.04    0.25
   0   4  -5    1.40    0.34
   1  -4   5    4.95    0.43
   1  -4   5    4.38    0.44
  -1  -4  -5    3.14    0.40
  -1  -4  -5    4.37    0.48
   1   4   5    4.61    0.51
   1   4   5    4.98    0.52
  -2  -4  -5   44.70    1.41
  -2  -4  -5   40.80    1.39
   2  -4   5   44.38    1.25
   2  -4   5   43.20    1.16
   2   4   5   43.29    1.40
   2   4   5   43.37    1.40
  -3  -4  -5    0.00    0.30
  -3  -4  -5    0.12    0.32
   3   4   5    0.58    0.34
  -4  -4  -5   12.53    0.80
  -4  -4  -5    9.97    0.75
   4   4   5   10.60    0.82
   4   4   5   11.30    0.80
  -5  -4  -5   -0.29    0.36
  -5  -4  -5    0.11    0.35
   5   4   5    0.57    0.52
   5   4   5    1.07    0.43
  -4  -5   5    1.95    0.45
  -4  -5   5    1.79    0.53
   4   5  -5    1.14    0.42
   4   5  -5    0.58    0.39
  -3  -5   5    9.46    0.76
  -3  -5   5    9.44    0.74
   3   5  -5    8.79    0.73
   3   5  -5   10.15    0.78
  -2  -5   5    0.68    0.34
   2   5  -5    1.01    0.35
   2   5  -5    0.64    0.31
  -1  -5   5   59.83    1.72
   1  -5  -5   60.03    1.52
  -1  -5   5   60.18    1.75
   1  -5  -5   59.53    1.53
   1   5  -5   55.94    1.68
   1   5  -5   58.33    1.65
   0  -5   5    3.34    0.43
   0  -5   5    3.87    0.47
   0  -5  -5    4.33    0.48
   0  -5  -5    3.19    0.39
   0   5  -5    3.16    0.38
   0   5   5    3.09    0.36
   0   5   5    2.62    0.36
   0   5  -5    3.47    0.47
   1  -5   5   45.68    1.34
  -1  -5  -5   45.89    1.43
   1  -5   5   43.60    1.30
   1   5   5   44.84    1.38
   1   5   5   46.47    1.40
   2  -5   5    0.64    0.24
   2  -5   5    0.34    0.23
  -2  -5  -5    0.32    0.29
  -2  -5  -5    0.38    0.31
   2   5   5    0.16    0.30
  -3  -5  -5    1.37    0.37
  -3  -5  -5    0.76    0.35
   3   5   5    2.74    0.46
   3   5   5    2.15    0.45
  -4  -5  -5   -0.11    0.44
  -4  -5  -5    0.30    0.33
   4   5   5    0.13    0.39
   4   5   5    0.18    0.38
  -3  -6   5    2.06    0.45
  -3  -6   5    1.64    0.48
   3   6  -5    2.25    0.47
   2  -6  -5    3.42    0.37
  -2  -6   5    2.33    0.46
  -2  -6   5    2.96    0.50
   2  -6  -5    3.72    0.37
   2   6  -5    2.84    0.50
   2   6  -5    3.83    0.50
   1  -6  -5    1.02    0.29
  -1  -6   5    1.19    0.39
   1  -6  -5    0.70    0.29
  -1  -6   5    0.48    0.30
   1   6  -5    0.43    0.30
   1   6  -5    1.07    0.37
   0  -6  -5    4.53    0.50
   0  -6   5    4.82    0.54
   0  -6   5    3.39    0.45
   0   6  -5    4.81    0.51
  -1  -6  -5   15.02    0.83
  -1  -6  -5   15.60    0.86
   1  -6   5   16.19    0.79
   1   6   5   16.46    0.82
   1   6   5   16.25    0.81
   2  -6   5    6.04    0.52
   2  -6   5    6.67    0.52
  -2  -6  -5    5.70    0.62
  -2  -6  -5    6.74    0.66
   2   6   5    6.96    0.68
  -3  -6  -5    2.42    0.47
   3  -6   5    3.21    0.36
  -3  -6  -5    1.46    0.44
   3   6   5    2.44    0.48
   3   6   5    2.20    0.55
   2  -7  -5    5.47    0.54
  -2  -7   5    7.41    0.74
   2  -7  -5    6.63    0.54
  -2  -7   5    5.40    0.64
   2   7  -5    6.17    0.61
   2   7  -5    5.84    0.69
  -1  -7   5    1.74    0.42
  -1  -7   5    2.98    0.62
   1  -7  -5    1.99    0.36
   1  -7  -5    1.43    0.36
   1   7  -5    1.19    0.44
   0  -7  -5    4.55    0.51
   0  -7   5    5.19    0.56
   0  -7   5    5.20    0.58
   0  -7  -5    5.17    0.57
   1  -7   5    5.82    0.55
  -1  -7  -5    5.86    0.62
  -1  -7  -5    6.21    0.64
   1  -7   5    5.45    0.59
   1   7   5    5.32    0.55
   2  -7   5    0.36    0.28
  -2  -7  -5    0.87    0.42
   2  -7   5    0.72    0.30
  -2  -7  -5    0.63    0.40
   2   7   5    0.87    0.41
   2   7   5    0.65    0.37
   5   0  -6   -0.04    0.25
   5   0  -6   -0.15    0.25
   4   0  -6   32.88    1.04
   4   0  -6   32.80    1.05
   3   0  -6   -0.02    0.17
   3   0  -6    0.17    0.20
  -2   0   6   82.03    1.91
  -2   0   6   86.52    1.82
   2   0  -6   83.74    1.90
   1   0  -6   -0.03    0.16
  -1   0   6   -0.05    0.15
   1   0  -6   -0.05    0.13
  -1   0   6    0.22    0.14
   0   0  -6   24.55    0.88
   0   0   6   26.41    0.88
  -1   0  -6    0.33    0.31
  -1   0  -6    0.02    0.20
   1   0   6   -0.07    0.17
   1   0   6    0.28    0.17
  -2   0  -6   77.88    1.78
   2   0   6   77.84    1.94
  -2   0  -6   74.39    2.18
   2   0   6   77.03    1.85
   3   0   6    0.00    0.22
  -3   0  -6   -0.08    0.17
   3   0   6   -0.01    0.22
  -3   0  -6   -0.33    0.23
   4   0   6   29.02    1.03
   4   0   6   27.05    1.03
   5   0   6   -0.03    0.27
   5   0   6   -0.12    0.27
   5  -1  -6    0.95    0.28
   5  -1  -6    0.72    0.26
   5   1  -6    1.32    0.35
   5   1  -6    0.82    0.32
  -4  -1   6    0.25    0.21
   4  -1  -6    0.06    0.20
   4  -1  -6    0.11    0.17
   4   1  -6   -0.01    0.26
   4   1  -6    0.27    0.25
  -3  -1   6   18.35    0.74
  -3  -1   6   17.95    0.71
   3  -1  -6   18.34    0.61
   3   1  -6   17.34    0.78
   3   1  -6   17.52    0.76
  -2  -1   6   17.57    0.71
  -2  -1   6   17.46    0.69
   2   1  -6   17.38    0.73
   2   1  -6   15.69    0.69
   1  -1  -6   68.79    1.59
  -1  -1   6   71.61    1.70
   1  -1  -6   72.28    1.61
   1   1  -6   68.54    1.71
   1   1  -6   67.02    1.68
   0  -1  -6    1.80    0.28
   0  -1  -6    2.07    0.26
   0  -1   6    1.57    0.27
   0   1   6    1.64    0.24
   0   1  -6    1.54    0.31
   0   1   6    1.79    0.29
   0   1  -6    1.85    0.27
  -1  -1  -6  250.19    5.05
   1  -1   6  257.83    5.07
  -1  -1  -6  254.57    5.08
   1  -1   6  233.90    5.27
   1   1   6  245.78    5.08
   1   1   6  246.08    5.05
  -1   1  -6  257.77    4.96
  -1   1  -6  256.28    4.98
  -2  -1  -6   12.45    0.65
   2  -1   6   10.86    0.55
  -2  -1  -6   11.62    0.61
   2  -1   6   10.80    0.65
   2   1   6   11.00    0.62
   2   1   6    9.27    0.60
   3  -1   6   22.69    0.81
  -3  -1  -6   23.36    0.93
   3  -1   6   22.78    0.89
  -3  -1  -6   23.07    0.85
   3   1   6   21.95    0.93
   3   1   6   21.68    0.90
   4  -1   6    2.09    0.34
  -4  -1  -6    1.82    0.35
   4  -1   6    2.06    0.34
  -4  -1  -6    1.90    0.32
   4   1   6    1.89    0.40
   4   1   6    1.82    0.37
   5  -1   6    0.81    0.30
   5  -1   6    0.76    0.29
   5   1   6    0.95    0.35
   5   1   6    1.16    0.37
  -5  -2   6    2.93    0.40
  -5  -2   6    2.22    0.36
   5   2  -6    2.67    0.45
   5   2  -6    1.68    0.40
  -4  -2   6   24.53    0.95
  -4  -2   6   25.47    0.96
   4   2  -6   26.58    1.08
   4   2  -6   25.08    1.02
  -3  -2   6   27.15    1.00
  -3  -2   6   25.98    0.99
   3   2  -6   26.98    1.03
   3   2  -6   27.71    1.05
  -2  -2   6   76.82    1.96
  -2  -2   6   77.04    1.95
   2   2  -6   80.50    1.98
   2   2  -6   76.08    1.97
  -1  -2   6    5.05    0.43
  -1  -2   6    5.63    0.46
   1  -2  -6    5.86    0.33
   1  -2  -6    5.66    0.41
   1   2  -6    5.46    0.46
   1   2  -6    4.98    0.45
   0  -2   6   13.28    0.63
   0  -2  -6   12.11    0.58
   0  -2  -6   12.22    0.64
   0  -2   6   11.99    0.57
   0   2   6   12.36    0.58
   0   2  -6   12.26    0.63
   0   2  -6   12.73    0.57
   0   2   6   11.64    0.60
   1  -2   6    0.14    0.16
  -1  -2  -6   -0.04    0.20
  -1  -2  -6    0.02    0.17
   1   2   6    0.08    0.20
  -1   2  -6    0.24    0.18
  -1   2  -6    0.16    0.14
   1   2   6    0.50    0.22
   2  -2   6   40.55    1.14
  -2  -2  -6   38.40    1.24
  -2  -2  -6   37.82    1.21
   2   2   6   37.83    1.22
   2   2   6   36.57    1.23
  -3  -2  -6   11.62    0.71
   3  -2   6   12.31    0.58
   3  -2   6   11.05    0.66
  -3  -2  -6   11.27    0.67
   3   2   6   11.92    0.73
   3   2   6   11.16    0.70
   4  -2   6   12.75    0.67
  -4  -2  -6   11.93    0.71
  -4  -2  -6   13.25    0.76
   4  -2   6   13.23    0.63
   4   2   6   12.25    0.79
   4   2   6   12.27    0.77
  -5  -2  -6    2.64    0.42
   5  -2   6    3.04    0.38
   5  -2   6    2.63    0.37
   5   2   6    2.45    0.48
   5   2   6    2.89    0.47
  -5  -3   6    1.98    0.38
  -5  -3   6    1.75    0.39
   5   3  -6    1.50    0.43
   5   3  -6    1.61    0.42
  -4  -3   6    1.31    0.34
  -4  -3   6    1.21    0.33
   4   3  -6    1.23    0.39
   4   3  -6    0.92    0.34
  -3  -3   6    4.41    0.48
  -3  -3   6    4.14    0.49
   3   3  -6    4.37    0.49
  -2  -3   6   74.56    1.96
  -2  -3   6   73.88    1.95
   2   3  -6   74.74    1.98
   2   3  -6   72.38    1.95
   1  -3  -6   18.24    0.68
  -1  -3   6   18.78    0.82
  -1  -3   6   19.29    0.84
   1  -3  -6   18.76    0.72
   1   3  -6   18.74    0.81
   1   3  -6   19.36    0.83
   0  -3   6  109.24    2.51
   0  -3   6  113.29    2.58
   0  -3  -6  105.13    2.48
   0  -3  -6  111.10    2.48
   0   3  -6  112.15    2.57
   0   3   6  110.16    2.46
   0   3   6  107.72    2.39
   0   3  -6  111.98    2.47
  -1  -3  -6   29.48    1.04
   1  -3   6   30.61    1.04
  -1  -3  -6   31.01    1.07
   1  -3   6   30.44    0.95
   1   3   6   31.22    1.06
   1   3   6   27.76    1.02
   2  -3   6   51.60    1.30
   2  -3   6   50.56    1.43
  -2  -3  -6   49.36    1.49
  -2  -3  -6   51.17    1.52
   2   3   6   49.09    1.50
   2   3   6   49.48    1.51
  -3  -3  -6    6.02    0.58
  -3  -3  -6    5.71    0.58
   3  -3   6    5.36    0.47
   3   3   6    4.60    0.57
   3   3   6    5.38    0.59
  -4  -3  -6    6.20    0.62
  -4  -3  -6    6.92    0.64
   4   3   6    6.32    0.66
   4   3   6    6.51    0.69
  -5  -3  -6    0.13    0.33
   5   3   6   -0.42    0.39
   5   3   6   -0.02    0.36
  -5  -4   6    0.59    0.43
  -5  -4   6    1.31    0.39
   5   4  -6    1.02    0.40
   5   4  -6    0.83    0.46
  -4  -4   6    0.97    0.34
  -4  -4   6    1.65    0.37
   4   4  -6    0.35    0.34
   4   4  -6    1.03    0.37
  -3  -4   6   23.13    1.03
  -3  -4   6   24.58    1.05
   3   4  -6   24.94    1.08
  -2  -4   6    0.61    0.29
  -2  -4   6    0.85    0.36
   2   4  -6    0.86    0.30
   2   4  -6    0.45    0.29
  -1  -4   6   13.67    0.77
  -1  -4   6   14.71    0.78
   1  -4  -6   16.41    0.63
   1   4  -6   15.72    0.78
   1   4  -6   15.23    0.79
   0  -4   6    2.79    0.39
   0  -4  -6    2.69    0.35
   0  -4   6    3.05    0.38
   0  -4  -6    3.22    0.40
   0   4   6    2.85    0.36
   0   4  -6    3.23    0.37
   0   4  -6    2.97    0.41
   0   4   6    3.02    0.34
  -1  -4  -6    2.47    0.42
   1  -4   6    2.32    0.32
  -1  -4  -6    2.13    0.37
   1  -4   6    2.22    0.35
   1   4   6    2.28    0.36
   1   4   6    2.02    0.35
   2  -4   6    1.01    0.30
  -2  -4  -6    1.17    0.32
   2  -4   6    0.96    0.25
  -2  -4  -6    1.52    0.64
   2   4   6    1.12    0.34
   2   4   6    1.19    0.37
  -3  -4  -6   28.84    1.14
  -3  -4  -6   26.35    1.11
   3   4   6   27.84    1.13
  -4  -4  -6    1.10    0.38
  -4  -4  -6    1.11    0.39
   4   4   6    0.78    0.37
   4   4   6    1.33    0.43
  -4  -5   6    0.16    0.33
   4   5  -6    0.10    0.36
   4   5  -6   -0.12    0.39
  -3  -5   6    2.55    0.45
  -3  -5   6    3.43    0.49
   3   5  -6    2.34    0.44
   3   5  -6    2.64    0.47
  -2  -5   6   12.61    0.80
   2   5  -6   11.18    0.74
   2   5  -6   11.50    0.77
   1  -5  -6    0.28    0.23
  -1  -5   6    0.27    0.27
   1  -5  -6    0.30    0.21
  -1  -5   6    0.19    0.29
   1   5  -6    0.24    0.26
   1   5  -6    0.81    0.33
   0  -5   6   57.58    1.61
   0  -5   6   54.34    1.61
   0  -5  -6   55.28    1.55
   0  -5  -6   56.89    1.59
   0   5   6   53.36    1.46
   0   5  -6   57.50    1.49
   0   5  -6   56.48    1.60
   0   5   6   55.37    1.44
   1  -5   6    2.99    0.41
   1  -5   6    2.14    0.34
  -1  -5  -6    2.74    0.41
  -1  -5  -6    2.18    0.42
   1   5   6    2.47    0.42
   1   5   6    2.63    0.43
   2  -5   6   35.91    1.12
  -2  -5  -6   35.38    1.28
  -2  -5  -6   34.11    1.27
   2  -5   6   35.33    1.07
   2   5   6   35.36    1.30
   2   5   6   34.41    1.28
  -3  -5  -6    0.96    0.37
  -3  -5  -6    0.43    0.31
   3   5   6    0.91    0.37
   3   5   6    1.16    0.40
  -4  -5  -6    0.85    0.37
  -4  -5  -6    0.55    0.43
   4   5   6    0.14    0.39
   4   5   6    0.34    0.38
  -3  -6   6    9.69    0.80
  -3  -6   6    9.77    0.82
   3   6  -6   10.54    0.83
   3   6  -6   11.90    1.16
   2  -6  -6    4.34    0.41
  -2  -6   6    4.83    0.59
   2  -6  -6    5.24    0.44
  -2  -6   6    3.87    0.53
   2   6  -6    4.70    0.55
   2   6  -6    6.65    0.70
   1  -6  -6    6.10    0.55
   1  -6  -6    6.53    0.52
  -1  -6   6    7.69    0.70
  -1  -6   6    6.73    0.67
   1   6  -6    7.73    0.71
   1   6  -6    6.80    0.62
   0  -6  -6    6.11    0.70
   0  -6   6    6.03    0.62
   0  -6  -6    5.79    0.61
   0  -6   6    7.29    0.64
   0   6  -6    7.25    0.64
   0   6  -6    7.32    0.54
   1  -6   6    1.01    0.31
  -1  -6  -6    1.12    0.38
   1  -6   6    1.44    0.34
  -1  -6  -6    1.07    0.33
   1   6   6    0.77    0.33
   1   6   6    1.05    0.34
   2  -6   6    3.84    0.42
  -2  -6  -6    3.31    0.49
  -2  -6  -6    3.81    0.52
   2  -6   6    3.43    0.39
   2   6   6    4.10    0.50
  -3  -6  -6    2.31    0.49
   3  -6   6    2.93    0.36
   3  -6   6    2.20    0.33
  -3  -6  -6    2.11    0.43
   3   6   6    2.68    0.50
  -2  -7   6    0.30    0.40
  -2  -7   6    0.01    0.37
   2  -7  -6   -0.10    0.26
   2   7  -6   -0.34    0.35
   2   7  -6   -0.04    0.42
  -1  -7   6    9.76    1.24
   1  -7  -6   10.07    0.71
   1  -7  -6   10.25    0.65
  -1  -7   6   10.15    0.80
   0  -7  -6    2.75    0.46
   0  -7  -6    2.48    0.41
   0  -7   6    2.20    0.44
   0  -7   6    2.21    0.42
  -1  -7  -6    5.41    0.60
   1  -7   6    4.57    0.51
  -1  -7  -6    3.95    0.60
   1  -7   6    4.48    0.51
   1   7   6    3.41    0.47
   2  -7   6    0.65    0.33
  -2  -7  -6    0.36    0.35
   2  -7   6    0.64    0.31
  -2  -7  -6    0.67    0.45
   2   7   6    0.37    0.41
   2   7   6    0.85    0.40
   5   0  -7   14.78    0.75
   4   0  -7    0.07    0.23
   4   0  -7    0.35    0.23
   3   0  -7   99.97    2.27
   3   0  -7  100.21    2.32
  -2   0   7   -0.25    0.18
   2   0  -7   -0.31    0.15
   2   0  -7   -0.12    0.19
  -2   0   7   -0.14    0.14
   1   0  -7   65.68    1.81
  -1   0   7   68.39    1.61
   1   0  -7   70.96    1.76
  -1   0   7   70.01    1.74
   0   0   7   -0.08    0.17
   0   0  -7   -0.16    0.19
   1   0   7    0.39    0.19
   1   0   7    0.43    0.24
  -1   0  -7    0.20    0.17
  -2   0  -7   -0.12    0.22
  -2   0  -7    0.21    0.19
   2   0   7    0.12    0.24
   2   0   7   -0.10    0.19
  -3   0  -7   71.72    1.69
   3   0   7   71.62    1.83
   3   0   7   71.42    1.90
  -3   0  -7   70.79    1.89
   4   0   7    0.30    0.27
   4   0   7    0.05    0.27
   5   0   7    5.64    0.61
   5   0   7    7.35    0.65
   5  -1  -7    0.02    0.21
   5  -1  -7    0.14    0.24
   5   1  -7   -0.28    0.25
   5   1  -7    0.20    0.28
  -4  -1   7    9.06    0.51
  -4  -1   7    8.65    0.55
   4  -1  -7    8.97    0.49
   4  -1  -7    9.10    0.53
   4   1  -7    9.02    0.61
   4   1  -7    8.66    0.63
   3  -1  -7    1.53    0.27
   3  -1  -7    0.93    0.21
  -3  -1   7    1.28    0.29
  -3  -1   7    1.08    0.25
   3   1  -7    1.43    0.30
   3   1  -7    1.58    0.33
  -2  -1   7   17.43    0.70
  -2  -1   7   16.69    0.72
   2  -1  -7   17.95    0.60
   2  -1  -7   17.04    0.69
   2   1  -7   18.28    0.78
   2   1  -7   17.55    0.73
   1  -1  -7   10.24    0.51
   1  -1  -7    9.91    0.51
  -1  -1   7    9.34    0.53
  -1   1   7    9.50    0.42
   1   1  -7    9.43    0.55
   1   1  -7    9.91    0.54
  -1   1   7    8.99    0.40
   0  -1  -7  236.69    4.81
   0  -1   7  232.19    4.84
   0   1   7  239.99    4.88
   0   1  -7  246.69    5.07
   0   1  -7  235.91    4.92
   1  -1   7   77.84    1.91
  -1  -1  -7   74.74    1.88
  -1  -1  -7   75.01    1.85
  -1   1  -7   75.81    1.84
   1   1   7   75.05    1.86
   1   1   7   73.93    1.89
   2  -1   7  253.82    5.44
  -2  -1  -7  263.45    5.35
  -2  -1  -7  259.50    5.42
   2  -1   7  265.43    5.30
   2   1   7  264.92    5.40
  -2   1  -7  269.23    5.25
   2   1   7  263.01    5.45
  -2   1  -7  266.22    5.15
   3  -1   7    3.61    0.44
  -3  -1  -7    4.35    0.46
  -3  -1  -7    3.04    0.42
   3  -1   7    3.20    0.38
   3   1   7    3.18    0.45
   3   1   7    2.65    0.39
   4  -1   7    9.86    0.61
  -4  -1  -7    7.89    0.55
   4  -1   7    8.79    0.62
  -4  -1  -7    8.93    0.64
   4   1   7    9.82    1.09
   4   1   7    8.93    0.67
   5  -1   7    0.42    0.34
   5  -1   7    0.60    0.30
   5   1   7    0.20    0.31
   5   1   7    0.54    0.32
  -5  -2   7    3.45    0.42
  -5  -2   7    2.98    0.42
   5   2  -7    3.48    0.48
   5   2  -7    3.69    0.50
  -4  -2   7   31.13    1.06
  -4  -2   7   29.65    1.06
   4   2  -7   30.81    1.15
  -3  -2   7   69.85    1.85
  -3  -2   7   69.54    1.82
   3   2  -7   68.45    1.86
   3   2  -7   70.14    1.89
  -2  -2   7  137.99    3.13
  -2  -2   7  138.30    3.10
   2   2  -7  140.07    3.15
   2   2  -7  139.33    3.14
  -1  -2   7   89.84    2.19
   1  -2  -7   95.60    2.00
   1  -2  -7   86.40    2.08
   1   2  -7   92.91    2.20
   1   2  -7   88.69    2.19
   0  -2  -7    1.43    0.24
   0  -2   7    2.31    0.32
   0  -2   7    1.38    0.29
   0  -2  -7    1.40    0.27
   0   2  -7    1.36    0.31
   0   2   7    1.75    0.27
   0   2  -7    1.47    0.26
  -1  -2  -7    3.38    0.39
   1  -2   7    3.94    0.46
   1  -2   7    3.33    0.37
  -1   2  -7    3.99    0.34
   1   2   7    3.27    0.38
   1   2   7    2.90    0.36
   2  -2   7    0.68    0.27
  -2  -2  -7    0.68    0.27
   2  -2   7    0.89    0.25
  -2  -2  -7    0.42    0.24
   2   2   7    0.49    0.26
   2   2   7    0.76    0.27
   3  -2   7   11.88    0.60
   3  -2   7   12.40    0.69
  -3  -2  -7   12.16    0.70
  -3  -2  -7   11.46    0.72
   3   2   7   11.81    0.74
   3   2   7   12.39    0.74
  -4  -2  -7    8.20    0.62
   4  -2   7    8.04    0.61
   4  -2   7    8.11    0.54
  -4  -2  -7    8.31    0.65
   4   2   7    8.81    0.70
   4   2   7    8.05    0.68
   5  -2   7    5.28    0.54
  -5  -2  -7    4.35    0.50
  -5  -2  -7    4.14    0.47
   5  -2   7    4.75    0.48
   5   2   7    4.31    0.52
   5   2   7    3.68    0.52
  -5  -3   7    0.32    0.34
  -5  -3   7    0.73    0.35
   5   3  -7    1.17    0.72
   5   3  -7    1.56    0.43
  -4  -3   7    0.41    0.32
  -4  -3   7    0.05    0.28
   4   3  -7    0.21    0.30
   4   3  -7    0.48    0.34
  -3  -3   7   11.72    0.73
  -3  -3   7   10.85    0.71
   3   3  -7   11.46    0.75
   3   3  -7   13.74    0.79
  -2  -3   7    5.38    0.54
  -2  -3   7    4.67    0.53
   2   3  -7    5.08    0.55
   2   3  -7    4.63    0.52
   1  -3  -7   56.14    1.36
  -1  -3   7   53.45    1.56
   1  -3  -7   53.43    1.40
  -1  -3   7   55.40    1.58
   1   3  -7   56.63    1.56
   1   3  -7   55.38    1.58
   0  -3   7    8.04    0.53
   0  -3  -7    5.63    0.50
   0  -3  -7    6.27    0.47
   0  -3   7    6.96    0.56
   0   3   7    6.46    0.51
   0   3   7    5.78    0.44
   0   3  -7    6.42    0.48
   0   3  -7    6.32    0.56
  -1  -3  -7  121.35    2.84
   1  -3   7  122.10    2.74
   1  -3   7  127.17    2.87
  -1  -3  -7  124.02    2.85
   1   3   7  120.54    2.82
  -1   3  -7  127.11    2.58
  -1   3  -7  120.84    2.72
   1   3   7  124.16    2.85
  -2  -3  -7   22.55    0.96
  -2  -3  -7   22.79    0.97
   2  -3   7   22.22    0.92
   2  -3   7   22.98    0.81
   2   3   7   23.91    0.98
   2   3   7   22.94    0.98
   3  -3   7   21.27    0.83
  -3  -3  -7   21.14    0.97
   3  -3   7   20.23    0.84
   3   3   7   21.84    0.98
   3   3   7   19.36    0.95
   4  -3   7    3.54    0.40
  -4  -3  -7    2.95    0.44
  -4  -3  -7    2.85    0.45
   4   3   7    3.61    0.50
   4   3   7    4.19    0.56
   5  -3   7    0.39    0.28
   5  -3   7    0.56    0.30
  -5  -3  -7    0.25    0.34
  -5  -3  -7    0.05    0.33
   5   3   7    0.07    0.37
   5   3   7    0.65    0.41
  -4  -4   7   11.43    0.77
  -4  -4   7   12.30    0.82
   4   4  -7   12.11    0.84
   4   4  -7   11.21    0.83
  -3  -4   7    2.64    0.43
  -3  -4   7    2.46    0.40
   3   4  -7    3.39    0.48
  -2  -4   7   40.16    1.37
   2   4  -7   41.41    1.60
   2   4  -7   42.56    1.38
   1  -4  -7    7.60    0.51
  -1  -4   7    9.40    0.64
   1  -4  -7    8.83    0.49
  -1  -4   7    8.45    0.64
   1   4  -7    8.68    0.62
   1   4  -7    7.54    0.64
   0  -4   7   11.97    0.68
   0  -4  -7   13.02    0.68
   0  -4   7   11.33    0.69
   0  -4  -7   12.38    0.64
   0   4   7   11.81    0.59
   0   4  -7   12.29    0.63
   0   4  -7   12.00    0.73
   0   4   7   13.30    0.66
  -1  -4  -7    1.95    0.39
  -1  -4  -7    1.40    0.32
   1  -4   7    1.36    0.32
   1  -4   7    1.81    0.32
   1   4   7    1.49    0.35
   1   4   7    1.41    0.35
   2  -4   7    5.69    0.54
  -2  -4  -7    5.50    0.58
   2  -4   7    5.88    0.46
  -2  -4  -7    4.48    0.55
   2   4   7    6.44    0.62
   2   4   7    6.42    0.62
   3  -4   7    1.12    0.29
  -3  -4  -7    1.46    0.38
  -3  -4  -7    1.16    0.38
   3   4   7    1.18    0.36
  -4  -4  -7   13.57    0.84
  -4  -4  -7   14.65    0.88
   4   4   7   14.19    0.92
   4   4   7   14.54    0.88
  -4  -5   7    0.26    0.35
   4   5  -7   -0.12    0.35
   4   5  -7   -0.52    0.35
  -3  -5   7    1.05    0.38
  -3  -5   7    0.82    0.36
   3   5  -7    0.32    0.32
   3   5  -7    0.81    0.38
  -2  -5   7    2.40    0.43
   2   5  -7    3.33    0.47
   2   5  -7    2.83    0.45
   1  -5  -7   15.39    0.68
   1  -5  -7   15.73    0.71
  -1  -5   7   15.65    0.84
   1   5  -7   15.43    0.78
   1   5  -7   14.69    0.84
   0  -5  -7    4.87    0.54
   0  -5  -7    5.92    0.53
   0  -5   7    4.42    0.50
   0  -5   7    5.45    0.55
   0   5  -7    4.50    0.49
   0   5   7    5.06    0.51
   0   5  -7    6.10    0.61
   0   5   7    4.95    0.46
   1  -5   7   38.02    1.20
  -1  -5  -7   37.88    1.27
  -1  -5  -7   36.94    1.29
   1  -5   7   38.36    1.24
   1   5   7   36.47    1.23
   1   5   7   37.19    1.24
  -2  -5  -7   15.41    0.89
   2  -5   7   17.08    0.77
   2  -5   7   15.12    0.71
  -2  -5  -7   15.71    0.86
   2   5   7   16.00    0.87
   2   5   7   16.05    0.88
  -3  -5  -7   22.44    1.04
  -3  -5  -7   22.64    1.05
   3  -5   7   22.72    0.84
   3  -5   7   21.91    0.88
   3   5   7   23.69    1.09
   3   5   7   23.06    1.11
  -4  -5  -7    0.67    0.42
  -4  -5  -7    0.11    0.41
   4   5   7    0.77    0.50
   4   5   7    0.16    0.41
  -3  -6   7    3.44    0.54
  -3  -6   7    3.56    0.56
   3   6  -7    3.67    0.55
   3   6  -7    3.76    0.60
  -2  -6   7   14.63    0.90
  -2  -6   7   15.24    0.89
   2  -6  -7   15.05    0.65
   2  -6  -7   14.31    0.67
   2   6  -7   15.90    0.94
   2   6  -7   15.08    0.86
  -1  -6   7    1.01    0.35
  -1  -6   7    0.89    0.36
   1  -6  -7    1.56    0.34
   1  -6  -7    1.44    0.31
   1   6  -7    2.05    0.45
   0  -6  -7    6.28    0.57
   0  -6   7    5.83    0.60
   0  -6  -7    7.43    0.64
   0  -6   7    6.69    0.65
   0   6  -7    6.19    0.52
   0   6  -7    6.26    0.60
   1  -6   7    3.18    0.43
  -1  -6  -7    3.20    0.49
  -1  -6  -7    2.95    0.44
   1  -6   7    2.78    0.69
   1   6   7    2.87    0.43
   1   6   7    3.02    0.55
  -2  -6  -7    2.20    0.43
   2  -6   7    2.00    0.45
  -2  -6  -7    1.71    0.41
   2  -6   7    2.23    0.36
   2   6   7    2.31    0.42
   2   6   7    1.46    0.45
   3  -6   7    0.34    0.27
   3  -6   7    0.93    0.30
  -3  -6  -7    1.34    0.46
  -3  -6  -7    0.07    0.41
   3   6   7    1.31    0.79
   3   6   7    0.86    0.40
   2  -7  -7    0.69    0.35
  -2  -7   7    0.75    0.43
   2  -7  -7    0.48    0.30
   2   7  -7    0.98    0.45
   2   7  -7    0.09    0.36
  -1  -7   7    1.22    0.39
  -1  -7   7    1.86    0.48
   1  -7  -7    2.88    0.42
   1  -7  -7    2.24    0.38
   1   7  -7    1.61    0.40
   0  -7   7   10.13    0.78
   0  -7   7   11.81    0.78
   0  -7  -7   13.98    0.86
   0  -7  -7   10.95    0.73
   0   7  -7   10.44    0.78
   0   7  -7   10.51    0.62
   1  -7   7    3.83    0.49
  -1  -7  -7    3.10    0.47
   1  -7   7    3.95    0.48
   1   7   7    3.68    0.48
   5   0  -8   -0.25    0.26
   5   0  -8   -0.60    0.24
   4   0  -8   34.60    1.09
   4   0  -8   33.45    1.11
   3   0  -8    0.11    0.20
   3   0  -8    0.16    0.23
   2   0  -8  168.97    3.62
  -2   0   8  172.06    3.51
   2   0  -8  177.34    3.72
  -2   0   8  178.31    3.84
   1   0  -8    0.07    0.23
  -1   0   8   -0.06    0.16
   1   0  -8   -0.03    0.17
  -1   0   8   -0.09    0.19
   0   0  -8  240.79    4.99
   0   0   8  239.04    5.02
   1   0   8    0.05    0.21
  -1   0  -8    0.07    0.19
  -1   0  -8    0.00    0.22
   1   0   8    0.05    0.21
  -2   0  -8    1.86    0.30
  -2   0  -8    1.82    0.37
   2   0   8    1.73    0.31
   2   0   8    1.37    0.33
  -3   0  -8   -0.02    0.20
  -3   0  -8    0.08    0.27
   3   0   8    0.00    0.26
   3   0   8    0.34    0.26
   4   0   8  102.68    2.48
   4   0   8  102.96    2.53
   5   0   8   -0.03    0.29
   5   0   8   -0.65    0.28
   5  -1  -8   12.07    0.62
   5  -1  -8   10.91    0.62
   5   1  -8   11.62    0.74
   5   1  -8   12.18    0.72
  -4  -1   8    0.43    0.25
  -4  -1   8    0.50    0.22
   4  -1  -8    0.36    0.22
   4  -1  -8    0.44    0.24
   4   1  -8    0.97    0.31
   4   1  -8    0.20    0.25
   3  -1  -8   10.78    0.51
   3  -1  -8   10.53    0.57
  -3  -1   8   10.40    0.61
  -3  -1   8   10.69    0.58
   3   1  -8   11.49    0.67
   3   1  -8   10.47    0.63
  -2  -1   8   17.98    0.73
   2  -1  -8   17.40    0.63
   2  -1  -8   17.39    0.75
  -2  -1   8   17.10    0.75
   2   1  -8   17.15    0.75
   2   1  -8   18.45    0.79
   1  -1  -8   87.45    2.31
   1  -1  -8   96.09    2.18
  -1  -1   8   89.61    2.16
  -1  -1   8   89.66    2.19
  -1   1   8   93.11    2.03
   1   1  -8   96.00    2.24
   1   1  -8   89.53    2.18
  -1   1   8   90.50    2.00
   0  -1  -8   46.99    1.40
   0  -1  -8   51.58    1.39
   0  -1   8   47.19    1.44
   0  -1   8   48.91    1.39
   0   1  -8   50.45    1.41
   0   1  -8   47.95    1.44
   0   1   8   51.18    1.37
   1  -1   8   89.41    2.16
  -1  -1  -8   85.52    2.11
   1  -1   8   86.58    2.15
  -1  -1  -8   79.86    2.05
   1   1   8   86.74    2.10
  -1   1  -8   83.41    2.03
  -1   1  -8   81.07    2.29
   1   1   8   87.14    2.14
   2  -1   8   51.63    1.44
  -2  -1  -8   52.43    1.46
  -2  -1  -8   53.63    1.55
   2  -1   8   51.80    1.57
   2   1   8   52.67    1.50
   2   1   8   50.04    1.53
  -2   1  -8   53.06    1.64
   3  -1   8   36.76    1.27
  -3  -1  -8   38.17    1.20
   3  -1   8   39.68    1.19
  -3  -1  -8   40.45    1.31
   3   1   8   39.09    1.28
   3   1   8   37.23    1.30
  -4  -1  -8    2.14    0.40
  -4  -1  -8    2.58    0.37
   4  -1   8    2.54    0.41
   4  -1   8    1.94    0.35
   4   1   8    1.95    0.40
   4   1   8    2.58    0.44
   5  -1   8    2.75    0.42
   5  -1   8    2.45    0.64
  -5  -1  -8    2.77    0.41
  -5  -1  -8    2.43    0.34
   5   1   8    2.50    0.43
   5   1   8    2.28    0.43
  -5  -2   8    0.62    0.32
  -5  -2   8    0.87    0.29
   5   2  -8    1.00    0.38
   5   2  -8    0.50    0.33
  -4  -2   8    8.50    0.63
  -4  -2   8    8.68    0.60
   4   2  -8    8.74    0.72
   4   2  -8    7.89    0.64
  -3  -2   8   18.43    0.83
  -3  -2   8   18.82    0.84
   3   2  -8   18.51    0.87
   3   2  -8   17.12    0.84
  -2  -2   8  144.10    3.27
  -2  -2   8  147.75    3.26
   2   2  -8  144.91    3.29
   2   2  -8  144.99    3.28
   1  -2  -8  320.52    6.17
  -1  -2   8  312.39    6.34
  -1  -2   8  311.49    6.33
   1  -2  -8  310.83    6.25
   1   2  -8  315.23    6.33
   1   2  -8  311.83    6.35
   0  -2  -8   88.13    2.16
   0  -2   8   90.79    2.24
   0  -2   8   88.59    2.15
   0  -2  -8   89.96    2.11
   0   2  -8   89.39    2.14
   0   2   8   87.19    2.06
   0   2  -8   88.94    2.22
   0   2   8   94.24    2.19
  -1  -2  -8   16.69    0.76
   1  -2   8   17.20    0.83
   1  -2   8   17.49    0.74
  -1   2  -8   16.56    0.84
  -1   2  -8   17.73    0.74
   1   2   8   17.97    0.78
   1   2   8   18.03    0.79
  -2  -2  -8    1.34    0.31
  -2  -2  -8    1.54    0.33
   2  -2   8    1.85    0.34
   2  -2   8    1.62    0.34
   2   2   8    1.45    0.32
   2   2   8    1.66    0.35
   3  -2   8    4.36    0.47
  -3  -2  -8    4.35    0.48
  -3  -2  -8    5.34    0.57
   3  -2   8    5.98    0.57
   3   2   8    5.48    0.58
   3   2   8    5.33    0.58
   4  -2   8    9.54    0.66
  -4  -2  -8   10.27    0.72
   4  -2   8    9.35    0.61
  -4  -2  -8    9.81    0.67
   4   2   8   10.18    0.73
   4   2   8    9.32    0.74
  -5  -2  -8    2.24    0.41
   5  -2   8    2.46    0.39
   5  -2   8    2.27    0.47
  -5  -2  -8    3.05    0.49
   5   2   8    3.08    0.52
   5   2   8    3.10    0.50
  -5  -3   8    0.78    0.44
  -5  -3   8    0.74    0.35
   5   3  -8    1.19    0.41
   5   3  -8    0.65    0.69
  -4  -3   8    1.90    0.38
   4   3  -8    1.26    0.40
   4   3  -8    1.37    0.40
  -3  -3   8    7.18    0.63
  -3  -3   8    6.10    0.58
   3   3  -8    7.31    0.65
   3   3  -8    7.21    0.66
  -2  -3   8   10.52    0.68
  -2  -3   8   12.77    0.72
   2   3  -8   10.60    0.70
   2   3  -8   11.62    0.71
   1  -3  -8    5.38    0.46
  -1  -3   8    5.09    0.52
  -1  -3   8    5.69    0.54
   1  -3  -8    6.07    0.42
   1   3  -8    5.47    0.55
   1   3  -8    6.70    0.54
   0  -3  -8  137.40    3.07
   0  -3  -8  141.59    3.04
   0  -3   8  142.88    3.18
   0  -3   8  136.23    3.09
   0   3  -8  136.09    3.13
   0   3   8  137.63    3.05
   0   3   8  133.81    2.95
   0   3  -8  136.72    3.02
  -1  -3  -8   11.34    0.69
   1  -3   8   11.34    0.61
   1  -3   8   10.94    0.71
  -1  -3  -8   11.49    0.67
  -1   3  -8    9.90    0.61
  -1   3  -8   10.67    0.51
   1   3   8   10.80    0.67
   1   3   8   12.06    0.69
  -2  -3  -8   43.37    1.41
  -2  -3  -8   45.40    1.43
   2  -3   8   44.60    1.40
   2  -3   8   44.42    1.28
   2   3   8   45.04    1.44
   2   3   8   42.19    1.39
   3  -3   8   11.11    0.69
  -3  -3  -8   11.39    0.75
   3  -3   8   10.84    0.67
  -3  -3  -8   12.25    0.78
   3   3   8   13.19    0.80
   3   3   8   12.41    1.04
   4  -3   8    5.46    0.53
  -4  -3  -8    5.11    0.56
  -4  -3  -8    5.62    0.60
   4  -3   8    4.30    0.48
   4   3   8    4.04    0.52
   4   3   8    3.87    0.50
   5  -3   8    0.15    0.29
   5  -3   8    0.31    0.31
  -5  -3  -8    0.16    0.34
  -5  -3  -8    0.00    0.34
   5   3   8    0.23    0.40
   5   3   8    0.39    0.38
  -4  -4   8    0.68    0.34
  -4  -4   8   -0.13    0.29
   4   4  -8    0.65    0.35
   4   4  -8    0.22    0.35
  -3  -4   8   25.43    1.09
  -3  -4   8   26.14    1.09
   3   4  -8   26.01    1.11
  -2  -4   8    2.84    0.43
  -2  -4   8    2.84    0.41
   2   4  -8    2.82    0.50
   2   4  -8    2.98    0.44
  -1  -4   8   67.84    1.88
  -1  -4   8   65.89    1.84
   1  -4  -8   65.09    1.66
   1  -4  -8   67.18    1.63
   1   4  -8   65.27    1.85
   1   4  -8   65.22    1.79
   0  -4  -8    5.00    0.54
   0  -4   8    6.09    0.54
   0  -4  -8    5.68    0.50
   0  -4   8    6.71    0.59
   0   4   8    5.66    0.53
   0   4   8    5.67    0.47
   0   4  -8    4.69    0.47
   0   4  -8    5.11    0.57
  -1  -4  -8   12.62    0.75
  -1  -4  -8   13.48    0.73
   1  -4   8   13.54    0.68
   1  -4   8   13.47    0.74
   1   4   8   13.76    0.75
  -1   4  -8   12.84    0.65
   1   4   8   13.59    0.75
   2  -4   8    3.81    0.40
   2  -4   8    3.54    0.45
  -2  -4  -8    1.86    0.38
  -2  -4  -8    3.03    0.46
   2   4   8    3.64    0.48
   3  -4   8    8.13    0.58
  -3  -4  -8    7.98    0.69
   3  -4   8    8.38    0.63
   3   4   8    8.79    0.73
  -4  -4  -8    0.97    0.40
  -4  -4  -8    0.79    0.35
   4   4   8    1.07    0.40
   4   4   8    1.97    0.45
  -4  -5   8    1.97    0.50
  -4  -5   8    2.47    0.47
   4   5  -8    1.24    0.45
  -3  -5   8    1.32    0.38
  -3  -5   8    1.53    0.39
   3   5  -8    1.14    0.39
   3   5  -8    2.06    0.49
   2  -5  -8    0.35    0.20
  -2  -5   8    0.12    0.30
   2   5  -8    0.10    0.29
   2   5  -8    0.60    0.32
   1  -5  -8    4.57    0.46
  -1  -5   8    4.83    0.59
  -1  -5   8    4.33    0.50
   1  -5  -8    4.55    0.44
   1   5  -8    4.61    0.54
   1   5  -8    4.97    0.56
   0  -5   8   25.64    1.07
   0  -5  -8   26.42    1.01
   0  -5  -8   26.07    0.97
   0  -5   8   24.32    1.02
   0   5   8   25.09    0.86
   0   5  -8   25.90    0.92
   0   5   8   25.25    0.94
   0   5  -8   23.73    1.02
  -1  -5  -8    0.54    0.49
  -1  -5  -8    0.18    0.32
   1  -5   8    0.64    0.30
   1  -5   8    0.08    0.25
   1   5   8    0.37    0.31
   1   5   8    0.64    0.29
   2  -5   8   12.62    0.67
   2  -5   8   13.54    0.73
  -2  -5  -8   10.58    0.78
  -2  -5  -8   11.90    0.77
   2   5   8   13.18    0.80
   2   5   8   11.95    0.78
  -3  -5  -8    1.86    0.43
   3  -5   8    2.48    0.38
   3  -5   8    2.57    0.39
  -3  -5  -8    3.01    0.49
   3   5   8    3.03    0.51
   3   5   8    2.25    0.48
  -4  -5  -8    2.98    0.52
  -4  -5  -8    3.78    0.56
   4   5   8    3.20    0.58
  -3  -6   8    9.88    1.02
  -3  -6   8    9.77    0.83
   3   6  -8    9.60    0.91
   3   6  -8    9.36    0.81
   2  -6  -8    6.48    0.52
  -2  -6   8    7.40    0.72
  -2  -6   8    6.55    0.68
   2  -6  -8    6.96    0.50
   2   6  -8    6.16    0.67
   2   6  -8    6.87    0.78
   1  -6  -8   15.96    0.94
  -1  -6   8   15.77    0.88
  -1  -6   8   14.18    0.86
   1  -6  -8   14.99    0.73
   1   6  -8   16.41    0.84
   1   6  -8   15.24    0.91
   0  -6   8    1.47    0.38
   0  -6  -8    2.88    0.41
   0  -6  -8    1.70    0.39
   0  -6   8    2.51    0.43
   0   6  -8    1.64    0.34
   0   6  -8    1.72    0.44
   1  -6   8    3.03    0.43
   1  -6   8    2.55    0.40
  -1  -6  -8    2.97    0.50
  -1  -6  -8    2.83    0.46
   1   6   8    2.62    0.41
   2  -6   8    0.60    0.30
  -2  -6  -8    0.43    0.36
  -2  -6  -8    0.64    0.33
   2  -6   8   -0.08    0.26
   2   6   8    0.19    0.35
   2   6   8    1.04    0.42
   3  -6   8    2.31    0.38
  -3  -6  -8    1.52    0.45
   3   6   8    1.26    0.43
   3   6   8    1.59    0.49
   1  -7  -8    4.01    0.51
   1  -7  -8    4.31    0.47
  -1  -7   8    4.59    0.58
  -1  -7   8    4.62    0.56
   1   7  -8    4.49    0.50
   0  -7  -8    0.95    0.41
   0  -7   8    0.35    0.37
   0  -7  -8    0.62    0.34
   0  -7   8    0.30    0.33
   0   7  -8    0.17    0.38
  -1  -7  -8    4.62    0.53
   1  -7   8    5.10    0.56
  -1  -7  -8    5.07    0.71
   1  -7   8    5.57    0.57
   1   7   8    5.69    0.71
   1   7   8    5.67    0.57
   5   0  -9    0.82    0.35
   5   0  -9    0.81    0.30
   4   0  -9    0.00    0.25
   4   0  -9   -0.11    0.22
   3   0  -9   76.82    1.93
   3   0  -9   74.78    1.86
   2   0  -9    0.28    0.21
   2   0  -9   -0.27    0.21
  -2   0   9    0.14    0.23
  -1   0   9  228.99    4.77
   1   0  -9  223.21    4.67
   1   0  -9  225.09    4.78
  -1   0   9  225.85    4.62
   0   0   9   -0.29    0.24
   0   0  -9    0.36    0.22
   0   0   9    0.36    0.24
   0   0  -9    0.37    0.23
  -1   0  -9  107.60    2.61
   1   0   9   97.83    2.57
   1   0   9  107.18    2.52
  -2   0  -9   -0.06    0.25
   2   0   9   -0.29    0.22
   2   0   9    0.23    0.25
  -3   0  -9   18.05    0.89
  -3   0  -9   18.86    0.75
   3   0   9   20.12    0.93
   3   0   9   20.06    0.87
  -4   0  -9   -0.33    0.18
   4   0   9   -0.15    0.29
   4   0   9    0.22    0.29
   5   0   9   12.26    0.78
   5   0   9   11.95    0.80
   5  -1  -9    3.17    0.40
   5  -1  -9    2.96    0.36
   5   1  -9    2.78    0.42
   5   1  -9    3.48    0.49
   4  -1  -9   11.87    0.59
  -4  -1   9   13.63    0.61
   4  -1  -9   12.95    0.65
  -4  -1   9   13.15    0.67
   4   1  -9   11.97    0.69
   4   1  -9   13.47    0.76
   3  -1  -9    0.83    0.26
   3  -1  -9    0.02    0.17
  -3  -1   9    0.62    0.25
  -3  -1   9    0.53    0.26
   3   1  -9    0.65    0.29
   3   1  -9    0.56    0.26
   2  -1  -9    2.18    0.29
   2  -1  -9    1.90    0.34
  -2  -1   9    1.97    0.32
  -2  -1   9    2.24    0.35
   2   1  -9    3.14    0.41
   2   1  -9    2.58    0.40
   1  -1  -9    5.34    0.48
  -1  -1   9    5.50    0.48
   1  -1  -9    5.20    0.48
  -1  -1   9    6.12    0.49
   1   1  -9    5.11    0.49
  -1   1   9    5.73    0.41
   1   1  -9    5.09    0.48
  -1   1   9    5.59    0.44
   0  -1  -9   89.27    2.17
   0  -1  -9   84.43    2.19
   0  -1   9   90.29    2.25
   0  -1   9   87.26    2.19
   0   1  -9   89.91    2.21
   0   1  -9   91.77    2.27
   0   1   9   89.37    2.23
   0   1   9   86.64    2.15
  -1  -1  -9    6.22    0.51
   1  -1   9    4.99    0.53
   1  -1   9    4.82    0.54
  -1  -1  -9    5.64    0.48
   1   1   9    4.94    0.51
  -1   1  -9    5.89    0.51
   1   1   9    4.48    0.48
  -1   1  -9    3.94    0.45
   2  -1   9   58.50    1.60
   2  -1   9   55.40    1.69
  -2  -1  -9   55.14    1.56
  -2  -1  -9   55.14    1.65
   2   1   9   58.78    1.70
  -2   1  -9   56.03    1.57
  -2   1  -9   58.38    1.45
   2   1   9   58.10    1.63
   3  -1   9   22.92    0.92
  -3  -1  -9   24.97    1.02
  -3  -1  -9   24.66    0.94
   3  -1   9   24.33    1.03
   3   1   9   24.77    1.05
   3   1   9   22.35    0.97
   4  -1   9    9.97    0.65
  -4  -1  -9    8.32    0.67
  -4  -1  -9    9.68    0.61
   4  -1   9    8.65    0.69
   4   1   9   10.51    0.92
   4   1   9   10.06    0.74
  -5  -1  -9    3.19    0.39
   5  -1   9    3.73    0.46
   5  -1   9    3.73    0.49
  -5  -1  -9    2.59    0.42
   5   1   9    3.21    0.50
   5   1   9    3.24    0.48
  -5  -2   9    0.32    0.28
  -5  -2   9    0.43    0.31
   5   2  -9    0.07    0.31
   5   2  -9    0.17    0.34
  -4  -2   9    3.71    0.43
  -4  -2   9    4.25    0.49
   4   2  -9    4.73    0.54
   4   2  -9    4.38    0.55
  -3  -2   9   18.02    0.84
  -3  -2   9   18.21    0.83
   3   2  -9   16.54    0.86
   3   2  -9   16.81    0.84
  -2  -2   9    8.50    0.60
   2  -2  -9    7.79    0.77
  -2  -2   9    8.40    0.61
   2   2  -9    6.85    0.59
   2   2  -9    7.33    0.59
   1  -2  -9  125.10    2.76
  -1  -2   9  126.32    2.91
  -1  -2   9  126.69    2.93
   1  -2  -9  124.83    2.87
   1   2  -9  127.61    2.93
   1   2  -9  130.86    2.96
   0  -2   9   68.42    1.84
   0  -2   9   67.88    1.78
   0  -2  -9   64.15    1.75
   0  -2  -9   65.92    1.71
   0   2  -9   66.07    1.84
   0   2   9   66.28    1.68
   0   2   9   67.54    1.77
   0   2  -9   67.95    1.75
  -1  -2  -9   31.55    1.12
  -1  -2  -9   32.49    1.11
   1  -2   9   31.96    1.09
   1  -2   9   33.43    1.19
  -1   2  -9   31.86    1.09
  -1   2  -9   34.18    1.02
   1   2   9   30.16    1.10
   1   2   9   32.72    1.13
   2  -2   9    0.24    0.26
  -2  -2  -9    0.47    0.30
   2  -2   9    0.59    0.29
  -2  -2  -9    0.15    0.25
   2   2   9    0.36    0.26
   2   2   9    0.42    0.25
  -3  -2  -9    1.57    0.37
   3  -2   9    0.55    0.28
   3  -2   9    0.79    0.32
  -3  -2  -9    0.46    0.29
   3   2   9    1.37    0.38
   3   2   9    0.70    0.33
   4  -2   9    1.32    0.33
   4  -2   9    1.47    0.34
  -4  -2  -9    1.38    0.37
   4   2   9    1.16    0.37
   4   2   9    0.94    0.36
  -5  -2  -9    1.68    0.49
   5  -2   9    2.16    0.39
  -5  -2  -9    1.01    0.36
   5  -2   9    1.59    0.37
   5   2   9    2.24    0.46
   5   2   9    1.27    0.43
  -5  -3   9    8.75    0.68
   5   3  -9    8.35    0.78
   5   3  -9    7.93    0.77
  -4  -3   9    6.67    0.62
  -4  -3   9    6.04    0.63
   4   3  -9    6.43    0.67
   4   3  -9    6.65    0.69
  -3  -3   9    5.14    0.65
  -3  -3   9    6.48    0.62
   3   3  -9    5.98    0.86
   3   3  -9    6.93    0.63
  -2  -3   9    1.94    0.34
  -2  -3   9    2.36    0.39
   2   3  -9    2.62    0.39
   2   3  -9    2.51    0.39
   1  -3  -9    3.50    0.40
   1  -3  -9    3.42    0.38
  -1  -3   9    3.22    0.41
  -1  -3   9    4.11    0.49
   1   3  -9    2.81    0.42
   1   3  -9    3.36    0.43
   0  -3  -9   30.61    1.04
   0  -3   9   30.63    1.09
   0  -3   9   31.70    1.15
   0  -3  -9   28.85    1.06
   0   3  -9   30.75    1.14
   0   3   9   30.79    0.98
   0   3   9   30.78    1.07
   0   3  -9   30.79    1.04
   1  -3   9   88.09    2.17
  -1  -3  -9   88.83    2.25
   1  -3   9   92.98    2.33
  -1  -3  -9   91.50    2.26
   1   3   9   85.52    2.21
  -1   3  -9   90.93    2.04
  -1   3  -9   86.65    2.16
   1   3   9   90.52    2.26
   2  -3   9   14.89    0.82
  -2  -3  -9   13.79    0.79
  -2  -3  -9   14.19    0.80
   2  -3   9   14.20    0.72
   2   3   9   13.94    0.80
   2   3   9   15.36    0.81
  -3  -3  -9   28.62    1.13
  -3  -3  -9   29.14    1.14
   3  -3   9   26.70    1.04
   3  -3   9   25.79    1.04
   3   3   9   26.90    1.16
   4  -3   9    3.12    0.44
  -4  -3  -9    3.96    0.51
   4  -3   9    4.72    0.49
   4   3   9    4.20    0.56
   4   3   9    4.48    0.56
  -5  -3  -9    2.20    0.45
   5  -3   9    1.13    0.38
  -5  -3  -9    1.66    0.44
   5   3   9    1.47    0.50
   5   3   9    1.61    0.46
  -4  -4   9   12.49    0.80
  -4  -4   9   12.92    0.87
   4   4  -9   12.36    0.86
   4   4  -9   12.33    0.84
  -3  -4   9    0.60    0.34
  -3  -4   9    0.42    0.34
   3   4  -9    0.62    0.34
  -2  -4   9   36.10    1.30
   2   4  -9   40.28    1.35
   2   4  -9   39.61    1.37
   1  -4  -9    0.33    0.21
  -1  -4   9    0.44    0.27
  -1  -4   9    0.10    0.29
   1  -4  -9   -0.23    0.23
   1   4  -9    0.57    0.33
   1   4  -9    0.22    0.26
   0  -4   9   41.98    1.36
   0  -4   9   39.28    1.28
   0  -4  -9   40.65    1.25
   0   4   9   39.93    1.25
   0   4   9   41.24    1.17
   0   4  -9   37.96    1.33
   0   4  -9   38.75    1.21
   1  -4   9    7.96    0.65
  -1  -4  -9    7.86    0.61
  -1  -4  -9    7.18    0.63
   1  -4   9    8.48    0.60
   1   4   9    8.77    0.66
   1   4   9    7.58    0.62
  -1   4  -9    5.89    0.55
  -1   4  -9    7.33    0.45
   2  -4   9    2.69    0.42
  -2  -4  -9    2.48    0.45
  -2  -4  -9    2.96    0.58
   2  -4   9    2.42    0.38
   2   4   9    2.08    0.41
   2   4   9    2.31    0.43
  -3  -4  -9    0.82    0.39
   3  -4   9    0.84    0.33
   3  -4   9    0.13    0.27
   3   4   9    0.48    0.34
   4  -4   9    3.05    0.46
  -4  -4  -9    2.24    0.46
  -4  -4  -9    2.91    0.50
   4  -4   9    2.47    0.42
   4   4   9    2.99    0.56
   4   4   9    2.83    0.51
  -4  -5   9    0.10    0.35
  -4  -5   9    0.31    0.41
   4   5  -9   -0.42    0.36
   4   5  -9   -0.44    0.42
  -3  -5   9    3.45    0.54
  -3  -5   9    3.74    0.55
   3   5  -9    3.46    0.51
   3   5  -9    3.70    0.52
   2  -5  -9    1.98    0.31
  -2  -5   9    1.39    0.38
   2  -5  -9    2.07    0.29
   2   5  -9    1.84    0.39
   1  -5  -9    0.42    0.24
  -1  -5   9    0.92    0.34
  -1  -5   9    0.59    0.33
   1   5  -9    0.57    0.30
   0  -5   9    3.21    0.48
   0  -5   9    2.42    0.44
   0  -5  -9    2.44    0.39
   0  -5  -9    3.07    0.44
   0   5  -9    1.50    0.41
   0   5  -9    2.63    0.37
   0   5   9    2.88    0.36
   0   5   9    2.59    0.41
  -1  -5  -9   29.66    1.15
  -1  -5  -9   30.40    1.17
   1  -5   9   29.63    1.08
   1  -5   9   30.94    1.14
   1   5   9   29.68    1.12
   1   5   9   28.82    1.10
  -2  -5  -9    1.77    0.41
   2  -5   9    2.41    0.38
  -2  -5  -9    1.97    0.42
   2  -5   9    1.94    0.37
   2   5   9    1.92    0.41
   2   5   9    1.52    0.41
   3  -5   9    6.59    0.61
  -3  -5  -9    6.67    0.70
  -3  -5  -9    7.45    0.73
   3  -5   9    6.84    0.57
   3   5   9    7.30    0.77
   3   5   9    6.77    0.72
   4  -5   9    0.34    0.36
   4  -5   9    1.22    0.38
  -4  -5  -9    1.42    0.51
  -4  -5  -9    1.33    0.47
   4   5   9    1.24    0.47
   4   5   9    0.57    0.44
  -3  -6   9    2.70    0.50
   3   6  -9    2.63    0.53
   3   6  -9    3.69    0.54
   2  -6  -9   13.23    0.63
  -2  -6   9   13.04    0.86
  -2  -6   9   13.91    0.88
   2  -6  -9   13.40    0.67
   2   6  -9   11.99    0.81
   2   6  -9   13.17    0.91
   1  -6  -9    5.97    0.60
  -1  -6   9    6.78    0.69
   1  -6  -9    6.58    0.56
  -1  -6   9    7.12    0.70
   1   6  -9    6.52    0.62
   1   6  -9    6.59    0.72
   0  -6  -9   14.73    0.83
   0  -6  -9   13.80    0.77
   0  -6   9   14.61    0.82
   0  -6   9   11.62    0.81
   0   6  -9   14.81    0.88
   0   6  -9   14.17    0.70
   1  -6   9    0.72    0.31
  -1  -6  -9    0.82    0.39
  -1  -6  -9    0.92    0.33
   1  -6   9    1.20    0.34
   1   6   9    0.97    0.36
   1   6   9    0.40    0.33
   2  -6   9    2.46    0.48
   2  -6   9    2.38    0.40
  -2  -6  -9    1.91    0.42
  -2  -6  -9    1.77    0.49
   2   6   9    1.54    0.44
   2   6   9    1.47    0.41
  -3  -6  -9   -0.43    0.38
   3  -6   9    0.07    0.29
  -3  -6  -9   -0.16    0.36
   3   6   9   -0.04    0.42
   3   6   9    0.20    0.39
  -1  -7   9    1.10    0.38
   1  -7  -9    0.91    0.38
  -1  -7   9    0.28    0.37
   1  -7  -9   -0.11    0.30
   1   7  -9   -0.03    0.34
   1   7  -9    1.01    0.45
   0  -7  -9    8.76    0.84
   0  -7   9    7.09    0.73
   0  -7   9    8.85    0.74
   0  -7  -9    8.80    0.69
   0   7  -9    7.58    0.69
   1  -7   9    1.42    0.39
   1  -7   9    1.45    0.38
  -1  -7  -9    0.86    0.49
  -1  -7  -9    1.57    0.39
   1   7   9    1.36    0.40
   1   7   9    0.95    0.40
   5   0 -10    0.23    0.28
   5   0 -10    0.42    0.36
   4   0 -10    7.12    0.56
   4   0 -10    5.77    0.57
   3   0 -10    0.27    0.26
   3   0 -10    0.24    0.22
  -2   0  10  105.04    2.29
   2   0 -10  103.27    2.49
  -2   0  10  103.00    2.46
   2   0 -10   99.14    2.39
   1   0 -10   -0.21    0.20
  -1   0  10    0.01    0.20
  -1   0  10    0.11    0.24
   1   0 -10    0.16    0.26
   0   0  10  163.39    3.74
   0   0  10  160.82    3.68
   0   0 -10  166.81    3.70
   0   0 -10  167.12    3.75
   1   0  10   -0.16    0.25
  -1   0 -10    0.03    0.26
  -1   0 -10   -0.02    0.21
   1   0  10    0.08    0.27
   2   0  10   28.00    1.06
  -2   0 -10   28.62    1.14
  -2   0 -10   28.39    0.99
   2   0  10   26.24    1.11
   3   0  10    0.02    0.25
   3   0  10   -0.61    0.25
  -3   0 -10   -0.32    0.20
  -3   0 -10   -0.32    0.26
   4   0  10    6.01    0.62
  -4   0 -10    6.37    0.47
  -4   0 -10    5.17    0.57
   5   0  10   -0.30    0.31
   5   0  10   -0.31    0.30
   5  -1 -10    8.14    0.57
   5  -1 -10    8.38    0.59
   5   1 -10    8.68    0.68
   5   1 -10    7.65    0.70
   4  -1 -10    1.80    0.34
  -4  -1  10    1.33    0.32
   4  -1 -10    2.03    0.31
  -4  -1  10    1.60    0.29
   4   1 -10    1.90    0.40
   3  -1 -10   32.47    1.08
  -3  -1  10   33.25    1.13
  -3  -1  10   34.39    1.06
   3  -1 -10   34.00    1.02
   3   1 -10   32.48    1.13
   3   1 -10   32.18    1.17
  -2  -1  10    0.16    0.23
   2  -1 -10   -0.18    0.19
  -2  -1  10    0.48    0.25
   2  -1 -10    0.24    0.24
   2   1 -10    0.37    0.27
   2   1 -10    0.19    0.23
  -1  -1  10    5.24    0.49
   1  -1 -10    3.18    0.41
   1  -1 -10    4.00    0.45
  -1  -1  10    4.64    0.47
   1   1 -10    4.35    0.48
   1   1 -10    4.60    0.51
  -1   1  10    4.18    0.44
  -1   1  10    4.93    0.48
   0  -1  10    1.68    0.34
   0  -1 -10    1.34    0.34
   0  -1 -10    2.16    0.38
   0  -1  10    1.89    0.32
   0   1  10    1.35    0.34
   0   1 -10    1.71    0.37
   0   1  10    1.86    0.34
   0   1 -10    1.80    0.40
   1  -1  10   76.14    2.09
   1  -1  10   75.68    2.09
  -1  -1 -10   75.89    2.02
  -1   1 -10   78.05    2.05
   1   1  10   76.47    2.05
   1   1  10   76.45    2.02
  -1   1 -10   77.74    1.99
  -2  -1 -10    6.94    0.60
   2  -1  10    6.70    0.64
   2  -1  10    6.64    0.58
   2   1  10    7.16    0.62
   2   1  10    6.59    0.58
  -2   1 -10    6.81    0.50
  -2   1 -10    5.87    0.56
   3  -1  10   51.71    1.62
   3  -1  10   51.31    1.51
  -3  -1 -10   52.05    1.60
  -3  -1 -10   51.84    1.49
   3   1  10   52.02    1.57
   3   1  10   49.63    1.60
  -3   1 -10   49.43    1.39
   4  -1  10    3.10    0.44
   4  -1  10    2.12    0.42
  -4  -1 -10    2.37    0.38
  -4  -1 -10    2.82    0.46
   4   1  10    3.08    0.50
   4   1  10    2.37    0.42
  -5  -1 -10    7.06    0.65
  -5  -1 -10    8.24    0.59
   5  -1  10    6.36    0.68
   5  -1  10    8.19    0.67
   5   1  10    8.00    0.75
   5   1  10    6.85    0.70
  -5  -2  10    0.17    0.28
  -5  -2  10    0.15    0.31
   5   2 -10    0.69    0.35
   5   2 -10   -0.10    0.32
  -4  -2  10    0.38    0.29
  -4  -2  10    0.84    0.34
   4   2 -10    0.86    0.35
   4   2 -10    0.69    0.32
  -3  -2  10   33.57    1.19
  -3  -2  10   35.84    1.18
   3   2 -10   33.95    1.22
   3   2 -10   34.72    1.24
   2  -2 -10   28.16    0.96
  -2  -2  10   28.90    1.07
   2  -2 -10   27.16    0.94
  -2  -2  10   28.84    1.06
   2   2 -10   27.42    1.08
   1  -2 -10   26.48    1.01
  -1  -2  10   27.81    1.04
  -1  -2  10   27.46    1.05
   1  -2 -10   27.13    0.94
   1   2 -10   27.13    1.06
  -1   2  10   28.54    0.81
   1   2 -10   26.53    1.04
   0  -2 -10   94.32    2.35
   0  -2 -10   96.75    2.30
   0  -2  10   94.10    2.34
   0  -2  10   96.05    2.43
   0   2 -10   97.53    2.46
   0   2 -10   95.55    2.34
   0   2  10   94.45    2.36
   0   2  10   97.73    2.28
   1  -2  10   33.29    1.15
  -1  -2 -10   34.50    1.17
   1  -2  10   34.22    1.24
   1   2  10   32.44    1.17
  -1   2 -10   35.39    1.10
   1   2  10   32.15    1.16
  -1   2 -10   30.32    1.12
  -2  -2 -10   13.83    0.77
   2  -2  10   14.44    0.81
  -2  -2 -10   15.58    0.80
   2  -2  10   13.79    0.79
   2   2  10   15.23    0.80
  -2   2 -10   14.36    0.60
  -2   2 -10   14.51    0.64
   2   2  10   14.91    0.82
   3  -2  10    0.61    0.32
  -3  -2 -10    0.71    0.32
   3  -2  10    0.70    0.30
  -3  -2 -10    0.17    0.27
   3   2  10    0.75    0.33
   4  -2  10   -0.03    0.28
  -4  -2 -10    0.15    0.28
   4  -2  10    0.50    0.31
  -4  -2 -10   -0.02    0.28
   4   2  10    0.44    0.31
   4   2  10   -0.32    0.30
  -5  -2 -10    2.27    0.41
   5  -2  10    1.13    0.36
   5  -2  10    1.61    0.40
  -5  -2 -10    1.23    0.39
   5   2  10    1.39    0.45
   5   2  10    1.38    0.45
  -5  -3  10    1.95    0.39
   5   3 -10    2.39    0.48
   5   3 -10    2.09    0.48
  -4  -3  10    7.57    0.64
  -4  -3  10    6.97    0.66
   4   3 -10    8.27    0.73
   4   3 -10    8.13    0.72
  -3  -3  10   10.09    0.81
  -3  -3  10    7.97    0.68
   3   3 -10   10.39    0.76
   3   3 -10    9.01    0.70
  -2  -3  10   12.46    0.75
   2  -3 -10   12.20    0.66
  -2  -3  10   12.87    0.77
   2  -3 -10   13.62    0.58
   2   3 -10   12.29    0.75
   2   3 -10   12.16    0.75
  -1  -3  10    4.06    0.51
   1  -3 -10    4.62    0.47
   1  -3 -10    4.07    0.41
  -1  -3  10    3.82    0.49
   1   3 -10    4.65    0.54
   1   3 -10    3.81    0.48
   0  -3  10    0.37    0.25
   0  -3  10    0.44    0.28
   0  -3 -10    0.27    0.23
   0  -3 -10    0.18    0.24
   0   3  10    0.40    0.24
   0   3 -10   -0.18    0.28
   0   3 -10    0.07    0.22
   0   3  10    0.20    0.26
  -1  -3 -10   12.29    0.73
   1  -3  10   12.85    0.79
   1  -3  10   13.08    0.70
  -1   3 -10   13.08    0.61
  -1   3 -10   12.24    0.72
   1   3  10   11.13    0.71
   1   3  10   12.94    0.75
   2  -3  10   45.72    1.38
  -2  -3 -10   45.59    1.46
   2  -3  10   42.76    1.45
  -2  -3 -10   43.34    1.43
   2   3  10   44.38    1.45
   2   3  10   44.15    1.46
   3  -3  10    9.51    0.72
  -3  -3 -10   12.15    0.79
   3  -3  10   12.39    0.76
   3   3  10    9.57    0.74
   4  -3  10    7.12    0.68
  -4  -3 -10    7.99    0.72
   4  -3  10    8.80    0.67
   4   3  10    8.51    0.74
   4   3  10    9.51    0.79
  -5  -3 -10    1.72    0.46
   5  -3  10    1.44    0.40
  -5  -3 -10    1.99    0.44
   5   3  10    1.95    0.55
   5   3  10    1.38    0.53
  -4  -4  10    0.44    0.36
  -4  -4  10    0.84    0.37
   4   4 -10    0.33    0.38
   4   4 -10    0.89    0.41
  -3  -4  10   25.85    1.10
   3   4 -10   25.31    1.11
   2  -4 -10    0.46    0.24
   2  -4 -10   -0.07    0.18
  -2  -4  10    0.13    0.22
   2   4 -10   -0.21    0.50
   2   4 -10    0.16    0.27
   1  -4 -10   63.10    1.71
  -1  -4  10   64.15    1.85
  -1  -4  10   66.56    1.90
   1  -4 -10   66.96    1.68
   1   4 -10   68.26    1.85
   1   4 -10   66.07    1.90
   0  -4 -10    0.55    0.29
   0  -4  10    1.02    0.33
   0  -4  10    0.87    0.34
   0  -4 -10    0.95    0.30
   0   4 -10    0.02    0.31
   0   4 -10    1.06    0.29
   0   4  10    0.77    0.32
   0   4  10    1.41    0.31
   1  -4  10   62.32    1.78
  -1  -4 -10   59.10    1.74
  -1  -4 -10   61.13    1.75
   1  -4  10   59.10    1.66
   1   4  10   60.33    1.73
  -1   4 -10   60.89    1.50
   1   4  10   60.09    1.70
  -1   4 -10   59.77    1.64
   2  -4  10    6.19    0.56
  -2  -4 -10    6.44    0.65
   2  -4  10    5.97    0.64
   2   4  10    6.90    0.68
   2   4  10    7.60    0.67
   3  -4  10    2.51    0.44
  -3  -4 -10    3.16    0.50
   3  -4  10    2.88    0.43
  -3  -4 -10    1.40    0.50
   3   4  10    3.03    0.49
  -4  -4 -10    0.58    0.35
   4  -4  10    0.55    0.37
  -4  -4 -10    0.32    0.37
   4  -4  10   -0.20    0.32
   4   4  10    0.21    0.36
  -4  -5  10    7.92    0.76
  -4  -5  10    8.39    0.88
   4   5 -10    8.81    0.82
  -3  -5  10   -0.35    0.31
  -3  -5  10    0.06    0.33
   3   5 -10   -0.28    0.32
   3   5 -10   -0.08    0.36
   2  -5 -10    3.90    0.42
  -2  -5  10    5.84    0.65
   2  -5 -10    4.61    0.47
   2   5 -10    4.40    0.54
   1  -5 -10    0.84    0.27
  -1  -5  10    0.45    0.32
  -1  -5  10    1.10    0.39
   1   5 -10    1.00    0.33
   1   5 -10    1.30    0.38
   0  -5 -10    0.15    0.29
   0  -5  10    0.47    0.34
   0  -5  10    0.63    0.30
   0  -5 -10    0.10    0.24
   0   5  10    0.47    0.31
   0   5  10   -0.08    0.23
   0   5 -10    0.26    0.35
   0   5 -10   -0.02    0.22
   1  -5  10    2.27    0.41
  -1  -5 -10    2.77    0.47
  -1  -5 -10    3.53    0.49
   1  -5  10    2.83    0.46
   1   5  10    2.00    0.40
   1   5  10    2.79    0.44
   2  -5  10   15.38    0.77
   2  -5  10   16.60    0.85
  -2  -5 -10   14.23    0.86
  -2  -5 -10   16.09    0.91
   2   5  10   15.55    0.87
   2   5  10   14.78    1.05
  -3  -5 -10    1.99    0.46
   3  -5  10    2.68    0.41
   3  -5  10    1.41    0.38
  -3  -5 -10    2.28    0.45
   3   5  10    2.78    0.49
   3   5  10    2.72    0.57
  -4  -5 -10    8.03    0.84
   4  -5  10    9.57    0.75
  -4  -5 -10    7.98    0.92
   4   5  10    7.79    0.95
   4   5  10    8.61    0.83
  -3  -6  10    0.88    0.44
  -3  -6  10    0.14    0.37
   3   6 -10   -0.35    0.58
   3   6 -10    0.17    0.44
   2  -6 -10    4.28    0.47
  -2  -6  10    3.10    0.50
   2  -6 -10    3.59    0.41
   2   6 -10    4.24    0.61
   2   6 -10    4.08    0.51
  -1  -6  10   17.86    0.94
   1  -6 -10   14.79    0.79
   1  -6 -10   15.94    0.81
  -1  -6  10   16.80    0.94
   1   6 -10   17.14    0.85
   1   6 -10   15.95    0.96
   0  -6 -10    3.81    0.50
   0  -6  10    3.77    0.50
   0  -6  10    3.10    0.48
   0  -6 -10    3.61    0.45
   0   6 -10    3.26    0.41
   0   6 -10    4.27    0.55
   1  -6  10    9.37    0.69
  -1  -6 -10    8.81    0.78
   1  -6  10    8.05    0.67
  -1  -6 -10    8.85    0.70
   1   6  10    9.46    0.70
   1   6  10    9.08    0.68
  -2  -6 -10   -0.17    0.32
   2  -6  10   -0.24    0.27
  -2  -6 -10   -0.63    0.70
   2  -6  10   -0.15    0.28
   2   6  10    0.06    0.34
   2   6  10    0.29    0.39
  -3  -6 -10   -0.03    0.52
  -3  -6 -10    0.04    0.37
   3  -6  10   -0.13    0.30
   3  -6  10    0.20    0.32
   3   6  10    0.20    0.42
   3   6  10    0.35    0.41
   1  -7 -10    1.20    0.35
   1  -7 -10    1.30    0.41
  -1  -7  10    0.12    0.69
  -1  -7  10    0.92    0.40
   1   7 -10    1.00    0.38
   1   7 -10    1.32    0.47
   0  -7 -10    1.21    0.37
   0  -7  10    0.88    0.37
   0  -7 -10   -0.04    0.40
   0   7 -10    0.44    0.31
   0   7 -10    0.93    0.45
   1  -7  10    3.86    0.50
  -1  -7 -10    4.20    0.62
  -1  -7 -10    4.95    0.58
   1  -7  10    4.18    0.54
   1   7  10    3.96    0.51
   1   7  10    4.06    0.52
   5   0 -11    0.00    0.29
   5   0 -11    0.24    0.28
   4   0 -11   -0.34    0.24
   4   0 -11   -0.49    0.21
   3   0 -11   21.26    0.85
   3   0 -11   20.06    0.90
  -2   0  11   -0.12    0.18
   2   0 -11    0.28    0.24
   2   0 -11    0.35    0.26
  -2   0  11    0.18    0.28
  -1   0  11  159.23    3.49
   1   0 -11  161.62    3.67
   1   0 -11  158.48    3.56
  -1   0  11  159.45    3.63
   0   0 -11    0.80    0.31
   0   0  11    0.51    0.27
   0   0  11    0.97    0.30
   0   0 -11    0.33    0.26
  -1   0 -11  393.33    7.78
   1   0  11  383.19    7.67
  -1   0 -11  374.46    7.58
   1   0  11  361.12    7.73
  -2   0 -11   -0.05    0.24
   2   0  11    0.21    0.29
  -2   0 -11   -0.13    0.29
   2   0  11   -0.19    0.24
  -3   0 -11   16.27    0.74
   3   0  11   16.38    0.91
   3   0  11   15.23    0.83
  -3   0 -11   16.48    0.89
   4   0  11    0.10    0.29
  -4   0 -11   -0.17    0.21
   4   0  11   -0.05    0.31
  -4   0 -11   -0.27    0.27
   5   0  11    1.13    0.41
   5   0  11    1.85    0.41
   5  -1 -11    6.42    0.58
   5  -1 -11    6.52    0.58
   5   1 -11    5.96    0.66
   5   1 -11    6.37    0.63
  -4  -1  11   37.02    1.09
  -4  -1  11   35.43    1.16
   4  -1 -11   39.50    1.20
   4  -1 -11   38.12    1.14
   4   1 -11   37.72    1.29
   4   1 -11   36.81    1.25
   3  -1 -11   14.45    0.75
  -3  -1  11   14.96    0.77
  -3  -1  11   14.98    0.71
   3  -1 -11   16.06    0.70
   3   1 -11   15.97    0.84
   3   1 -11   14.56    0.77
  -2  -1  11   91.52    2.21
   2  -1 -11   91.77    2.31
  -2  -1  11   89.58    2.28
   2  -1 -11   90.37    2.17
   2   1 -11   92.18    2.33
   2   1 -11   89.12    2.27
  -1  -1  11    4.99    0.51
   1  -1 -11    5.45    0.55
   1  -1 -11    4.83    0.54
  -1  -1  11    4.80    0.50
  -1   1  11    5.30    0.47
   1   1 -11    5.57    0.56
   1   1 -11    4.67    0.51
  -1   1  11    5.21    0.50
   0  -1  11    3.70    0.47
   0  -1 -11    4.43    0.50
   0  -1  11    4.81    0.54
   0  -1 -11    3.26    0.47
   0   1  11    4.16    0.49
   0   1 -11    4.85    0.55
   0   1 -11    3.47    0.45
   0   1  11    5.26    0.56
  -1  -1 -11    1.94    0.35
   1  -1  11    1.94    0.38
  -1  -1 -11    2.28    0.39
   1  -1  11    2.04    0.44
  -1   1 -11    2.70    0.46
   1   1  11    1.78    0.36
   1   1  11    2.73    0.43
  -1   1 -11    2.11    0.37
   2  -1  11   57.15    1.76
   2  -1  11   56.26    1.67
  -2  -1 -11   55.75    1.70
   2   1  11   58.00    1.74
  -2   1 -11   55.86    1.51
   2   1  11   56.96    1.68
  -2   1 -11   54.32    1.65
   3  -1  11   10.10    0.77
   3  -1  11   10.44    0.70
  -3  -1 -11   10.45    0.75
  -3  -1 -11    9.86    0.67
   3   1  11    9.25    0.75
  -3   1 -11   10.28    0.54
   3   1  11   10.61    0.72
  -3   1 -11    9.25    0.62
  -4  -1 -11   11.29    0.67
   4  -1  11   11.47    0.73
  -4  -1 -11    9.92    0.76
   4  -1  11   10.95    0.79
   4   1  11   12.45    0.81
   4   1  11   11.21    0.80
   5  -1  11    0.95    0.36
  -5  -1 -11    0.72    0.37
   5  -1  11    0.54    0.36
  -5  -1 -11    0.77    0.30
   5   1  11    1.04    0.41
   5   1  11    0.59    0.39
   5  -2 -11    0.66    0.28
  -5  -2  11   -0.11    0.26
  -5  -2  11    0.21    0.31
   5  -2 -11    0.18    0.25
   5   2 -11   -0.18    0.33
   5   2 -11    0.79    0.35
  -4  -2  11    5.94    0.59
  -4  -2  11    4.82    0.54
   4   2 -11    4.32    0.51
   4   2 -11    4.94    0.57
   3  -2 -11    0.01    0.21
   3  -2 -11   -0.26    0.24
  -3  -2  11    0.40    0.27
  -3  -2  11    0.39    0.28
   3   2 -11    0.02    0.27
   3   2 -11   -0.05    0.27
  -2  -2  11   20.37    0.91
  -2  -2  11   19.10    0.89
   2  -2 -11   20.45    0.84
   2  -2 -11   19.20    0.82
   2   2 -11   21.76    0.96
   1  -2 -11   43.65    1.30
  -1  -2  11   42.74    1.37
  -1  -2  11   42.65    1.39
   1  -2 -11   44.74    1.39
  -1   2  11   43.72    1.15
   1   2 -11   42.80    1.40
  -1   2  11   42.09    1.21
   1   2 -11   43.03    1.40
   0  -2  11   63.55    1.80
   0  -2 -11   65.83    1.82
   0  -2 -11   65.52    1.76
   0  -2  11   61.52    1.85
   0   2 -11   65.20    1.80
   0   2  11   66.60    1.84
   0   2  11   65.85    1.74
   0   2 -11   65.66    1.90
   1  -2  11   85.69    2.30
   1  -2  11   86.02    2.22
  -1  -2 -11   86.31    2.22
   1   2  11   85.35    2.23
   1   2  11   84.45    2.22
  -1   2 -11   83.49    2.19
  -1   2 -11   87.94    2.14
   2  -2  11   25.24    1.08
  -2  -2 -11   24.47    1.03
  -2  -2 -11   24.30    1.04
   2  -2  11   24.87    1.06
  -2   2 -11   24.30    0.85
   2   2  11   24.96    1.03
  -2   2 -11   25.51    0.88
   2   2  11   25.40    1.08
  -3  -2 -11    5.53    0.60
  -3  -2 -11    6.27    0.62
   3  -2  11    5.14    0.58
   3  -2  11    6.56    0.66
   3   2  11    6.45    0.65
   3   2  11    5.32    0.62
   4  -2  11    0.66    0.34
   4  -2  11    0.96    0.35
  -4  -2 -11    0.70    0.33
   4   2  11    0.17    0.32
   4   2  11    0.88    0.37
  -5  -2 -11   -0.06    0.33
   5  -2  11    0.00    0.32
   5  -2  11    0.19    0.33
  -5  -2 -11   -0.12    0.39
   5   2  11    0.02    0.35
   5   2  11    0.48    0.47
  -5  -3  11    5.23    0.56
   5   3 -11    5.71    0.64
   5   3 -11    5.67    0.71
  -4  -3  11    8.12    0.71
  -4  -3  11    7.69    0.67
   4   3 -11    5.78    0.62
   4   3 -11    7.84    0.74
  -3  -3  11   39.49    1.33
  -3  -3  11   38.08    1.33
   3   3 -11   39.21    1.38
   3   3 -11   36.54    1.34
  -2  -3  11    7.39    0.63
  -2  -3  11    7.53    0.65
   2  -3 -11    7.79    0.51
   2  -3 -11    7.31    0.57
   2   3 -11    6.97    0.64
   2   3 -11    8.18    0.66
   1  -3 -11    2.62    0.40
   1  -3 -11    2.26    0.33
  -1  -3  11    2.81    0.43
  -1  -3  11    2.76    0.43
   1   3 -11    2.98    0.46
   1   3 -11    2.10    0.38
   0  -3 -11    8.13    0.61
   0  -3 -11    6.64    0.55
   0  -3  11    7.89    0.61
   0  -3  11    7.32    0.65
   0   3 -11    8.61    0.70
   0   3 -11    6.25    0.55
   0   3  11    7.44    0.61
   0   3  11    7.34    0.54
   1  -3  11   18.50    0.96
  -1  -3 -11   20.35    0.91
   1  -3  11   19.38    0.87
  -1   3 -11   19.38    0.89
  -1   3 -11   20.76    0.79
   1   3  11   19.61    0.91
   1   3  11   17.59    0.87
  -2  -3 -11    4.81    0.57
   2  -3  11    5.77    0.63
   2  -3  11    5.19    0.55
  -2  -3 -11    6.02    0.60
   2   3  11    5.66    0.62
   2   3  11    4.97    0.57
   3  -3  11   26.60    1.11
  -3  -3 -11   26.84    1.12
  -3  -3 -11   27.42    1.12
   3  -3  11   25.10    1.09
   3   3  11   25.88    1.12
   4  -3  11    6.00    0.67
  -4  -3 -11    7.26    0.68
  -4  -3 -11    5.19    0.62
   4  -3  11    6.37    0.65
   4   3  11    5.58    0.62
   4   3  11    5.23    0.63
   5  -3  11    2.87    0.46
  -5  -3 -11    2.80    0.48
   5  -3  11    3.54    0.51
  -5  -3 -11    2.23    0.49
   5   3  11    3.50    0.60
   5   3  11    3.23    0.54
  -4  -4  11   -0.04    0.32
  -4  -4  11   -0.04    0.37
   4   4 -11    0.26    0.35
  -3  -4  11    1.06    0.37
   3   4 -11    0.20    0.32
  -2  -4  11   19.18    0.96
   2  -4 -11   19.69    0.80
   2  -4 -11   20.72    0.76
   2   4 -11   19.88    0.97
   2   4 -11   18.63    0.96
  -1  -4  11    1.65    0.39
   1  -4 -11    1.26    0.32
   1  -4 -11    1.47    0.31
   1   4 -11    0.77    0.38
   1   4 -11    1.29    0.35
   0  -4 -11   56.31    1.65
   0  -4  11   58.04    1.74
   0  -4 -11   57.22    1.62
   0  -4  11   54.57    1.65
   0   4 -11   58.90    1.76
   0   4 -11   57.16    1.59
   0   4  11   56.23    1.61
   0   4  11   56.44    1.51
  -1  -4 -11    3.32    0.49
  -1  -4 -11    2.79    0.47
   1  -4  11    2.60    0.45
   1  -4  11    3.49    0.45
  -1   4 -11    2.98    0.45
   1   4  11    1.98    0.40
   1   4  11    3.20    0.47
  -1   4 -11    3.53    0.38
  -2  -4 -11   57.06    1.72
   2  -4  11   55.54    1.60
   2  -4  11   53.66    1.69
   2   4  11   57.65    1.74
   3  -4  11    4.11    0.48
   3  -4  11    4.22    0.52
  -3  -4 -11    3.66    0.54
  -3  -4 -11    3.78    0.51
   3   4  11    4.57    0.56
   3   4  11    3.68    0.51
  -4  -4 -11    0.60    0.39
  -4  -4 -11    0.72    0.40
   4  -4  11    1.19    0.43
   4  -4  11    1.57    0.41
   4   4  11    1.11    0.40
   4   4  11    0.97    0.41
  -4  -5  11    0.99    0.45
  -4  -5  11    1.85    0.47
   4   5 -11    0.66    0.42
  -3  -5  11   13.69    0.90
  -3  -5  11   14.64    0.91
   3   5 -11   11.82    0.86
   3   5 -11   14.12    0.96
   2  -5 -11    1.35    0.31
  -2  -5  11    1.84    0.44
   2  -5 -11    1.17    0.28
   2   5 -11    0.92    0.37
   1  -5 -11    3.27    0.41
  -1  -5  11    2.69    0.45
  -1  -5  11    2.10    0.44
   1   5 -11    2.87    0.50
   1   5 -11    2.63    0.51
   0  -5 -11    0.71    0.35
   0  -5 -11    0.70    0.30
   0  -5  11    0.94    0.35
   0  -5  11    0.68    0.31
   0   5  11    1.10    0.28
   0   5  11    1.47    0.34
   0   5 -11    0.68    0.30
   0   5 -11    0.36    0.39
  -1  -5 -11    2.83    0.43
  -1  -5 -11    2.44    0.44
   1  -5  11    2.56    0.40
   1  -5  11    2.21    0.42
   1   5  11    2.64    0.43
   1   5  11    1.93    0.40
  -2  -5 -11   -0.36    0.33
   2  -5  11   -0.16    0.30
  -2  -5 -11    0.05    0.32
   2   5  11    0.90    0.37
  -3  -5 -11    7.23    0.72
  -3  -5 -11    7.22    0.76
   3  -5  11    6.64    0.67
   3   5  11    7.02    0.75
   3   5  11    7.96    0.82
  -3  -6  11    0.46    0.40
   3   6 -11    0.96    0.46
   3   6 -11    0.09    0.47
  -2  -6  11    2.83    0.54
   2  -6 -11    1.55    0.33
   2  -6 -11    2.47    0.35
  -2  -6  11    1.75    0.46
   2   6 -11    2.91    0.48
   2   6 -11    2.96    0.56
  -1  -6  11    5.50    0.61
   1  -6 -11    5.91    0.62
  -1  -6  11    4.93    0.59
   1  -6 -11    6.26    0.59
   1   6 -11    5.45    0.61
   0  -6  11   18.03    0.95
   0  -6 -11   17.05    0.91
   0  -6 -11   16.04    0.83
   0  -6  11   15.82    0.89
   0   6 -11   16.82    0.95
   0   6 -11   17.07    0.78
  -1  -6 -11    5.43    0.62
   1  -6  11    7.67    0.65
   1  -6  11    7.30    0.69
  -1  -6 -11    7.45    0.68
   1   6  11    7.54    0.68
   1   6  11    7.77    0.79
  -2  -6 -11    4.90    0.72
   2  -6  11    4.89    0.53
   2  -6  11    4.99    0.54
  -2  -6 -11    5.15    0.60
   2   6  11    5.49    0.61
   2   6  11    5.78    0.67
   0  -7  11    0.39    0.37
   0  -7 -11    0.00    0.31
   0  -7 -11   -0.80    0.41
   0  -7  11    0.38    0.34
   0   7 -11    0.27    0.30
   5   0 -12    0.28    0.31
   5   0 -12   -0.11    0.29
   4   0 -12    1.05    0.34
   4   0 -12    1.03    0.32
   3   0 -12   -0.11    0.23
   3   0 -12   -0.10    0.26
  -2   0  12   87.66    2.22
  -2   0  12   86.06    2.05
   2   0 -12   86.35    2.26
   2   0 -12   86.00    2.17
  -1   0  12    0.01    0.22
   1   0 -12   -0.11    0.26
  -1   0  12    0.55    0.27
   1   0 -12    0.05    0.26
   0   0  12  120.23    2.90
   0   0  12  116.33    2.92
   0   0 -12  114.56    2.89
   0   0 -12  120.09    2.96
  -1   0 -12    0.03    0.26
  -1   0 -12    0.67    0.34
   1   0  12    0.23    0.28
   1   0  12    0.50    0.33
  -2   0 -12   90.73    2.30
   2   0  12   91.95    2.50
   2   0  12   94.57    2.42
  -2   0 -12   98.57    2.53
   3   0  12   -0.04    0.30
  -3   0 -12   -0.24    0.28
   3   0  12    0.08    0.32
  -3   0 -12    0.14    0.25
  -4   0 -12    5.88    0.63
   4   0  12    6.37    0.67
  -4   0 -12    6.88    0.51
   4   0  12    6.14    0.65
   5   0  12   -0.66    0.33
   5   0  12   -0.03    0.33
   5  -1 -12    5.04    0.54
   5  -1 -12    4.17    0.45
   5   1 -12    5.80    0.65
   5   1 -12    3.35    0.52
  -4  -1  12    8.03    0.63
   4  -1 -12    9.74    0.66
  -4  -1  12    9.32    0.56
   4  -1 -12    9.17    0.59
   4   1 -12    9.36    0.68
  -3  -1  12   33.68    1.18
   3  -1 -12   33.54    1.18
   3  -1 -12   35.40    1.12
  -3  -1  12   35.59    1.12
   3   1 -12   33.53    1.25
   3   1 -12   34.49    1.20
   2  -1 -12   31.07    1.09
   2  -1 -12   30.88    1.18
  -2  -1  12   28.96    1.13
  -2  -1  12   32.10    1.10
   2   1 -12   34.13    1.23
   2   1 -12   32.84    1.17
  -1  -1  12   90.45    2.29
   1  -1 -12   90.99    2.34
   1  -1 -12   90.30    2.33
  -1  -1  12   85.11    2.28
  -1   1  12   86.65    2.21
   1   1 -12   91.50    2.32
  -1   1  12   89.59    2.17
   1   1 -12   89.16    2.34
   0  -1 -12    5.32    0.57
   0  -1  12    5.96    0.60
   0  -1 -12    5.82    0.60
   0  -1  12    5.63    0.58
   0   1  12    6.63    0.62
   0   1 -12    6.01    0.62
   0   1  12    5.84    0.60
   0   1 -12    5.54    0.62
   1  -1  12    4.16    0.54
  -1  -1 -12    3.37    0.43
   1  -1  12    3.55    0.49
  -1  -1 -12    5.01    0.55
   1   1  12    4.06    0.51
   1   1  12    3.50    0.47
  -1   1 -12    4.31    0.51
  -1   1 -12    3.26    0.47
  -2  -1 -12    0.46    0.30
  -2  -1 -12    0.57    0.29
   2  -1  12   -0.20    0.28
   2  -1  12    0.37    0.33
   2   1  12    0.35    0.31
  -2   1 -12    0.75    0.33
   2   1  12    0.74    0.32
  -2   1 -12    0.64    0.27
   3  -1  12   68.71    1.90
  -3  -1 -12   68.42    1.98
  -3  -1 -12   67.26    1.83
   3  -1  12   67.25    1.99
  -3   1 -12   65.21    1.79
  -3   1 -12   67.32    1.66
   3   1  12   66.68    1.90
   3   1  12   66.82    2.00
   4  -1  12    7.86    0.69
  -4  -1 -12    6.91    0.60
   4  -1  12    7.91    0.74
  -4  -1 -12    8.22    0.73
   4   1  12    6.84    0.74
   4   1  12    7.50    0.70
  -5  -1 -12    6.40    0.58
   5  -1  12    7.40    0.73
   5  -1  12    7.40    0.71
  -5  -1 -12    6.36    0.67
   5   1  12    7.78    0.74
   5   1  12    7.49    0.75
  -5  -2  12    0.36    0.30
   5  -2 -12    0.71    0.29
   5  -2 -12   -0.06    0.28
  -5  -2  12    0.26    0.34
   5   2 -12    0.72    0.38
   5   2 -12    0.40    0.38
   4  -2 -12    0.01    0.25
  -4  -2  12    0.32    0.28
  -4  -2  12    0.13    0.29
   4  -2 -12    0.29    0.27
   4   2 -12    0.35    0.33
   4   2 -12    0.28    0.34
  -3  -2  12   -0.17    0.24
  -3  -2  12    0.09    0.26
   3  -2 -12    0.19    0.27
   3  -2 -12    0.53    0.25
   3   2 -12    0.14    0.32
   3   2 -12    0.06    0.27
   2  -2 -12   10.56    0.66
  -2  -2  12   11.19    0.71
   2  -2 -12    9.99    0.65
  -2  -2  12   10.51    0.71
   2   2 -12   11.83    0.74
   2   2 -12   10.87    0.75
  -1  -2  12   72.33    1.97
   1  -2 -12   70.07    1.94
  -1  -2  12   68.58    1.94
   1  -2 -12   71.68    1.86
  -1   2  12   70.01    1.70
   1   2 -12   72.81    1.98
  -1   2  12   69.04    1.75
   1   2 -12   68.04    1.95
   0  -2 -12   67.13    1.85
   0  -2  12   69.40    1.91
   0  -2 -12   67.93    1.91
   0  -2  12   65.15    1.95
   0   2 -12   66.63    1.97
   0   2  12   67.98    1.92
   0   2  12   69.00    1.83
   0   2 -12   67.89    1.90
  -1  -2 -12   44.30    1.44
   1  -2  12   45.50    1.47
   1  -2  12   45.71    1.54
   1   2  12   43.99    1.46
  -1   2 -12   44.19    1.40
  -1   2 -12   44.44    1.44
   1   2  12   46.18    1.49
   2  -2  12   20.91    1.02
  -2  -2 -12   20.43    0.98
   2  -2  12   22.10    1.04
  -2  -2 -12   20.55    0.96
   2   2  12   21.15    1.02
  -2   2 -12   22.24    0.85
   2   2  12   21.81    0.99
  -2   2 -12   20.89    0.82
   3  -2  12    0.84    0.35
  -3  -2 -12    0.26    0.29
   3  -2  12    0.37    0.34
   3   2  12    0.93    0.39
  -4  -2 -12    0.22    0.32
   4  -2  12   -0.08    0.29
  -4  -2 -12    0.07    0.32
   4   2  12   -0.43    0.33
   4   2  12    0.23    0.34
   5  -2  12   -0.08    0.37
   5  -2  12    0.34    0.35
  -5  -2 -12   -0.08    0.38
   5   2  12    0.55    0.41
   5   2  12    0.40    0.39
  -5  -3  12    1.60    0.42
   5   3 -12    1.68    0.46
   5   3 -12    1.64    0.80
  -4  -3  12   11.47    0.79
  -4  -3  12   10.44    0.74
   4   3 -12    9.63    0.80
   4   3 -12   10.33    0.81
  -3  -3  12   24.89    1.31
   3  -3 -12   24.49    0.92
  -3  -3  12   24.12    1.05
   3   3 -12   23.75    1.07
   3   3 -12   24.00    1.08
   2  -3 -12   65.73    1.68
  -2  -3  12   64.46    1.87
  -2  -3  12   65.07    1.88
   2  -3 -12   64.52    1.75
   2   3 -12   66.54    1.90
  -1  -3  12    9.22    0.70
   1  -3 -12   10.25    0.61
   1  -3 -12    9.76    0.68
  -1  -3  12   10.04    0.70
   1   3 -12    9.27    0.72
   1   3 -12   10.32    0.71
   0  -3 -12    8.78    0.62
   0  -3  12    7.99    0.64
   0  -3  12    7.61    0.69
   0  -3 -12    7.17    0.63
   0   3  12    7.03    0.55
   0   3 -12    7.87    0.62
   0   3 -12    7.81    0.71
   0   3  12    8.06    0.65
   1  -3  12    4.99    0.54
  -1  -3 -12    4.97    0.55
   1  -3  12    4.47    0.57
  -1  -3 -12    3.41    0.49
   1   3  12    4.45    0.54
  -1   3 -12    4.55    0.53
  -1   3 -12    4.11    0.44
   1   3  12    3.83    0.49
  -2  -3 -12    9.55    0.71
   2  -3  12    9.06    0.67
  -2  -3 -12    6.35    0.76
   2  -3  12    9.13    0.73
   2   3  12    9.68    0.72
   2   3  12    8.36    1.09
  -3  -3 -12    1.13    0.36
  -3  -3 -12    1.23    0.38
   3  -3  12    0.91    0.37
   3  -3  12    1.08    0.39
   3   3  12    0.75    0.34
  -4  -3 -12   13.96    0.84
  -4  -3 -12   13.74    0.87
   4  -3  12   13.49    0.84
   4   3  12   15.10    0.92
   4   3  12   13.66    0.93
  -4  -4  12    0.20    0.37
  -4  -4  12    0.00    0.33
   4   4 -12   -0.10    0.35
   4   4 -12   -0.34    0.39
  -3  -4  12    3.89    0.58
  -3  -4  12    4.68    0.56
   3   4 -12    5.48    0.63
  -2  -4  12    0.84    0.35
   2  -4 -12    1.37    0.29
   2  -4 -12    1.27    0.32
   2   4 -12    1.72    0.40
   2   4 -12    1.29    0.36
   1  -4 -12   56.61    1.60
  -1  -4  12   53.76    1.71
  -1  -4  12   55.35    1.68
   1  -4 -12   55.55    1.52
   1   4 -12   54.01    1.74
   1   4 -12   55.50    1.66
   0  -4 -12    0.21    0.26
   0  -4 -12   -0.03    0.33
   0  -4  12   -0.24    0.27
   0  -4  12   -0.11    0.28
   0   4  12   -0.19    0.24
   0   4 -12   -0.12    0.31
   0   4 -12   -0.14    0.23
   0   4  12    0.06    0.31
   1  -4  12   19.60    0.99
  -1  -4 -12   17.36    0.89
   1  -4  12   19.83    0.91
  -1  -4 -12   17.29    0.94
   1   4  12   19.16    0.94
  -1   4 -12   19.52    0.90
   1   4  12   19.12    0.91
  -1   4 -12   17.91    0.74
  -2  -4 -12    0.48    0.32
   2  -4  12    0.66    0.31
   2  -4  12    0.27    0.33
   2   4  12    0.15    0.34
   2   4  12    0.37    0.33
  -3  -4 -12    8.99    0.77
   3  -4  12    7.69    0.72
  -3  -4 -12    7.60    0.73
   3  -4  12    8.25    0.70
   3   4  12    7.91    0.75
   3   4  12   10.09    0.78
  -4  -4 -12   -0.05    0.34
   4  -4  12    0.59    0.43
  -4  -4 -12   -0.07    0.42
   4  -4  12   -0.39    0.35
   4   4  12    0.08    0.42
   4   4  12   -0.38    0.36
  -3  -5  12    0.29    0.35
  -3  -5  12    0.42    0.38
   3   5 -12   -0.04    0.44
   3   5 -12    0.60    0.38
   2  -5 -12   17.22    0.78
  -2  -5  12   18.57    0.98
   2  -5 -12   19.04    0.76
   2   5 -12   16.74    0.99
   2   5 -12   19.06    0.97
  -1  -5  12    2.43    0.44
   1  -5 -12    2.14    0.39
   1  -5 -12    2.12    0.36
  -1  -5  12    1.95    0.44
   1   5 -12    1.72    0.39
   1   5 -12    1.81    0.44
   0  -5  12    1.12    0.38
   0  -5  12    1.29    0.37
   0  -5 -12    1.31    0.37
   0  -5 -12    0.81    0.37
   0   5  12    1.49    0.37
   0   5 -12    1.51    0.35
   0   5 -12    1.38    0.41
   0   5  12    0.81    0.30
  -1  -5 -12    1.42    0.41
  -1  -5 -12    1.37    0.37
   1  -5  12    1.40    0.35
  -1   5 -12    1.34    0.27
  -1   5 -12    1.27    0.37
   1   5  12    1.11    0.39
  -2  -5 -12    7.46    0.76
   2  -5  12    8.63    0.66
  -2  -5 -12    8.88    0.72
   2  -5  12    7.25    0.74
   2   5  12    7.24    0.71
   3  -5  12    1.70    0.39
  -3  -5 -12    1.15    0.43
  -3  -5 -12    1.34    0.75
   3   5  12    0.98    0.45
   3   5  12    1.57    0.44
   2  -6 -12    2.76    0.39
  -2  -6  12    2.04    0.47
  -2  -6  12    3.04    0.50
   2   6 -12    1.72    0.51
   2   6 -12    2.96    0.49
  -1  -6  12    3.81    0.51
  -1  -6  12    5.15    0.59
   1  -6 -12    4.55    0.49
   1  -6 -12    4.29    0.51
   1   6 -12    4.61    0.52
   0  -6 -12    6.31    0.63
   0  -6  12    6.75    0.71
   0  -6 -12    7.97    0.66
   0  -6  12    7.64    0.71
   0   6 -12    7.55    0.59
  -1  -6 -12    9.66    0.74
   1  -6  12   10.05    0.77
   1  -6  12   10.14    0.73
  -1  -6 -12   11.56    0.88
   1   6  12    9.01    1.15
   1   6  12   10.32    0.75
  -2  -6 -12    2.12    0.46
   2  -6  12    2.13    0.43
   2  -6  12    1.92    0.44
  -2  -6 -12    2.01    0.51
   2   6  12    2.51    0.48
   2   6  12    1.69    0.49
   5   0 -13    8.49    0.69
   5   0 -13    7.41    0.66
   4   0 -13    0.10    0.27
   4   0 -13   -0.59    0.29
   3   0 -13    0.86    0.30
  -3   0  13    0.62    0.23
   3   0 -13    0.28    0.29
   2   0 -13   -0.17    0.27
  -2   0  13   -0.30    0.20
   2   0 -13    0.00    0.25
  -2   0  13    0.16    0.27
  -1   0  13   55.42    1.59
   1   0 -13   49.05    1.62
   1   0 -13   55.03    1.72
  -1   0  13   53.83    1.67
   0   0  13    0.51    0.30
   0   0  13    0.76    0.32
   0   0 -13    0.44    0.30
   0   0 -13    0.75    0.33
  -1   0 -13   22.88    1.06
   1   0  13   24.09    1.09
   1   0  13   22.93    1.06
  -1   0 -13   20.10    0.97
  -2   0 -13   -0.10    0.26
   2   0  13    0.03    0.30
  -2   0 -13    0.10    0.33
   2   0  13   -0.12    0.27
  -3   0 -13   20.52    0.89
   3   0  13   22.76    1.02
  -3   0 -13   22.89    1.05
   3   0  13   20.48    1.05
  -4   0 -13   -0.11    0.29
   4   0  13    0.19    0.33
  -4   0 -13   -0.01    0.25
   4   0  13    0.24    0.35
   5   0  13    0.65    0.38
   5   0  13    0.94    0.42
   5  -1 -13   -0.30    0.28
   5   1 -13    0.09    0.34
   5   1 -13    0.06    0.34
  -4  -1  13   16.53    0.70
   4  -1 -13   15.28    0.80
   4  -1 -13   15.77    0.77
  -4  -1  13   16.07    0.81
   4   1 -13   15.73    0.83
   4   1 -13   16.52    0.90
  -3  -1  13    3.54    0.42
  -3  -1  13    3.25    0.46
   3  -1 -13    3.11    0.46
   3  -1 -13    3.42    0.41
   3   1 -13    3.52    0.48
   3   1 -13    3.50    0.50
   2  -1 -13   47.42    1.51
   2  -1 -13   42.76    1.38
  -2  -1  13   45.86    1.46
  -2  -1  13   44.81    1.39
   2   1 -13   45.36    1.47
   2   1 -13   47.55    1.54
   1  -1 -13   11.36    0.76
  -1  -1  13   11.88    0.73
  -1  -1  13   10.58    0.72
   1  -1 -13   11.15    0.76
   1   1 -13   10.88    0.75
  -1   1  13    9.29    0.68
  -1   1  13   11.17    0.67
   1   1 -13   10.61    0.75
   0  -1  13   59.19    1.82
   0  -1 -13   58.55    1.80
   0  -1 -13   62.00    1.83
   0   1  13   59.77    1.80
   0   1 -13   60.10    1.85
   0   1 -13   58.20    1.83
   0   1  13   63.10    1.83
   1  -1  13    0.50    0.32
  -1  -1 -13   -0.09    0.25
   1  -1  13    0.17    0.32
  -1  -1 -13    0.15    0.26
   1   1  13    0.34    0.32
  -1   1 -13   -0.13    0.26
  -1   1 -13    0.30    0.30
   1   1  13    0.16    0.30
   2  -1  13    1.79    0.44
  -2  -1 -13    1.65    0.38
   2  -1  13    2.45    0.44
  -2  -1 -13    1.75    0.40
  -2   1 -13    1.73    0.41
  -2   1 -13    1.45    0.33
   2   1  13    1.62    0.43
   2   1  13    2.05    0.39
  -3  -1 -13    3.00    0.45
   3  -1  13    2.64    0.48
  -3  -1 -13    2.37    0.46
   3  -1  13    2.13    0.47
  -3   1 -13    2.45    0.35
  -3   1 -13    2.59    0.41
   3   1  13    1.65    0.41
   3   1  13    2.34    0.48
  -4  -1 -13   16.89    0.94
   4  -1  13   15.39    0.93
  -4  -1 -13   15.71    0.93
   4  -1  13   16.48    1.11
   4   1  13   14.36    0.96
   4   1  13   16.56    0.92
  -5  -1 -13   -0.22    0.35
   5  -1  13    0.43    0.37
  -5  -1 -13    0.30    0.35
   5  -1  13    0.75    0.39
   5   1  13    0.34    0.39
   5   1  13   -0.44    0.44
   5  -2 -13    3.19    0.43
  -5  -2  13    2.03    0.42
   5  -2 -13    2.81    0.39
  -5  -2  13    1.46    0.36
   5   2 -13    2.17    0.46
  -4  -2  13    1.71    0.38
  -4  -2  13    1.64    0.40
   4  -2 -13    1.02    0.29
   4  -2 -13    1.05    0.33
   4   2 -13    1.10    0.39
   4   2 -13    0.82    0.37
  -3  -2  13    0.08    0.27
   3  -2 -13   -0.30    0.28
  -3  -2  13    0.02    0.27
   3  -2 -13   -0.29    0.23
   3   2 -13    0.01    0.31
   3   2 -13    0.07    0.28
   2  -2 -13    5.38    0.57
  -2  -2  13    4.74    0.54
   2  -2 -13    4.94    0.55
  -2  -2  13    5.84    0.58
   2   2 -13    2.98    0.45
   2   2 -13    4.82    0.54
   1  -2 -13   27.04    1.10
  -1  -2  13   27.49    1.12
   1  -2 -13   26.85    1.04
  -1  -2  13   26.29    1.08
   1   2 -13   25.40    1.10
   1   2 -13   26.16    1.11
  -1   2  13   25.68    0.94
  -1   2  13   25.53    0.91
   0  -2  13   52.56    1.68
   0  -2 -13   50.89    1.56
   0  -2 -13   51.80    1.63
   0  -2  13   50.97    1.60
   0   2 -13   51.84    1.60
   0   2  13   50.40    1.53
   0   2  13   49.05    1.60
   0   2 -13   49.41    1.66
   1  -2  13   62.22    1.88
  -1  -2 -13   60.74    1.79
   1  -2  13   55.40    1.76
   1   2  13   62.67    1.82
   1   2  13   59.70    1.79
  -1   2 -13   58.38    1.73
  -1   2 -13   59.99    1.77
  -2  -2 -13   37.90    1.38
   2  -2  13   40.13    1.45
   2  -2  13   38.00    1.42
   2   2  13   36.58    1.36
  -2   2 -13   37.79    1.19
  -2   2 -13   39.23    1.24
   2   2  13   36.42    1.38
  -3  -2 -13    8.25    0.70
   3  -2  13    7.43    0.74
  -3  -2 -13    7.89    0.68
   3  -2  13    6.82    0.69
   3   2  13    9.68    0.74
   3   2  13    7.76    0.76
   4  -2  13    2.72    0.53
  -4  -2 -13    3.47    0.52
  -4  -2 -13    3.14    0.47
   4  -2  13    3.03    0.51
   4   2  13    3.49    0.53
   4   2  13    2.40    0.50
   5  -2  13   -0.02    0.38
  -5  -2 -13    0.26    0.37
  -5  -2 -13    0.52    0.43
   5  -2  13   -0.45    0.35
   5   2  13    0.53    0.66
   5   2  13    0.23    0.42
  -4  -3  13    1.64    0.41
   4   3 -13    2.02    0.47
   4   3 -13    1.26    0.42
   3  -3 -13    6.05    0.58
  -3  -3  13    8.79    0.72
   3  -3 -13    7.46    0.61
  -3  -3  13    9.11    0.72
   3   3 -13    6.88    0.70
   3   3 -13    8.04    0.71
   2  -3 -13   24.46    0.93
  -2  -3  13   24.04    1.08
   2  -3 -13   24.65    0.99
  -2  -3  13   21.53    1.25
   2   3 -13   23.50    1.08
   1  -3 -13   42.15    1.40
   1  -3 -13   43.95    1.33
  -1  -3  13   43.13    1.44
  -1  -3  13   44.56    1.49
   1   3 -13   42.46    1.44
   1   3 -13   41.92    1.46
   0  -3  13    8.93    0.75
   0  -3  13    9.40    0.68
   0  -3 -13    9.86    0.66
   0  -3 -13    9.68    0.71
   0   3 -13    9.77    0.68
   0   3 -13    8.59    0.77
   0   3  13    9.57    0.71
   0   3  13    9.16    0.63
   1  -3  13    0.74    0.35
  -1  -3 -13   -0.13    0.31
  -1  -3 -13    0.21    0.27
   1  -3  13    0.34    0.28
   1   3  13    0.16    0.29
  -1   3 -13    0.48    0.34
  -1   3 -13    0.08    0.24
   1   3  13    0.15    0.30
  -2  -3 -13    1.73    0.39
  -2  -3 -13    1.19    0.37
   2  -3  13    1.80    0.40
   2  -3  13    0.76    0.38
  -2   3 -13    1.55    0.28
  -2   3 -13    1.47    0.30
   2   3  13    1.92    0.43
   2   3  13    1.88    0.39
   3  -3  13    2.88    0.51
   3  -3  13    2.68    0.49
  -3  -3 -13    2.43    0.44
   3   3  13    2.39    0.46
  -4  -3 -13   -0.01    0.34
   4  -3  13   -0.45    0.34
  -4  -3 -13    0.05    0.32
   4   3  13   -0.30    0.35
   4   3  13    0.09    0.36
  -4  -4  13    3.34    0.50
  -4  -4  13    2.52    0.51
   4   4 -13    3.81    0.58
   4   4 -13    2.03    0.46
  -3  -4  13    0.22    0.32
  -3  -4  13   -0.32    0.29
   3   4 -13    0.31    0.33
   2  -4 -13    4.21    0.43
   2  -4 -13    3.87    0.46
  -2  -4  13    2.83    0.46
   2   4 -13    2.99    0.49
   2   4 -13    3.12    0.53
  -1  -4  13    1.31    0.48
   1  -4 -13    1.43    0.33
   1  -4 -13    1.21    0.35
  -1  -4  13    0.87    0.33
   1   4 -13    1.02    0.39
   1   4 -13    1.01    0.34
   0  -4  13   53.64    1.96
   0  -4 -13   55.69    1.68
   0  -4  13   59.10    1.80
   0  -4 -13   56.84    1.64
   0   4 -13   56.73    1.62
   0   4  13   55.03    1.65
   0   4 -13   54.16    1.76
   0   4  13   56.25    1.53
   1  -4  13    3.07    0.46
  -1  -4 -13    3.26    0.49
  -1  -4 -13    2.91    0.50
   1  -4  13    4.16    0.56
   1   4  13    2.84    0.47
   1   4  13    3.09    0.47
  -1   4 -13    2.94    0.37
  -1   4 -13    3.38    0.49
   2  -4  13   15.77    0.85
   2  -4  13   16.05    0.94
  -2  -4 -13   17.41    0.92
   2   4  13   16.31    0.93
   2   4  13   17.84    0.94
  -3  -4 -13    0.10    0.37
  -3  -4 -13    0.06    0.31
   3  -4  13    0.07    0.36
   3  -4  13    0.00    0.57
   3   4  13    0.40    0.36
   3   4  13    0.14    0.37
   4  -4  13    1.57    0.45
   4  -4  13    3.08    0.51
  -4  -4 -13    3.42    0.51
  -4  -4 -13    2.56    0.56
   4   4  13    2.33    0.76
   4   4  13    1.31    0.45
  -3  -5  13   10.64    0.84
   3   5 -13   10.89    1.03
   3   5 -13    8.51    0.81
   2  -5 -13    1.55    0.33
   2  -5 -13    0.56    0.31
  -2  -5  13   -0.04    0.32
  -2  -5  13    0.22    0.30
   2   5 -13    0.76    0.41
   2   5 -13    0.82    0.38
   1  -5 -13   12.53    0.79
  -1  -5  13   13.77    0.87
   1  -5 -13   12.36    0.71
  -1  -5  13   13.38    0.84
   1   5 -13   10.98    0.86
   1   5 -13   12.85    0.78
   0  -5  13    1.78    0.45
   0  -5  13    1.92    0.40
   0  -5 -13    1.10    0.34
   0   5  13    1.03    0.37
   0   5  13    2.10    0.36
   0   5 -13    1.81    0.37
   0   5 -13    1.44    0.46
  -1  -5 -13    1.48    0.41
  -1  -5 -13    1.69    0.39
   1  -5  13    1.39    0.40
   1  -5  13    0.97    0.35
   1   5  13    1.34    0.40
   1   5  13    0.52    0.35
  -1   5 -13    1.68    0.38
  -1   5 -13    1.91    0.31
  -2  -5 -13    0.21    0.30
  -2  -5 -13   -0.18    0.38
   2  -5  13   -0.10    0.33
   2  -5  13    0.17    0.30
   2   5  13    0.36    0.35
   2   5  13    0.58    0.36
  -3  -5 -13    2.60    0.49
   3  -5  13    2.64    0.48
  -3  -5 -13    3.36    0.55
   3  -5  13    3.46    0.49
   3   5  13    3.05    0.53
  -2  -6  13    0.20    0.39
  -2  -6  13    0.11    0.37
   2   6 -13    0.79    0.46
   2   6 -13    0.73    0.38
   1  -6 -13    3.13    0.47
  -1  -6  13    3.33    0.57
   1  -6 -13    3.29    0.44
  -1  -6  13    3.85    0.56
   1   6 -13    3.06    0.47
   1   6 -13    3.04    0.54
   0  -6 -13    8.52    0.69
   0  -6  13    9.26    0.75
   0  -6  13    6.85    0.72
   0  -6 -13   10.04    0.80
   0   6 -13    7.65    0.80
   0   6 -13    8.07    0.62
  -1  -6 -13    4.78    0.64
  -1  -6 -13    5.16    0.59
   1  -6  13    5.04    0.58
   1  -6  13    4.37    0.52
   1   6  13    5.28    0.58
   1   6  13    5.18    0.55
   2  -6  13    4.24    0.53
   2  -6  13    5.24    0.58
  -2  -6 -13    4.35    0.65
  -2  -6 -13    4.68    0.60
   2   6  13    4.85    0.61
   2   6  13    4.46    0.58
   5   0 -14    0.46    0.35
   5   0 -14    0.12    0.32
   4   0 -14   11.41    0.78
   4   0 -14   11.17    0.71
   3   0 -14   -0.77    0.25
  -3   0  14   -0.04    0.26
  -3   0  14    0.11    0.21
   3   0 -14    0.05    0.27
   2   0 -14   -0.13    0.25
  -2   0  14    0.43    0.25
  -2   0  14    0.05    0.28
   2   0 -14    0.23    0.30
   1   0 -14    0.07    0.30
  -1   0  14   -0.11    0.28
   1   0 -14    0.15    0.29
  -1   0  14   -0.12    0.25
   0   0 -14   56.48    1.80
   0   0  14   56.01    1.74
   0   0 -14   56.47    1.77
   0   0  14   52.11    1.73
   1   0  14   -0.06    0.30
  -1   0 -14    0.15    0.29
  -1   0 -14   -0.23    0.28
   1   0  14   -0.30    0.26
   2   0  14   60.94    1.88
   2   0  14   62.32    1.95
  -2   0 -14   65.54    1.95
  -2   0 -14   61.95    1.78
   3   0  14   -0.25    0.28
  -3   0 -14    0.09    0.31
  -3   0 -14    0.00    0.28
   4   0  14   11.83    0.89
   4   0  14   11.66    0.83
  -4   0 -14   12.22    0.68
  -4   0 -14   11.70    0.78
   5   0  14   -0.58    0.39
   5   0  14    0.32    0.38
   5  -1 -14    0.72    0.34
   5  -1 -14   -0.34    0.29
   5   1 -14    0.12    0.37
   5   1 -14    0.19    0.35
  -4  -1  14    5.23    0.49
   4  -1 -14    5.67    0.62
   4  -1 -14    4.01    0.48
  -4  -1  14    4.97    0.52
   4   1 -14    4.63    0.56
   4   1 -14    4.63    0.52
  -3  -1  14   38.76    1.33
   3  -1 -14   39.96    1.36
  -3  -1  14   39.60    1.24
   3  -1 -14   39.66    1.27
   3   1 -14   41.17    1.43
   3   1 -14   39.24    1.35
   2  -1 -14    8.27    0.71
  -2  -1  14    9.56    0.70
  -2  -1  14    9.84    0.67
   2  -1 -14    8.75    0.67
   2   1 -14    8.98    0.74
  -2   1  14    9.20    0.60
  -2   1  14    8.59    0.52
   2   1 -14    9.25    0.70
  -1  -1  14   72.49    2.01
   1  -1 -14   71.98    2.06
   1  -1 -14   74.85    2.09
  -1  -1  14   73.20    2.06
  -1   1  14   71.15    1.92
   1   1 -14   69.61    2.07
  -1   1  14   70.07    1.96
   1   1 -14   73.21    2.06
   0  -1 -14    3.78    0.54
   0  -1  14    3.08    0.46
   0  -1 -14    4.67    0.62
   0  -1  14    3.88    0.54
   0   1 -14    4.57    0.62
   0   1  14    4.02    0.57
   0   1 -14    2.76    0.50
   0   1  14    3.27    0.50
   1  -1  14   17.74    0.98
  -1  -1 -14   18.10    0.95
  -1  -1 -14   20.21    0.96
   1  -1  14   18.49    1.01
  -1   1 -14   18.99    0.95
   1   1  14   18.37    0.95
   1   1  14   18.98    0.99
  -1   1 -14   19.60    1.01
   2  -1  14    0.79    0.38
  -2  -1 -14    1.46    0.39
  -2  -1 -14    0.98    0.38
   2  -1  14    0.74    0.38
   2   1  14    0.89    0.34
  -2   1 -14    1.12    0.33
  -2   1 -14    0.69    0.35
   2   1  14    1.09    0.38
  -3  -1 -14    1.06    0.38
   3  -1  14    1.04    0.40
   3  -1  14    0.76    0.35
  -3  -1 -14    0.50    0.33
  -3   1 -14    0.95    0.29
  -3   1 -14    0.77    0.33
   3   1  14    1.11    0.40
   4  -1  14    0.00    0.34
   4  -1  14    0.58    0.35
  -4  -1 -14    0.17    0.34
  -4  -1 -14   -0.06    0.29
   4   1  14    0.28    0.39
   4   1  14    0.42    0.36
  -5  -1 -14    2.57    0.43
   5  -1  14    2.22    0.49
  -5  -1 -14    3.00    0.57
   5  -1  14    2.92    0.50
   5   1  14    2.86    0.53
   5   1  14    3.40    0.60
   5  -2 -14    1.37    0.42
  -5  -2  14    0.61    0.47
   5  -2 -14    0.37    0.34
  -5  -2  14    0.79    0.34
   5   2 -14    0.10    0.42
   5   2 -14    1.32    0.42
   4  -2 -14    4.38    0.46
  -4  -2  14    3.86    0.47
   4  -2 -14    4.60    0.49
   4   2 -14    3.48    0.50
   4   2 -14    3.59    0.54
  -3  -2  14    0.30    0.28
   3  -2 -14    0.11    0.27
  -3  -2  14    0.20    0.28
   3  -2 -14   -0.08    0.29
   3   2 -14   -0.10    0.30
   3   2 -14    0.12    0.32
  -2  -2  14    0.54    0.31
  -2  -2  14    0.90    0.34
   2  -2 -14    0.61    0.33
   2  -2 -14    0.71    0.32
   2   2 -14    1.27    0.39
   2   2 -14    0.89    0.33
  -1  -2  14    1.02    0.36
   1  -2 -14    1.12    0.37
   1  -2 -14    0.64    0.31
  -1  -2  14    0.60    0.29
  -1   2  14    0.33    0.25
  -1   2  14    1.01    0.31
   1   2 -14    1.19    0.40
   1   2 -14    0.79    0.36
   0  -2  14   22.73    1.10
   0  -2  14   26.54    1.09
   0  -2 -14   24.73    1.10
   0  -2 -14   23.31    1.02
   0   2 -14   26.00    1.11
   0   2  14   25.42    1.10
   0   2  14   25.00    1.03
   0   2 -14   23.52    1.13
  -1  -2 -14   33.08    1.25
   1  -2  14   32.79    1.29
   1  -2  14   35.14    1.36
   1   2  14   33.10    1.30
   1   2  14   31.70    1.28
  -1   2 -14   33.26    1.27
  -1   2 -14   34.64    1.27
   2  -2  14   52.52    1.73
   2  -2  14   52.16    1.73
  -2  -2 -14   51.30    1.66
  -2   2 -14   50.60    1.49
   2   2  14   52.83    1.68
  -2   2 -14   53.09    1.55
   2   2  14   48.38    1.71
   3  -2  14   15.83    0.93
   3  -2  14   17.03    0.98
  -3  -2 -14   16.57    0.90
   3   2  14   16.42    0.94
   3   2  14   15.80    1.40
  -4  -2 -14    8.06    0.74
   4  -2  14    7.84    0.73
   4  -2  14    9.87    0.82
   4   2  14    9.27    0.78
   4   2  14    8.48    0.83
   4  -3 -14    8.95    0.66
  -4  -3  14   10.38    0.75
   4   3 -14    9.99    0.83
   4   3 -14    8.43    0.80
   3  -3 -14    1.78    0.36
  -3  -3  14    2.51    0.46
  -3  -3  14    1.50    0.40
   3  -3 -14    1.58    0.37
   3   3 -14    1.58    0.46
   3   3 -14    1.06    0.38
   2  -3 -14   29.97    1.14
  -2  -3  14   31.35    1.22
   2  -3 -14   29.68    1.09
  -2  -3  14   30.94    1.23
  -1  -3  14   18.29    0.96
   1  -3 -14   19.28    0.87
  -1  -3  14   17.84    0.91
   1  -3 -14   18.73    0.94
   1   3 -14   18.03    0.98
   1   3 -14   18.99    0.96
   0  -3 -14   46.91    1.48
   0  -3  14   48.05    1.62
   0  -3 -14   47.68    1.54
   0   3  14   45.87    1.41
   0   3  14   47.86    1.54
   0   3 -14   46.09    1.50
   0   3 -14   45.35    1.60
  -1  -3 -14   12.88    0.83
  -1  -3 -14   11.37    0.76
   1  -3  14   12.68    0.88
   1  -3  14   13.01    0.80
   1   3  14   11.05    0.78
   1   3  14   12.23    0.83
  -1   3 -14   12.80    0.73
  -1   3 -14   11.63    0.79
  -2  -3 -14    0.18    0.31
   2  -3  14    1.18    0.40
  -2  -3 -14   -0.67    0.38
   2  -3  14    0.64    0.36
  -2   3 -14    0.81    0.25
  -2   3 -14    1.09    0.30
   2   3  14    0.43    0.34
   3  -3  14    0.41    0.36
  -3  -3 -14    0.15    0.32
   3   3  14    0.45    0.32
   4  -3  14    2.72    0.51
  -4  -3 -14    3.23    0.52
   4  -3  14    2.37    0.48
  -4  -3 -14    2.99    0.49
   4   3  14    2.65    0.53
  -4  -4  14    2.44    0.53
  -4  -4  14    1.48    0.43
   4   4 -14    1.44    0.83
   4   4 -14    1.13    0.45
   3  -4 -14    4.06    0.48
  -3  -4  14    4.57    0.57
  -3  -4  14    3.69    0.53
   3  -4 -14    4.69    0.48
   3   4 -14    6.64    0.71
   3   4 -14    5.33    0.61
   2  -4 -14    0.69    0.28
   2  -4 -14    0.83    0.33
  -2  -4  14    1.31    0.40
   2   4 -14    0.28    0.31
   1  -4 -14    0.40    0.31
  -1  -4  14    0.76    0.34
   1  -4 -14    0.26    0.27
   1   4 -14    0.76    0.38
   1   4 -14   -0.20    0.33
   0  -4 -14    0.47    0.36
   0  -4  14    0.45    0.38
   0  -4  14    0.62    0.33
   0  -4 -14    0.37    0.30
   0   4 -14    0.65    0.31
   0   4  14    1.06    0.32
   0   4 -14    1.12    0.41
   0   4  14    0.88    0.36
   1  -4  14   27.02    1.20
  -1  -4 -14   27.61    1.13
   1  -4  14   27.34    1.14
  -1   4 -14   26.47    0.96
   1   4  14   26.67    1.13
  -1   4 -14   25.36    1.09
   1   4  14   25.86    1.10
   2  -4  14    0.05    0.36
   2  -4  14    0.44    0.31
  -2  -4 -14    0.31    0.32
   2   4  14   -0.28    0.31
   2   4  14    0.37    0.63
  -3  -4 -14   13.27    0.91
  -3  -4 -14   13.72    0.87
   3  -4  14   13.24    0.87
   3  -4  14   13.03    1.35
   3   4  14   12.06    0.92
   3   4  14   12.55    0.87
  -4  -4 -14    0.40    0.42
   4  -4  14   -0.01    0.41
   4  -4  14    0.41    0.42
  -4  -4 -14    0.36    0.38
   4   4  14   -0.13    0.42
   4   4  14    1.00    0.45
  -3  -5  14    3.94    0.59
  -3  -5  14    3.15    0.53
   3  -5 -14    3.61    0.43
   3   5 -14    3.34    0.53
   3   5 -14    3.08    0.57
  -2  -5  14   19.36    1.03
   2  -5 -14   20.05    0.85
   2  -5 -14   19.22    0.88
  -2  -5  14   20.02    1.02
   2   5 -14   18.84    1.00
   2   5 -14   20.68    1.12
   1  -5 -14    0.97    0.38
  -1  -5  14    1.14    0.40
   1  -5 -14    0.40    0.30
  -1  -5  14    0.93    0.35
   1   5 -14    0.56    0.33
   0  -5  14   18.68    0.94
   0  -5 -14   17.79    0.88
   0  -5  14   18.24    1.00
   0   5  14   17.58    0.89
   0   5 -14   17.59    1.18
   0   5  14   17.19    0.78
   0   5 -14   17.76    0.85
  -1  -5 -14    0.95    0.36
   1  -5  14    1.09    0.41
  -1  -5 -14    0.88    0.41
   1  -5  14    1.10    0.38
  -1   5 -14    1.25    0.39
   1   5  14    1.80    0.42
   1   5  14    0.88    0.40
  -1   5 -14    0.93    0.29
  -2  -5 -14    0.27    0.42
   2  -5  14    0.45    0.34
   2  -5  14    1.16    0.41
  -2  -5 -14    1.01    0.36
   2   5  14    0.45    0.36
   2   5  14    1.37    0.44
   3  -5  14   -0.21    0.35
   3  -5  14    0.43    0.36
  -3  -5 -14   -0.11    0.36
  -3  -5 -14    0.41    0.42
   3   5  14    0.15    0.39
   3   5  14    0.35    0.43
  -2  -6  14    0.63    0.47
   2  -6 -14    0.56    0.32
  -2  -6  14    0.44    0.38
   2   6 -14   -0.93    0.47
   2   6 -14    0.48    0.39
  -1  -6  14   -0.29    0.35
   1  -6 -14    0.54    0.37
   1  -6 -14    0.10    0.31
  -1  -6  14   -0.25    0.41
   1   6 -14    0.33    0.45
   1   6 -14    0.35    0.35
   0  -6  14    2.96    0.46
   0  -6 -14    4.39    0.59
   0  -6 -14    3.41    0.49
   0  -6  14    2.34    0.49
   0   6 -14    2.99    0.54
   0   6 -14    3.87    0.60
  -1  -6 -14    8.55    0.94
   1  -6  14    7.40    0.76
   1  -6  14    7.28    0.74
  -1  -6 -14    7.56    0.71
   1   6  14    9.58    0.78
   1   6  14    9.16    0.76
   2  -6  14    5.07    0.59
  -2  -6 -14    4.21    0.70
  -2  -6 -14    5.47    0.68
   2  -6  14    4.83    0.56
   2   6  14    4.94    0.61
   2   6  14    5.21    0.67
   5   0 -15   16.86    0.93
   5   0 -15   18.36    0.93
   4   0 -15   -0.28    0.27
   4   0 -15    0.57    0.63
  -3   0  15   58.58    1.51
   3   0 -15   60.07    1.73
  -3   0  15   58.77    1.63
   3   0 -15   60.62    1.83
   2   0 -15    0.27    0.32
  -2   0  15    0.15    0.25
  -2   0  15    0.32    0.30
   2   0 -15   -0.23    0.26
  -1   0  15    6.99    0.65
  -1   0  15    8.72    0.72
   1   0 -15    7.39    0.71
   1   0 -15   10.27    0.79
   0   0  15    0.17    0.30
   0   0 -15    0.13    0.31
   0   0  15    0.37    0.30
   0   0 -15   -0.22    0.26
   1   0  15   63.84    2.02
  -1   0 -15   64.42    1.94
  -1   0 -15   68.07    2.03
   1   0  15   66.39    2.03
   2   0  15    0.34    0.34
  -2   0 -15   -0.31    0.30
   2   0  15   -0.14    0.31
  -2   0 -15    0.38    0.31
   3   0  15   27.95    1.35
  -3   0 -15   26.37    1.18
  -3   0 -15   26.02    1.04
   3   0  15   26.38    1.22
  -4   0 -15    0.06    0.28
  -4   0 -15   -0.03    0.31
   4   0  15   -0.09    0.39
   4   0  15    0.22    0.36
   5   0  15    2.31    0.51
   5  -1 -15    1.07    0.40
   5  -1 -15    0.76    0.36
   5   1 -15    1.34    0.43
   5   1 -15    0.58    0.39
   4  -1 -15    2.16    0.42
   4  -1 -15    1.45    0.38
  -4  -1  15    2.64    0.37
  -4  -1  15    1.72    0.39
   4   1 -15    1.88    0.45
   4   1 -15    1.85    0.40
  -3  -1  15    5.87    0.65
   3  -1 -15    5.72    0.59
  -3  -1  15    4.81    0.52
   3  -1 -15    5.41    0.59
   3   1 -15    5.77    0.64
   3   1 -15    7.74    0.68
  -2  -1  15   45.86    1.45
  -2  -1  15   46.45    1.54
   2  -1 -15   48.64    1.60
   2  -1 -15   44.43    1.49
   2   1 -15   49.67    1.63
  -2   1  15   43.04    1.35
   2   1 -15   45.33    1.52
  -2   1  15   48.77    1.29
  -1  -1  15    5.80    0.63
   1  -1 -15    5.78    0.63
   1  -1 -15    6.58    0.69
  -1  -1  15    4.80    0.59
   1   1 -15    5.76    0.66
   1   1 -15    6.43    0.71
  -1   1  15    5.61    0.63
  -1   1  15    6.86    0.61
   0  -1  15  108.35    2.81
   0  -1 -15  108.44    2.78
   0  -1 -15  105.45    2.78
   0  -1  15  110.73    2.81
   0   1  15  102.97    2.73
   0   1  15  108.71    2.77
   0   1 -15  104.66    2.80
   0   1 -15  103.23    2.77
  -1  -1 -15    8.26    0.73
   1  -1  15    9.06    0.79
   1  -1  15    8.18    0.76
  -1  -1 -15    7.79    0.69
   1   1  15    9.36    0.77
  -1   1 -15    8.58    0.77
   1   1  15    9.33    0.77
  -1   1 -15    8.35    0.73
  -2  -1 -15    9.25    0.77
   2  -1  15    9.30    0.79
  -2  -1 -15   10.14    0.75
   2  -1  15   10.60    0.80
   2   1  15    7.81    0.76
  -2   1 -15    9.97    0.68
  -2   1 -15    8.76    0.76
   2   1  15   10.34    0.77
  -3  -1 -15    0.91    0.40
   3  -1  15    1.26    0.40
   3  -1  15    0.12    0.35
  -3   1 -15    0.58    0.33
   3   1  15    1.26    0.40
   3   1  15    0.59    0.37
  -3   1 -15    0.93    0.32
   4  -1  15    1.55    0.42
   4  -1  15    0.77    0.42
  -4  -1 -15    1.79    0.40
   4   1  15    1.65    0.45
   4   1  15    1.43    0.45
  -5  -1 -15    0.59    0.41
   5  -1  15    1.20    0.44
   5  -1  15    0.80    0.46
  -5  -1 -15    0.76    0.37
   5   1  15    1.10    0.50
   5   1  15    0.49    0.44
   4  -2 -15    6.28    0.63
  -4  -2  15    6.24    0.60
  -4  -2  15    6.17    0.66
   4  -2 -15    5.19    0.52
   4   2 -15    6.00    0.66
   4   2 -15    6.96    0.71
   3  -2 -15   12.42    0.75
   3  -2 -15   11.67    0.79
  -3  -2  15   13.46    0.77
   3   2 -15   12.54    0.85
   3   2 -15   12.89    0.82
  -2  -2  15    1.88    0.41
   2  -2 -15    1.38    0.39
   2  -2 -15    0.69    0.34
  -2  -2  15    1.45    0.40
   2   2 -15    0.95    0.36
   2   2 -15    1.49    0.67
  -1  -2  15   -0.18    0.26
   1  -2 -15    0.21    0.29
   1  -2 -15    0.49    0.32
  -1  -2  15    0.09    0.25
   1   2 -15    0.09    0.33
  -1   2  15    0.55    0.28
  -1   2  15    0.27    0.26
   1   2 -15    0.03    0.32
   0  -2  15   29.12    1.21
   0  -2  15   28.59    1.24
   0  -2 -15   30.22    1.24
   0  -2 -15   30.82    1.20
   0   2  15   31.23    1.19
   0   2 -15   31.08    1.25
   0   2  15   30.37    1.23
   0   2 -15   28.93    1.27
  -1  -2 -15   30.58    1.23
  -1  -2 -15   32.05    1.26
   1  -2  15   31.36    1.28
   1  -2  15   32.63    1.33
  -1   2 -15   32.28    1.26
   1   2  15   31.64    1.27
  -1   2 -15   32.26    1.26
   1   2  15   31.05    1.27
  -2  -2 -15   37.73    1.40
   2  -2  15   34.70    1.43
   2  -2  15   38.95    1.47
   2   2  15   38.56    1.42
   2   2  15   39.25    1.46
  -2   2 -15   39.42    1.32
  -2   2 -15   35.88    1.23
   3  -2  15   16.47    0.98
   3  -2  15   16.66    1.01
  -3  -2 -15   18.72    0.96
  -3  -2 -15   16.11    0.95
   3   2  15   19.67    1.02
  -3   2 -15   18.47    0.74
  -3   2 -15   18.14    0.77
   4  -2  15    1.69    0.47
   4  -2  15    1.73    0.43
  -4  -2 -15    1.25    0.43
   4   2  15    0.76    0.42
   4   2  15    1.66    0.45
   4  -3 -15   -0.34    0.31
   4  -3 -15   -0.56    0.31
  -4  -3  15   -0.04    0.32
  -4  -3  15   -0.52    0.37
   4   3 -15    0.31    0.37
   4   3 -15    0.39    0.42
   3  -3 -15    9.99    0.72
  -3  -3  15    9.64    0.79
  -3  -3  15   10.22    0.74
   3  -3 -15    9.10    0.70
   3   3 -15   10.54    0.81
   3   3 -15   10.88    0.81
  -2  -3  15    5.49    0.64
   2  -3 -15    4.40    0.50
  -2  -3  15    5.77    0.76
   2  -3 -15    4.16    0.51
   2   3 -15    4.49    0.54
  -1  -3  15   33.99    1.31
  -1  -3  15   32.81    1.31
   1  -3 -15   32.81    1.27
   1  -3 -15   33.67    1.19
  -1   3  15   34.02    1.02
   1   3 -15   34.39    1.30
  -1   3  15   31.73    1.06
   0  -3 -15    2.02    0.42
   0  -3  15    3.56    0.51
   0  -3 -15    3.38    0.49
   0  -3  15    3.92    0.56
   0   3  15    2.93    0.47
   0   3 -15    2.37    0.45
   0   3  15    3.62    0.49
   0   3 -15    1.86    0.51
  -1  -3 -15   60.30    1.83
   1  -3  15   59.09    1.93
   1  -3  15   62.52    1.86
  -1  -3 -15   61.39    1.97
  -1   3 -15   63.47    1.78
  -1   3 -15   63.70    1.85
   1   3  15   62.07    1.88
   1   3  15   61.59    1.86
   2  -3  15    5.27    0.71
   2  -3  15    6.61    0.70
  -2  -3 -15    7.60    0.69
   2   3  15    6.39    0.73
   2   3  15    5.59    0.64
  -2   3 -15    5.93    0.52
  -2   3 -15    5.71    0.55
  -3  -3 -15    0.49    0.33
  -3  -3 -15    1.13    0.40
   3  -3  15    0.79    0.39
   3   3  15    0.91    0.40
  -4  -3 -15   -0.18    0.39
   4  -3  15    0.11    0.39
   4  -3  15   -0.08    0.39
  -4  -3 -15    0.02    0.34
   4   3  15    0.33    0.43
   4   3  15    0.35    0.39
  -4  -4  15   10.40    0.82
  -4  -4  15    9.59    0.99
   4   4 -15   10.91    0.89
   4   4 -15    9.50    0.96
   3  -4 -15    0.65    0.34
  -3  -4  15    0.56    0.38
  -3  -4  15    0.85    0.39
   3  -4 -15    0.63    0.34
   3   4 -15    0.58    0.40
   3   4 -15    1.29    0.42
  -2  -4  15    1.01    0.37
   2  -4 -15    0.83    0.30
  -2  -4  15    0.15    0.30
   2  -4 -15    0.91    0.34
   2   4 -15    0.77    0.42
   2   4 -15    0.13    0.32
  -1  -4  15    2.97    0.51
   1  -4 -15    2.96    0.48
   1  -4 -15    3.11    0.44
   1   4 -15    2.56    0.52
   1   4 -15    3.77    0.54
   0  -4  15    4.47    0.59
   0  -4 -15    5.88    0.66
   0  -4  15    5.98    0.65
   0  -4 -15    6.73    0.62
   0   4 -15    4.93    0.63
   0   4 -15    5.90    0.60
   0   4  15    6.72    0.68
   0   4  15    6.10    0.58
   1  -4  15    0.56    0.33
  -1  -4 -15    0.38    0.31
  -1   4 -15    0.40    0.27
   1   4  15    0.81    0.37
   1   4  15    0.44    0.41
  -1   4 -15    0.56    0.36
   2  -4  15   14.95    1.16
  -2  -4 -15   16.93    0.93
   2  -4  15   17.20    0.92
   2   4  15   16.61    0.96
  -3  -4 -15    0.91    0.40
  -3  -4 -15    0.72    0.42
   3  -4  15    0.49    0.39
   3  -4  15   -0.03    0.37
   3   4  15    0.23    0.41
   3   4  15    0.42    0.38
  -4  -4 -15    3.04    0.63
   4  -4  15    2.42    0.52
   4  -4  15    2.50    0.53
  -4  -4 -15    4.07    0.62
   4   4  15    4.65    0.63
   3  -5 -15    4.74    0.48
  -3  -5  15    3.46    0.56
   3  -5 -15    3.42    0.45
  -3  -5  15    2.70    0.52
   3   5 -15    3.00    0.61
   3   5 -15    2.39    0.58
  -2  -5  15    1.63    0.49
   2  -5 -15    0.99    0.33
  -2  -5  15    1.52    0.43
   2   5 -15    1.60    0.43
   2   5 -15    1.72    0.49
   1  -5 -15   24.82    1.05
  -1  -5  15   23.29    1.14
  -1  -5  15   24.38    1.12
   1  -5 -15   23.71    1.24
   1   5 -15   23.34    1.07
   0  -5 -15    0.77    0.35
   0  -5  15    0.84    0.40
   0  -5  15    0.61    0.35
   0   5  15    0.46    0.34
   0   5 -15    0.42    0.32
   0   5  15    0.19    0.27
   0   5 -15    0.58    0.43
  -1  -5 -15   13.56    0.91
   1  -5  15   14.60    0.93
   1  -5  15   15.30    0.89
  -1  -5 -15   14.93    0.88
  -1   5 -15   15.28    0.86
  -1   5 -15   15.16    0.71
   1   5  15   16.27    0.96
   1   5  15   15.89    0.88
   2  -5  15    1.06    0.43
  -2  -5 -15    0.81    0.37
  -2  -5 -15    0.42    0.41
   2  -5  15    1.67    0.41
   2   5  15    0.76    0.42
   2   5  15    1.43    0.45
  -3  -5 -15   -0.04    0.43
  -3  -5 -15    0.17    0.67
   3  -5  15   -0.22    0.38
   3  -5  15    0.89    0.42
   3   5  15    0.87    0.47
   3   5  15   -0.06    0.40
  -2  -6  15    1.26    0.50
   2  -6 -15    0.97    0.36
  -2  -6  15    1.28    0.43
   2   6 -15    1.63    0.55
   2   6 -15    1.99    0.47
   1  -6 -15    1.33    0.44
  -1  -6  15    1.74    0.44
   1  -6 -15    1.22    0.36
  -1  -6  15    1.48    0.45
   1   6 -15    0.87    0.48
   1   6 -15    1.52    0.44
   0  -6 -15    0.59    0.44
   0  -6  15    0.00    0.37
   0  -6 -15    0.61    0.33
   0  -6  15    0.48    0.37
   0   6 -15    0.10    0.30
   0   6 -15    0.18    0.40
  -1  -6 -15    3.25    0.65
   1  -6  15    3.19    0.52
  -1  -6 -15    2.91    0.50
   1  -6  15    4.08    0.56
   1   6  15    4.18    0.80
   1   6  15    3.53    0.54
  -2  -6 -15    4.88    0.60
   2  -6  15    5.52    0.60
   2  -6  15    4.55    0.58
   2   6  15    5.69    0.68
   2   6  15    5.21    0.65
   5   0 -16   -0.32    0.35
   5   0 -16   -0.63    0.33
   4   0 -16   13.37    0.82
   4   0 -16   12.32    0.85
   3   0 -16    0.05    0.29
  -3   0  16    0.18    0.24
   3   0 -16    0.01    0.33
  -3   0  16   -0.45    0.27
  -2   0  16   38.32    1.37
   2   0 -16   40.29    1.49
  -2   0  16   41.37    1.29
   2   0 -16   39.60    1.41
  -1   0  16    0.50    0.32
  -1   0  16    0.12    0.29
   1   0 -16    0.32    0.32
   1   0 -16   -0.20    0.29
   0   0  16   11.27    0.81
   0   0  16   10.64    0.81
   0   0 -16   11.98    0.86
   0   0 -16   11.30    0.83
   1   0  16    0.22    0.32
   1   0  16    0.36    0.36
  -1   0 -16    0.12    0.33
  -1   0 -16   -0.21    0.29
   2   0  16   33.56    1.43
  -2   0 -16   38.16    1.35
  -2   0 -16   40.21    1.48
   2   0  16   36.46    1.42
   3   0  16    0.26    0.36
  -3   0 -16    0.10    0.32
   3   0  16    0.19    0.38
  -3   0 -16    0.36    0.36
   4   0  16   14.78    1.01
   4   0  16   16.85    0.97
  -4   0 -16   16.86    0.81
  -4   0 -16   16.43    0.92
   5  -1 -16    0.66    0.38
   5  -1 -16    0.61    0.37
   5   1 -16    0.89    0.48
   5   1 -16    0.72    0.41
   4  -1 -16    1.01    0.35
  -4  -1  16    0.88    0.37
   4  -1 -16    1.16    0.37
  -4  -1  16    1.87    0.34
   4   1 -16    2.38    0.45
   4   1 -16    0.95    0.38
  -3  -1  16   14.21    0.75
   3  -1 -16   13.64    0.80
   3  -1 -16   13.94    0.89
  -3  -1  16   15.42    0.87
   3   1 -16   15.52    0.88
   2  -1 -16    9.73    0.76
   2  -1 -16    9.86    0.80
  -2  -1  16   10.34    0.71
  -2  -1  16    9.71    0.77
   2   1 -16    9.62    0.76
   2   1 -16   10.49    0.82
  -2   1  16    7.96    0.64
  -2   1  16    9.14    0.58
  -1  -1  16   83.02    2.24
   1  -1 -16   84.10    2.31
  -1  -1  16   79.15    2.26
   1  -1 -16   84.82    2.30
  -1   1  16   79.43    2.14
   1   1 -16   77.39    2.28
  -1   1  16   78.74    2.19
   1   1 -16   80.28    2.31
   0  -1  16    2.02    0.44
   0  -1 -16    1.81    0.43
   0  -1 -16    2.34    0.45
   0  -1  16    3.41    0.57
   0   1 -16    2.87    0.52
   0   1  16    4.45    0.58
   0   1  16    3.32    0.54
   0   1 -16    2.32    0.47
   1  -1  16   63.91    1.97
   1  -1  16   62.96    1.96
  -1  -1 -16   60.25    1.92
  -1  -1 -16   57.79    1.83
  -1   1 -16   60.18    1.85
   1   1  16   57.68    1.88
   1   1  16   58.18    1.90
  -1   1 -16   61.04    1.93
  -2  -1 -16    0.02    0.33
  -2  -1 -16    0.00    0.32
   2  -1  16    0.35    0.40
   2  -1  16    0.25    0.34
  -2   1 -16   -0.24    0.31
   2   1  16    0.26    0.33
  -2   1 -16    0.16    0.29
   2   1  16    0.21    0.44
  -3  -1 -16    0.57    0.35
  -3  -1 -16    0.81    0.37
   3  -1  16    0.87    0.45
   3  -1  16    0.51    0.38
   3   1  16    0.68    0.39
   3   1  16    0.47    0.37
  -3   1 -16    1.10    0.38
  -3   1 -16    1.00    0.35
  -4  -1 -16    0.04    0.33
   4  -1  16    0.39    0.39
   4  -1  16    0.18    0.37
  -4  -1 -16    0.31    0.35
   4   1  16   -0.22    0.36
   4   1  16    0.31    0.42
  -4   1 -16    0.34    0.26
  -4   1 -16    0.54    0.29
   4  -2 -16    6.05    0.62
  -4  -2  16    5.30    0.65
  -4  -2  16    6.75    0.69
   4  -2 -16    8.19    0.69
   4   2 -16    5.56    0.64
   4   2 -16    5.40    0.63
  -3  -2  16   10.10    0.77
   3  -2 -16   11.10    0.75
  -3  -2  16   10.43    0.73
   3  -2 -16   10.45    0.79
   3   2 -16   10.46    0.79
   3   2 -16   10.12    0.83
  -2  -2  16   12.79    0.82
   2  -2 -16   14.49    0.87
  -2  -2  16   14.04    0.87
   2  -2 -16   12.01    0.82
   2   2 -16   14.26    0.88
   2   2 -16   15.28    0.94
   1  -2 -16    3.38    0.52
  -1  -2  16    3.49    0.50
   1  -2 -16    4.30    0.54
  -1  -2  16    3.13    0.48
  -1   2  16    3.59    0.46
  -1   2  16    5.02    0.53
   1   2 -16    5.04    0.59
   1   2 -16    4.15    0.55
   0  -2 -16    1.10    0.35
   0  -2  16    0.95    0.43
   0  -2 -16    1.12    0.40
   0  -2  16    0.78    0.32
   0   2  16    0.94    0.37
   0   2  16    0.29    0.35
   0   2 -16    1.28    0.43
   0   2 -16    1.18    0.41
   1  -2  16    3.41    0.51
  -1  -2 -16    3.32    0.51
   1  -2  16    4.01    0.57
  -1  -2 -16    3.76    0.52
   1   2  16    3.96    0.58
   1   2  16    3.14    0.51
  -1   2 -16    4.28    0.55
  -1   2 -16    3.24    0.51
   2  -2  16   23.09    1.15
  -2  -2 -16   21.66    1.24
   2  -2  16   24.27    1.35
  -2  -2 -16   23.87    1.10
  -2   2 -16   22.35    1.01
  -2   2 -16   22.81    0.97
   3  -2  16   29.24    1.42
  -3  -2 -16   27.96    1.25
   3  -2  16   30.25    1.29
  -3  -2 -16   26.97    1.36
  -3   2 -16   27.63    1.01
   3   2  16   30.47    1.27
  -3   2 -16   28.14    0.97
  -4  -2 -16    5.56    0.64
   4  -2  16    7.54    0.76
   4  -2  16    7.65    0.81
  -4  -2 -16    7.57    0.73
   4   2  16    8.59    0.89
   4   2  16    7.46    0.79
  -4  -3  16    0.94    0.38
  -4  -3  16    0.82    0.42
   4  -3 -16    0.82    0.36
   4  -3 -16    1.03    0.37
   4   3 -16    1.04    0.47
   4   3 -16    1.02    0.43
   3  -3 -16    1.56    0.40
  -3  -3  16    1.01    0.35
   3  -3 -16    0.31    0.36
   3   3 -16    0.62    0.39
   3   3 -16    1.09    0.42
   2  -3 -16   25.46    1.09
  -2  -3  16   26.79    1.16
   2  -3 -16   25.89    1.07
  -2  -3  16   25.71    1.12
   2   3 -16   25.79    1.18
   1  -3 -16    6.09    0.64
  -1  -3  16    6.35    0.85
   1  -3 -16    5.89    0.62
   1   3 -16    6.21    0.68
  -1   3  16    6.26    0.51
  -1   3  16    5.33    0.53
   1   3 -16    7.33    0.76
   0  -3  16   21.34    1.11
   0  -3 -16   20.54    1.04
   0  -3 -16   19.14    0.96
   0   3 -16   19.35    1.07
   0   3  16   20.79    1.02
   0   3  16   21.48    0.96
   0   3 -16   19.74    1.00
  -1  -3 -16    1.18    0.48
   1  -3  16    0.59    0.40
  -1  -3 -16    0.65    0.37
   1  -3  16    0.27    0.35
  -1   3 -16    0.82    0.40
   1   3  16    0.60    0.38
   1   3  16    0.91    0.39
  -1   3 -16    0.43    0.33
   2  -3  16    6.46    0.70
   2  -3  16    6.35    0.71
  -2  -3 -16    5.15    0.61
   2   3  16    7.47    0.76
  -2   3 -16    5.53    0.58
  -2   3 -16    5.80    0.55
   2   3  16    6.17    0.70
   3  -3  16    0.48    0.40
  -3  -3 -16    0.60    0.39
   3  -3  16    0.16    0.36
  -3  -3 -16   -0.03    0.33
   3   3  16    0.33    0.35
   3   3  16    0.76    0.40
  -4  -3 -16    0.44    0.41
   4  -3  16    0.36    0.43
   4  -3  16   -0.26    0.41
  -4  -3 -16    0.29    0.38
   4   3  16    0.50    0.44
   4   3  16    0.34    0.44
   3  -4 -16   14.34    0.84
  -3  -4  16   17.22    1.00
   3  -4 -16   14.91    0.84
  -3  -4  16   17.69    0.96
   3   4 -16   15.14    1.02
   3   4 -16   17.59    1.01
  -2  -4  16    2.33    0.43
   2  -4 -16    2.21    0.40
   2  -4 -16    2.41    0.45
  -2  -4  16    2.41    0.50
   2   4 -16    2.15    0.46
   2   4 -16    2.56    0.52
  -1  -4  16    0.13    0.35
   1  -4 -16   -0.32    0.38
   1  -4 -16    0.04    0.28
   1   4 -16    0.32    0.36
   1   4 -16    0.23    0.31
   0  -4 -16    1.41    0.40
   0  -4 -16    1.35    0.48
   0  -4  16    1.34    0.41
   0  -4  16    1.71    0.40
   0   4 -16    1.75    0.49
   0   4  16    1.38    0.41
   0   4 -16    1.46    0.38
   0   4  16    1.73    0.38
  -1  -4 -16    9.26    0.73
   1  -4  16    8.34    0.74
   1  -4  16    8.86    0.83
  -1   4 -16    9.73    0.78
   1   4  16    8.29    0.74
  -1   4 -16    7.98    0.62
   1   4  16    9.39    0.78
   2  -4  16    0.98    0.42
  -2  -4 -16    0.74    0.39
   2  -4  16    1.42    0.41
   2   4  16    0.11    0.37
   2   4  16    0.83    0.39
   3  -4  16   10.00    0.86
  -3  -4 -16   10.07    0.87
  -3  -4 -16    9.16    0.81
   3  -4  16    9.29    0.85
   3   4  16    9.33    0.86
   3   4  16   10.50    0.95
  -3  -5  16    0.61    0.43
   3  -5 -16    0.71    0.36
   3   5 -16    1.20    0.50
   3   5 -16    0.98    0.45
  -2  -5  16   13.24    1.16
  -2  -5  16   12.45    0.90
   2  -5 -16   10.06    1.09
   2  -5 -16   12.03    0.78
   2   5 -16   12.11    0.87
   2   5 -16   11.58    0.96
  -1  -5  16    4.85    0.62
   1  -5 -16    4.84    0.56
   1  -5 -16    4.16    0.51
  -1  -5  16    4.06    0.59
   1   5 -16    4.50    0.62
   1   5 -16    5.37    0.62
   0  -5  16   16.53    0.95
   0  -5 -16   17.38    0.92
   0  -5  16   15.76    0.99
   0   5  16   15.94    0.77
   0   5  16   16.34    0.89
   0   5 -16   16.01    1.01
   0   5 -16   15.98    0.85
   1  -5  16    0.39    0.34
  -1  -5 -16    1.03    0.39
  -1  -5 -16    1.04    0.47
   1  -5  16    0.37    0.39
  -1   5 -16    0.72    0.39
  -1   5 -16    0.93    0.31
   1   5  16    0.42    0.40
   1   5  16    0.84    0.38
   2  -5  16    4.11    0.55
   2  -5  16    4.86    0.64
  -2  -5 -16    3.52    0.52
   2   5  16    3.47    0.58
   2   5  16    4.49    0.60
  -3  -5 -16    0.78    0.64
   3  -5  16    0.43    0.43
   3  -5  16   -0.48    0.38
  -3  -5 -16    0.20    0.41
   3   5  16    0.69    0.49
  -1  -6  16    1.65    0.83
  -1  -6  16    1.39    0.47
   1  -6 -16    1.35    0.38
   1   6 -16    2.38    0.46
   1   6 -16    2.17    0.60
   0  -6 -16    0.88    0.39
   0  -6  16    1.32    0.46
   0  -6  16    0.81    0.42
   0  -6 -16    0.94    0.48
   0   6 -16    0.88    0.36
  -1  -6 -16    1.86    0.46
   1  -6  16    0.62    0.41
  -1  -6 -16    1.50    0.52
   1  -6  16    2.05    0.57
   1   6  16    1.49    0.45
   4   0 -17   -0.22    0.32
   4   0 -17    0.10    0.36
  -3   0  17   10.09    0.69
  -3   0  17   10.77    0.60
   3   0 -17    9.01    0.73
   3   0 -17    9.62    0.81
  -2   0  17   -0.18    0.25
  -2   0  17   -0.02    0.30
   2   0 -17   -0.31    0.30
   2   0 -17   -0.07    0.33
   1   0 -17   23.00    1.14
  -1   0  17   23.75    1.10
  -1   0  17   21.17    1.02
   1   0 -17   22.41    1.14
   0   0 -17   -0.14    0.29
   0   0  17   -0.03    0.31
   0   0 -17   -0.64    0.29
   0   0  17    0.46    0.33
  -1   0 -17    4.09    0.56
   1   0  17    3.21    0.51
  -1   0 -17    4.47    0.62
   1   0  17    3.32    0.53
  -2   0 -17   -0.17    0.28
  -2   0 -17    0.02    0.33
   2   0  17    0.66    0.35
   2   0  17   -0.33    0.32
  -3   0 -17   15.91    0.95
   3   0  17   15.03    0.97
   3   0  17   12.90    0.96
  -4   0 -17   -0.09    0.32
   4   0  17    0.11    0.40
  -4   0 -17    0.19    0.32
   4   0  17    0.40    0.40
  -4  -1  17    0.16    0.31
   4  -1 -17    0.54    0.36
   4  -1 -17    0.30    0.34
  -4  -1  17    0.07    0.26
   4   1 -17   -0.49    0.33
   4   1 -17    0.02    0.37
  -3  -1  17    0.38    0.29
  -3  -1  17    0.22    0.35
   3  -1 -17    0.04    0.31
   3  -1 -17    0.52    0.35
   3   1 -17   -0.25    0.30
   3   1 -17    0.01    0.35
  -2  -1  17   16.61    0.94
   2  -1 -17   17.10    0.95
  -2  -1  17   18.07    0.91
   2  -1 -17   16.75    0.98
  -2   1  17   17.67    0.77
   2   1 -17   16.67    1.10
   2   1 -17   16.97    1.01
  -2   1  17   17.73    0.85
   1  -1 -17   14.66    0.94
  -1  -1  17   15.64    0.93
  -1  -1  17   15.96    0.96
   1  -1 -17   16.92    0.97
   1   1 -17   15.36    0.97
   1   1 -17   17.03    1.00
  -1   1  17   16.37    0.93
  -1   1  17   17.67    0.89
   0  -1  17   44.29    1.59
   0  -1 -17   41.74    1.56
   0  -1  17   47.42    1.62
   0  -1 -17   41.32    1.56
   0   1 -17   42.79    1.57
   0   1 -17   43.36    1.62
   0   1  17   45.25    1.56
   0   1  17   45.36    1.59
  -1  -1 -17    1.49    0.40
   1  -1  17    2.02    0.47
   1  -1  17    2.03    0.48
  -1  -1 -17    1.54    0.44
   1   1  17    1.45    0.45
  -1   1 -17    2.37    0.48
  -1   1 -17    1.62    0.43
   1   1  17    1.83    0.44
   2  -1  17   21.27    1.13
  -2  -1 -17   22.13    1.11
  -2  -1 -17   22.39    1.08
   2  -1  17   23.27    1.16
  -2   1 -17   22.27    1.11
   2   1  17   20.86    1.13
   2   1  17   22.86    1.34
  -2   1 -17   21.35    1.00
  -3  -1 -17   -0.11    0.34
   3  -1  17    0.18    0.38
  -3  -1 -17    0.02    0.34
   3  -1  17   -0.34    0.34
   3   1  17    0.31    0.38
   3   1  17    0.52    0.40
  -3   1 -17   -0.14    0.32
  -4  -1 -17    0.09    0.39
   4  -1  17    0.13    0.41
   4  -1  17   -0.17    0.38
   4   1  17    0.28    0.40
  -4   1 -17    0.36    0.30
   4   1  17    0.48    0.44
  -4   1 -17   -0.17    0.26
   4  -2 -17    3.82    0.49
  -4  -2  17    3.14    0.48
  -4  -2  17    4.60    0.58
   4  -2 -17    3.50    0.51
   4   2 -17    4.05    0.58
   4   2 -17    3.59    0.54
   3  -2 -17    7.31    0.70
   3  -2 -17    8.60    0.74
  -3  -2  17    9.61    0.76
   3   2 -17    8.46    0.82
   3   2 -17    8.79    0.79
  -2  -2  17    7.54    0.70
   2  -2 -17    6.73    0.69
  -2  -2  17    7.21    0.71
   2  -2 -17    6.61    0.71
   2   2 -17    7.92    0.76
   2   2 -17    7.98    0.77
  -1  -2  17   16.68    0.95
   1  -2 -17   17.03    0.96
  -1  -2  17   14.02    1.15
   1  -2 -17   16.44    0.94
   1   2 -17   15.86    0.98
   1   2 -17   16.75    1.27
  -1   2  17   17.10    0.84
  -1   2  17   16.45    0.84
   0  -2  17    2.52    0.45
   0  -2 -17    3.55    0.55
   0  -2 -17    3.29    0.52
   0  -2  17    2.49    0.47
   0   2  17    3.14    0.51
   0   2 -17    2.50    0.50
   0   2 -17    2.18    0.51
   0   2  17    3.53    0.54
  -1  -2 -17    1.26    0.43
   1  -2  17    1.75    0.78
  -1  -2 -17    1.10    0.37
   1  -2  17    1.89    0.48
   1   2  17    2.49    0.50
   1   2  17    2.26    0.48
  -1   2 -17    1.01    0.41
  -1   2 -17    1.02    0.40
  -2  -2 -17    1.12    0.40
   2  -2  17    0.52    0.37
   2  -2  17    1.71    0.47
  -2  -2 -17    1.09    0.39
  -2   2 -17    1.37    0.37
   2   2  17    1.08    0.43
  -2   2 -17    0.92    0.35
   3  -2  17    8.01    0.81
   3  -2  17    7.25    0.79
  -3  -2 -17    9.92    0.81
   3   2  17    8.45    0.80
  -3   2 -17    7.82    0.62
  -4  -2 -17    3.31    0.54
  -4  -2 -17    4.49    0.61
   4  -2  17    3.08    0.56
   4  -2  17    4.09    0.59
   4   2  17    2.06    0.50
   4   2  17    3.46    0.70
  -4  -3  17   -0.03    0.36
   4  -3 -17    1.09    0.38
  -4  -3  17    0.39    0.44
   4   3 -17   -0.04    0.38
   4   3 -17    0.65    0.45
   3  -3 -17    2.53    0.47
  -3  -3  17    3.78    0.52
   3  -3 -17    2.53    0.45
  -3  -3  17    1.29    0.45
   3   3 -17    2.65    0.52
   3   3 -17    1.12    0.44
   2  -3 -17    2.98    0.49
   2  -3 -17    2.21    0.45
  -2  -3  17    2.59    0.51
  -2  -3  17    2.18    0.53
   2   3 -17    2.13    0.50
   1  -3 -17   37.02    1.40
   1  -3 -17   39.06    1.37
  -1  -3  17   38.10    1.45
   1   3 -17   36.66    1.46
  -1   3  17   36.15    1.20
  -1   3  17   38.06    1.16
   1   3 -17   38.91    1.48
   0  -3  17   18.70    1.00
   0  -3 -17   20.54    0.99
   0  -3 -17   19.68    1.06
   0   3  17   20.70    1.02
   0   3 -17   19.91    1.04
   0   3  17   19.49    0.96
   1  -3  17   22.01    1.08
  -1  -3 -17   23.26    1.08
  -1  -3 -17   23.45    1.13
  -1   3 -17   25.01    1.07
   1   3  17   23.58    1.12
   1   3  17   22.99    1.12
  -1   3 -17   22.54    1.09
   2  -3  17    0.82    0.42
   2  -3  17    0.05    0.35
  -2  -3 -17    1.15    0.41
  -2   3 -17    0.44    0.31
   2   3  17    0.48    0.39
  -2   3 -17    0.61    0.29
  -3  -3 -17    4.23    0.60
   3  -3  17    3.98    0.61
  -3  -3 -17    3.47    0.52
   3  -3  17    3.96    0.60
   3   3  17    3.92    0.57
   3   3  17    4.30    0.64
  -4  -3 -17    0.31    0.38
   4  -3  17   -0.02    0.41
  -4  -3 -17    0.43    0.70
   4  -3  17   -0.70    0.43
   4   3  17   -0.51    0.44
   4   3  17    0.29    0.43
   3  -4 -17    2.02    0.47
  -3  -4  17    2.20    0.47
   3  -4 -17    3.08    0.48
  -3  -4  17    3.19    0.56
   3   4 -17    3.74    0.67
   3   4 -17    2.89    0.50
   2  -4 -17   13.89    0.80
  -2  -4  17   12.98    0.91
  -2  -4  17   12.42    0.90
   2   4 -17   12.13    0.90
   2   4 -17   14.50    0.96
   1  -4 -17    1.81    0.46
  -1  -4  17    2.49    0.53
   1  -4 -17    2.46    0.45
   1   4 -17    1.69    0.44
   0  -4 -17    0.37    0.34
   0  -4 -17   -0.12    0.30
   0  -4  17    0.58    0.35
   0  -4  17    0.12    0.31
   0   4  17   -0.06    0.31
   0   4 -17   -0.18    0.36
   0   4  17    0.27    0.36
   1  -4  17    3.07    0.56
   1  -4  17    2.13    0.45
  -1  -4 -17    2.23    0.42
  -1   4 -17    3.63    0.47
   1   4  17    3.54    0.53
   1   4  17    3.19    0.52
  -1   4 -17    3.21    0.52
  -2  -4 -17    3.80    0.56
   2  -4  17    2.93    0.55
   2  -4  17    3.38    0.55
  -2  -4 -17    3.58    0.53
  -2   4 -17    3.28    0.38
   2   4  17    3.90    0.58
  -2   4 -17    3.46    0.43
   2   4  17    3.36    0.55
  -3  -4 -17   -0.19    0.42
  -3  -4 -17    0.47    0.39
   3  -4  17    0.21    0.42
   3  -4  17   -0.19    0.40
   3   4  17   -0.21    0.48
   3   4  17   -0.24    0.39
  -2  -5  17    0.56    0.39
   2  -5 -17    0.50    0.32
   2  -5 -17    0.80    0.37
  -2  -5  17    0.80    0.42
   2   5 -17    1.41    0.59
   2   5 -17    0.15    0.40
   1  -5 -17   15.05    0.83
  -1  -5  17   15.78    0.98
  -1  -5  17   14.76    0.97
   1  -5 -17   14.98    0.90
   1   5 -17   15.02    1.04
   1   5 -17   15.37    0.92
   0  -5  17    0.62    0.38
   0  -5  17    0.96    0.41
   0  -5 -17    1.29    0.43
   0  -5 -17    1.26    0.40
   0   5 -17    0.58    0.43
   0   5  17    0.35    0.38
   0   5  17    0.19    0.33
   0   5 -17    0.99    0.36
   1  -5  17   12.31    0.92
  -1  -5 -17   11.89    0.82
   1  -5  17   11.61    0.86
  -1  -5 -17   14.43    0.99
   1   5  17   12.92    0.87
   1   5  17   12.20    1.01
  -1   5 -17   11.38    0.69
  -1   5 -17   11.20    0.83
   2  -5  17   -0.23    0.39
   2  -5  17    0.56    0.38
  -2  -5 -17   -0.51    0.41
  -2  -5 -17   -0.21    0.33
   2   5  17   -0.15    0.41
   2   5  17    0.28    0.42
  -1  -6  17    0.41    0.42
  -1  -6  17    0.51    0.46
   1  -6 -17    0.56    0.34
   1   6 -17    0.10    0.36
   1   6 -17   -0.19    0.48
   0  -6  17    1.92    0.50
   0  -6 -17    1.86    0.67
   0  -6  17    2.43    0.51
   0  -6 -17    1.80    0.44
   0   6 -17    1.69    0.39
   1  -6  17    0.53    0.42
  -1  -6 -17    0.71    0.53
   1  -6  17    1.28    0.45
  -1   6 -17    1.20    0.32
   1   6  17    0.95    0.46
  -1   6 -17    0.16    0.40
   4   0 -18   15.68    0.92
   4   0 -18   15.09    0.95
   3   0 -18   -0.10    0.33
  -3   0  18   -0.14    0.29
  -3   0  18   -0.27    0.23
   3   0 -18    0.01    0.37
  -2   0  18   36.81    1.26
   2   0 -18   37.45    1.47
  -2   0  18   38.04    1.37
   1   0 -18   -0.28    0.33
  -1   0  18   -0.05    0.32
  -1   0  18   -0.42    0.29
   1   0 -18   -0.33    0.32
   0   0  18   12.09    0.87
   0   0  18   12.13    0.88
   0   0 -18   12.08    0.89
   0   0 -18   13.10    0.89
  -1   0 -18    0.17    0.32
  -1   0 -18   -0.15    0.32
   1   0  18   -0.13    0.34
   1   0  18    0.18    0.35
   2   0  18    2.87    0.52
   2   0  18    2.50    0.62
  -2   0 -18    2.86    0.52
   3   0  18   -0.34    0.38
  -3   0 -18   -0.36    0.30
   3   0  18    0.17    0.38
   4   0  18    4.28    0.65
  -4   0 -18    3.70    0.48
   4   0  18    3.26    0.57
  -4  -1  18   -0.03    0.28
   4  -1 -18   -0.28    0.35
  -4  -1  18    0.14    0.32
   4  -1 -18    0.29    0.35
   4   1 -18   -0.25    0.34
   4   1 -18    0.09    0.38
  -3  -1  18   -0.21    0.31
   3  -1 -18   -0.08    0.36
   3  -1 -18    0.28    0.36
  -3  -1  18    0.83    0.32
   3   1 -18    0.84    0.40
   3   1 -18    0.31    0.34
   2  -1 -18    0.00    0.34
  -2  -1  18    0.80    0.38
  -2  -1  18    1.34    0.38
   2  -1 -18    0.57    0.37
  -2   1  18    0.79    0.29
  -2   1  18    0.51    0.34
   2   1 -18    0.60    0.37
  -1  -1  18   16.24    0.99
  -1  -1  18   16.67    0.96
   1  -1 -18   19.86    1.04
   1  -1 -18   18.31    1.02
  -1   1  18   18.41    0.98
  -1   1  18   17.37    0.91
   1   1 -18   17.71    1.04
   0  -1  18   11.47    0.85
   0  -1  18   11.96    0.88
   0  -1 -18   11.86    0.87
   0  -1 -18   11.97    0.90
   0   1  18   10.72    0.83
   0   1  18   10.91    0.86
   0   1 -18   12.65    0.93
   0   1 -18   11.18    0.89
   1  -1  18   48.70    1.71
  -1  -1 -18   48.65    1.71
  -1   1 -18   48.28    1.65
   1   1  18   46.75    1.70
  -1   1 -18   49.71    1.73
   1   1  18   45.90    2.52
   2  -1  18    2.78    0.52
   2  -1  18    3.81    0.76
  -2  -1 -18    4.63    0.56
  -2   1 -18    4.21    0.55
   2   1  18    2.97    0.55
  -2   1 -18    3.42    0.56
  -3  -1 -18   13.72    0.88
  -3  -1 -18   14.28    0.93
   3  -1  18   13.25    0.98
   3  -1  18   14.04    0.98
   3   1  18   15.93    0.98
   3   1  18   16.64    1.05
  -3   1 -18   13.99    0.88
  -4  -1 -18    1.12    0.44
   4  -1  18   -0.09    0.40
   4  -1  18    0.78    0.43
  -4   1 -18    0.91    0.32
   4   1  18    1.14    0.47
  -4   1 -18    0.20    0.33
   4   1  18    0.21    0.50
  -4  -2  18    5.00    0.53
   4  -2 -18    5.35    0.58
   4  -2 -18    4.28    0.54
  -4  -2  18    5.30    0.62
   4   2 -18    6.73    0.72
   4   2 -18    4.98    0.64
  -3  -2  18   11.87    0.80
   3  -2 -18   11.44    0.84
  -3  -2  18   11.34    0.83
   3   2 -18   11.12    0.86
   3   2 -18   11.37    0.91
  -2  -2  18   15.18    0.92
   2  -2 -18   17.48    0.98
   2  -2 -18   16.84    0.96
   2   2 -18   16.68    1.01
   2   2 -18   16.86    1.01
   1  -2 -18   12.85    0.89
  -1  -2  18   12.92    0.87
   1  -2 -18   13.98    0.90
  -1  -2  18   11.36    0.83
   1   2 -18   10.36    0.82
   1   2 -18   12.94    1.03
  -1   2  18   11.37    0.76
  -1   2  18   12.76    0.77
   0  -2  18   16.34    0.97
   0  -2 -18   18.16    0.99
   0  -2  18   18.00    1.04
   0   2 -18   15.98    0.99
   0   2  18   17.28    0.98
   0   2  18   15.91    0.95
  -1  -2 -18    3.40    0.54
   1  -2  18    4.77    0.65
   1  -2  18    5.92    0.70
   1   2  18    5.54    0.70
  -1   2 -18    4.05    0.58
   1   2  18    4.18    0.59
  -1   2 -18    4.10    0.60
   2  -2  18    1.09    0.42
   2  -2  18    0.76    0.41
  -2  -2 -18   -0.01    0.31
  -2  -2 -18    0.84    0.34
   2   2  18    0.06    0.31
  -2   2 -18   -0.05    0.31
  -2   2 -18    0.55    0.34
   2   2  18    0.59    0.41
  -3  -2 -18    0.98    0.40
  -3  -2 -18    0.62    0.40
   3  -2  18    1.41    0.47
   3  -2  18    0.52    0.43
  -3   2 -18    0.78    0.32
   3   2  18    0.92    0.57
   3   2  18    0.23    0.39
  -4  -2 -18    2.22    0.51
   4  -2  18    2.78    0.54
   4  -2  18    2.36    0.52
  -4  -2 -18    3.25    0.56
   4   2  18    2.74    0.55
   4   2  18    1.53    0.52
   4  -3 -18    0.03    0.43
  -4  -3  18   -0.08    0.35
   4  -3 -18   -0.18    0.37
  -4  -3  18    0.71    0.46
   4   3 -18    0.28    0.46
   4   3 -18    0.53    0.51
   3  -3 -18    0.45    0.36
  -3  -3  18    0.21    0.34
  -3  -3  18    0.75    0.37
   3   3 -18    0.48    0.36
   3   3 -18    0.01    0.38
  -2  -3  18    0.85    0.38
   2  -3 -18    0.46    0.36
   2  -3 -18   -0.04    0.40
   2   3 -18    0.52    0.38
  -1  -3  18    2.87    0.52
   1  -3 -18    2.84    0.58
   1  -3 -18    3.34    0.49
   1   3 -18    3.62    0.57
   1   3 -18    3.05    0.51
  -1   3  18    4.09    0.47
  -1   3  18    3.73    0.44
   0  -3 -18   21.11    1.11
   0  -3  18   21.32    1.14
   0  -3 -18   21.08    1.58
   0  -3  18   20.95    1.08
   0   3  18   22.28    1.04
   0   3 -18   22.91    1.17
   0   3 -18   22.73    1.12
   0   3  18   21.56    1.07
  -1  -3 -18   13.77    0.93
  -1  -3 -18   13.34    0.86
   1  -3  18   12.11    0.89
   1  -3  18   13.97    0.97
   1   3  18   13.51    0.94
  -1   3 -18   15.05    0.94
  -1   3 -18   13.71    0.87
  -2  -3 -18   22.40    1.11
   2  -3  18   23.33    1.17
   2  -3  18   23.62    1.19
  -2   3 -18   22.97    0.99
  -2   3 -18   23.89    1.00
   2   3  18   22.76    1.16
   3  -3  18    2.71    0.54
  -3  -3 -18    2.60    0.54
   3  -3  18    2.66    0.53
  -3  -3 -18    2.75    0.54
   3   3  18    2.59    0.50
   3   3  18    2.77    0.58
  -4  -3 -18    2.87    0.54
  -4  -3 -18    2.84    0.57
   4  -3  18    2.49    0.56
   4  -3  18    3.89    0.62
   4   3  18    3.05    0.56
   3  -4 -18   11.26    1.22
   3  -4 -18   10.46    0.82
  -3  -4  18    9.74    1.09
  -3  -4  18   10.81    0.84
   3   4 -18   10.33    0.92
   3   4 -18    7.59    0.82
   2  -4 -18    0.98    0.43
  -2  -4  18    0.78    0.38
  -2  -4  18    1.48    0.45
   2   4 -18    1.14    0.46
   2   4 -18    1.44    0.43
   1  -4 -18   17.13    0.90
  -1  -4  18   16.59    0.99
   1  -4 -18   16.85    0.96
   1   4 -18   14.78    0.96
   1   4 -18   13.39    1.22
   0  -4  18    1.63    0.47
   0  -4  18    2.03    0.45
   0  -4 -18    0.90    0.43
   0  -4 -18    1.50    0.39
   0   4  18    1.64    0.42
   0   4 -18    1.85    0.50
   0   4  18    1.62    0.42
   0   4 -18    2.45    0.45
   1  -4  18    0.82    0.37
   1  -4  18    0.92    0.47
  -1  -4 -18    0.43    0.31
  -1  -4 -18    0.83    0.43
  -1   4 -18    1.05    0.34
   1   4  18    1.06    0.41
   1   4  18    0.50    0.38
   2  -4  18    0.30    0.39
   2  -4  18    0.42    0.40
  -2  -4 -18    0.79    0.38
  -2  -4 -18    1.26    0.43
   2   4  18    0.38    0.44
  -2   4 -18    0.41    0.30
   2   4  18    0.50    0.41
  -2   4 -18    0.45    0.26
   3  -4  18    5.06    0.66
   3  -4  18    4.30    0.62
  -3  -4 -18    4.74    0.64
  -3  -4 -18    4.59    0.61
   3   4  18    3.91    0.61
   3   4  18    4.20    0.72
   2  -5 -18   -0.20    0.32
  -2  -5  18    0.34    0.41
  -2  -5  18    0.71    0.40
   2  -5 -18    1.09    0.39
   2   5 -18   -0.12    0.45
   2   5 -18    0.54    0.38
   1  -5 -18    0.94    0.37
   1  -5 -18    0.63    0.39
  -1  -5  18    0.59    0.42
   1   5 -18    0.29    0.35
   1   5 -18    0.28    0.45
   0  -5  18   12.55    0.93
   0  -5 -18   11.81    0.89
   0  -5 -18   11.45    0.79
   0  -5  18   12.66    0.90
   0   5  18   11.38    0.73
   0   5 -18   11.30    0.78
   0   5  18   10.53    0.79
   1  -5  18    0.74    0.40
   1  -5  18    1.19    0.44
  -1  -5 -18    1.06    0.39
  -1  -5 -18    1.12    0.48
  -1   5 -18    0.45    0.32
   1   5  18    1.17    0.44
  -1   5 -18    1.14    0.41
  -2  -5 -18    6.74    1.15
   2  -5  18    7.42    0.81
  -2  -5 -18    7.08    0.79
   2  -5  18    7.76    0.83
   2   5  18    4.98    0.67
   2   5  18    7.97    0.83
   0  -6 -18    1.27    0.56
   0  -6 -18    0.86    0.39
   0  -6  18    0.29    0.45
   0  -6  18    0.87    0.44
   0   6 -18    0.86    0.39
   0   6 -18    1.30    0.50
   4   0 -19   -0.21    0.40
   4   0 -19    0.30    0.37
  -3   0  19   24.93    0.93
   3   0 -19   26.12    1.15
   3   0 -19   23.14    1.20
  -3   0  19   26.06    1.05
   2   0 -19    0.07    0.36
   2   0 -19   -0.12    0.40
  -2   0  19    0.03    0.30
  -2   0  19    0.44    0.36
   1   0 -19   33.27    1.56
  -1   0  19   33.36    1.31
   1   0 -19   32.80    1.41
  -1   0  19   31.82    1.31
   0   0  19   -0.15    0.33
   0   0  19    0.38    0.34
   0   0 -19    0.31    0.36
  -1   0 -19    3.42    0.54
   1   0  19    3.94    0.55
  -1   0 -19    3.36    0.52
   1   0  19    3.52    0.54
  -2   0 -19   -0.27    0.31
   2   0  19   -0.11    0.33
  -2   0 -19   -0.32    0.34
   2   0  19   -0.20    0.34
   3   0  19    3.09    0.54
  -3   0 -19    2.86    0.53
   3   0  19    2.81    0.54
  -4   0 -19    0.14    0.36
   4   0  19   -0.02    0.41
   4   0  19    0.66    0.55
  -4   0 -19    0.15    0.36
   4  -1 -19   11.17    0.81
   4  -1 -19   10.44    0.86
  -4  -1  19   10.83    0.77
  -4  -1  19   10.54    0.67
   4   1 -19   10.38    0.84
   4   1 -19    9.47    0.87
  -3  -1  19   -0.08    0.31
   3  -1 -19    0.53    0.37
   3  -1 -19    0.31    0.39
  -3  -1  19    0.60    0.48
   3   1 -19    0.35    0.39
   3   1 -19    0.34    0.41
  -2  -1  19   -0.32    0.28
   2  -1 -19    0.21    0.36
   2  -1 -19    0.25    0.35
  -2   1  19    0.63    0.30
   2   1 -19    0.93    0.43
  -2   1  19    0.05    0.30
   2   1 -19    0.03    0.36
  -1  -1  19   11.15    0.84
   1  -1 -19   11.38    0.86
   1   1 -19   11.95    0.91
  -1   1  19   10.99    0.82
   1   1 -19   11.11    0.89
  -1   1  19   11.25    0.78
   0  -1 -19   44.53    1.60
   0  -1  19   38.30    1.58
   0  -1 -19   41.54    1.65
   0  -1  19   42.89    1.58
   0   1 -19   42.18    1.61
   0   1  19   39.94    1.53
   0   1 -19   38.90    1.62
   0   1  19   41.66    1.51
  -1  -1 -19   15.67    1.13
   1  -1  19   15.23    0.98
  -1  -1 -19   11.12    0.84
   1  -1  19   15.90    1.29
   1   1  19   13.16    0.97
  -1   1 -19   11.88    1.16
   1   1  19   14.64    0.97
  -1   1 -19   14.74    0.98
   2  -1  19   35.27    1.46
  -2  -1 -19   35.52    1.37
   2  -1  19   36.91    1.49
  -2  -1 -19   37.01    1.47
  -2   1 -19   35.87    1.43
   2   1  19   34.48    1.43
  -2   1 -19   31.43    1.45
  -3  -1 -19   -0.15    0.34
   3  -1  19    0.07    0.39
   3  -1  19    0.11    0.39
  -3   1 -19    0.44    0.38
   3   1  19    0.46    0.44
   3   1  19    0.97    0.44
  -4  -1 -19    2.85    0.49
   4  -1  19    2.60    0.55
   4  -1  19    2.55    0.54
  -4  -1 -19    2.26    0.50
   4   1  19    2.93    0.56
   4   1  19    1.52    0.54
  -4   1 -19    1.55    0.39
  -4   1 -19    1.53    0.39
   4  -2 -19    3.62    0.54
  -4  -2  19    4.19    0.51
   4  -2 -19    3.98    0.55
   4   2 -19    4.44    0.62
   4   2 -19    4.80    0.68
  -3  -2  19    6.76    0.70
   3  -2 -19    6.41    0.67
  -3  -2  19    6.13    0.68
   3   2 -19    7.09    0.76
   3   2 -19    5.72    0.69
  -2  -2  19   10.67    0.80
   2  -2 -19    9.32    0.83
  -2  -2  19    9.97    0.80
   2  -2 -19   11.64    0.86
   2   2 -19   10.10    0.86
   1  -2 -19   12.66    0.91
  -1  -2  19   12.21    0.87
   1  -2 -19   11.66    0.86
  -1  -2  19   11.03    0.85
  -1   2  19   10.53    0.74
  -1   2  19    9.75    0.75
   1   2 -19   12.06    0.91
   0  -2 -19   28.38    1.27
   0  -2 -19   27.92    1.38
   0  -2  19   25.56    1.39
   0   2 -19   27.98    1.28
   0   2 -19   25.48    1.27
   0   2  19   26.62    1.18
   0   2  19   25.03    1.18
  -1  -2 -19    8.23    0.77
   1  -2  19    8.70    0.82
   1  -2  19    5.91    0.66
  -1   2 -19    7.66    0.89
  -1   2 -19    7.82    0.78
   1   2  19    8.41    0.81
  -2  -2 -19    1.32    0.42
   2  -2  19    1.27    0.47
   2  -2  19    1.38    0.47
   2   2  19    1.53    0.49
  -2   2 -19    1.19    0.40
  -2   2 -19    1.75    0.45
   3  -2  19    0.82    0.45
   3  -2  19    0.14    0.40
  -3  -2 -19    0.28    0.39
  -3  -2 -19    0.42    0.38
   3   2  19    0.15    0.39
  -3   2 -19    0.53    0.31
   3   2  19    0.07    0.38
   4  -2  19    1.81    0.50
  -4  -2 -19    1.97    0.52
  -4  -2 -19    2.64    0.53
   4  -2  19    2.56    0.56
   4   2  19    1.88    0.66
   4   2  19    2.07    0.58
  -3  -3  19    0.38    0.39
   3  -3 -19    0.46    0.39
  -3  -3  19    0.38    0.36
   3   3 -19   -0.41    0.39
   3   3 -19   -0.49    0.35
  -2  -3  19    0.06    0.33
   2  -3 -19   -0.39    0.38
   2  -3 -19    0.72    0.39
  -2  -3  19    0.43    0.36
   2   3 -19   -0.63    0.30
  -1  -3  19    7.22    0.76
   1  -3 -19    7.09    1.10
   1  -3 -19    8.82    0.80
   1   3 -19    8.29    0.80
  -1   3  19    7.18    0.61
  -1   3  19    7.47    0.63
   0  -3 -19    5.31    0.68
   0  -3  19    5.73    0.71
   0  -3 -19    5.03    0.58
   0   3 -19    6.06    0.70
   0   3  19    5.39    0.62
   0   3  19    5.31    0.61
   0   3 -19    6.30    0.67
  -1  -3 -19   24.80    1.21
  -1  -3 -19   24.92    1.15
   1  -3  19   24.75    1.18
   1  -3  19   24.25    1.23
  -1   3 -19   22.17    1.09
   1   3  19   24.06    1.19
  -1   3 -19   25.38    1.17
   1   3  19   25.31    1.21
  -2  -3 -19    4.53    0.59
   2  -3  19    5.83    0.66
   2  -3  19    5.95    0.73
  -2   3 -19    4.37    0.53
   2   3  19    4.66    0.69
   2   3  19    5.39    0.70
  -2   3 -19    4.85    0.56
  -3  -3 -19    3.51    0.58
   3  -3  19    4.37    0.62
   3  -3  19    4.20    0.63
  -3  -3 -19    3.77    0.60
   3   3  19    4.01    0.65
  -3  -4  19    0.40    0.39
   3  -4 -19    0.33    0.40
   3  -4 -19    0.34    0.41
  -3  -4  19    0.39    0.44
   3   4 -19   -0.22    0.47
   2  -4 -19   14.08    0.88
  -2  -4  19   17.19    1.03
   2  -4 -19   15.33    0.92
  -2  -4  19   16.72    1.03
   2   4 -19   16.11    1.01
   2   4 -19   15.09    1.04
   1  -4 -19    1.46    0.40
   1  -4 -19    2.12    0.50
  -1  -4  19    2.05    0.48
  -1  -4  19    0.94    0.38
   1   4 -19    1.43    0.45
   1   4 -19    2.24    0.52
   0  -4  19   12.74    0.91
   0  -4 -19   13.66    0.87
   0  -4  19   13.62    0.97
   0  -4 -19   14.15    0.93
   0   4  19   14.10    0.89
   0   4 -19   14.80    0.92
   0   4  19   15.25    0.86
   1  -4  19    1.27    0.44
   1  -4  19    1.37    0.48
  -1  -4 -19    0.78    0.36
  -1  -4 -19    0.64    0.43
  -1   4 -19    1.28    0.45
  -1   4 -19    1.32    0.44
   1   4  19    0.68    0.41
  -2  -4 -19   -0.12    0.33
   2  -4  19    0.23    0.39
   2  -4  19   -0.57    0.37
  -2  -4 -19   -0.51    0.41
   2   4  19   -0.17    0.39
   2   4  19    0.08    0.41
  -2   4 -19    0.03    0.25
  -2   4 -19    0.39    0.34
  -3  -4 -19    0.50    0.48
   3  -4  19    0.43    0.42
   3  -4  19    0.01    0.45
  -3  -4 -19    0.56    0.51
   3   4  19    0.17    0.49
   2  -5 -19    1.71    0.48
  -2  -5  19    1.87    0.51
  -2  -5  19    1.67    0.56
   2  -5 -19    1.50    0.40
   2   5 -19    2.13    0.51
   2   5 -19    0.79    0.52
  -1  -5  19    1.96    0.52
   1  -5 -19    0.66    0.43
   1  -5 -19    0.48    0.39
  -1  -5  19    1.83    0.51
   1   5 -19    1.11    0.43
   1   5 -19    1.15    0.56
   0  -5  19    5.65    1.10
   0  -5 -19    3.99    0.56
   0  -5  19    3.33    0.55
   0  -5 -19    3.30    0.57
   0   5 -19    3.79    0.53
   0   5 -19    3.13    0.59
   0   5  19    2.99    0.45
   0   5  19    3.48    0.51
  -1  -5 -19   11.36    0.84
  -1  -5 -19   10.62    1.16
   1  -5  19    9.40    0.86
   1  -5  19    9.33    0.87
   1   5  19    9.91    0.87
  -1   5 -19   10.83    0.85
  -1   5 -19    9.20    0.90
   1   5  19    8.93    0.84
  -2  -5 -19   -0.53    0.49
   2  -5  19   -0.96    0.38
  -2  -5 -19    0.49    0.38
   2   5  19    0.37    0.45
   4   0 -20    2.33    0.54
   4   0 -20    3.33    0.55
   3   0 -20   -0.25    0.35
  -3   0  20    0.67    0.35
   3   0 -20   -0.07    0.40
  -3   0  20   -0.15    0.26
  -2   0  20   50.48    1.59
   2   0 -20   53.24    1.80
  -2   0  20   53.40    1.70
   2   0 -20   52.80    1.81
   1   0 -20   -0.22    0.35
  -1   0  20    0.02    0.34
  -1   0  20   -0.03    0.33
   0   0  20   36.70    1.46
   0   0  20   38.26    1.46
   0   0 -20   33.77    1.42
   0   0 -20   37.73    1.74
   1   0  20    0.02    0.35
  -1   0 -20    0.25    0.38
  -1   0 -20   -0.06    0.43
   1   0  20   -0.41    0.36
   2   0  20    0.62    0.41
  -2   0 -20    0.14    0.35
  -2   0 -20    0.22    0.37
  -3   0 -20   -1.00    0.32
   3   0  20   -0.28    0.39
   3   0  20   -0.01    0.38
  -4   0 -20    0.53    0.39
   4   0  20    1.03    0.49
   4   0  20    1.26    0.50
   4  -1 -20    1.27    0.44
  -4  -1  20    0.64    0.48
   4  -1 -20    0.57    0.44
  -4  -1  20    0.52    0.33
   4   1 -20    0.86    0.46
   4   1 -20    0.53    0.46
  -3  -1  20    8.79    0.71
   3  -1 -20    9.37    0.82
   3  -1 -20    7.73    0.82
  -3  -1  20    9.34    0.78
   3   1 -20    6.36    0.72
   3   1 -20    9.46    0.88
   2  -1 -20    0.56    0.41
  -2  -1  20    0.71    0.35
   2  -1 -20   -0.22    0.36
  -2  -1  20    0.61    0.37
   2   1 -20   -0.18    0.37
  -2   1  20    0.64    0.34
  -2   1  20    0.17    0.28
   2   1 -20    0.44    0.41
   1  -1 -20    1.58    0.48
   1  -1 -20    1.94    0.59
  -1  -1  20    2.64    0.50
  -1  -1  20    1.55    0.43
  -1   1  20    2.03    0.44
  -1   1  20    1.84    0.46
   1   1 -20    1.28    0.44
   0  -1 -20    8.08    0.80
   0  -1  20    6.63    0.74
   0   1 -20    7.15    0.77
   0   1  20    8.01    0.78
  -1  -1 -20   15.13    0.98
   1  -1  20   15.67    1.00
   1   1  20   15.81    1.02
  -1   1 -20   16.70    1.57
   1   1  20   14.72    0.99
  -1   1 -20   13.75    0.96
   2  -1  20    7.61    0.83
   2  -1  20    8.05    0.85
  -2  -1 -20    9.16    0.84
  -2   1 -20    8.08    0.75
   2   1  20    6.82    0.77
  -3  -1 -20   15.49    0.94
   3  -1  20   15.26    1.03
  -3  -1 -20   15.81    1.00
   3  -1  20   15.41    1.04
   3   1  20   13.31    1.03
   3   1  20   14.12    1.02
  -4  -1 -20    1.60    0.47
   4  -1  20    0.87    0.49
  -4  -1 -20    1.41    0.47
   4  -1  20    0.38    0.46
  -4   1 -20    1.00    0.38
   4   1  20    0.98    0.53
  -4   1 -20    0.37    0.34
  -4  -2  20    3.29    0.48
   4  -2 -20    3.53    0.56
   4  -2 -20    2.59    0.53
   4   2 -20    3.08    0.60
   4   2 -20    2.55    0.64
  -3  -2  20    4.59    0.58
   3  -2 -20    5.06    0.63
   3  -2 -20    4.66    0.60
   3   2 -20    3.54    0.60
   3   2 -20    5.24    0.68
   2  -2 -20   11.23    0.91
  -2  -2  20    8.91    0.98
   2  -2 -20   11.65    0.87
  -2  -2  20   12.42    0.85
   2   2 -20   11.46    0.93
   2   2 -20    9.87    1.16
  -1  -2  20    3.57    0.53
   1  -2 -20    2.58    0.58
  -1  -2  20    3.21    0.56
   1  -2 -20    2.52    0.52
   1   2 -20    3.01    0.52
  -1   2  20    3.13    0.48
  -1   2  20    3.39    0.51
   0  -2 -20    5.76    0.70
   0  -2 -20    4.98    0.69
   0  -2  20    4.33    0.60
   0   2 -20    4.25    0.62
   0   2  20    4.65    0.58
   0   2 -20    5.02    0.66
   1  -2  20    5.93    0.74
  -1  -2 -20    4.57    0.59
   1  -2  20    6.64    0.76
   1   2  20    5.57    0.70
   1   2  20    6.32    0.74
  -1   2 -20    5.07    0.64
  -2  -2 -20    0.02    0.35
   2  -2  20    0.72    0.43
   2  -2  20    0.52    0.43
  -2  -2 -20    1.53    0.45
   2   2  20    0.73    0.40
  -2   2 -20    0.37    0.37
   2   2  20    1.36    0.43
  -2   2 -20    0.71    0.37
   3  -2  20    0.15    0.45
   3  -2  20    0.98    0.46
  -3  -2 -20    1.08    0.49
  -3  -2 -20    0.92    0.43
  -3   2 -20    0.66    0.35
   3   2  20    0.92    0.46
   3   2  20    0.58    0.45
  -3  -3  20    4.06    0.58
   3  -3 -20    3.74    0.54
   3  -3 -20    3.04    0.53
  -3  -3  20    3.39    0.60
   3   3 -20    3.54    0.61
   3   3 -20    3.25    0.65
  -2  -3  20    0.46    0.39
  -2  -3  20    0.45    0.39
   2  -3 -20   -0.05    0.36
   2  -3 -20   -0.02    0.37
   2   3 -20   -0.06    0.39
   2   3 -20    0.05    0.35
   1  -3 -20    0.32    0.39
   1  -3 -20    0.14    0.34
  -1  -3  20    0.03    0.35
  -1  -3  20    0.21    0.28
   1   3 -20   -0.13    0.40
   1   3 -20    0.04    0.34
  -1   3  20   -0.33    0.28
  -1   3  20    0.25    0.30
   0  -3 -20    7.98    0.76
   0  -3  20    7.66    0.83
   0  -3 -20    6.79    0.75
   0   3 -20    7.36    0.79
   0   3 -20    7.77    0.86
   0   3  20    7.73    0.74
  -1  -3 -20    8.19    0.84
   1  -3  20    8.36    0.83
   1  -3  20    7.34    0.77
  -1  -3 -20    7.93    0.76
   1   3  20   10.23    0.87
   1   3  20    7.94    0.93
  -1   3 -20    7.48    0.82
  -1   3 -20    8.06    0.78
   2  -3  20   19.60    1.13
  -2  -3 -20   20.10    1.08
   2  -3  20   19.14    1.14
  -2   3 -20   19.86    1.17
  -2   3 -20   19.54    0.96
   2   3  20   20.31    1.12
   2   3  20   17.76    1.14
   3  -3  20    1.71    0.52
  -3  -3 -20    0.82    0.53
   3  -3  20    2.25    0.53
  -3  -3 -20    1.85    0.53
   3   3  20    0.91    0.50
   3   3  20    3.05    0.59
  -3  -4  20    6.33    0.70
  -3  -4  20    6.33    0.78
   3  -4 -20    6.44    0.65
   3  -4 -20    6.34    0.64
   3   4 -20    3.73    1.07
   3   4 -20    7.67    0.82
  -2  -4  20    0.10    0.77
   2  -4 -20    1.32    0.44
   2  -4 -20    0.59    0.40
  -2  -4  20    0.73    0.46
   2   4 -20   -0.44    0.36
   1  -4 -20   15.58    0.98
  -1  -4  20   15.99    1.02
  -1  -4  20   16.22    1.01
   1  -4 -20   15.94    0.93
   1   4 -20   16.97    1.03
   1   4 -20   16.41    1.08
   0  -4 -20    0.01    0.40
   0  -4 -20   -0.64    0.32
   0  -4  20   -0.19    0.36
   0  -4  20   -0.21    0.35
   0   4  20   -0.43    0.36
   0   4  20   -0.34    0.33
   0   4 -20   -0.48    0.34
   1  -4  20    2.17    0.55
  -1  -4 -20    2.72    0.54
  -1  -4 -20    2.71    0.50
   1  -4  20    3.20    0.56
   1   4  20    2.29    0.52
  -1   4 -20    2.66    0.47
  -1   4 -20    2.37    0.51
  -2  -4 -20    0.01    0.44
  -2  -4 -20    0.71    0.39
   2  -4  20    0.29    0.44
   2  -4  20    0.42    0.40
   2   4  20   -0.01    0.45
   2   4  20    0.79    0.47
  -2   4 -20    0.36    0.28
  -2   4 -20    0.16    0.34
   1  -5 -20    2.40    0.47
   1  -5 -20    1.55    0.50
  -1  -5  20    1.56    0.64
  -1  -5  20    1.38    0.47
   1   5 -20    1.90    0.45
   1   5 -20    0.95    0.55
   0  -5 -20    1.06    0.49
   0  -5  20    1.12    0.46
   0  -5  20    2.16    0.55
   0  -5 -20    1.18    0.43
   0   5 -20    1.35    0.42
   0   5 -20    1.37    0.53
   0   5  20    1.23    0.43
   0   5  20    1.32    0.42
   1  -5  20    1.10    0.47
  -1  -5 -20    0.50    0.41
  -1  -5 -20    0.81    0.53
   1  -5  20    0.81    0.45
   1   5  20    0.67    0.45
  -1   5 -20    0.70    0.37
  -1   5 -20    0.55    0.44
   1   5  20    0.73    0.45
   4   0 -21    0.03    0.44
   4   0 -21    0.13    0.42
   3   0 -21    4.93    0.69
  -3   0  21    3.63    0.49
   3   0 -21    3.74    0.58
  -3   0  21    6.19    0.59
  -2   0  21    0.46    0.39
   2   0 -21   -0.18    0.37
   2   0 -21   -0.06    0.39
  -2   0  21   -0.74    0.27
   1   0 -21   53.01    1.84
  -1   0  21   54.33    1.79
   1   0 -21   54.10    1.87
  -1   0  21   52.89    1.74
   0   0  21    0.01    0.36
   0   0  21    0.17    0.41
   0   0 -21   -0.01    0.36
   1   0  21   25.47    1.26
  -1   0 -21   22.88    1.21
  -1   0 -21   24.15    1.18
  -2   0 -21    0.28    0.39
   2   0  21   -0.07    0.41
   3   0  21    0.16    0.42
   3   0  21    0.40    0.43
  -3   0 -21   -0.11    0.36
  -4   0 -21    0.18    0.40
  -4   0 -21   -0.55    0.35
   4   0  21    0.05    0.48
  -4  -1  21    2.13    0.49
   4  -1 -21    2.20    0.52
  -4  -1  21    1.82    0.40
   4  -1 -21    1.00    0.49
   4   1 -21    1.86    0.52
   4   1 -21    1.69    0.54
   3  -1 -21    0.57    0.43
   3  -1 -21    0.10    0.40
  -3  -1  21   -0.04    0.38
  -3  -1  21    0.36    0.64
   3   1 -21    0.21    0.40
   3   1 -21    0.30    0.45
  -2  -1  21    2.85    0.51
   2  -1 -21    3.55    0.58
   2  -1 -21    3.50    0.58
  -2  -1  21    3.49    0.53
   2   1 -21    3.79    0.64
   2   1 -21    3.09    0.55
  -2   1  21    3.63    0.46
  -2   1  21    4.08    0.54
   1  -1 -21    1.68    0.46
   1  -1 -21    0.79    0.45
  -1  -1  21    1.27    0.42
  -1  -1  21    1.04    0.41
   1   1 -21    1.51    0.44
  -1   1  21    1.42    0.45
  -1   1  21    1.10    0.38
   0  -1 -21    1.00    0.47
   0  -1  21    0.78    0.35
   0  -1 -21    1.06    0.41
   0  -1  21    0.11    0.38
   0   1 -21    1.11    0.46
   0   1  21    1.34    0.45
   0   1 -21   -0.18    0.31
   0   1  21    0.96    0.44
  -1  -1 -21    0.25    0.40
   1  -1  21    0.53    0.41
  -1   1 -21    0.27    0.40
   1   1  21    0.27    0.38
   1   1  21    0.28    0.39
  -1   1 -21    0.22    0.38
  -2  -1 -21    4.79    0.64
   2  -1  21    7.34    0.82
  -2  -1 -21    3.46    0.71
   2  -1  21    6.49    0.76
  -2   1 -21    7.22    0.79
   2   1  21    4.81    0.66
  -2   1 -21    7.24    0.74
   3  -1  21    1.29    0.51
   3  -1  21    0.51    0.47
  -3  -1 -21    1.44    0.48
  -3  -1 -21    1.17    0.50
   3   1  21    0.78    0.47
   3   1  21    0.21    0.46
  -3   1 -21    1.03    0.42
  -3  -2  21    3.36    0.51
   3  -2 -21    2.74    0.52
  -3  -2  21    2.53    0.53
   3  -2 -21    3.04    0.55
   3   2 -21    3.16    0.60
   3   2 -21    2.95    0.57
   2  -2 -21   10.87    0.88
  -2  -2  21   10.93    0.83
   2  -2 -21   10.92    0.87
  -2   2  21   10.64    0.63
   2   2 -21   10.55    0.93
   2   2 -21   10.89    0.95
   1  -2 -21   15.48    1.00
   1  -2 -21   14.89    0.98
  -1  -2  21   14.68    0.96
  -1   2  21   13.76    0.88
  -1   2  21   15.84    0.88
   1   2 -21   15.33    1.01
   0  -2 -21    2.26    0.54
   0  -2 -21    2.78    0.52
   0  -2  21    2.82    0.51
   0   2  21    2.37    0.47
   0   2 -21    1.78    0.60
   0   2 -21    2.35    0.53
   0   2  21    2.93    0.56
   1  -2  21    5.67    0.70
  -1  -2 -21    4.34    0.57
   1  -2  21    4.52    0.62
  -1   2 -21    6.39    0.69
  -1   2 -21    4.73    0.64
   1   2  21    6.60    0.77
  -2  -2 -21    0.48    0.43
   2  -2  21    1.00    0.47
  -2  -2 -21    0.42    0.39
   2  -2  21    0.89    0.43
  -2   2 -21    0.75    0.40
  -2   2 -21    1.55    0.43
   2   2  21    0.50    0.47
   2   2  21    1.03    0.48
   3  -2  21   -0.87    0.41
   3  -2  21   -0.11    0.42
  -3  -2 -21    0.20    0.43
  -3  -2 -21   -0.46    0.35
  -3   2 -21    0.54    0.37
   3   2  21   -0.59    0.43
   3   2  21    0.09    0.43
  -3  -3  21    1.94    0.52
  -3  -3  21    1.57    0.47
   3  -3 -21    2.28    0.52
   3  -3 -21    1.15    0.45
   3   3 -21    2.59    0.58
   3   3 -21    1.62    0.53
  -2  -3  21    4.05    0.60
   2  -3 -21    5.44    0.65
  -2  -3  21    3.87    0.57
   2  -3 -21    6.50    0.69
   2   3 -21    4.41    0.65
   2   3 -21    4.19    0.65
   1  -3 -21   -0.50    0.35
  -1  -3  21    0.29    0.38
  -1  -3  21    0.36    0.34
   1  -3 -21    0.19    0.40
   1   3 -21   -0.03    0.39
  -1   3  21    0.65    0.33
   1   3 -21    0.74    0.42
  -1   3  21    0.24    0.31
   0  -3 -21    1.69    0.49
   0  -3 -21    1.97    0.47
   0  -3  21    1.64    0.50
   0   3  21    1.00    0.40
   0   3  21    1.51    0.45
   0   3 -21    1.03    0.44
   1  -3  21    0.00    0.40
  -1  -3 -21    1.08    0.43
  -1  -3 -21    0.34    0.41
   1  -3  21    1.14    0.48
  -1   3 -21    0.42    0.38
   1   3  21    0.38    0.44
  -1   3 -21   -0.38    0.38
  -2  -3 -21    3.27    0.54
   2  -3  21    2.64    0.57
   2  -3  21    2.53    0.55
  -2   3 -21    2.42    0.47
   2   3  21    2.52    0.55
   2   3  21    3.02    0.60
   3  -3  21    5.64    0.67
   3  -3  21    6.41    0.88
  -3  -3 -21    5.18    0.72
  -3  -3 -21    6.00    0.70
   3   3  21    4.96    0.80
  -3   3 -21    5.28    0.51
  -2  -4  21   10.56    0.99
   2  -4 -21   12.38    0.91
   2  -4 -21   11.88    0.89
  -2  -4  21   11.10    0.94
   2   4 -21   14.41    1.01
   2   4 -21   13.72    1.05
   1  -4 -21    0.72    0.39
  -1  -4  21   -0.17    0.37
  -1  -4  21    0.45    0.45
   1  -4 -21    0.46    0.43
   1   4 -21    0.01    0.38
   1   4 -21    0.38    0.50
   0  -4  21   21.83    1.18
   0  -4 -21   20.51    1.07
   0  -4 -21   20.89    1.14
   0  -4  21   19.75    1.13
   0   4  21   21.06    1.59
   0   4 -21   20.52    1.10
   0   4  21   19.30    0.99
   0   4 -21   21.76    1.17
   1  -4  21   -0.06    0.39
  -1  -4 -21    0.91    0.48
   1  -4  21   -0.44    0.39
  -1  -4 -21    0.28    0.39
   1   4  21   -0.24    0.39
  -1   4 -21   -0.46    0.33
   1   4  21   -0.07    0.39
  -2  -4 -21    1.92    0.55
   2  -4  21    1.61    0.53
   2  -4  21    1.18    0.62
  -2  -4 -21    1.59    0.51
  -2   4 -21    1.69    0.37
   2   4  21    2.38    0.55
  -2   4 -21    2.29    0.47
  -1  -5  21    0.07    0.43
   1  -5 -21    0.20    0.46
  -1  -5  21   -0.20    0.48
   1  -5 -21    0.17    0.39
   1   5 -21   -0.03    0.40
   1   5 -21    0.00    0.51
   0  -5  21    2.86    0.55
   0  -5 -21    2.15    0.55
   0  -5 -21    3.17    0.52
   0   5  21    2.60    0.47
   0   5 -21    2.21    0.59
   0   5  21    2.07    0.55
   0   5 -21    3.18    0.52
   1  -5  21    1.22    0.49
  -1  -5 -21    1.02    0.60
  -1  -5 -21    1.73    0.47
  -1   5 -21    1.02    0.37
   1   5  21    1.27    0.51
   1   5  21    0.97    0.50
  -3   0  22    0.52    0.35
   3   0 -22    0.30    0.40
   3   0 -22    0.10    0.41
  -3   0  22   -0.18    0.30
  -2   0  22    7.22    0.77
   2   0 -22    8.89    0.89
  -2   0  22    7.07    0.69
   2   0 -22    6.33    0.72
   1   0 -22    0.16    0.42
  -1   0  22    0.63    0.41
   1   0 -22    0.23    0.43
  -1   0  22    0.67    0.40
   0   0  22   35.33    1.45
   0   0  22   36.34    1.47
   0   0 -22   37.71    1.52
  -1   0 -22   -0.31    0.33
   1   0  22    0.11    0.37
   2   0  22   12.72    0.99
  -2   0 -22   13.50    0.97
   2   0  22   13.06    1.36
   3   0  22    0.17    0.54
  -3   0 -22    0.08    0.40
   3   0  22    0.12    0.46
  -3  -1  22    9.16    0.75
  -3  -1  22    9.56    0.84
   3  -1 -22    8.22    0.86
   3  -1 -22   10.19    0.90
   3   1 -22    7.91    0.88
   3   1 -22    9.94    0.90
  -2  -1  22    2.45    0.50
  -2  -1  22    2.49    0.48
   2  -1 -22    2.17    0.50
   2  -1 -22    1.89    0.50
   2   1 -22    2.17    0.54
   2   1 -22    1.51    0.51
  -2   1  22    2.46    0.44
  -2   1  22    2.26    0.47
  -1  -1  22    7.22    0.77
   1  -1 -22    7.21    0.81
  -1  -1  22    6.78    0.81
   1  -1 -22    7.59    0.83
  -1   1  22    7.69    0.78
   1   1 -22    8.43    0.85
  -1   1  22    7.07    0.72
   0  -1 -22    0.83    0.42
   0  -1  22    0.66    0.39
   0  -1 -22    1.05    0.57
   0   1 -22    0.91    0.42
   0   1  22    1.34    0.46
   0   1  22    0.14    0.39
  -1  -1 -22    5.19    0.67
   1  -1  22    4.56    0.60
  -1   1 -22    4.28    0.63
   1   1  22    4.00    0.59
  -2  -1 -22    1.26    0.43
   2  -1  22    0.12    0.41
  -2  -1 -22    1.41    0.44
   2  -1  22    1.12    0.51
  -2   1 -22    1.73    0.48
   2   1  22    0.99    0.46
  -3  -1 -22    4.74    0.63
   3  -1  22    5.48    0.77
   3  -1  22    5.06    0.69
  -3   1 -22    5.07    0.64
   3   1  22    5.88    0.72
   3   1  22    4.91    0.76
   3  -2 -22    0.62    0.45
  -3  -2  22    1.20    0.44
   3  -2 -22    1.32    0.47
  -3  -2  22    1.61    0.51
   3   2 -22    0.70    0.50
   3   2 -22    0.90    0.53
   2  -2 -22    2.68    0.53
  -2  -2  22    3.05    0.54
  -2  -2  22    3.61    0.57
   2  -2 -22    3.86    0.61
  -2   2  22    2.76    0.42
   2   2 -22    3.97    0.66
   2   2 -22    2.83    0.57
  -1  -2  22    9.76    0.87
  -1  -2  22    9.58    0.84
   1  -2 -22   10.03    0.87
   1  -2 -22    9.68    0.89
   1   2 -22   10.18    0.89
  -1   2  22    7.44    0.76
  -1   2  22   11.57    0.80
   0  -2  22   15.57    0.99
   0  -2 -22   12.63    0.94
   0  -2 -22   13.56    0.99
   0   2 -22   14.37    1.02
   0   2  22   13.43    0.91
   0   2  22   13.49    0.97
   1  -2  22    4.37    0.61
   1  -2  22    5.13    0.68
  -1  -2 -22    5.35    0.65
   1   2  22    6.12    0.77
  -1   2 -22    5.71    0.72
  -2  -2 -22    5.63    0.69
   2  -2  22    7.19    0.79
  -2  -2 -22    5.25    0.69
   2  -2  22    5.00    0.64
  -2   2 -22    5.75    0.66
   2   2  22    5.77    0.71
   2   2  22    6.10    0.81
  -2   2 -22    5.25    0.66
  -3  -2 -22    2.22    0.52
   3  -2  22    1.77    0.53
  -3   2 -22    1.39    0.41
   3   2  22    1.54    0.55
   3   2  22    0.80    0.54
  -3   2 -22    1.46    0.41
  -3  -3  22    1.36    0.48
   3  -3 -22    1.77    0.50
   3  -3 -22    3.04    0.55
   3   3 -22    1.00    0.58
   3   3 -22    2.16    0.57
  -2  -3  22    4.93    0.68
  -2  -3  22    4.14    0.61
   2  -3 -22    5.39    0.63
   2  -3 -22    3.70    0.59
   2   3 -22    4.91    1.17
   2   3 -22    4.91    0.67
  -1  -3  22    4.03    0.61
  -1  -3  22    4.52    0.63
   1  -3 -22    3.97    0.59
   1  -3 -22    4.13    0.61
  -1   3  22    4.67    0.53
   1   3 -22    4.68    0.66
   1   3 -22    4.04    0.67
  -1   3  22    3.74    0.50
   0  -3 -22    1.80    0.50
   0  -3 -22    1.47    0.48
   0  -3  22    1.52    0.48
   0  -3  22    1.46    0.49
   0   3 -22    1.51    0.52
   0   3  22    2.02    0.48
   0   3  22    2.19    0.48
   0   3 -22    1.02    0.43
  -1  -3 -22    1.27    0.50
   1  -3  22    1.67    0.50
   1  -3  22    1.67    0.48
  -1  -3 -22    1.57    0.45
   1   3  22    1.81    0.52
  -1   3 -22    2.45    0.52
   1   3  22    2.23    0.52
  -2  -3 -22    3.49    0.57
   2  -3  22    2.98    0.58
   2  -3  22    3.28    0.58
   2   3  22    2.00    0.56
   2   3  22    3.46    0.59
  -2   3 -22    3.01    0.49
  -2   3 -22    2.34    0.48
   3  -3  22   -0.08    0.44
  -3  -3 -22    1.02    0.48
  -3  -3 -22    0.96    0.51
   3  -3  22    0.65    0.48
  -3   3 -22    0.86    0.34
   3   3  22    1.07    0.64
   3   3  22    0.40    0.51
  -2  -4  22   -0.18    0.45
   2  -4 -22   -0.37    0.39
   2  -4 -22   -0.65    0.41
  -2  -4  22    0.49    0.47
   2   4 -22   -0.25    0.55
  -1  -4  22   10.83    0.93
   1  -4 -22   10.21    0.93
   1  -4 -22   11.69    0.88
  -1  -4  22   10.36    0.91
   1   4 -22   11.85    0.96
   1   4 -22   10.70    1.08
   0  -4  22    1.32    0.52
   0  -4 -22    2.03    0.54
   0  -4 -22    1.38    0.47
   0  -4  22    1.01    0.87
   0   4 -22    1.39    0.44
   0   4  22    1.85    0.48
   0   4 -22    2.02    0.58
   0   4  22    2.22    0.47
   1  -4  22   13.58    1.26
  -1  -4 -22   15.76    1.02
   1  -4  22   14.61    1.05
  -1  -4 -22   15.97    1.12
  -1   4 -22   14.48    1.15
   1   4  22   12.98    1.03
  -1   4 -22   14.37    0.91
   1   4  22   15.46    1.03
  -2  -4 -22    1.04    0.52
   2  -4  22    0.04    0.46
  -2  -4 -22   -0.40    0.40
   2  -4  22   -0.21    0.41
  -2   4 -22    0.12    0.37
   2   4  22    0.37    0.47
  -2   4 -22   -0.16    0.32
   2   4  22   -0.29    0.48
   3   0 -23   -0.75    0.39
  -3   0  23    0.25    0.32
   3   0 -23   -0.74    0.42
   2   0 -23    0.27    0.40
   2   0 -23   -0.13    0.40
  -2   0  23    0.33    0.37
  -2   0  23   -0.69    0.33
   1   0 -23   30.39    1.38
  -1   0  23   27.90    1.27
   1   0 -23   30.18    1.37
  -1   0  23   27.91    1.26
   0   0 -23    0.16    0.37
   0   0  23   -0.12    0.35
  -1   0 -23   38.30    1.55
   1   0  23   38.77    1.54
  -1   0 -23   37.77    1.49
   2   0  23    0.61    0.44
  -2   0 -23    0.08    0.40
   2   0  23    0.15    0.42
  -2   0 -23   -0.32    0.35
   3   0  23    1.55    0.57
   3   0  23    2.63    0.61
  -3   0 -23    2.43    0.51
   3  -1 -23    1.86    0.54
   3  -1 -23    2.02    0.53
  -3  -1  23    1.61    0.41
   3   1 -23    1.26    0.48
   2  -1 -23    5.04    0.69
   2  -1 -23    6.27    0.70
  -2  -1  23    6.43    0.71
  -2   1  23    6.36    0.72
   2   1 -23    5.36    0.67
  -2   1  23    6.10    0.65
   2   1 -23    4.91    0.72
  -1  -1  23    4.08    0.57
   1  -1 -23    4.30    0.64
   1  -1 -23    3.44    0.57
   1   1 -23    4.47    0.65
  -1   1  23    4.17    0.59
   0  -1  23    1.77    0.46
   0  -1  23    1.84    0.45
   0  -1 -23    4.37    0.73
   0  -1 -23    2.79    0.52
   0   1 -23    1.45    0.45
   0   1 -23    2.63    0.53
   0   1  23    2.20    0.66
   0   1  23    2.54    0.52
  -1  -1 -23   -0.38    0.31
  -1  -1 -23    0.72    0.42
   1  -1  23    0.83    0.43
   1   1  23    0.61    0.42
  -1   1 -23    0.80    0.46
   1   1  23    0.84    0.46
  -1   1 -23    0.67    0.42
   2  -1  23    2.76    0.59
  -2  -1 -23    2.00    0.50
  -2  -1 -23    1.14    0.46
   2  -1  23    1.35    0.54
  -2   1 -23    2.07    0.50
   2   1  23    2.72    0.59
   2   1  23    1.43    0.49
  -2   1 -23    2.01    0.50
   3  -1  23    0.52    0.50
   3  -1  23    0.30    0.52
  -3  -1 -23    0.39    0.43
  -3   1 -23    0.35    0.41
   3   1  23    1.46    0.54
   3   1  23   -0.01    0.46
  -3   1 -23    0.88    0.42
  -3  -2  23    0.49    0.39
   3  -2 -23    0.36    0.42
   3  -2 -23    0.47    0.45
  -3  -2  23    1.06    0.52
   3   2 -23    0.38    0.52
   3   2 -23   -0.19    0.50
   2  -2 -23    3.24    0.57
  -2  -2  23    2.70    0.57
  -2  -2  23    2.79    0.52
   2  -2 -23    3.42    0.60
  -2   2  23    2.77    0.40
   2   2 -23    3.12    0.64
   2   2 -23    2.69    0.60
  -2   2  23    2.42    0.43
  -1  -2  23    7.37    0.80
   1  -2 -23    9.10    0.90
   1  -2 -23    9.07    0.86
  -1  -2  23    8.46    0.88
  -1   2  23    8.36    0.79
  -1   2  23    8.17    0.72
   1   2 -23    6.06    0.69
   1   2 -23    6.75    0.76
   0  -2  23   11.46    0.93
   0  -2 -23   11.58    0.97
   0  -2 -23   12.69    0.95
   0   2  23   13.57    0.91
   0   2 -23   12.68    1.01
   0   2 -23   14.82    1.05
   0   2  23   12.32    0.97
  -1  -2 -23   10.82    0.93
   1  -2  23   13.19    0.98
  -1  -2 -23   11.43    0.92
   1  -2  23   12.37    0.96
   1   2  23   13.15    0.97
  -1   2 -23   12.53    0.94
  -1   2 -23   13.10    0.96
   1   2  23   11.27    0.96
   2  -2  23    2.52    0.54
  -2  -2 -23    2.60    0.54
  -2  -2 -23    3.06    0.60
   2  -2  23    2.97    0.58
  -2   2 -23    2.55    0.53
   2   2  23    2.83    0.66
   2   2  23    2.45    0.56
  -3  -2 -23    2.01    0.52
   3  -2  23    3.53    0.61
  -3  -2 -23    3.75    0.63
   3  -2  23    2.13    0.55
   3   2  23    1.07    0.57
  -3   2 -23    2.01    0.46
   3   2  23    1.83    0.51
  -2  -3  23    3.67    1.03
  -2  -3  23    3.14    0.56
   2  -3 -23    4.06    0.60
   2  -3 -23    3.16    0.57
   2   3 -23    2.86    0.60
   2   3 -23    3.52    0.68
   1  -3 -23    4.60    0.64
  -1  -3  23    3.63    0.60
   1  -3 -23    3.84    0.63
  -1  -3  23    3.36    0.61
   1   3 -23    3.84    0.66
  -1   3  23    4.33    0.53
   1   3 -23    4.22    0.64
  -1   3  23    3.99    0.54
   0  -3 -23    1.16    0.50
   0  -3  23    1.19    0.48
   0  -3 -23    1.48    0.46
   0  -3  23    2.57    0.55
   0   3  23    2.18    0.58
   0   3  23    1.44    0.45
   0   3 -23    1.60    0.56
   0   3 -23    0.93    0.44
   1  -3  23    0.32    0.39
  -1  -3 -23   -0.12    0.35
  -1  -3 -23    0.10    0.46
   1  -3  23    0.09    0.45
   1   3  23    0.27    0.48
  -1   3 -23    0.02    0.39
   1   3  23    0.23    0.45
  -1   3 -23    0.36    0.43
  -2  -3 -23    0.21    0.41
   2  -3  23    0.52    0.42
   2  -3  23    0.27    0.45
  -2   3 -23    1.22    0.42
   2   3  23    0.26    0.52
   2   3  23    0.15    0.45
   1  -4 -23    0.67    0.45
  -1  -4  23    0.56    0.44
  -1  -4  23   -0.06    0.76
   1  -4 -23    0.16    0.47
   1   4 -23    0.29    0.52
   1   4 -23    0.07    0.43
   0  -4 -23   12.60    0.94
   0  -4  23   12.99    1.01
   0  -4 -23   10.61    1.15
   0  -4  23   12.08    1.03
   0   4 -23   11.33    0.93
   0   4  23   12.84    0.87
   0   4 -23   12.58    1.06
  -1  -4 -23    0.19    0.50
  -1  -4 -23    0.85    0.76
   1  -4  23    0.30    0.46
   1  -4  23    0.43    0.44
  -1   4 -23    0.33    0.40
  -1   4 -23    0.04    0.46
   1   4  23    0.17    0.46
   1   4  23    0.91    0.49
   3   0 -24    0.02    0.46
  -3   0  24   -0.31    0.35
  -3   0  24   -0.24    0.36
  -2   0  24    2.85    0.48
   2   0 -24    2.09    0.57
  -2   0  24    2.86    0.51
   2   0 -24    1.71    0.48
   1   0 -24    0.27    0.40
   1   0 -24    0.11    0.42
  -1   0  24   -0.09    0.38
   0   0 -24   10.11    0.90
   0   0  24   10.51    0.90
   0   0  24   11.29    0.91
   1   0  24    0.25    0.42
  -1   0 -24   -0.41    0.38
  -1   0 -24    0.76    0.45
   1   0  24    0.45    0.39
  -2   0 -24   15.42    1.04
  -2   0 -24   16.23    1.04
   2   0  24   16.22    1.10
   2   0  24   16.83    1.14
   3   0  24   -0.23    0.54
  -3   0 -24   -0.07    0.40
   3   0  24   -0.28    0.49
  -3  -1  24   10.02    0.82
   3  -1 -24    9.77    0.90
   3  -1 -24    8.37    0.94
  -3  -1  24    9.65    0.99
   3   1 -24    9.04    0.94
   3   1 -24   10.65    1.03
  -2  -1  24    1.05    0.44
   2  -1 -24    0.11    0.41
  -2  -1  24    0.36    0.39
   2  -1 -24    0.64    0.43
  -2   1  24    0.72    0.41
   2   1 -24    0.41    0.50
  -2   1  24    0.80    0.39
   2   1 -24    0.35    0.45
  -1  -1  24    2.67    0.51
   1  -1 -24    2.69    0.57
  -1  -1  24    3.06    0.55
   1  -1 -24    2.13    0.55
  -1   1  24    3.13    0.53
   1   1 -24    3.40    0.65
   1   1 -24    2.97    0.57
  -1   1  24    3.88    0.59
   0  -1  24    3.62    0.59
   0  -1  24    3.94    0.62
   0  -1 -24    3.23    0.58
   0  -1 -24    3.73    0.58
   0   1 -24    4.08    0.64
   0   1  24    4.04    0.59
   0   1 -24    3.80    0.61
  -1  -1 -24    0.35    0.38
  -1  -1 -24   -0.06    0.37
   1  -1  24    0.62    0.40
   1  -1  24   -0.45    0.36
  -1   1 -24    0.76    0.43
   1   1  24    0.05    0.42
  -1   1 -24   -0.34    0.43
   1   1  24   -0.52    0.39
   2  -1  24    0.80    0.49
   2  -1  24    0.78    0.47
  -2  -1 -24   -0.20    0.42
  -2  -1 -24    0.03    0.41
   2   1  24    0.43    0.46
  -2   1 -24    0.17    0.41
   2   1  24   -0.01    0.47
  -2   1 -24    0.28    0.43
  -3  -1 -24    1.02    0.48
   3  -1  24    1.60    0.57
  -3   1 -24    1.58    0.48
  -3   1 -24    1.32    0.50
   3   1  24    0.72    0.50
   3   1  24    1.13    0.54
  -3  -2  24   -0.09    0.41
   3  -2 -24    0.64    0.48
  -3  -2  24    0.07    0.50
   3  -2 -24    0.23    0.46
   3   2 -24   -0.23    0.59
   3   2 -24    0.33    0.51
  -2  -2  24    0.89    0.48
   2  -2 -24    1.41    0.48
  -2  -2  24    0.68    0.41
   2  -2 -24    0.49    0.42
  -2   2  24    0.71    0.35
  -2   2  24   -0.03    0.30
   2   2 -24    0.24    0.48
   2   2 -24    0.55    0.52
  -1  -2  24    5.92    0.68
   1  -2 -24    7.22    0.77
   1  -2 -24    6.44    0.76
  -1  -2  24    5.92    0.74
  -1   2  24    4.21    0.60
   1   2 -24    6.32    0.79
   1   2 -24    4.88    0.65
   0  -2  24    4.89    0.68
   0  -2 -24    4.06    0.61
   0  -2 -24    4.89    0.69
   0  -2  24    4.87    0.66
   0   2 -24    3.99    0.64
   0   2 -24    5.56    0.72
   0   2  24    4.79    0.61
   1  -2  24    7.22    0.77
   1  -2  24    6.58    0.74
  -1  -2 -24    8.61    0.84
  -1  -2 -24    6.16    0.77
  -1   2 -24    7.79    0.86
   1   2  24    6.08    0.74
   1   2  24    6.84    0.74
  -1   2 -24    6.16    0.72
   2  -2  24    6.59    0.80
  -2  -2 -24    5.48    0.67
  -2  -2 -24    6.43    0.79
   2  -2  24    3.74    0.61
  -2   2 -24    5.66    0.68
  -2   2 -24    6.48    0.71
   2   2  24    4.92    0.80
   2   2  24    5.19    0.71
  -2  -3  24    4.14    0.67
   2  -3 -24    4.95    0.67
   2  -3 -24    4.33    0.62
  -2  -3  24    4.04    0.65
   2   3 -24    4.47    0.74
  -1  -3  24    2.25    0.67
   1  -3 -24    2.34    0.58
   1  -3 -24    3.27    0.58
  -1  -3  24    2.13    0.54
   1   3 -24    2.91    0.57
  -1   3  24    3.00    0.48
  -1   3  24    2.87    0.49
   0  -3 -24    0.99    0.52
   0  -3  24    2.94    0.58
   0  -3 -24    1.58    0.48
   0   3 -24    0.88    0.46
   0   3 -24    2.26    0.59
   0   3  24    1.21    0.46
   1  -3  24   -0.36    0.41
  -1  -3 -24    0.24    0.40
  -1  -3 -24   -0.53    0.44
   1  -3  24   -0.28    0.43
   1   3  24    0.51    0.50
  -1   3 -24   -0.08    0.39
  -1   3 -24   -0.39    0.41
   1   3  24    0.13    0.41
   2  -3  24    0.22    0.46
   2  -3  24    0.05    0.84
  -2  -3 -24    0.17    0.44
  -2   3 -24    0.10    0.41
  -2   3 -24    0.14    0.42
   2   3  24   -0.69    0.46
   2   3  24    0.07    0.54
   1  -4 -24    1.39    0.47
  -1  -4  24    1.03    0.62
   1  -4 -24    1.23    0.54
  -1  -4  24    1.61    0.52
   1   4 -24    0.82    0.60
   0  -4  24   -0.76    0.42
   0  -4 -24    0.53    0.48
   0  -4 -24    0.94    0.56
   0  -4  24    0.41    0.45
   0   4  24   -0.45    0.38
   0   4 -24   -0.29    0.40
   1  -4  24    9.94    1.01
   1  -4  24    9.94    0.98
  -1  -4 -24   10.64    0.96
  -1  -4 -24    7.41    1.28
   1   4  24   10.02    1.01
  -1   4 -24    9.15    0.95
  -1   4 -24    9.98    0.86
   1   4  24    8.90    0.91
  -3   0  25   -0.26    0.35
   3   0 -25   -0.03    0.51
  -3   0  25   -0.35    0.39
   3   0 -25    0.12    0.48
   2   0 -25    0.34    0.49
  -2   0  25    0.05    0.34
   2   0 -25    0.18    0.43
   1   0 -25    1.06    0.47
  -1   0  25    0.64    0.41
  -1   0  25    0.70    0.42
   1   0 -25   -0.38    0.42
   0   0 -25    0.30    0.39
   0   0  25    0.41    0.43
   0   0  25   -0.38    0.35
   0   0 -25    0.50    0.41
  -1   0 -25    2.21    0.53
   1   0  25    1.86    0.51
   1   0  25    2.02    0.53
  -1   0 -25    2.08    0.50
  -2   0 -25    0.48    0.43
   2   0  25   -0.31    0.43
   2   0  25    0.02    0.43
  -2   0 -25   -0.30    0.43
  -3  -1  25    0.78    0.40
   3  -1 -25    0.70    0.47
  -3  -1  25    0.19    0.43
   3  -1 -25   -0.01    0.51
   3   1 -25   -0.01    0.51
   3   1 -25   -0.22    0.45
   2  -1 -25   21.23    1.18
  -2  -1  25   19.36    1.03
   2  -1 -25   20.02    1.18
  -2  -1  25   18.67    1.08
   2   1 -25   18.97    1.21
  -2   1  25   17.03    1.45
   2   1 -25   21.00    1.38
  -2   1  25   18.17    1.01
   1  -1 -25    0.02    0.45
   1  -1 -25    0.80    0.43
  -1  -1  25    0.13    0.37
  -1  -1  25    0.85    0.47
  -1   1  25    1.12    0.44
   1   1 -25    0.24    0.46
   1   1 -25    0.90    0.42
   0  -1 -25    7.51    0.84
   0  -1  25    8.78    0.87
   0  -1 -25    8.08    0.88
   0  -1  25    8.72    0.89
   0   1  25    5.77    0.68
   0   1  25    9.39    0.90
   0   1 -25    8.44    0.88
   0   1 -25    7.36    0.83
  -1  -1 -25    0.22    0.44
   1  -1  25    0.36    0.43
   1  -1  25   -0.02    0.40
  -1  -1 -25    1.17    0.44
   1   1  25   -0.31    0.39
   1   1  25    0.72    0.47
  -1   1 -25    0.85    0.44
  -1   1 -25    0.32    0.45
  -2  -1 -25    0.27    0.43
  -2  -1 -25   -0.97    0.76
   2  -1  25    0.25    0.46
   2  -1  25    0.33    0.47
   2   1  25    0.48    0.50
   2   1  25    0.08    0.45
  -2   1 -25   -0.11    0.40
  -2   1 -25    0.54    0.44
   2  -2 -25    0.02    0.46
  -2  -2  25   -0.10    0.38
   2  -2 -25    0.91    0.44
  -2  -2  25    0.67    0.52
   2   2 -25   -0.61    0.51
   2   2 -25   -0.30    0.47
  -2   2  25   -0.41    0.30
  -2   2  25   -0.17    0.34
   1  -2 -25    1.71    0.49
  -1  -2  25    0.40    0.45
   1  -2 -25    1.30    0.51
  -1  -2  25    1.00    0.45
   1   2 -25    0.21    0.45
  -1   2  25    0.79    0.40
  -1   2  25    0.73    0.43
   0  -2  25    1.98    0.53
   0  -2  25    1.91    0.52
   0  -2 -25    2.32    0.56
   0  -2 -25    3.11    0.62
   0   2  25    2.19    0.51
   0   2  25    1.91    0.54
   0   2 -25    1.84    0.52
   0   2 -25    1.46    0.53
  -1  -2 -25    2.69    0.57
  -1  -2 -25    1.84    0.64
   1  -2  25    2.26    0.91
   1  -2  25    2.28    0.54
   1   2  25    2.15    0.56
   1   2  25    0.80    0.51
  -1   2 -25    2.45    0.56
  -1   2 -25    2.77    0.58
   2  -2  25    1.56    0.53
  -2  -2 -25    3.25    0.63
  -2  -2 -25    3.10    0.70
   2  -2  25    1.89    0.93
  -2   2 -25    2.30    0.52
   2   2  25    2.43    0.62
  -2   2 -25    2.42    0.52
   2   2  25    1.89    0.59
   1  -3 -25    4.71    0.62
  -1  -3  25    5.53    0.72
  -1  -3  25    6.47    0.77
  -1   3  25    4.92    0.60
   1   3 -25    4.68    0.69
   1   3 -25    4.71    0.71
   0  -3 -25    2.48    0.55
   0  -3  25    1.82    0.52
   0  -3  25    2.75    0.60
   0  -3 -25    1.89    0.59
   0   3  25    3.13    0.57
   0   3 -25    2.87    1.05
   0   3 -25    2.70    0.57
   0   3  25    2.39    0.51
  -1  -3 -25    0.65    0.52
   1  -3  25    1.06    0.52
  -1   3 -25    0.78    0.46
   1   3  25    0.60    0.51
  -1   3 -25    0.81    0.52
   1   3  25    0.64    0.46
  -2   0  26    3.07    0.54
   2   0 -26    2.20    0.60
  -2   0  26    3.82    0.59
   2   0 -26    2.34    0.55
  -1   0  26   -0.45    0.39
   1   0 -26    0.62    0.57
   1   0 -26   -0.08    0.42
  -1   0  26   -0.01    0.39
   0   0  26    4.95    0.66
   0   0  26    4.16    0.60
   0   0 -26    3.93    0.64
   0   0 -26    4.23    0.62
   1   0  26    0.15    0.42
  -1   0 -26    0.38    0.41
  -1   0 -26    0.13    0.45
   1   0  26   -0.71    0.78
  -2   0 -26    6.04    0.70
  -2   0 -26    7.07    0.83
   2   0  26    6.51    0.77
  -2  -1  26    0.58    0.47
   2  -1 -26    0.33    0.47
  -2  -1  26    0.24    0.39
   2  -1 -26    0.49    0.52
  -2   1  26   -0.27    0.37
  -2   1  26    1.05    0.41
   2   1 -26    0.82    0.54
   2   1 -26    0.83    0.56
  -1  -1  26   13.54    0.95
   1  -1 -26   11.62    0.96
   1  -1 -26   12.71    1.26
  -1  -1  26   13.32    1.00
   1   1 -26   10.43    1.21
  -1   1  26   14.10    0.94
   1   1 -26   12.61    1.01
  -1   1  26   13.73    0.97
   0  -1 -26    1.26    0.48
   0  -1  26    0.81    0.46
   0  -1  26    0.66    0.44
   0  -1 -26    0.65    0.58
   0   1  26    1.09    0.46
   0   1 -26    0.20    0.47
   0   1  26    0.82    0.49
   0   1 -26    1.22    0.46
   1  -1  26    5.18    0.66
   1  -1  26    4.15    0.68
  -1  -1 -26    4.46    0.77
  -1  -1 -26    5.17    0.67
  -1   1 -26    5.06    0.68
   1   1  26    4.31    0.77
   1   1  26    4.38    0.64
  -1   1 -26    6.02    0.71
  -2  -1 -26    0.92    0.45
  -2  -1 -26    0.41    0.49
   2  -1  26   -0.18    0.45
   2  -1  26    0.97    0.60
  -2   1 -26    0.14    0.42
  -2   1 -26    0.18    0.46
   2   1  26   -0.29    0.45
   2  -2 -26    1.64    0.52
  -2  -2  26    1.24    0.47
   2  -2 -26    1.48    0.55
  -2  -2  26    1.89    0.58
   2   2 -26    1.12    0.67
   2   2 -26    1.02    0.52
  -2   2  26    1.66    0.41
   1  -2 -26    0.77    0.47
  -1  -2  26    0.84    0.50
   1  -2 -26    0.10    0.55
  -1  -2  26    0.09    0.44
  -1   2  26    1.08    0.43
   1   2 -26    0.27    0.49
   1   2 -26    0.27    0.44
   0  -2 -26    1.08    0.47
   0  -2  26    1.36    0.52
   0  -2 -26    0.66    0.49
   0  -2  26    0.85    0.48
   0   2  26    0.55    0.50
   0   2 -26   -0.04    0.94
   0   2 -26    0.50    0.49
   0   2  26    0.82    0.43
  -1  -2 -26    2.70    0.63
   1  -2  26    3.02    0.60
   1  -2  26    3.93    0.62
  -1  -2 -26    4.08    0.64
  -1   2 -26    5.00    0.72
  -1   2 -26    3.35    0.61
   1   2  26    3.74    0.60
  -1  -3  26    1.78    0.53
   1  -3 -26    0.90    0.57
  -1  -3  26    0.99    0.54
   1  -3 -26    0.71    0.52
   1   3 -26    0.90    0.58
  -1   3  26    0.95    0.43
  -1   3  26    1.38    0.48
   1   3 -26    1.24    0.56
   0  -3  26    5.37    0.73
   0  -3  26    2.68    0.65
   0  -3 -26    3.90    0.71
   0   3  26    3.78    0.57
   0   3 -26    4.51    0.70
   0   3  26    3.52    0.65
   0   3 -26    4.02    0.62
  -1  -3 -26    1.20    0.50
   1  -3  26    1.46    0.55
   1   3  26    1.06    0.58
   1   3  26    1.74    0.51
  -1   3 -26    1.59    0.54
   2   0 -27    0.37    0.84
   2   0 -27    0.11    0.52
  -2   0  27    0.29    0.41
  -2   0  27   -0.10    0.44
   1   0 -27    1.64    0.52
   1   0 -27    1.95    0.57
  -1   0  27    1.79    0.51
  -1   0  27    1.51    0.49
   0   0  27   -0.07    0.45
   0   0 -27    0.26    0.40
   0   0  27    0.69    0.46
   0   0 -27   -0.74    0.42
   1   0  27    2.55    0.58
  -1   0 -27    3.34    0.62
  -1   0 -27    3.09    0.60
   1   0  27    3.47    0.59
   2   0  27   -0.43    0.46
  -2   0 -27   -0.23    0.46
  -2   0 -27   -0.32    0.48
   2  -1 -27    7.22    0.80
  -2  -1  27    7.18    0.74
   2   1 -27    6.84    0.85
  -2   1  27    8.06    0.76
   2   1 -27    7.71    1.05
  -1  -1  27    1.56    0.66
   1  -1 -27    1.36    0.57
   1  -1 -27    0.74    0.53
  -1  -1  27    1.80    0.51
  -1   1  27    1.09    0.45
  -1   1  27    0.25    0.46
   1   1 -27    0.90    0.54
   1   1 -27    1.24    0.56
   0  -1 -27   16.11    1.06
   0  -1 -27   16.01    1.12
   0  -1  27   15.37    1.08
   0  -1  27   16.30    1.07
   0   1  27   14.94    1.00
   0   1 -27   14.15    1.06
   0   1 -27   13.99    1.12
   0   1  27   15.00    1.08
   1  -1  27    1.31    0.65
  -1  -1 -27    0.88    0.50
   1  -1  27    0.67    0.47
  -1  -1 -27    0.94    0.48
  -1   1 -27    0.62    0.51
   1   1  27    0.11    0.51
  -1   1 -27   -0.17    0.41
   1   1  27    0.79    0.46
   1  -2 -27    0.94    0.53
   1  -2 -27    1.21    0.62
  -1  -2  27    0.49    0.50
  -1  -2  27    0.01    0.41
  -1   2  27    0.78    0.47
  -1   2  27    0.15    0.41
   1   2 -27    0.45    0.57
   1   2 -27    0.50    0.50
   0  -2 -27   -0.08    0.46
   0  -2  27    1.08    0.50
   0   2 -27    0.75    0.54
   0   2  27    0.19    0.50
   0   2  27    0.26    0.41
   0   2 -27    0.53    0.49
   1  -2  27    1.16    0.53
   1  -2  27    0.30    0.52
  -1  -2 -27    0.23    0.55
  -1  -2 -27    0.28    0.47
  -1   2 -27    0.02    0.48
  -1   2 -27   -0.15    0.45
   1   2  27    0.85    0.45
   1   2  27    0.40    0.49
  -1   0  28   -0.13    0.45
   1   0 -28   -0.99    0.52
  -1   0  28    0.11    0.41
   1   0 -28    0.07    0.46
   0   0  28    0.23    0.49
   0   0 -28    0.03    0.49
   0   0  28    0.18    0.42
   1   0  28    0.31    0.48
   1   0  28   -0.31    0.43
  -1   0 -28    0.14    0.49
  -1   0 -28    0.09    0.50
  -1  -1  28    3.37    0.65
   1  -1 -28    3.19    0.65
  -1  -1  28    3.95    0.62
   1  -1 -28    4.14    0.64
  -1   1  28    4.16    0.60
  -1   1  28    4.90    0.70
   1   1 -28    3.41    0.62
   1   1 -28    4.58    0.86
   0  -1  28    1.55    0.94
   0  -1 -28    0.62    0.46
   0  -1 -28    1.06    0.54
   0  -1  28    0.31    0.49
   0   1  28    0.92    0.47
   0   1 -28    0.87    0.56
   0   1  28    0.99    0.88
  -1  -1 -28    8.08    1.31
  -1  -1 -28    6.80    0.80
   1  -1  28    5.95    0.71
  -1   1 -28    7.42    0.82
   1   1  28    5.89    0.89
   1   1  28    7.27    0.81
   0   0   0    0.00    0.00
;
loop_
_space_group_symop_operation_xyz
'x, y, z'
'-x+1/2, y+1/2, -z+1/2'
'-x, -y, -z'
'x-1/2, -y-1/2, z-1/2'
loop_
_atom_site_label
_atom_site_type_symbol
_atom_site_fract_x
_atom_site_fract_y
_atom_site_fract_z
_atom_site_U_iso_or_equiv
_atom_site_adp_type
_atom_site_occupancy
_atom_site_site_symmetry_order
_atom_site_calc_flag
_atom_site_refinement_flags_posn
_atom_site_refinement_flags_adp
_atom_site_refinement_flags_occupancy
_atom_site_disorder_assembly
_atom_site_disorder_group
Br1 Br 0.19186(15) 0.44226(11) 0.29563(3) 0.0497(2) Uani 1 1 d . . . . .
O1 O 0.3352(16) -0.0676(15) 0.4698(3) 0.0398(19) Uani 0.5 1 d . . P . .
H1 H 0.259304 -0.160050 0.491143 0.060 Uiso 0.5 1 calc R U P . .
O2 O -0.3915(17) -0.3968(13) 0.4479(4) 0.042(2) Uani 0.5 1 d . . P . .
N1 N 0.0380(10) -0.4121(8) 0.4838(2) 0.0395(12) Uani 1 1 d . . . . .
C2 C 0.1643(12) -0.0134(10) 0.4274(3) 0.0401(14) Uani 1 1 d . . . . .
C6 C -0.2070(12) -0.1013(10) 0.3593(3) 0.0428(15) Uani 1 1 d . . . . .
H6 H -0.357737 -0.191717 0.347766 0.051 Uiso 1 1 calc R U . . .
C1 C -0.0621(12) -0.1478(10) 0.4104(3) 0.0369(13) Uani 1 1 d . . . . .
C4 C 0.0867(12) 0.2048(10) 0.3430(3) 0.0378(13) Uani 1 1 d . . . . .
C7 C -0.1447(13) -0.3393(11) 0.4451(3) 0.0439(15) Uani 1 1 d . . . . .
C5 C -0.1371(12) 0.0729(11) 0.3250(3) 0.0418(14) Uani 1 1 d . . . . .
H5 H -0.237255 0.103173 0.290092 0.050 Uiso 1 1 calc R U . . .
C3 C 0.2328(12) 0.1653(10) 0.3933(3) 0.0390(13) Uani 1 1 d . . . . .
H3 H 0.379983 0.259160 0.404846 0.047 Uiso 1 1 calc R U . . .
loop_
_atom_site_aniso_label
_atom_site_aniso_U_11
_atom_site_aniso_U_22
_atom_site_aniso_U_33
_atom_site_aniso_U_23
_atom_site_aniso_U_13
_atom_site_aniso_U_12
Br1 0.0539(4) 0.0444(4) 0.0508(4) 0.0107(3) 0.0034(3) -0.0017(3)
O1 0.041(4) 0.043(5) 0.036(4) 0.000(4) -0.003(3) -0.011(4)
O2 0.037(4) 0.031(4) 0.058(5) -0.005(4) 0.002(4) -0.002(4)
N1 0.034(3) 0.033(3) 0.052(3) 0.000(2) 0.005(2) -0.004(2)
C2 0.038(3) 0.039(3) 0.043(3) -0.001(3) -0.005(3) -0.006(3)
C6 0.035(3) 0.039(3) 0.055(4) -0.007(3) -0.001(3) -0.002(3)
C1 0.034(3) 0.031(3) 0.045(3) 0.000(3) 0.003(2) -0.003(2)
C4 0.040(3) 0.034(3) 0.040(3) -0.001(3) 0.010(3) 0.003(3)
C7 0.039(3) 0.040(3) 0.053(4) 0.004(3) -0.001(3) -0.006(3)
C5 0.037(3) 0.047(4) 0.041(3) -0.002(3) 0.000(2) 0.000(3)
C3 0.038(3) 0.034(3) 0.045(3) -0.002(3) 0.004(3) -0.007(3)
loop_
_atom_type_symbol
_atom_type_description
_atom_type_scat_dispersion_real
_atom_type_scat_dispersion_imag
_atom_type_scat_source
C C 0.0033 0.0016 'International Tables Vol C Tables 4.2.6.8 and 6.1.1.4'
H H 0.0000 0.0000 'International Tables Vol C Tables 4.2.6.8 and 6.1.1.4'
Br Br -0.2901 2.4595 'International Tables Vol C Tables 4.2.6.8 and 6.1.1.4'
N N 0.0061 0.0033 'International Tables Vol C Tables 4.2.6.8 and 6.1.1.4'
O O 0.0106 0.0060 'International Tables Vol C Tables 4.2.6.8 and 6.1.1.4'
loop_
_geom_angle_atom_site_label_1
_geom_angle_atom_site_label_2
_geom_angle_atom_site_label_3
_geom_angle
_geom_angle_site_symmetry_1
_geom_angle_site_symmetry_3
C2 O1 H1 109.5 . .
C7 N1 N1 117.0(6) . 3_546
O1 C2 C1 122.0(6) . .
O1 C2 C3 118.0(6) . .
C3 C2 C1 119.4(6) . .
C1 C6 H6 119.2 . .
C5 C6 H6 119.2 . .
C5 C6 C1 121.5(6) . .
C2 C1 C7 121.7(5) . .
C6 C1 C2 119.2(6) . .
C6 C1 C7 119.0(5) . .
C5 C4 Br1 119.0(5) . .
C3 C4 Br1 119.0(5) . .
C3 C4 C5 122.0(6) . .
O2 C7 N1 119.7(7) . .
O2 C7 C1 121.4(7) . .
N1 C7 C1 116.8(5) . .
C6 C5 C4 118.2(6) . .
C6 C5 H5 120.9 . .
C4 C5 H5 120.9 . .
C2 C3 H3 120.2 . .
C4 C3 C2 119.7(6) . .
C4 C3 H3 120.2 . .
loop_
_geom_bond_atom_site_label_1
_geom_bond_atom_site_label_2
_geom_bond_distance
_geom_bond_site_symmetry_2
Br1 C4 1.898(6) .
O1 H1 0.8400 .
O1 C2 1.312(9) .
O2 C7 1.246(10) .
N1 N1 1.368(10) 3_546
N1 C7 1.322(8) .
C2 C1 1.420(8) .
C2 C3 1.395(8) .
C6 H6 0.9500 .
C6 C1 1.390(8) .
C6 C5 1.377(9) .
C1 C7 1.482(8) .
C4 C5 1.408(8) .
C4 C3 1.368(8) .
C5 H5 0.9500 .
C3 H3 0.9500 .
loop_
_geom_torsion_atom_site_label_1
_geom_torsion_atom_site_label_2
_geom_torsion_atom_site_label_3
_geom_torsion_atom_site_label_4
_geom_torsion
_geom_torsion_site_symmetry_1
_geom_torsion_site_symmetry_2
_geom_torsion_site_symmetry_3
_geom_torsion_site_symmetry_4
Br1 C4 C5 C6 178.7(4) . . . .
Br1 C4 C3 C2 -177.6(4) . . . .
O1 C2 C1 C6 -169.1(7) . . . .
O1 C2 C1 C7 9.6(10) . . . .
O1 C2 C3 C4 168.9(7) . . . .
N1 N1 C7 O2 15.9(11) 3_546 . . .
N1 N1 C7 C1 179.6(6) 3_546 . . .
C2 C1 C7 O2 147.0(7) . . . .
C2 C1 C7 N1 -16.4(9) . . . .
C6 C1 C7 O2 -34.3(10) . . . .
C6 C1 C7 N1 162.3(6) . . . .
C1 C2 C3 C4 -2.1(9) . . . .
C1 C6 C5 C4 -0.1(9) . . . .
C5 C6 C1 C2 -0.4(9) . . . .
C5 C6 C1 C7 -179.1(6) . . . .
C5 C4 C3 C2 1.6(9) . . . .
C3 C2 C1 C6 1.5(9) . . . .
C3 C2 C1 C7 -179.8(6) . . . .
C3 C4 C5 C6 -0.5(9) . . . .
