#------------------------------------------------------------------------------
#$Date: 2022-03-07 10:44:35 +0200 (Mon, 07 Mar 2022) $
#$Revision: 273484 $
#$URL: file:///home/coder/svn-repositories/cod/cif/8/10/46/8104656.cif $
#------------------------------------------------------------------------------
#
# This file is available in the Crystallography Open Database (COD),
# http://www.crystallography.net/
#
# All data on this site have been placed in the public domain by the
# contributors.
#
data_8104656
loop_
_publ_author_name
'Wang, Lei'
'Meng, Qing-Guo'
'Hou, Gui-Ge'
_publ_section_title
;
 Crystal structure of
 (E)-7-methoxy-2-((6-methoxypyridin-2-yl)methylene)-tetralone, C18H17NO3
;
_journal_issue                   5
_journal_name_full
'Zeitschrift f\"ur Kristallographie - New Crystal Structures'
_journal_page_first              1023
_journal_page_last               1025
_journal_paper_doi               10.1515/ncrs-2021-0207
_journal_volume                  236
_journal_year                    2021
_chemical_formula_moiety         'C18 H17 N O3'
_chemical_formula_sum            'C18 H17 N O3'
_chemical_formula_weight         295.32
_space_group_crystal_system      triclinic
_space_group_IT_number           2
_space_group_name_Hall           '-P 1'
_space_group_name_H-M_alt        'P -1'
_atom_sites_solution_hydrogens   geom
_cell_angle_alpha                70.171(8)
_cell_angle_beta                 87.229(8)
_cell_angle_gamma                87.567(8)
_cell_formula_units_Z            2
_cell_length_a                   4.0929(4)
_cell_length_b                   12.9527(11)
_cell_length_c                   14.4228(12)
_cell_measurement_reflns_used    2263
_cell_measurement_temperature    99.9(3)
_cell_measurement_theta_max      28.5970
_cell_measurement_theta_min      2.8860
_cell_volume                     718.16(12)
_computing_cell_refinement       'CrysAlisPro 1.171.38.43f (Rigaku OD, 2017)'
_computing_data_collection       'CrysAlisPro 1.171.38.43f (Rigaku OD, 2017)'
_computing_data_reduction        'CrysAlisPro 1.171.38.43f (Rigaku OD, 2017)'
_computing_molecular_graphics    'Bruker SHELXTL'
_computing_publication_material  'Bruker SHELXTL'
_computing_structure_refinement  'SHELXL-2017/1 (Sheldrick, 2015)'
_computing_structure_solution    'SHELXL-2017/1 (Sheldrick, 2015)'
_diffrn_ambient_temperature      99.9(3)
_diffrn_detector_area_resol_mean 5.2684
_diffrn_measured_fraction_theta_full 0.998
_diffrn_measured_fraction_theta_max 0.998
_diffrn_measurement_device_type  'SuperNova, Dual, Cu at zero, AtlasS2'
_diffrn_measurement_method       'four-circle diffractometer'
_diffrn_radiation_type           MoK\a
_diffrn_radiation_wavelength     0.71073
_diffrn_reflns_av_R_equivalents  0.0419
_diffrn_reflns_av_unetI/netI     0.0608
_diffrn_reflns_Laue_measured_fraction_full 0.998
_diffrn_reflns_Laue_measured_fraction_max 0.998
_diffrn_reflns_limit_h_max       4
_diffrn_reflns_limit_h_min       -4
_diffrn_reflns_limit_k_max       15
_diffrn_reflns_limit_k_min       -15
_diffrn_reflns_limit_l_max       16
_diffrn_reflns_limit_l_min       -17
_diffrn_reflns_number            4714
_diffrn_reflns_point_group_measured_fraction_full 0.998
_diffrn_reflns_point_group_measured_fraction_max 0.998
_diffrn_reflns_theta_full        25.242
_diffrn_reflns_theta_max         25.491
_diffrn_reflns_theta_min         2.598
_diffrn_source                   'micro-focus sealed X-ray tube'
_exptl_absorpt_coefficient_mu    0.093
_exptl_absorpt_correction_T_max  1.00000
_exptl_absorpt_correction_T_min  0.62285
_exptl_absorpt_correction_type   multi-scan
_exptl_absorpt_process_details
;
CrysAlisPro 1.171.38.43f (Rigaku Oxford Diffraction, 2015)
Empirical absorption correction using spherical harmonics,
 implemented in SCALE3 ABSPACK scaling algorithm.
;
_exptl_crystal_colour            colourless
_exptl_crystal_density_diffrn    1.366
_exptl_crystal_description       block
_exptl_crystal_F_000             312
_exptl_crystal_size_max          0.150
_exptl_crystal_size_mid          0.120
_exptl_crystal_size_min          0.110
_refine_diff_density_max         0.220
_refine_diff_density_min         -0.281
_refine_diff_density_rms         0.057
_refine_ls_extinction_coef       .
_refine_ls_extinction_method     none
_refine_ls_goodness_of_fit_ref   1.041
_refine_ls_hydrogen_treatment    constr
_refine_ls_matrix_type           full
_refine_ls_number_parameters     201
_refine_ls_number_reflns         2660
_refine_ls_number_restraints     0
_refine_ls_restrained_S_all      1.041
_refine_ls_R_factor_all          0.0673
_refine_ls_R_factor_gt           0.0549
_refine_ls_shift/su_max          0.000
_refine_ls_shift/su_mean         0.000
_refine_ls_structure_factor_coef Fsqd
_refine_ls_weighting_details
'w=1/[\s^2^(Fo^2^)+(0.0800P)^2^+0.0519P] where P=(Fo^2^+2Fc^2^)/3'
_refine_ls_weighting_scheme      calc
_refine_ls_wR_factor_gt          0.1381
_refine_ls_wR_factor_ref         0.1526
_reflns_Friedel_coverage         0.000
_reflns_Friedel_fraction_full    .
_reflns_Friedel_fraction_max     .
_reflns_number_gt                2124
_reflns_number_total             2660
_reflns_threshold_expression     'I > 2\s(I)'
_cod_data_source_file            suppl_j_ncrs-2021-0207_suppl.cif
_cod_data_source_block           MZ_6_2_2
_cod_database_code               8104656
_shelx_space_group_comment
;
The symmetry employed for this shelxl refinement is uniquely defined
by the following loop, which should always be used as a source of
symmetry information in preference to the above space-group names.
They are only intended as comments.
;
_shelx_estimated_absorpt_t_min   0.986
_shelx_estimated_absorpt_t_max   0.990
_shelx_res_file
;
TITL MZ_6_2_2 in P-1
    MZ_6_2_2.res
    created by SHELXL-2017/1 at 13:33:44 on 27-Aug-2020
CELL 0.71073   4.0929  12.9527  14.4228  70.171  87.229  87.567
ZERR   2.00   0.0004   0.0011   0.0012   0.008   0.008   0.008
LATT 1
SFAC C  H  N  O
UNIT 36 34 2 6
omit 0 0 6
OMIT  -3.00  51.00
L.S. 12
ACTA
BOND  $H
FMAP 2
PLAN 20
HTAB C18 O2_$2
EQIV $2 -x+3, -y+1, -z
HTAB C18 O2_$1
EQIV $1 -x+2, -y+1, -z
conf
htab
size 0.15 0.12 0.11
WGHT    0.080000    0.051900
FVAR       0.27055
MOLE 1
C1    1    0.893162    0.656258    0.167409    11.00000    0.02026    0.02348 =
         0.02038   -0.00661   -0.00238   -0.00248
C2    1    0.731157    0.727713    0.219736    11.00000    0.01883    0.02018 =
         0.02146   -0.00614    0.00130   -0.00440
C3    1    0.783550    0.693105    0.328347    11.00000    0.02274    0.02245 =
         0.02243   -0.00843   -0.00106    0.00107
AFIX  23
H3A   2    0.639175    0.736137    0.357335    11.00000   -1.20000
H3B   2    1.007410    0.706690    0.339160    11.00000   -1.20000
AFIX   0
C4    1    0.715066    0.570740    0.378327    11.00000    0.01890    0.02792 =
         0.01905   -0.00520   -0.00100   -0.00327
AFIX  23
H4A   2    0.771521    0.548179    0.447041    11.00000   -1.20000
H4B   2    0.483280    0.559332    0.376104    11.00000   -1.20000
AFIX   0
C5    1    0.997503    0.391886    0.380720    11.00000    0.02709    0.02229 =
         0.02215   -0.00305   -0.00292   -0.00590
AFIX  43
H5    2    0.935214    0.361534    0.447066    11.00000   -1.20000
AFIX   0
C6    1    1.176525    0.328292    0.335723    11.00000    0.03067    0.01913 =
         0.02952   -0.00414   -0.00656   -0.00188
AFIX  43
H6    2    1.232012    0.255789    0.371612    11.00000   -1.20000
AFIX   0
C7    1    1.274442    0.372498    0.236545    11.00000    0.02283    0.02358 =
         0.03120   -0.01261   -0.00417   -0.00050
C8    1    1.185652    0.479985    0.183110    11.00000    0.02261    0.02463 =
         0.02085   -0.00756   -0.00111   -0.00302
AFIX  43
H8    2    1.248110    0.509892    0.116740    11.00000   -1.20000
AFIX   0
C9    1    1.002182    0.543123    0.229312    11.00000    0.01852    0.02104 =
         0.02292   -0.00850   -0.00351   -0.00241
C10   1    0.907449    0.500922    0.328935    11.00000    0.02006    0.02273 =
         0.02105   -0.00771   -0.00408   -0.00426
C11   1    0.558596    0.815984    0.163649    11.00000    0.02192    0.02571 =
         0.01896   -0.00614    0.00055   -0.00350
AFIX  43
H11   2    0.551297    0.821417    0.097805    11.00000   -1.20000
AFIX   0
C12   1    0.380948    0.904674    0.187378    11.00000    0.02100    0.01934 =
         0.02455   -0.00444   -0.00060   -0.00239
C13   1    0.205484    0.987771    0.298458    11.00000    0.02475    0.02106 =
         0.02781   -0.00882    0.00114   -0.00364
C14   1    0.056972    1.076639    0.226000    11.00000    0.02877    0.01938 =
         0.03767   -0.00952    0.00216    0.00198
AFIX  43
H14   2   -0.049705    1.133695    0.241718    11.00000   -1.20000
AFIX   0
C15   1    0.075898    1.075721    0.131188    11.00000    0.02830    0.02460 =
         0.03023   -0.00240   -0.00347    0.00223
AFIX  43
H15   2   -0.017966    1.132873    0.080569    11.00000   -1.20000
AFIX   0
C16   1    0.237123    0.988320    0.111539    11.00000    0.02447    0.02423 =
         0.02406   -0.00556   -0.00032   -0.00044
AFIX  43
H16   2    0.248408    0.986000    0.047716    11.00000   -1.20000
AFIX   0
C17   1    0.328909    0.898227    0.466198    11.00000    0.04159    0.02884 =
         0.02507   -0.00721    0.00206    0.00119
AFIX 137
H17A  2    0.238639    0.831305    0.465483    11.00000   -1.50000
H17B  2    0.286711    0.905347    0.529839    11.00000   -1.50000
H17C  2    0.560790    0.896779    0.452808    11.00000   -1.50000
AFIX   0
C18   1    1.548534    0.344154    0.097314    11.00000    0.03590    0.03564 =
         0.03401   -0.01622    0.00036    0.00744
AFIX 137
H18A  2    1.355831    0.363651    0.059011    11.00000   -1.50000
H18B  2    1.673117    0.288442    0.080016    11.00000   -1.50000
H18C  2    1.679046    0.407776    0.084055    11.00000   -1.50000
AFIX   0
N1    3    0.365065    0.905038    0.281682    11.00000    0.02245    0.01897 =
         0.02432   -0.00521    0.00106   -0.00242
O1    4    1.456041    0.303526    0.199396    11.00000    0.04062    0.02491 =
         0.03261   -0.01064   -0.00007    0.00691
O2    4    0.934182    0.687201    0.077620    11.00000    0.04151    0.02805 =
         0.02012   -0.00527    0.00116    0.00794
O3    4    0.180584    0.989612    0.392288    11.00000    0.03914    0.02609 =
         0.02534   -0.00947    0.00118    0.00441
HKLF 4




REM  MZ_6_2_2 in P-1
REM R1 =  0.0549 for    2124 Fo > 4sig(Fo)  and  0.0673 for all    2660 data
REM    201 parameters refined using      0 restraints

END

WGHT      0.0800      0.0519

REM Instructions for potential hydrogen bonds
HTAB C18 O2_$1
HTAB C18 O2_$2

REM Highest difference peak  0.220,  deepest hole -0.281,  1-sigma level  0.057
Q1    1   0.7462  0.6353  0.3401  11.00000  0.05    0.22
Q2    1   0.3929  0.8278  0.2023  11.00000  0.05    0.21
Q3    1   1.6453  0.2373  0.2400  11.00000  0.05    0.19
Q4    1   1.0060  0.6168  0.0732  11.00000  0.05    0.19
Q5    1   0.8473  0.5170  0.2536  11.00000  0.05    0.19
Q6    1   0.8921  0.5379  0.2317  11.00000  0.05    0.19
Q7    1   0.8961  0.5796  0.2001  11.00000  0.05    0.19
Q8    1   1.4984  0.1985  0.0944  11.00000  0.05    0.18
Q9    1   0.8916  0.5469  0.3598  11.00000  0.05    0.18
Q10   1   0.3687  0.9362  0.5233  11.00000  0.05    0.18
Q11   1   0.5995  0.8787  0.1764  11.00000  0.05    0.18
Q12   1   1.1470  0.6903  0.3393  11.00000  0.05    0.18
Q13   1   0.1915  0.9137  0.2936  11.00000  0.05    0.18
Q14   1   0.7392  0.7570  0.3669  11.00000  0.05    0.17
Q15   1   1.6819  0.2577  0.1188  11.00000  0.05    0.17
Q16   1   0.8525  0.7443  0.1000  11.00000  0.05    0.17
Q17   1   0.4566  0.9623  0.5349  11.00000  0.05    0.17
Q18   1   0.9856  0.7945  0.0431  11.00000  0.05    0.17
Q19   1   0.3994  1.1392  0.2963  11.00000  0.05    0.16
Q20   1   1.0053  0.4581  0.3736  11.00000  0.05    0.16
;
_shelx_hkl_file
;
   0   0  -2  427.14   13.23
   0   0  -3   35.69    1.30
   0   0  -4   73.19    2.53
   0   0  -5    7.98    0.50
   0   0  -6    2.48    0.31
   0   0  -7   79.43    2.94
   0   0   8    4.70    0.48
   0   0  -8    5.37    0.49
   0   0   9    1.17    0.25
   0   0   9    1.42    0.19
   0   0  -9    1.28    0.25
   0   0  10   10.32    0.60
   0   0 -10   11.05    0.83
   0   0  11    2.13    0.25
   0   0 -11    2.51    0.40
   0   0 -12    0.41    0.17
   0   0  12    0.44    0.11
   0   0  13    9.84    0.59
   0   0 -13   12.03    1.01
   0   0 -14    5.48    0.71
   0   0 -15    0.29    0.21
   0   0 -16    1.01    0.35
   0   0 -17    0.35    0.19
   0   1 -16    0.74    0.27
   0   1 -15    0.19    0.17
   0   1 -14    0.71    0.25
   0   1 -13    1.76    0.39
   0   1 -12    5.13    0.64
   0  -1  12    5.19    0.41
   0  -1  11    1.77    0.22
   0   1 -11    2.23    0.39
   0   1 -10   25.86    1.47
   0  -1  10   25.57    1.13
   0   1  -9    2.20    0.35
   0  -1   9    2.11    0.34
   0  -1   9    2.41    0.25
   0  -1   8   -0.02    0.04
   0   1  -8    0.04    0.04
   0  -1   8   -0.01    0.03
   0   1  -7   18.90    1.01
   0  -1   7   17.90    0.82
   0  -1   6    0.08    0.03
   0   1  -6    0.04    0.05
   0   1  -5   19.31    0.93
   0  -1   5   18.73    0.80
   0   1  -4    5.39    0.38
   0  -1   4    5.24    0.31
   0   1  -3   30.91    1.18
   0  -1   3   29.64    1.09
   0  -1   2    7.59    0.34
   0   1  -2    7.47    0.38
   0   1  -2    7.07    0.34
   0   1  -1   24.28    0.88
   0  -1   1   25.28    0.88
   0   1   2   18.13    0.68
   0   1   2   18.14    0.64
   0   1   3   14.68    0.65
   0  -1  -3   14.89    0.63
   0   1   4    9.64    0.52
   0  -1  -4    9.27    0.48
   0  -1  -5   32.17    1.29
   0   1   5   32.42    1.33
   0  -1  -6   21.74    1.01
   0   1   6   21.48    1.04
   0   1   7  183.12    6.25
   0  -1  -7  188.79    6.19
   0   1   8   16.34    0.98
   0  -1  -8   16.25    0.92
   0  -1  -9   13.02    0.85
   0   1   9   14.52    0.96
   0   1  10    1.43    0.29
   0  -1 -10    1.53    0.28
   0   1  11    5.55    0.42
   0  -1 -11    5.07    0.56
   0  -1 -12   22.72    1.41
   0   1  12   25.47    1.12
   0   1  13    0.13    0.05
   0  -1 -13   -0.04    0.11
   0  -1 -14    3.39    0.53
   0  -1 -15    3.25    0.55
   0  -1 -16    0.95    0.31
   0  -1 -17    0.51    0.22
   0   2 -16    2.11    0.48
   0   2 -15    0.22    0.21
   0   2 -14    1.46    0.36
   0   2 -13    0.42    0.24
   0   2 -12   27.07    1.67
   0  -2  12   25.35    1.18
   0  -2  11    9.48    0.60
   0   2 -11    8.76    0.85
   0   2 -10   22.32    1.36
   0  -2  10   21.20    1.01
   0   2  -9    0.32    0.14
   0  -2   9    0.32    0.10
   0   2  -8   13.91    0.93
   0  -2   8   12.87    0.88
   0  -2   8   13.61    0.71
   0  -2   7    1.71    0.20
   0   2  -7    2.12    0.31
   0   2  -6    0.07    0.07
   0  -2   6    0.05    0.04
   0  -2   5    0.41    0.09
   0   2  -5    0.54    0.14
   0  -2   5    0.53    0.13
   0  -2   4    0.16    0.07
   0   2  -4    0.23    0.09
   0  -2   4    0.18    0.06
   0  -2   3   11.74    0.61
   0   2  -3   12.29    0.58
   0   2  -3   12.58    0.65
   0  -2   2    0.28    0.07
   0  -2   2    0.33    0.07
   0   2  -2    0.25    0.06
   0   2  -2    0.36    0.07
   0  -2   1  163.08    5.21
   0   2  -1  169.04    5.22
   0   2  -1  164.87    5.25
   0  -2   1  161.22    5.24
   0  -2   0   79.63    2.63
   0   2   0   81.42    2.64
   0  -2   0   81.45    2.62
   0  -2  -1    0.01    0.01
   0   2   1    0.00    0.01
   0  -2  -1    0.03    0.02
   0   2   2   19.79    0.71
   0  -2  -2   18.13    0.72
   0   2   2   17.27    0.73
   0  -2  -2   17.60    0.72
   0   2   3    2.49    0.19
   0  -2  -3    2.32    0.19
   0  -2  -3    2.13    0.19
   0   2   4   25.94    1.02
   0  -2  -4   26.74    1.06
   0   2   4   27.97    1.13
   0  -2  -5    5.69    0.38
   0   2   5    5.66    0.35
   0   2   5    5.76    0.43
   0  -2  -6   14.38    0.75
   0   2   6   14.35    0.69
   0  -2  -7   55.07    2.19
   0   2   7   62.19    2.35
   0  -2  -8   29.06    1.35
   0   2   8   29.61    1.46
   0  -2  -9   10.61    0.73
   0   2   9   11.32    0.84
   0   2  10    0.69    0.19
   0  -2 -10    0.77    0.20
   0  -2 -11    2.29    0.35
   0  -2 -12    0.39    0.15
   0   2  12    0.39    0.11
   0  -2 -13    1.27    0.29
   0   2  13    1.52    0.22
   0  -2 -14   11.79    0.99
   0   2  14   10.26    0.66
   0  -2 -15    2.24    0.44
   0  -2 -16    1.60    0.40
   0  -2 -17    1.05    0.32
   0   3 -15    0.83    0.31
   0   3 -14    0.43    0.23
   0   3 -13    0.68    0.25
   0   3 -12    4.06    0.61
   0   3 -11    6.13    0.72
   0  -3  11    6.36    0.50
   0   3 -10   34.24    1.87
   0  -3  10   34.81    1.49
   0   3  -9    2.98    0.44
   0  -3   9    3.05    0.31
   0  -3   8    3.72    0.45
   0   3  -8    3.97    0.49
   0  -3   8    4.29    0.36
   0   3  -7   32.29    1.56
   0  -3   7   30.76    1.47
   0  -3   7   27.97    1.24
   0   3  -6    6.31    0.56
   0  -3   6    5.49    0.41
   0  -3   6    5.99    0.51
   0   3  -5    6.43    0.54
   0  -3   5    5.81    0.40
   0  -3   4   16.14    0.87
   0   3  -4   15.76    0.84
   0  -3   4   17.88    0.79
   0   3  -4   18.06    0.94
   0   3  -3   32.91    1.33
   0  -3   3   29.88    1.26
   0   3  -3   31.27    1.25
   0  -3   3   29.23    1.18
   0   3  -2   21.48    0.95
   0  -3   2   19.27    0.92
   0  -3   2   21.52    0.87
   0   3  -2   21.44    0.90
   0  -3   1   12.97    0.58
   0   3  -1   13.02    0.59
   0   3  -1   11.56    0.61
   0  -3   1   11.68    0.59
   0  -3   0  243.91    7.68
   0  -3   0  242.05    7.67
   0   3   0  243.90    7.69
   0  -3  -1    7.18    0.37
   0  -3  -1    7.27    0.38
   0   3   1    7.14    0.38
   0  -3  -2   45.89    1.75
   0   3   2   53.05    1.75
   0  -3  -2   47.10    1.76
   0   3   2   54.98    1.76
   0  -3  -3   16.26    0.77
   0   3   3   17.09    0.73
   0   3   4   85.90    3.01
   0   3   4   90.82    2.92
   0  -3  -4   85.19    2.93
   0  -3  -4   83.25    2.95
   0   3   5    2.99    0.25
   0  -3  -5    2.52    0.25
   0   3   6   55.48    1.92
   0   3   6   49.74    2.09
   0  -3  -6   49.18    1.93
   0   3   7    0.91    0.15
   0   3   7    1.13    0.22
   0  -3  -7    1.02    0.17
   0   3   8    7.86    0.51
   0   3   8    9.37    0.71
   0  -3  -8    9.06    0.60
   0   3   9    0.01    0.01
   0   3   9    0.08    0.07
   0   3  10   -0.02    0.07
   0   3  10    0.05    0.03
   0  -3 -11    5.45    0.55
   0   3  11    4.75    0.60
   0   3  11    5.17    0.42
   0   3  12    6.05    0.47
   0  -3 -12    5.59    0.59
   0  -3 -13    0.21    0.15
   0   3  13    0.43    0.12
   0   3  14    1.13    0.19
   0  -3 -14    0.98    0.28
   0  -3 -15    0.17    0.15
   0  -3 -16    0.43    0.20
   0  -3 -17    0.86    0.30
   0  -3 -18    0.48    0.23
   0   4 -14    0.18    0.17
   0   4 -13    2.91    0.56
   0   4 -12    0.79    0.28
   0   4 -11    2.57    0.48
   0  -4  11    3.56    0.37
   0   4 -10   24.99    1.56
   0  -4  10   25.01    1.21
   0  -4   9   15.69    0.87
   0   4  -9   16.40    1.15
   0   4  -8    5.78    0.61
   0  -4   8    5.73    0.46
   0  -4   7    5.36    0.43
   0   4  -7    5.10    0.55
   0  -4   7    5.42    0.53
   0  -4   6    6.61    0.48
   0   4  -6    6.56    0.64
   0  -4   5    0.63    0.13
   0   4  -5    0.43    0.12
   0   4  -5    0.69    0.18
   0   4  -4   67.67    2.56
   0  -4   4   63.40    2.47
   0   4  -4   63.03    2.44
   0  -4   4   68.41    2.38
   0  -4   3    3.97    0.33
   0  -4   3    4.02    0.36
   0   4  -3    4.24    0.36
   0   4  -3    3.73    0.37
   0   4  -2    0.07    0.05
   0   4  -2    0.08    0.05
   0  -4   2    0.06    0.04
   0  -4   2   -0.01    0.02
   0  -4   1    4.32    0.31
   0   4  -1    3.54    0.33
   0   4  -1    3.94    0.31
   0  -4   1    3.37    0.29
   0  -4   0    0.21    0.07
   0   4   0    0.29    0.08
   0  -4   0    0.26    0.07
   0  -4  -1    6.15    0.37
   0   4   1    5.96    0.37
   0  -4  -1    5.02    0.35
   0  -4  -2   25.49    1.04
   0   4   2   25.48    1.01
   0   4   2   23.88    0.99
   0  -4  -2   24.68    1.01
   0   4   3   41.81    1.52
   0  -4  -3   37.50    1.57
   0  -4  -3   42.23    1.58
   0  -4  -3   42.69    1.56
   0  -4  -4    6.32    0.44
   0  -4  -4    6.21    0.44
   0   4   4    7.18    0.41
   0  -4  -4    5.87    0.43
   0   4   5   14.78    0.82
   0  -4  -5   14.93    0.75
   0   4   5   16.23    0.74
   0  -4  -5   15.14    0.80
   0  -4  -6    2.94    0.29
   0   4   6    2.90    0.27
   0   4   6    2.94    0.34
   0  -4  -7    5.81    0.44
   0   4   7    5.54    0.52
   0   4   7    5.06    0.39
   0  -4  -8    1.60    0.23
   0   4   8    1.74    0.22
   0   4   8    2.01    0.33
   0   4   9    3.09    0.45
   0   4   9    2.29    0.26
   0  -4  -9    2.78    0.32
   0  -4 -10    0.26    0.10
   0   4  10    0.49    0.20
   0   4  10    0.25    0.09
   0   4  11   15.74    0.85
   0   4  11   18.35    1.29
   0  -4 -11   15.94    1.00
   0   4  12   -0.01    0.01
   0  -4 -12    0.06    0.08
   0   4  13    0.08    0.05
   0  -4 -13    0.05    0.08
   0   4  14    0.87    0.16
   0  -4 -14    0.95    0.25
   0  -4 -15    0.29    0.15
   0  -4 -16    1.25    0.32
   0  -4 -17    0.19    0.16
   0  -4 -18    3.41    0.61
   0   5 -14    2.73    0.56
   0   5 -13    7.27    0.91
   0   5 -12    0.51    0.21
   0   5 -11    5.57    0.74
   0  -5  10    0.91    0.19
   0   5 -10    1.24    0.32
   0  -5   9   14.15    0.86
   0   5  -9   16.36    1.19
   0  -5   8   66.38    2.58
   0   5  -8   70.53    3.03
   0  -5   7   52.55    2.28
   0   5  -7   53.03    2.38
   0  -5   7   49.48    2.05
   0   5  -6   33.00    1.73
   0  -5   6   35.36    1.67
   0  -5   6   35.42    1.50
   0  -5   5    0.04    0.06
   0   5  -5    0.15    0.10
   0   5  -5    0.04    0.04
   0   5  -4   62.22    2.42
   0   5  -4   50.51    2.18
   0   5  -4   53.31    2.29
   0  -5   4   58.77    2.15
   0  -5   3   20.68    1.04
   0   5  -3   21.58    1.19
   0  -5   3   19.06    0.98
   0   5  -2  122.73    4.54
   0  -5   2  128.96    4.41
   0  -5   2  134.99    4.48
   0   5  -2  137.39    4.48
   0  -5   1   56.02    2.06
   0   5  -1   53.82    2.13
   0  -5   1   54.96    2.08
   0   5  -1   56.90    2.09
   0   5   0  110.90    3.80
   0  -5   0  110.78    3.78
   0  -5   0  111.30    3.76
   0  -5   0  112.05    3.76
   0  -5  -1    2.42    0.24
   0   5   1    2.54    0.25
   0  -5  -1    2.14    0.23
   0  -5  -2    0.83    0.15
   0   5   2    0.97    0.15
   0  -5  -2    0.88    0.14
   0   5   3   17.19    0.83
   0  -5  -3   18.15    0.88
   0   5   3   20.45    0.87
   0  -5  -3   18.96    0.92
   0  -5  -4   13.43    0.78
   0  -5  -4   14.57    0.78
   0   5   4   12.98    0.68
   0  -5  -5   45.27    1.94
   0   5   5   45.42    1.81
   0  -5  -5   49.41    1.96
   0  -5  -6    3.80    0.37
   0   5   6    3.85    0.32
   0   5   6    3.81    0.41
   0  -5  -6    3.59    0.33
   0   5   7    0.02    0.04
   0   5   7    0.00    0.02
   0  -5  -7    0.05    0.06
   0  -5  -7    0.07    0.05
   0   5   8   24.95    1.35
   0  -5  -8   24.31    1.16
   0   5   8   24.64    1.11
   0   5   9   27.93    1.49
   0   5   9   25.65    1.15
   0   5  10    7.66    0.53
   0  -5 -10    7.37    0.59
   0   5  10    8.29    0.78
   0   5  11    2.12    0.41
   0  -5 -11    1.57    0.28
   0   5  11    1.91    0.25
   0  -5 -12    5.96    0.58
   0   5  12    5.72    0.45
   0   5  13    3.15    0.33
   0  -5 -13    4.02    0.50
   0  -5 -14    0.18    0.13
   0   5  14    0.09    0.07
   0   5  15   16.97    0.85
   0  -5 -15   17.05    1.22
   0  -5 -16    1.05    0.27
   0  -5 -17    1.11    0.32
   0  -5 -18    0.04    0.07
   0   6 -14    0.34    0.18
   0   6 -13    0.66    0.33
   0   6 -13    0.80    0.29
   0   6 -12    4.05    0.66
   0   6 -12    5.13    0.81
   0   6 -11    0.21    0.17
   0   6 -11    0.03    0.04
   0   6 -10    2.28    0.50
   0   6 -10    2.41    0.50
   0   6  -9    4.70    0.64
   0   6  -9    4.91    0.70
   0  -6   9    3.31    0.40
   0   6  -8   51.18    2.60
   0   6  -8   50.96    2.43
   0   6  -7    7.28    0.74
   0  -6   7    9.05    0.65
   0   6  -7    8.68    0.85
   0  -6   6    8.72    0.72
   0  -6   6   10.23    0.67
   0   6  -6    9.53    0.84
   0   6  -6    8.53    0.77
   0   6  -5    0.26    0.14
   0  -6   5    0.39    0.12
   0   6  -5    0.32    0.11
   0  -6   5    0.34    0.12
   0   6  -4   12.28    0.80
   0   6  -4   11.46    0.86
   0  -6   4    9.90    0.71
   0  -6   4    9.71    0.67
   0  -6   3    3.78    0.38
   0   6  -3    4.54    0.50
   0   6  -3    4.63    0.46
   0  -6   2    6.36    0.50
   0  -6   2    6.34    0.48
   0   6  -2    7.25    0.54
   0   6  -2    5.88    0.54
   0   6  -1   45.45    1.96
   0   6  -1   45.74    1.90
   0  -6   1   50.23    1.90
   0  -6   1   50.54    1.92
   0  -6   0   31.17    1.36
   0   6   0   33.17    1.43
   0  -6   0   33.93    1.40
   0   6   1    0.12    0.05
   0  -6  -1    0.37    0.11
   0  -6  -1    0.33    0.10
   0  -6  -2   11.30    0.69
   0   6   2   12.91    0.68
   0  -6  -2   12.63    0.68
   0  -6  -3    5.87    0.47
   0   6   3    6.21    0.42
   0  -6  -3    5.11    0.41
   0   6   3    4.75    0.40
   0  -6  -4  105.98    3.66
   0  -6  -4   96.68    3.54
   0  -6  -4  100.74    3.54
   0   6   4  102.48    3.49
   0  -6  -5   94.75    3.28
   0   6   5   87.05    3.10
   0  -6  -5   87.60    3.16
   0  -6  -5   86.61    3.27
   0   6   6    5.62    0.42
   0  -6  -6    6.20    0.54
   0  -6  -6    4.47    0.45
   0  -6  -7   12.54    0.74
   0   6   7   11.82    0.68
   0  -6  -7   11.60    0.78
   0  -6  -8    0.15    0.10
   0   6   8    0.12    0.07
   0   6   8    0.15    0.05
   0  -6  -8    0.09    0.07
   0   6   9    5.70    0.45
   0  -6  -9    5.34    0.47
   0   6   9    6.08    0.62
   0   6  10    0.09    0.09
   0   6  10    0.14    0.06
   0  -6 -10    0.07    0.08
   0  -6 -11    0.78    0.18
   0   6  11    1.27    0.31
   0   6  11    0.95    0.18
   0  -6 -12   72.03    2.83
   0   6  12   66.72    2.55
   0   6  13    0.06    0.05
   0  -6 -13    0.08    0.11
   0  -6 -14   21.82    1.35
   0   6  14   22.83    1.07
   0   6  15    0.60    0.14
   0  -6 -15    0.34    0.16
   0  -6 -16    1.58    0.34
   0  -6 -17    0.03    0.05
   0  -6 -18    0.80    0.25
   0  -6 -19    2.30    0.51
   0   7 -13    0.10    0.16
   0   7 -12    0.88    0.36
   0   7 -11    1.69    0.47
   0   7 -10    2.57    0.54
   0   7  -9    1.61    0.43
   0   7  -8    0.08    0.15
   0   7  -7    2.78    0.48
   0  -7   6    9.18    0.70
   0   7  -6   12.14    1.00
   0   7  -6   10.93    0.86
   0  -7   5    3.87    0.42
   0   7  -5    3.76    0.54
   0   7  -5    4.07    0.49
   0  -7   5    4.31    0.48
   0   7  -4   12.75    0.86
   0   7  -4   11.23    0.90
   0  -7   4   12.04    0.83
   0  -7   4    9.56    0.70
   0   7  -3    0.00    0.03
   0  -7   3    0.09    0.08
   0   7  -3    0.08    0.08
   0   7  -2    2.24    0.33
   0  -7   2    2.34    0.30
   0   7  -2    2.36    0.33
   0   7  -1   16.92    0.93
   0   7  -1   15.49    0.95
   0  -7   1   15.74    0.88
   0  -7   1   15.32    0.88
   0  -7   0    0.32    0.13
   0  -7   0    0.45    0.13
   0   7   0    0.60    0.16
   0  -7  -1    0.37    0.11
   0  -7  -1    0.40    0.12
   0   7   1    0.44    0.13
   0   7   2    5.20    0.42
   0  -7  -2    3.98    0.41
   0  -7  -2    5.09    0.42
   0  -7  -3   77.13    2.66
   0  -7  -3   73.66    2.76
   0  -7  -4    0.71    0.17
   0  -7  -4    0.50    0.13
   0  -7  -5    3.58    0.38
   0  -7  -5    3.58    0.36
   0  -7  -5    3.06    0.39
   0  -7  -6    4.29    0.47
   0  -7  -6    5.47    0.51
   0  -7  -7   55.21    2.12
   0  -7  -7   53.88    2.27
   0  -7  -7   48.80    2.23
   0  -7  -8    3.91    0.40
   0  -7  -8    3.78    0.44
   0  -7  -8    4.48    0.49
   0  -7  -9    0.13    0.08
   0   7  10   20.94    1.32
   0  -7 -10   15.54    0.94
   0   7  11    9.17    0.87
   0  -7 -11    7.90    0.63
   0  -7 -12   57.15    2.37
   0   7  12   52.48    2.72
   0  -7 -13    5.53    0.58
   0  -7 -14   20.37    1.26
   0  -7 -15   -0.05    0.04
   0  -7 -16    0.19    0.15
   0  -7 -17    2.49    0.47
   0  -7 -18    0.07    0.09
   0  -7 -19    5.04    0.73
   0   8 -12    0.55    0.24
   0   8 -11   -0.01    0.07
   0   8 -10    2.33    0.53
   0   8  -9    0.21    0.16
   0   8  -8    8.23    0.94
   0   8  -7   11.45    1.08
   0   8  -6    1.81    0.35
   0   8  -6    1.29    0.34
   0   8  -5    1.59    0.32
   0   8  -5    1.48    0.33
   0  -8   4    2.02    0.32
   0   8  -4    2.04    0.38
   0   8  -4    1.85    0.34
   0  -8   3    0.03    0.04
   0   8  -3    0.03    0.07
   0  -8   3    0.04    0.02
   0   8  -3   -0.01    0.08
   0   8  -2    0.09    0.08
   0  -8   2    0.20    0.09
   0  -8   1   11.15    0.78
   0   8  -1   13.20    0.85
   0   8  -1   12.58    0.87
   0  -8   0    1.72    0.26
   0   8   0    1.48    0.26
   0   8   0    1.92    0.30
   0  -8   0    1.59    0.27
   0  -8  -1    5.40    0.51
   0  -8  -1    5.44    0.46
   0   8   1    4.52    0.45
   0   8   1    5.13    0.49
   0  -8  -1    5.34    0.47
   0   8   2    0.70    0.16
   0  -8  -2    0.52    0.14
   0  -8  -2    0.55    0.15
   0   8   2    0.63    0.17
   0   8   3   23.23    1.17
   0  -8  -3   21.46    1.10
   0  -8  -3   21.13    1.20
   0   8   3   23.02    1.11
   0   8   4   13.22    0.74
   0   8   4   11.33    0.74
   0  -8  -4   12.51    0.86
   0  -8  -4   11.57    0.75
   0  -8  -5    4.98    0.45
   0  -8  -5    4.98    0.53
   0   8   5    4.70    0.44
   0  -8  -5    5.50    0.49
   0  -8  -6    1.90    0.27
   0   8   6    1.87    0.27
   0  -8  -6    2.77    0.39
   0  -8  -6    2.23    0.32
   0  -8  -7   -0.04    0.09
   0  -8  -7   -0.03    0.05
   0  -8  -7    0.00    0.02
   0   8   7    0.02    0.06
   0  -8  -8    0.02    0.06
   0  -8  -8    0.05    0.05
   0   8   8   -0.01    0.04
   0  -8  -8    0.08    0.07
   0  -8  -9    1.42    0.24
   0   8   9    1.80    0.26
   0   8  10   24.79    1.20
   0  -8 -10   25.83    1.28
   0  -8 -10   23.44    1.43
   0   8  11    0.07    0.06
   0  -8 -11    0.11    0.08
   0   8  12    5.51    0.47
   0   8  12    5.28    0.71
   0  -8 -12    4.80    0.50
   0  -8 -13    0.22    0.09
   0   8  13    0.25    0.09
   0   8  14    4.83    0.44
   0  -8 -14    4.86    0.56
   0  -8 -15    1.17    0.28
   0   8  15    0.97    0.20
   0  -8 -16    0.26    0.13
   0  -8 -17    0.87    0.27
   0  -8 -18    0.05    0.10
   0  -8 -19   -0.22    0.14
   0   9 -12    0.48    0.28
   0   9 -11    0.27    0.26
   0   9 -10    4.53    0.79
   0   9  -9    2.60    0.55
   0   9  -8    0.09    0.14
   0   9  -7    4.80    0.71
   0   9  -6    1.13    0.33
   0   9  -6    1.26    0.33
   0   9  -5    2.38    0.42
   0   9  -5    2.60    0.46
   0   9  -4    0.47    0.19
   0   9  -4    0.42    0.18
   0  -9   3    2.66    0.37
   0   9  -3    2.56    0.40
   0   9  -3    2.57    0.42
   0   9  -2    0.57    0.19
   0   9  -2    0.42    0.18
   0  -9   2    0.49    0.15
   0   9  -1    0.18    0.10
   0   9  -1    0.15    0.10
   0   9   0   13.74    0.94
   0   9   0   15.20    0.97
   0   9   1    1.03    0.22
   0  -9  -1    1.11    0.21
   0  -9  -1    0.78    0.20
   0   9   1    0.77    0.19
   0   9   2    3.00    0.36
   0  -9  -2    2.37    0.36
   0   9   2    2.45    0.35
   0  -9  -2    2.71    0.34
   0  -9  -3    0.34    0.15
   0  -9  -3    0.44    0.13
   0   9   3    0.22    0.11
   0   9   3    0.50    0.14
   0   9   4   16.30    0.91
   0  -9  -4   15.71    0.93
   0  -9  -4   16.82    1.09
   0   9   4   17.22    1.00
   0  -9  -5   10.11    0.72
   0   9   5    9.37    0.70
   0  -9  -5   10.43    0.84
   0  -9  -6    0.16    0.10
   0   9   6    0.16    0.09
   0  -9  -6    0.17    0.12
   0  -9  -6    0.17    0.09
   0  -9  -7    0.50    0.16
   0  -9  -7    0.49    0.16
   0   9   7    0.37    0.12
   0  -9  -7    0.54    0.17
   0   9   8    0.59    0.16
   0  -9  -8    0.37    0.16
   0  -9  -8    0.49    0.18
   0  -9  -8    0.55    0.14
   0  -9  -9    0.93    0.20
   0  -9  -9    0.98    0.25
   0   9   9    0.89    0.20
   0   9  10   33.44    1.52
   0  -9 -10   32.38    1.79
   0  -9 -10   31.66    1.50
   0  -9 -10   30.46    1.74
   0  -9 -11   24.10    1.25
   0   9  11   25.14    1.23
   0  -9 -12    3.26    0.40
   0   9  12    3.40    0.38
   0   9  13    4.08    0.42
   0  -9 -13    3.84    0.46
   0   9  14    2.64    0.34
   0  -9 -14    4.34    0.51
   0  -9 -15   -0.03    0.02
   0   9  15    0.05    0.03
   0  -9 -16    1.60    0.34
   0  -9 -17    0.13    0.13
   0  -9 -18    0.19    0.15
   0  -9 -19    1.18    0.33
   0  10 -11    0.08    0.09
   0  10 -10    7.89    1.06
   0  10  -9    1.21    0.41
   0  10  -8    6.51    0.89
   0  10  -7    3.55    0.62
   0  10  -6    0.53    0.21
   0  10  -6    1.10    0.33
   0  10  -5    0.15    0.03
   0  10  -5    0.28    0.17
   0  10  -4    1.00    0.29
   0  10  -4    0.70    0.22
   0 -10   3    1.42    0.28
   0  10  -3    1.25    0.30
   0  10  -3    0.94    0.27
   0  10  -2    1.63    0.33
   0 -10   2    1.50    0.28
   0  10  -2    1.28    0.30
   0  10  -1   12.34    0.95
   0  10  -1   12.30    0.95
   0 -10   1   11.88    0.84
   0  10   0   43.01    2.03
   0  10   0   40.98    1.99
   0  10   1    1.10    0.25
   0  10   1    0.86    0.22
   0 -10  -2    2.32    0.32
   0  10   2    2.27    0.32
   0  10   2    1.79    0.31
   0 -10  -2    2.26    0.31
   0 -10  -3   12.34    0.82
   0  10   3   13.33    0.85
   0  10   3   13.15    0.91
   0  10   4    1.16    0.24
   0  10   4    1.53    0.24
   0 -10  -4    1.17    0.21
   0 -10  -5    0.57    0.15
   0  10   5    0.45    0.16
   0  10   6    6.09    0.57
   0 -10  -6    6.02    0.57
   0 -10  -6    6.21    0.55
   0  10   7    7.71    0.65
   0 -10  -7    8.47    0.72
   0 -10  -7    7.50    0.63
   0 -10  -8    3.63    0.47
   0 -10  -8    4.69    0.49
   0  10   8    4.03    0.46
   0  10   9    1.23    0.24
   0 -10  -9    0.90    0.20
   0 -10 -10    2.82    0.45
   0 -10 -10    2.37    0.32
   0  10  10    1.96    0.32
   0  10  11    8.39    0.66
   0 -10 -11    7.90    0.64
   0 -10 -11    6.95    0.77
   0  10  12   10.13    0.74
   0 -10 -12    9.40    0.72
   0 -10 -13    0.39    0.15
   0  10  13    0.35    0.13
   0 -10 -14    0.02    0.04
   0  10  14    0.03    0.04
   0  10  15    0.92    0.20
   0 -10 -15    1.36    0.29
   0 -10 -16    0.43    0.18
   0 -10 -17    0.73    0.25
   0 -10 -18    0.93    0.27
   0  11 -10    2.35    0.58
   0  11  -9    0.03    0.03
   0  11  -8   10.51    1.19
   0  11  -7    2.07    0.50
   0  11  -6    2.11    0.49
   0  11  -5    0.57    0.24
   0  11  -5    0.20    0.12
   0  11  -4    0.70    0.25
   0  11  -4    0.24    0.13
   0  11  -3   17.40    1.31
   0  11  -3   18.92    1.34
   0  11  -2    4.69    0.61
   0  11  -2    4.49    0.60
   0 -11   2    4.61    0.51
   0  11  -1    0.67    0.24
   0 -11   1    0.77    0.20
   0  11  -1    0.68    0.22
   0 -11   0   17.54    1.07
   0  11   0   17.55    1.20
   0  11   0   18.55    1.21
   0  11   1    2.04    0.36
   0  11   1    1.87    0.33
   0  11   2    6.81    0.67
   0  11   2    7.73    0.66
   0  11   3    4.20    0.52
   0 -11  -3    5.59    0.51
   0  11   3    4.72    0.49
   0 -11  -3    4.78    0.48
   0  11   4   44.90    1.87
   0 -11  -4   38.19    1.82
   0  11   4   40.71    1.98
   0  11   5    6.31    0.63
   0 -11  -5    6.88    0.60
   0 -11  -6   36.90    1.77
   0 -11  -6   38.82    1.79
   0  11   6   36.33    1.81
   0  11   7    1.48    0.30
   0 -11  -7    0.93    0.22
   0 -11  -7    0.85    0.21
   0  11   8    0.35    0.16
   0 -11  -8    0.17    0.10
   0  11   9    0.87    0.22
   0 -11  -9    0.91    0.20
   0  11  10   10.15    0.79
   0 -11 -10   10.64    0.75
   0  11  11    0.09    0.08
   0 -11 -11    0.17    0.16
   0 -11 -11    0.13    0.10
   0 -11 -12   14.19    0.92
   0  11  12   14.38    0.97
   0 -11 -13    5.03    0.51
   0  11  13    4.93    0.53
   0 -11 -14    0.50    0.15
   0  11  14    0.55    0.18
   0  11  15    2.34    0.35
   0 -11 -15    2.29    0.38
   0 -11 -16    1.94    0.36
   0 -11 -17    1.84    0.37
   0  12  -9    0.79    0.35
   0  12  -8    2.17    0.55
   0  12  -7    0.31    0.25
   0  12  -6   -0.02    0.05
   0  12  -5    0.45    0.33
   0  12  -5    0.10    0.08
   0  12  -4    0.84    0.29
   0  12  -4    0.86    0.29
   0  12  -3    1.40    0.36
   0  12  -3    1.54    0.38
   0  12  -2    0.23    0.14
   0  12  -2    0.22    0.15
   0  12  -1   28.98    1.70
   0 -12   1   27.89    1.46
   0  12   0   14.35    1.08
   0  12   0   12.74    1.06
   0 -12   0   11.96    0.87
   0  12   1   30.07    1.61
   0 -12  -1   25.50    1.40
   0  12   1   29.55    1.68
   0  12   2    0.05    0.05
   0  12   2    0.01    0.08
   0  12   3    0.34    0.16
   0  12   3    0.03    0.04
   0  12   4   57.30    2.64
   0 -12  -4   58.92    2.46
   0  12   4   61.56    2.47
   0  12   5   14.84    1.03
   0 -12  -5   10.62    0.81
   0  12   6   10.31    0.86
   0 -12  -6   10.62    0.82
   0 -12  -6   10.39    0.79
   0  12   7    6.07    0.63
   0 -12  -7    6.90    0.62
   0 -12  -7    5.31    0.57
   0 -12  -8    3.28    0.42
   0  12   8    2.31    0.38
   0 -12  -9    0.49    0.15
   0  12   9    0.42    0.17
   0  12  10    1.08    0.27
   0 -12 -10    1.04    0.22
   0 -12 -11   17.85    1.05
   0  12  11   18.17    1.17
   0 -12 -12    0.05    0.06
   0  12  12   -0.04    0.04
   0  12  13    1.51    0.31
   0 -12 -13    2.05    0.32
   0 -12 -14    0.20    0.11
   0  12  14    0.42    0.17
   0  12  15    0.44    0.16
   0  13  -5    1.42    0.37
   0  13  -5    1.22    0.37
   0  13  -4    0.23    0.14
   0  13  -4    0.26    0.18
   0  13  -3    0.43    0.21
   0  13  -3    0.48    0.22
   0  13  -2    4.79    0.67
   0  13  -2    4.38    0.65
   0  13  -1    2.91    0.52
   0  13  -1    2.30    0.44
   0  13   0    5.96    0.74
   0  13   0    4.35    0.60
   0  13   1    5.27    0.68
   0  13   1    5.38    0.61
   0  13   2   -0.18    0.11
   0  13   2   -0.05    0.03
   0  13   3    0.10    0.11
   0  13   3    0.02    0.11
   0  13   4    0.23    0.13
   0  13   4    0.05    0.07
   0  13   5    4.49    0.59
   0 -13  -6   15.26    1.05
   0  13   6   15.44    1.13
   0 -13  -7    2.07    0.33
   0  13   7    2.35    0.42
   0 -13  -8    3.48    0.44
   0  13   8    2.10    0.40
   0  13   9    0.18    0.11
   0 -13  -9    0.02    0.04
   0  13  10   -0.04    0.05
   0 -13 -10   -0.03    0.03
   0 -13 -11    0.25    0.12
   0  13  11    0.18    0.12
   0  13  12    2.41    0.41
   0  13  13    0.30    0.15
   0  13  14    0.61    0.19
   0  13  15    1.73    0.34
   0  14  -4    7.95    0.99
   0  14  -3    1.29    0.37
   0  14  -2    1.09    0.36
   0  14  -1    0.74    0.30
   0  14   0    0.24    0.16
   0  14   1    2.34    0.47
   0  14   2    2.71    0.50
   0  14   3    4.94    0.66
   0  14   4    3.93    0.58
   0  14   5    0.24    0.13
   0  14   6    5.60    0.68
   0  14   7    0.14    0.09
   0  14   8    1.89    0.39
   0  14   9    0.60    0.20
   0  14  10    0.34    0.16
   0  14  11    0.32    0.15
   0  14  12    0.03    0.05
   0  14  13    0.86    0.24
   0  14  14    0.92    0.25
   0  14  15    2.33    0.42
   0  15  -1    0.28    0.16
   0  15   0    0.20    0.15
   0  15   1    1.82    0.45
   0  15   2    4.50    0.69
   0  15   3    0.44    0.23
   0  15   4    0.66    0.26
   0  15   5   -0.17    0.12
   0  15   6    0.50    0.21
   0  15   7    0.07    0.13
   0  15   8    7.86    0.84
   0  15   9    0.01    0.09
   0  15  10    0.02    0.10
   0  15  11    0.75    0.26
   0  15  12    0.04    0.02
   0  15  13    0.00    0.04
   0  15  14    0.05    0.07
   0  15  15    5.51    0.69
   0  16   3    0.15    0.14
   0  16   4    3.90    0.65
   0  16   5    1.03    0.33
   0  16   6    0.20    0.11
   0  16   7    1.13    0.34
   0  16   8    0.38    0.21
   0  16   9    1.69    0.41
   0  16  10    0.31    0.20
   0  16  11    0.64    0.25
   0  16  12    1.94    0.42
   0  16  13    0.70    0.24
   0  16  14    0.24    0.14
  -1  15  14    0.66    0.25
  -1  15  13    3.25    0.55
  -1  15  12    2.17    0.45
  -1  15  11    0.45    0.23
  -1  15  10    0.59    0.23
  -1  15   9    1.38    0.34
  -1  15   8    3.95    0.59
  -1  15   7    0.09    0.10
  -1  15   6   -0.07    0.05
  -1  15   5   -0.01    0.02
  -1  15   4    9.22    0.96
  -1  15   3    0.22    0.18
  -1  15   2   15.21    1.28
  -1  15   1   -0.08    0.11
  -1  15   0    0.87    0.30
  -1  14  16    0.28    0.15
  -1  14  15    0.50    0.21
  -1  14  14    0.10    0.14
  -1  14  13    0.53    0.22
  -1  14  12    0.22    0.10
  -1  14  11    1.88    0.41
  -1  14  10    0.73    0.23
  -1  14   9    0.24    0.15
  -1  14   8   -0.01    0.03
  -1  14   7    0.38    0.19
  -1  14   6    4.01    0.60
  -1  14   5    0.03    0.06
  -1  14   4    0.44    0.18
  -1  14   3    0.24    0.12
  -1  14   2    0.83    0.27
  -1  14   1    0.36    0.17
  -1  14   0    1.66    0.39
  -1  14  -1    0.31    0.15
  -1  14  -2    0.64    0.26
  -1  14  -3    0.38    0.20
  -1  14  -4    0.06    0.03
  -1  13  16    1.11    0.28
  -1  13  15    0.62    0.21
  -1  13  14    5.13    0.64
  -1  13  13    0.64    0.22
  -1  13  12    0.19    0.12
  -1  13  11    0.50    0.20
  -1  13  10    0.17    0.14
  -1  13   9    0.35    0.15
  -1  13   8    1.44    0.35
  -1  13   7   18.46    1.28
  -1  13   6    0.04    0.08
  -1  13   5    0.11    0.10
  -1  13   4    3.26    0.49
  -1  13   3    0.32    0.16
  -1  13   2    1.75    0.36
  -1  13   1    6.46    0.74
  -1  13   0    0.18    0.14
  -1  13  -1    0.00    0.13
  -1  13  -2    0.29    0.19
  -1  13  -3    1.27    0.34
  -1  13  -4    1.21    0.37
  -1  13  -5    0.14    0.13
  -1  13  -6    0.89    0.32
  -1  13  -7    0.06    0.09
  -1  12  16   -0.03    0.06
  -1  12  15    2.01    0.38
  -1  12  14    1.03    0.27
  -1  12  13    0.66    0.21
  -1  12  12    0.15    0.09
  -1  12  11    0.11    0.13
  -1  12  10    0.27    0.22
  -1  12   9    0.69    0.21
  -1  12   8    4.03    0.52
  -1  12   7    4.39    0.55
  -1  12   6   -0.01    0.07
  -1  12   5    0.76    0.23
  -1  12   4    0.33    0.16
  -1  12   3    0.36    0.17
  -1  12   2    3.89    0.52
  -1  12   1    0.94    0.25
  -1  12   0    4.17    0.56
  -1  12   0    5.01    0.43
  -1  12  -1    0.23    0.14
  -1  12  -1    0.08    0.10
  -1  12  -2    0.83    0.25
  -1  12  -2    1.09    0.26
  -1  12  -3    1.32    0.33
  -1  12  -4    0.85    0.29
  -1  12  -5    7.54    0.84
  -1  12  -6    1.20    0.33
  -1  12  -7    0.34    0.16
  -1  12  -8    0.53    0.24
  -1  11  16    4.54    0.57
  -1  11  15    1.49    0.32
  -1  11  14    0.49    0.19
  -1  11  13    2.93    0.46
  -1  11  12    2.97    0.46
  -1  11  11    0.37    0.17
   1 -11 -11    0.25    0.10
   1 -11 -10    1.17    0.15
  -1  11  10    1.66    0.33
  -1  11   9    2.24    0.38
   1 -11  -9    2.47    0.19
  -1  11   8    0.17    0.09
   1 -11  -8    0.35    0.09
  -1  11   7    3.37    0.46
  -1  11   6    0.46    0.16
  -1  11   5   12.80    0.94
  -1  11   4   19.09    1.20
   1 -11  -3    4.07    0.23
  -1  11   3    4.87    0.55
   1 -11  -2    3.17    0.24
  -1  11   2    3.69    0.48
  -1  11   1   15.98    0.73
  -1  11   1   15.45    1.10
  -1  11   0   15.11    1.10
   1 -11   0   15.92    0.83
  -1  11  -1    5.04    0.49
  -1  11  -1    5.76    0.63
  -1  11  -2    0.00    0.03
   1 -11   2    0.04    0.07
  -1  11  -2   -0.11    0.12
  -1  11  -3    0.92    0.25
  -1  11  -3    1.09    0.26
  -1  11  -4    0.70    0.22
  -1  11  -4    0.52    0.22
  -1  11  -5    0.88    0.27
  -1  11  -5    0.95    0.27
  -1  11  -6   -0.08    0.10
  -1  11  -6   -0.01    0.05
  -1  11  -7   -0.11    0.07
  -1  11  -7    0.01    0.13
  -1  11  -8    1.15    0.37
  -1  11  -8    1.37    0.35
  -1  10  16    0.10    0.13
  -1  10  15    1.72    0.36
   1 -10 -14    0.89    0.22
  -1  10  14    0.39    0.18
   1 -10 -13    0.21    0.08
  -1  10  13    0.05    0.09
  -1  10  12    4.56    0.57
   1 -10 -12    4.53    0.42
   1 -10 -11   20.85    0.98
  -1  10  11   17.50    1.22
   1 -10 -10   13.59    0.70
  -1  10  10   13.67    1.02
   1 -10 -10   14.59    0.93
  -1  10   9    3.38    0.46
   1 -10  -9    2.82    0.23
   1 -10  -9    2.48    0.32
   1 -10  -8    4.84    0.41
  -1  10   8    5.28    0.57
   1 -10  -8    4.52    0.27
   1 -10  -7    4.51    0.32
  -1  10   7    4.30    0.52
  -1  10   6    0.01    0.03
  -1  10   5   14.34    0.97
  -1  10   4   67.30    2.79
   1 -10  -3   48.44    1.50
   1 -10  -3   39.15    1.55
  -1  10   2   52.80    2.45
   1 -10  -2   59.00    1.97
   1 -10  -1   12.71    0.62
  -1  10   1   12.66    0.92
  -1  10   1   13.51    0.60
   1 -10   0    8.38    0.51
  -1  10   0    7.44    0.53
  -1  10   0    8.19    0.72
   1 -10   1   49.56    1.86
  -1  10  -1   44.67    2.13
  -1  10  -1   42.51    1.91
  -1  10  -2    0.52    0.19
  -1  10  -2    0.51    0.18
   1 -10   3   14.51    0.92
  -1  10  -3   15.18    1.06
  -1  10  -3   16.73    1.09
  -1  10  -4    0.67    0.21
  -1  10  -4    0.36    0.17
   1 -10   4    0.46    0.16
  -1  10  -5    4.50    0.58
  -1  10  -5    4.73    0.62
  -1  10  -6   -0.07    0.10
  -1  10  -6    0.14    0.07
  -1  10  -7    0.17    0.11
  -1  10  -7    0.12    0.13
  -1  10  -8    1.73    0.42
  -1  10  -8    1.03    0.31
  -1  10  -9    0.66    0.28
  -1  10 -10    4.21    0.74
  -1  10 -11    3.37    0.69
   1  -9 -16    3.69    0.51
  -1   9  16    3.05    0.47
  -1   9  15    1.29    0.31
   1  -9 -15    1.16    0.25
  -1   9  14    2.56    0.44
   1  -9 -14    2.22    0.35
   1  -9 -13    0.25    0.13
  -1   9  13    0.23    0.13
   1  -9 -12    0.11    0.08
  -1   9  12    0.06    0.07
  -1   9  12    0.01    0.09
  -1   9  11    8.66    0.78
   1  -9 -11    7.35    0.54
  -1   9  10    0.23    0.10
   1  -9 -10    0.43    0.11
  -1   9   9   -0.02    0.03
   1  -9  -9    0.07    0.10
   1  -9  -9    0.01    0.02
   1  -9  -8    0.13    0.07
   1  -9  -8    0.11    0.05
  -1   9   8    0.05    0.05
  -1   9   7    0.15    0.08
   1  -9  -7    0.08    0.05
   1  -9  -7    0.13    0.04
  -1   9   6    6.07    0.59
   1  -9  -6    5.66    0.32
  -1   9   5    1.19    0.25
  -1   9   4   18.31    1.09
  -1   9   3   16.14    1.00
  -1   9   2   10.67    0.78
   1  -9  -2   10.31    0.45
  -1   9   1   38.95    1.45
  -1   9   1   35.02    1.81
   1  -9   0    5.13    0.36
  -1   9   0    4.79    0.38
  -1   9   0    4.31    0.48
   1  -9   1   13.50    0.70
  -1   9  -1   11.50    0.73
  -1   9  -2    0.24    0.11
  -1   9  -2    0.17    0.09
  -1   9  -3    3.78    0.46
  -1   9  -3    4.11    0.48
   1  -9   3    3.75    0.40
  -1   9  -4    9.84    0.79
   1  -9   4    9.14    0.72
  -1   9  -4    9.73    0.82
  -1   9  -5    5.68    0.65
  -1   9  -5    7.08    0.68
  -1   9  -6    2.86    0.48
  -1   9  -6    2.60    0.42
  -1   9  -7    0.03    0.12
  -1   9  -7    0.11    0.10
  -1   9  -8    1.25    0.35
  -1   9  -8    1.31    0.32
  -1   9  -9    2.77    0.53
  -1   9 -10    5.46    0.80
  -1   9 -11    0.45    0.23
  -1   9 -12    3.63    0.72
   1  -8 -18    4.11    0.61
   1  -8 -17    0.37    0.16
   1  -8 -16   -0.01    0.03
  -1   8  16   -0.10    0.09
  -1   8  15    1.39    0.32
   1  -8 -15    0.82    0.23
  -1   8  14    2.19    0.40
   1  -8 -14    2.73    0.40
  -1   8  13    0.22    0.15
  -1   8  13    0.44    0.15
   1  -8 -13    0.58    0.18
  -1   8  12    5.66    0.63
   1  -8 -12    5.49    0.50
  -1   8  12    4.70    0.59
   1  -8 -11   20.75    1.04
  -1   8  11   16.52    1.15
  -1   8  11   18.49    1.23
   1  -8 -10    0.15    0.08
  -1   8  10    0.04    0.04
   1  -8  -9    7.30    0.47
  -1   8   9    8.86    0.78
   1  -8  -8    0.48    0.09
  -1   8   8    0.49    0.18
   1  -8  -7    0.25    0.06
   1  -8  -7    0.22    0.07
  -1   8   7    0.32    0.14
   1  -8  -6    1.93    0.13
  -1   8   6    2.18    0.34
   1  -8  -6    2.41    0.23
   1  -8  -6    2.17    0.40
  -1   8   5   11.32    0.81
   1  -8  -5    7.51    0.77
   1  -8  -4    0.55    0.18
  -1   8   4    0.54    0.17
   1  -8  -3    0.08    0.13
  -1   8   3    0.11    0.08
   1  -8  -2   10.43    0.42
  -1   8   2    9.61    0.73
   1  -8  -2    9.58    0.85
   1  -8  -1    3.36    0.47
   1  -8  -1    3.16    0.23
  -1   8   1    4.15    0.43
  -1   8   0    0.35    0.12
   1  -8   0    0.34    0.14
  -1   8   0    0.25    0.08
   1  -8   0    0.26    0.07
   1  -8   1   41.04    2.07
   1  -8   1   41.11    1.67
  -1   8  -1   45.12    1.78
  -1   8  -2    0.07    0.06
  -1   8  -2    0.03    0.06
   1  -8   2    0.00    0.06
   1  -8   2    0.10    0.07
  -1   8  -3    0.55    0.16
  -1   8  -3    0.74    0.20
   1  -8   3    0.48    0.15
  -1   8  -4    1.06    0.23
  -1   8  -4    0.62    0.19
   1  -8   4    0.85    0.20
  -1   8  -4    0.78    0.22
  -1   8  -5    2.88    0.40
  -1   8  -5    3.02    0.42
   1  -8   5    3.21    0.41
  -1   8  -5    3.07    0.46
  -1   8  -6    3.28    0.45
  -1   8  -6    3.56    0.49
  -1   8  -7   -0.01    0.04
  -1   8  -7    0.12    0.07
  -1   8  -8    1.34    0.29
  -1   8  -8    1.21    0.32
  -1   8  -9    0.42    0.17
  -1   8 -10    6.31    0.80
  -1   8 -11    0.07    0.17
  -1   8 -12    1.85    0.51
  -1   8 -12    2.02    0.48
  -1   8 -13    0.25    0.21
   1  -7 -19    1.51    0.39
   1  -7 -18   -0.06    0.12
   1  -7 -17    0.03    0.10
   1  -7 -16    0.10    0.09
  -1   7  16   -0.08    0.07
  -1   7  15    0.58    0.21
   1  -7 -15    0.99    0.28
  -1   7  14    0.38    0.17
   1  -7 -14    0.37    0.17
  -1   7  13    0.00    0.04
   1  -7 -13   -0.01    0.04
   1  -7 -12    3.71    0.43
  -1   7  12    3.99    0.53
  -1   7  12    3.98    0.56
  -1   7  11   47.05    2.31
  -1   7  11   49.50    2.32
   1  -7 -11   50.77    2.06
  -1   7  10    3.40    0.44
  -1   7  10    3.13    0.46
   1  -7 -10    3.36    0.35
  -1   7   9   31.38    1.49
  -1   7   9   30.42    1.65
   1  -7  -9   29.62    1.28
  -1   7   8   11.78    0.92
  -1   7   8   14.47    0.82
   1  -7  -8   12.50    0.65
  -1   7   7    1.38    0.29
   1  -7  -7    1.65    0.17
  -1   7   6    0.26    0.11
   1  -7  -6    0.26    0.05
   1  -7  -5    6.92    0.70
  -1   7   5    8.35    0.68
   1  -7  -5    7.40    0.40
   1  -7  -4    0.60    0.19
  -1   7   4    0.52    0.16
   1  -7  -3   16.39    1.11
   1  -7  -2    3.17    0.43
  -1   7   2    2.26    0.32
   1  -7  -1    9.84    0.80
   1  -7  -1   11.76    0.48
   1  -7   0    3.69    0.46
   1  -7   0    3.18    0.25
  -1   7   0    4.18    0.40
  -1   7   0    3.65    0.28
  -1   7  -1   11.44    0.74
  -1   7  -1   11.91    0.67
   1  -7   1   13.18    0.90
   1  -7   1   10.77    0.60
  -1   7  -2    1.70    0.24
   1  -7   2    1.53    0.29
  -1   7  -2    1.74    0.25
   1  -7   2    1.35    0.20
  -1   7  -2    1.64    0.25
  -1   7  -3    2.93    0.35
  -1   7  -3    2.85    0.34
   1  -7   3    2.38    0.36
   1  -7   3    2.40    0.30
  -1   7  -4    0.20    0.10
  -1   7  -4    0.10    0.04
   1  -7   5   10.21    0.75
   1  -7   5   10.67    0.81
  -1   7  -5   11.53    0.77
  -1   7  -6    1.08    0.23
   1  -7   6    0.86    0.21
  -1   7  -6    0.95    0.24
   1  -7   6    0.85    0.21
  -1   7  -7    1.34    0.27
  -1   7  -7    1.40    0.31
   1  -7   7    1.31    0.27
  -1   7  -8    4.98    0.62
   1  -7   8    5.17    0.56
  -1   7  -8    5.69    0.58
  -1   7  -9   -0.02    0.13
  -1   7 -10    1.34    0.33
  -1   7 -11    0.46    0.21
  -1   7 -12    2.16    0.47
  -1   7 -13    0.24    0.13
   1  -6 -19    2.69    0.54
   1  -6 -18    0.16    0.14
   1  -6 -17    0.71    0.24
  -1   6  16    2.90    0.46
   1  -6 -16    2.43    0.44
  -1   6  15    0.50    0.17
   1  -6 -15    0.68    0.22
  -1   6  14    0.41    0.17
   1  -6 -14    0.64    0.20
  -1   6  13    0.29    0.13
   1  -6 -13    0.14    0.12
   1  -6 -12    5.22    0.53
  -1   6  12    5.89    0.65
  -1   6  12    6.30    0.71
  -1   6  11   26.84    1.47
  -1   6  11   29.11    1.53
  -1   6  10    5.72    0.57
  -1   6  10    5.68    0.61
   1  -6 -10    4.34    0.43
   1  -6  -9    5.25    0.43
  -1   6   9    5.60    0.54
   1  -6  -8    0.05    0.04
  -1   6   8    0.09    0.09
  -1   6   8    0.08    0.05
  -1   6   7    1.00    0.17
   1  -6  -7    1.01    0.14
  -1   6   7    0.75    0.20
  -1   6   6    0.97    0.14
   1  -6  -6    0.75    0.11
   1  -6  -5   11.41    0.46
   1  -6  -4   20.61    1.24
   1  -6  -3   21.88    1.26
   1  -6  -2   21.78    1.25
   1  -6  -1   14.64    0.99
  -1   6   1   14.28    0.87
   1  -6  -1   16.85    0.64
  -1   6   0    0.02    0.02
   1  -6   0    0.03    0.02
   1  -6   0    0.05    0.03
  -1   6   0    0.05    0.03
  -1   6  -1    0.41    0.11
   1  -6   1    0.18    0.10
  -1   6  -1    0.31    0.08
   1  -6   1    0.28    0.08
  -1   6  -2   19.67    1.02
   1  -6   2   19.31    1.13
  -1   6  -2   21.11    1.00
   1  -6   2   21.82    0.97
   1  -6   3    0.25    0.10
  -1   6  -3    0.42    0.12
  -1   6  -3    0.39    0.12
   1  -6   3    0.53    0.13
  -1   6  -4    3.24    0.35
   1  -6   4    3.29    0.40
  -1   6  -4    3.47    0.39
   1  -6   5    0.32    0.12
  -1   6  -5    0.65    0.18
   1  -6   5    0.51    0.15
  -1   6  -5    0.57    0.14
  -1   6  -6    0.19    0.09
  -1   6  -6    0.27    0.11
   1  -6   6    0.33    0.14
   1  -6   6    0.31    0.12
  -1   6  -7    6.46    0.66
   1  -6   7    5.97    0.57
  -1   6  -7    7.50    0.62
   1  -6   8    4.84    0.51
  -1   6  -8    5.12    0.61
  -1   6  -8    5.32    0.53
  -1   6  -9    2.98    0.48
   1  -6   9    2.78    0.38
  -1   6 -10    2.02    0.41
  -1   6 -11    0.76    0.27
  -1   6 -12    0.34    0.15
  -1   6 -13   -0.04    0.11
   1  -5 -18    1.23    0.35
   1  -5 -17    3.73    0.60
  -1   5  16    1.40    0.33
   1  -5 -16    1.18    0.32
  -1   5  15    0.20    0.10
   1  -5 -15    0.32    0.16
  -1   5  14    0.95    0.25
   1  -5 -14    0.87    0.25
  -1   5  13    0.32    0.17
   1  -5 -13    0.43    0.17
  -1   5  12   89.38    3.64
   1  -5 -12   81.74    3.42
  -1   5  11    6.03    0.63
   1  -5 -11    5.89    0.55
  -1   5  11    5.54    0.58
   1  -5 -10   76.15    2.83
  -1   5  10   78.18    3.09
  -1   5   9    3.16    0.43
  -1   5   9    2.93    0.36
   1  -5  -9    3.41    0.35
   1  -5  -8    0.41    0.11
  -1   5   8    0.31    0.11
  -1   5   7   11.48    0.67
   1  -5  -7   11.97    0.63
   1  -5  -6    0.28    0.07
  -1   5   6    0.23    0.07
  -1   5   5   78.61    2.84
   1  -5  -5   87.81    2.76
   1  -5  -4   39.07    1.39
   1  -5  -3    4.09    0.46
   1  -5  -2   36.49    1.69
  -1   5   1   29.92    1.38
   1  -5  -1   29.95    1.07
   1  -5  -1   32.67    1.52
   1  -5   0    2.99    0.22
  -1   5   0    2.76    0.31
   1  -5   0    2.78    0.35
  -1   5   0    3.25    0.23
   1  -5   1   17.95    0.80
  -1   5  -1   16.12    0.77
   1  -5   1   15.60    0.96
   1  -5   2   46.31    1.82
  -1   5  -2   44.01    1.64
  -1   5  -3    4.69    0.39
  -1   5  -3    5.23    0.42
   1  -5   3    4.64    0.46
   1  -5   3    5.64    0.44
   1  -5   4    5.17    0.45
   1  -5   4    3.98    0.41
  -1   5  -4    3.91    0.36
  -1   5  -4    4.33    0.41
  -1   5  -5   11.82    0.74
  -1   5  -5   13.92    0.87
  -1   5  -6    2.69    0.31
  -1   5  -6    2.10    0.33
   1  -5   6    1.88    0.28
   1  -5   6    2.30    0.35
   1  -5   7    3.44    0.46
  -1   5  -7    3.41    0.44
   1  -5   7    3.06    0.36
  -1   5  -7    3.13    0.36
  -1   5  -8    4.72    0.46
  -1   5  -8    4.05    0.51
   1  -5   8    4.26    0.44
   1  -5   9    1.93    0.29
  -1   5  -9    2.14    0.39
   1  -5  10   -0.01    0.04
  -1   5 -10    0.24    0.16
  -1   5 -11    6.54    0.77
  -1   5 -12    4.68    0.68
  -1   5 -13    2.58    0.52
  -1   5 -14    0.45    0.20
   1  -4 -18    1.03    0.32
   1  -4 -17    0.57    0.25
   1  -4 -16    0.68    0.27
  -1   4  15    0.01    0.04
   1  -4 -15    0.10    0.10
  -1   4  14    2.27    0.40
   1  -4 -14    2.90    0.45
  -1   4  13    3.39    0.49
   1  -4 -13    2.43    0.40
  -1   4  12   22.73    1.38
   1  -4 -12   20.90    1.27
   1  -4 -11    1.00    0.23
  -1   4  11    0.71    0.20
  -1   4  11    0.37    0.12
   1  -4 -10   41.90    1.88
  -1   4  10   43.92    1.95
   1  -4  -9    2.00    0.28
  -1   4   9    2.38    0.31
   1  -4  -8    1.21    0.20
  -1   4   8    1.23    0.20
   1  -4  -7   10.59    0.62
  -1   4   7   11.00    0.64
  -1   4   6   14.43    0.70
   1  -4  -6   14.13    0.70
  -1   4   6   14.70    0.93
  -1   4   5  133.17    4.38
   1  -4  -5  133.45    4.39
  -1   4   4    3.62    0.22
  -1   4   4    3.59    0.40
   1  -4  -4    3.85    0.28
   1  -4  -3  209.62    6.61
   1  -4  -2    2.91    0.36
  -1   4   1    9.11    0.61
   1  -4  -1    7.00    0.57
   1  -4   0   11.00    0.81
  -1   4   0   20.16    0.66
  -1   4   0   13.32    0.81
   1  -4   0   19.94    0.74
  -1   4   0   13.81    0.63
   1  -4   1    0.03    0.04
  -1   4  -1    0.00    0.02
   1  -4   1    0.01    0.02
  -1   4  -1    0.05    0.05
  -1   4  -2   46.40    1.87
   1  -4   2   51.25    2.08
  -1   4  -2   52.72    1.95
  -1   4  -3   73.37    2.51
  -1   4  -3   71.72    2.54
   1  -4   3   55.50    2.52
   1  -4   3   89.58    2.76
  -1   4  -4    0.46    0.11
   1  -4   4    0.48    0.13
  -1   4  -4    0.38    0.12
   1  -4   4    0.48    0.14
  -1   4  -5    3.93    0.40
   1  -4   5    3.76    0.37
  -1   4  -5    5.04    0.38
  -1   4  -6    1.14    0.22
  -1   4  -6    0.80    0.16
   1  -4   6    1.19    0.20
   1  -4   6    1.04    0.23
   1  -4   7    0.99    0.18
   1  -4   7    0.83    0.21
  -1   4  -7    0.91    0.17
  -1   4  -7    0.91    0.22
  -1   4  -8   31.93    1.62
   1  -4   8   30.27    1.39
  -1   4  -8   31.64    1.42
  -1   4  -9   71.13    3.04
   1  -4   9   72.44    2.72
  -1   4 -10   23.30    1.40
   1  -4  10   17.95    1.01
  -1   4 -11    8.43    0.85
  -1   4 -12    1.11    0.32
  -1   4 -13    5.84    0.77
  -1   4 -14    2.58    0.53
   1  -3 -18    0.13    0.07
   1  -3 -17    1.89    0.44
   1  -3 -16   -0.09    0.12
  -1   3  15    2.64    0.44
   1  -3 -15    2.16    0.43
   1  -3 -14    1.15    0.30
   1  -3 -13   13.37    1.04
   1  -3 -12    0.06    0.10
  -1   3  11    0.01    0.06
   1  -3 -11   -0.04    0.08
   1  -3 -10    0.71    0.19
  -1   3  10    1.18    0.24
   1  -3  -9   11.46    0.77
  -1   3   9   11.59    0.77
   1  -3  -8   17.47    0.97
  -1   3   8   20.28    1.01
   1  -3  -7    2.19    0.26
  -1   3   7    1.83    0.23
   1  -3  -6    0.44    0.10
  -1   3   6    0.31    0.08
   1  -3  -5    0.32    0.08
  -1   3   5    0.30    0.08
  -1   3   4   10.57    0.49
   1  -3  -4   10.15    0.56
   1  -3  -3    3.04    0.24
  -1   3   3    1.99    0.15
  -1   3   2    2.14    0.13
   1  -3  -2    1.82    0.16
  -1   3   1   12.12    0.48
   1  -3  -1   12.78    0.49
   1  -3   0    4.52    0.42
  -1   3   0    4.19    0.38
  -1   3   0    5.18    0.27
   1  -3   1   12.60    0.70
  -1   3  -1   13.72    0.68
   1  -3   1   13.83    0.63
   1  -3   2  105.14    3.16
  -1   3  -2   99.54    2.94
   1  -3   3    1.15    0.18
   1  -3   3    1.22    0.19
  -1   3  -3    1.17    0.16
  -1   3  -3    1.26    0.16
   1  -3   4   87.52    3.08
   1  -3   4   91.68    3.20
  -1   3  -4   93.28    2.98
   1  -3   5    3.30    0.32
  -1   3  -5    3.40    0.28
  -1   3  -6    0.04    0.04
   1  -3   6    0.16    0.06
   1  -3   6    0.22    0.10
  -1   3  -6    0.19    0.09
   1  -3   7   24.25    1.32
  -1   3  -7   22.28    1.19
  -1   3  -7   24.35    1.03
   1  -3   8    1.73    0.22
   1  -3   8    1.62    0.32
  -1   3  -8    2.09    0.33
  -1   3  -9   24.28    1.36
   1  -3   9   21.84    1.05
  -1   3 -10   33.35    1.70
   1  -3  10   27.55    1.26
  -1   3 -11    0.31    0.12
   1  -3  11    0.55    0.13
  -1   3 -12    6.06    0.71
  -1   3 -13    1.68    0.37
  -1   3 -14    1.02    0.33
  -1   3 -15    1.39    0.41
   1  -2 -17    0.34    0.19
   1  -2 -16    0.14    0.07
   1  -2 -15    7.02    0.82
   1  -2 -14    0.22    0.16
   1  -2 -13    0.55    0.20
   1  -2 -12    2.63    0.42
   1  -2 -11    0.00    0.05
   1  -2 -10    4.13    0.48
  -1   2  10    4.26    0.48
  -1   2   9    5.26    0.49
   1  -2  -9    5.72    0.53
   1  -2  -8   26.72    1.35
  -1   2   8   31.28    1.39
   1  -2  -7    2.70    0.32
  -1   2   7    3.57    0.35
   1  -2  -6    0.30    0.10
  -1   2   6    0.00    0.03
   1  -2  -5    0.98    0.15
  -1   2   5    1.04    0.15
  -1   2   4    0.74    0.12
   1  -2  -4    0.72    0.14
   1  -2  -3    4.26    0.34
  -1   2   3    4.86    0.30
   1  -2  -2   91.36    3.08
  -1   2   2   92.07    3.07
   1  -2  -1   11.46    0.54
  -1   2   1   11.40    0.53
  -1   2   0   36.38    1.30
  -1   2   0   36.72    1.33
   1  -2   0   37.09    1.31
  -1   2  -1   46.41    1.61
   1  -2   1   43.32    1.65
  -1   2  -1   44.95    1.63
   1  -2   2   37.78    1.48
  -1   2  -2   35.46    1.41
  -1   2  -2   36.75    1.41
   1  -2   2   37.12    1.50
   1  -2   3   55.22    1.93
  -1   2  -3   53.04    1.92
   1  -2   3   53.24    2.06
   1  -2   4    9.55    0.67
   1  -2   4    9.96    0.56
  -1   2  -4   10.21    0.60
  -1   2  -4   10.31    0.48
   1  -2   5   33.40    1.34
   1  -2   5   35.42    1.59
  -1   2  -5   35.40    1.46
  -1   2  -5   32.78    1.24
  -1   2  -6    1.48    0.16
   1  -2   6    1.32    0.17
  -1   2  -6    1.59    0.24
  -1   2  -7   14.50    0.88
   1  -2   7   13.57    0.66
   1  -2   7   12.90    0.92
  -1   2  -7   12.95    0.64
   1  -2   8    0.14    0.04
  -1   2  -8    0.16    0.10
   1  -2   8    0.30    0.14
   1  -2   9    5.88    0.39
  -1   2  -9    5.20    0.55
   1  -2  10    0.48    0.09
  -1   2 -10    0.55    0.18
   1  -2  11   32.72    1.31
  -1   2 -11   33.71    1.80
  -1   2 -12    0.21    0.11
  -1   2 -13    0.06    0.03
  -1   2 -14    0.09    0.07
  -1   2 -15    0.19    0.15
   1  -1 -17    0.79    0.30
   1  -1 -16    1.77    0.43
   1  -1 -15    0.31    0.16
   1  -1 -14    1.72    0.38
   1  -1 -13    0.51    0.20
   1  -1 -12    0.28    0.16
   1  -1 -11    0.61    0.20
  -1   1  10    1.59    0.29
   1  -1 -10    2.13    0.35
   1  -1  -9    0.94    0.21
  -1   1   9    0.94    0.21
   1  -1  -8    0.39    0.13
  -1   1   8    0.59    0.16
  -1   1   7   34.39    1.47
   1  -1  -7   29.76    1.45
   1  -1  -6    6.23    0.49
  -1   1   6    6.73    0.49
   1  -1  -5   24.33    1.14
  -1   1   5   27.28    1.16
  -1   1   4    3.72    0.32
   1  -1  -4    4.14    0.38
   1  -1  -3   76.19    2.64
  -1   1   3   70.10    2.51
  -1   1   2   10.55    0.58
   1  -1  -2   10.38    0.58
  -1   1   1  194.20    6.12
   1  -1  -1  185.63    6.13
   1  -1   0   20.70    0.87
  -1   1   0   18.83    0.87
  -1   1  -1   36.36    1.43
   1  -1   1   31.75    1.37
  -1   1  -2   27.98    1.18
   1  -1   2   26.38    1.18
  -1   1  -3   43.36    1.58
  -1   1  -3   44.21    1.72
   1  -1   3   47.51    1.84
  -1   1  -4   77.32    2.65
  -1   1  -4   78.55    2.38
   1  -1   5    2.77    0.23
  -1   1  -5    3.28    0.33
  -1   1  -5    3.56    0.21
   1  -1   5    3.91    0.44
   1  -1   6    0.50    0.09
  -1   1  -6    0.56    0.08
  -1   1  -6    0.77    0.16
   1  -1   7    1.01    0.12
  -1   1  -7    1.43    0.24
   1  -1   7    1.36    0.28
   1  -1   8   15.77    0.68
  -1   1  -8   16.01    0.98
  -1   1  -9   50.68    2.14
   1  -1   9   53.41    2.43
   1  -1  10    1.41    0.14
  -1   1 -10    1.72    0.32
  -1   1 -11   37.80    1.93
  -1   1 -12    0.43    0.16
  -1   1 -13    0.20    0.13
  -1   1 -14    0.39    0.19
  -1   1 -15    0.14    0.08
  -1   1 -16    1.25    0.37
   1   0 -16    0.34    0.19
   1   0 -15    0.51    0.22
   1   0 -14    2.62    0.50
   1   0 -13    4.55    0.63
   1   0 -12    4.90    0.62
   1   0 -11    0.18    0.13
   1   0 -10    4.25    0.52
  -1   0   9    2.30    0.35
   1   0  -9    1.89    0.33
   1   0  -8   16.93    1.05
  -1   0   8   17.97    1.04
  -1   0   7   12.32    0.79
   1   0  -7   11.26    0.78
   1   0  -6   16.36    0.95
  -1   0   6   18.26    0.95
  -1   0   5    2.16    0.28
   1   0  -5    2.63    0.33
   1   0  -4   42.18    1.83
  -1   0   4   45.05    1.74
  -1   0   3   12.33    0.66
   1   0  -3   11.71    0.71
   1   0  -2    0.64    0.13
  -1   0   2    0.86    0.16
  -1   0   1   42.32    1.64
   1   0  -1   42.42    1.65
   1   0   0   52.99    1.93
  -1   0   0   50.38    1.93
   1   0   1   91.96    3.31
  -1   0  -1  101.52    3.36
  -1   0  -2    2.95    0.30
  -1   0  -2    3.25    0.30
  -1   0  -3   92.21    3.00
   1   0   3   87.12    3.04
  -1   0  -4    1.59    0.13
  -1   0  -4    1.57    0.22
   1   0   4    1.63    0.25
  -1   0  -5    6.60    0.51
   1   0   5    7.11    0.60
  -1   0  -5    6.20    0.26
  -1   0  -6    0.72    0.16
  -1   0  -7    1.71    0.26
  -1   0  -8    0.01    0.04
   1   0   8   -0.02    0.04
  -1   0  -9    2.33    0.34
   1   0   9    3.04    0.48
  -1   0 -10    1.81    0.31
  -1   0 -11   54.44    2.46
  -1   0 -12    0.19    0.12
  -1   0 -13    7.21    0.76
  -1   0 -14    2.78    0.48
  -1   0 -15    1.70    0.41
  -1   0 -16    4.14    0.65
   1   1 -16    0.79    0.35
   1   1 -16    0.36    0.24
   1   1 -15    0.93    0.38
   1   1 -15    0.97    0.34
   1   1 -14    0.97    0.33
   1   1 -13    4.42    0.64
   1   1 -12   16.20    1.27
  -1  -1  12   18.52    1.19
   1   1 -11   15.18    1.15
   1   1 -10    1.31    0.30
   1   1  -9    3.65    0.48
  -1  -1   8   46.57    2.07
   1   1  -8   46.44    2.13
   1   1  -7    6.62    0.60
  -1  -1   7    7.56    0.61
   1   1  -7    6.12    0.63
  -1  -1   6   88.60    3.23
   1   1  -6   83.04    3.34
  -1  -1   5   41.84    1.77
   1   1  -5   41.06    1.87
  -1  -1   4    1.85    0.25
   1   1  -4    2.33    0.32
  -1  -1   3    7.41    0.52
   1   1  -3    7.11    0.57
  -1  -1   2    1.99    0.27
   1   1  -2    2.01    0.26
  -1  -1   1  130.67    4.51
   1   1  -1  135.09    4.52
   1   1   0  246.04    7.88
  -1  -1   0  240.08    7.88
  -1  -1  -1   80.33    3.01
   1   1   1   88.15    3.00
  -1  -1  -2  449.43   14.31
   1   1   2  451.40   14.25
  -1  -1  -3   43.81    1.87
  -1  -1  -3   47.83    1.85
  -1  -1  -4    0.02    0.02
  -1  -1  -5    0.09    0.06
  -1  -1  -6    0.61    0.16
  -1  -1  -7   45.66    1.94
  -1  -1  -8    0.18    0.08
  -1  -1  -9   19.61    1.14
   1   1   9   20.88    1.43
  -1  -1 -10   13.85    0.93
  -1  -1 -11   14.28    1.01
  -1  -1 -12    4.63    0.56
  -1  -1 -13    0.25    0.13
  -1  -1 -14   -0.01    0.08
  -1  -1 -15    1.75    0.40
  -1  -1 -16    0.41    0.20
  -1  -1 -17    3.65    0.64
   1   2 -15    1.30    0.43
   1   2 -14    0.49    0.24
   1   2 -13    3.08    0.59
   1   2 -13    3.16    0.55
   1   2 -12    1.31    0.39
   1   2 -12    1.38    0.36
  -1  -2  12    0.93    0.23
   1   2 -11    0.47    0.24
  -1  -2  11    0.40    0.14
   1   2 -11    0.38    0.14
  -1  -2  10   -0.07    0.08
   1   2 -10    0.02    0.09
   1   2 -10   -0.08    0.08
  -1  -2   9    9.28    0.74
   1   2  -9    7.77    0.75
   1   2  -9    8.30    0.84
   1   2  -8    1.87    0.38
  -1  -2   8    2.58    0.38
   1   2  -8    1.67    0.33
  -1  -2   7    5.73    0.55
   1   2  -7    4.57    0.57
   1   2  -6    0.20    0.13
   1   2  -5   53.64    2.34
   1   2  -4    2.57    0.36
   1   2  -3   10.59    0.75
   1   2  -2   39.59    1.72
   1   2  -1  344.45   11.08
   1   2   0  565.54   17.85
   1   2   1  742.22   23.23
   1   2   2 1000.00   31.14
  -1  -2  -3    2.05    0.18
  -1  -2  -3    2.11    0.28
   1   2   3    2.30    0.28
  -1  -2  -4   30.55    1.43
  -1  -2  -4   32.03    1.12
  -1  -2  -5    5.10    0.50
  -1  -2  -5    4.30    0.21
  -1  -2  -6   25.92    1.30
  -1  -2  -7   14.96    0.93
   1   2   8    0.10    0.09
  -1  -2  -8    0.10    0.05
  -1  -2  -9   43.38    2.00
   1   2   9   47.46    2.32
  -1  -2 -10    5.93    0.58
  -1  -2 -11    5.09    0.55
  -1  -2 -12    0.26    0.09
  -1  -2 -13    0.01    0.12
  -1  -2 -14    6.51    0.74
  -1  -2 -15    1.08    0.30
  -1  -2 -16    1.38    0.35
  -1  -2 -17    3.31    0.58
   1   3 -15   -0.11    0.17
   1   3 -14   -0.03    0.08
   1   3 -13    0.02    0.12
   1   3 -12   -0.01    0.06
   1   3 -11   22.20    1.64
   1   3 -10    0.22    0.19
  -1  -3  10    0.04    0.12
  -1  -3   9    7.35    0.65
   1   3  -9    6.06    0.76
  -1  -3   8    2.78    0.38
   1   3  -8    3.24    0.51
  -1  -3   7    0.93    0.21
   1   3  -7    1.12    0.28
  -1  -3   7    0.93    0.24
  -1  -3   6    3.50    0.41
  -1  -3   6    4.36    0.47
   1   3  -6    3.48    0.49
  -1  -3   5   16.38    0.95
   1   3  -5   16.34    1.09
   1   3  -4    1.11    0.25
  -1  -3   4    1.03    0.19
   1   3  -3    7.63    0.65
  -1  -3   3    7.25    0.54
  -1  -3   2    9.48    0.62
   1   3  -2   10.76    0.75
  -1  -3   1   73.68    2.62
   1   3  -1   69.37    2.77
  -1  -3   0   74.31    2.85
  -1  -3   0   72.56    2.68
  -1  -3  -1  186.92    5.97
   1   3   1  174.96    6.17
  -1  -3  -1  186.97    6.21
  -1  -3  -2   58.67    2.03
   1   3   2   53.67    2.22
  -1  -3  -2   56.29    2.29
  -1  -3  -3    2.36    0.32
  -1  -3  -3    2.42    0.21
   1   3   3    2.52    0.31
  -1  -3  -4   13.34    0.88
  -1  -3  -4   12.80    0.81
  -1  -3  -4   12.37    0.56
  -1  -3  -5    4.98    0.47
  -1  -3  -5    4.31    0.25
  -1  -3  -5    4.44    0.48
   1   3   6    1.22    0.26
  -1  -3  -6    0.98    0.10
  -1  -3  -6    1.08    0.23
  -1  -3  -7   38.91    1.68
   1   3   7   40.61    1.87
  -1  -3  -8   14.20    0.93
   1   3   8   13.78    1.05
  -1  -3  -9   27.55    1.44
   1   3   9   27.96    1.68
   1   3  10    0.20    0.17
  -1  -3 -10    0.08    0.08
  -1  -3 -11    2.66    0.40
  -1  -3 -12    1.87    0.33
  -1  -3 -13    9.32    0.83
  -1  -3 -14    2.06    0.40
  -1  -3 -15    5.60    0.70
  -1  -3 -16    8.14    0.87
  -1  -3 -17    0.06    0.07
   1   4 -14    3.37    0.70
   1   4 -13    0.66    0.28
   1   4 -12    0.94    0.33
   1   4 -11   21.21    1.66
   1   4 -10   13.63    1.24
   1   4  -9    2.27    0.46
  -1  -4   9    2.06    0.35
   1   4  -8    4.72    0.64
  -1  -4   8    4.89    0.53
   1   4  -7    0.14    0.11
  -1  -4   7    0.20    0.10
  -1  -4   6   10.39    0.81
   1   4  -6    9.32    0.87
  -1  -4   6   10.21    0.75
   1   4  -5    3.23    0.48
  -1  -4   5    3.81    0.45
  -1  -4   5    3.65    0.41
  -1  -4   4    0.27    0.11
   1   4  -4    0.16    0.10
   1   4  -3    0.12    0.08
  -1  -4   3    0.05    0.06
   1   4  -2    2.17    0.34
  -1  -4   2    2.17    0.33
  -1  -4   2    2.22    0.28
  -1  -4   1   21.32    1.03
   1   4  -1   20.23    1.14
  -1  -4   1   20.11    1.16
  -1  -4   0   15.46    0.80
  -1  -4   0   13.89    0.89
   1   4   0   14.93    0.92
   1   4   1    0.14    0.07
  -1  -4  -1    0.29    0.09
  -1  -4  -1    0.13    0.07
  -1  -4  -2    9.91    0.72
  -1  -4  -2    9.01    0.53
   1   4   2    8.88    0.65
  -1  -4  -3    0.60    0.11
   1   4   3    0.62    0.12
   1   4   3    0.51    0.16
  -1  -4  -3    0.62    0.17
  -1  -4  -4    2.94    0.39
   1   4   4    2.87    0.26
   1   4   4    2.95    0.36
  -1  -4  -4    2.92    0.25
  -1  -4  -5    0.13    0.08
  -1  -4  -5    0.09    0.05
   1   4   5    0.17    0.06
  -1  -4  -5    0.09    0.05
  -1  -4  -6    2.67    0.37
  -1  -4  -6    2.48    0.20
   1   4   6    2.53    0.23
  -1  -4  -6    2.52    0.37
   1   4   7   50.12    1.75
  -1  -4  -7   48.44    1.76
   1   4   8   14.49    0.61
  -1  -4  -8   13.61    0.63
  -1  -4  -8   14.89    0.98
  -1  -4  -9   29.44    1.54
   1   4   9   28.56    1.73
   1   4  10    0.67    0.24
  -1  -4 -10    0.53    0.18
  -1  -4 -11    0.00    0.06
  -1  -4 -12    3.17    0.45
  -1  -4 -13    0.31    0.14
  -1  -4 -14    2.27    0.41
  -1  -4 -15    0.46    0.21
  -1  -4 -16    3.62    0.57
  -1  -4 -17    0.80    0.27
  -1  -4 -18    3.84    0.63
   1   5 -13    0.16    0.19
   1   5 -12    5.67    0.87
   1   5 -11    2.64    0.56
   1   5 -10   14.27    1.33
   1   5  -9   14.58    1.29
   1   5  -8    2.54    0.48
  -1  -5   7    0.76    0.20
   1   5  -7    0.78    0.29
   1   5  -6    0.10    0.12
  -1  -5   6    0.22    0.09
   1   5  -5    0.90    0.25
  -1  -5   5    0.84    0.22
  -1  -5   5    0.96    0.21
  -1  -5   4   28.94    1.50
   1   5  -4   26.90    1.59
  -1  -5   4   29.07    1.42
  -1  -5   3   16.37    1.02
  -1  -5   3   16.61    0.94
   1   5  -3   15.56    1.08
   1   5  -2    0.27    0.13
  -1  -5   2    0.20    0.10
   1   5  -1    0.28    0.13
  -1  -5   1    0.10    0.08
  -1  -5   1    0.13    0.08
  -1  -5   0    1.28    0.20
  -1  -5   0    1.28    0.25
   1   5   0    1.34    0.26
   1   5   1   41.05    1.89
  -1  -5  -1   42.91    1.68
   1   5   1   42.31    1.73
  -1  -5  -1   38.43    1.84
   1   5   2    8.94    0.69
  -1  -5  -2    9.78    0.75
  -1  -5  -2    9.82    0.59
   1   5   2   10.62    0.64
   1   5   3    9.73    0.59
  -1  -5  -3    9.46    0.76
  -1  -5  -3    9.86    0.57
   1   5   3    9.20    0.71
  -1  -5  -4   10.32    0.58
   1   5   4   10.13    0.60
   1   5   4   11.05    0.77
  -1  -5  -4   10.65    0.82
   1   5   5    3.42    0.30
  -1  -5  -5    3.58    0.29
  -1  -5  -5    4.08    0.50
  -1  -5  -5    3.66    0.44
  -1  -5  -6    0.11    0.04
   1   5   6    0.14    0.06
  -1  -5  -6    0.02    0.02
  -1  -5  -7   33.48    1.35
  -1  -5  -7   35.39    1.74
   1   5   7   34.46    1.33
  -1  -5  -8    1.74    0.32
  -1  -5  -8    1.46    0.19
  -1  -5  -8    1.44    0.30
   1   5   8    1.16    0.15
   1   5   9    0.63    0.10
  -1  -5  -9    0.43    0.09
  -1  -5  -9    0.44    0.17
  -1  -5  -9    0.69    0.20
   1   5  10    0.24    0.15
  -1  -5 -10    0.39    0.16
   1   5  10    0.29    0.06
  -1  -5 -11    2.87    0.41
   1   5  11    2.76    0.20
  -1  -5 -12    0.43    0.17
  -1  -5 -13    6.81    0.71
  -1  -5 -14    4.51    0.57
  -1  -5 -15    0.30    0.15
  -1  -5 -16    0.37    0.19
  -1  -5 -17    1.43    0.37
  -1  -5 -18    0.06    0.08
   1   6 -13    3.86    0.77
   1   6 -12    0.07    0.16
   1   6 -11    6.60    0.95
   1   6 -10    7.21    0.96
   1   6  -9    0.71    0.29
   1   6  -8   20.09    1.55
   1   6  -7   16.34    1.33
   1   6  -6   32.01    1.91
   1   6  -5    1.86    0.38
  -1  -6   5    2.63    0.36
  -1  -6   4    7.39    0.61
  -1  -6   4    7.77    0.71
   1   6  -4    7.30    0.77
  -1  -6   3   38.18    1.82
   1   6  -3   34.84    1.89
  -1  -6   3   36.79    1.67
   1   6  -2    3.43    0.47
  -1  -6   2    3.50    0.38
   1   6  -1    1.04    0.25
  -1  -6   1    1.26    0.22
  -1  -6   0   31.66    1.42
   1   6   0   30.33    1.61
  -1  -6   0   30.89    1.60
  -1  -6  -1   55.91    2.31
  -1  -6  -1   48.10    2.01
   1   6   1   53.15    2.28
   1   6   2    0.60    0.17
  -1  -6  -2    0.69    0.18
  -1  -6  -2    0.52    0.13
  -1  -6  -3   17.10    0.87
   1   6   3   15.52    1.01
  -1  -6  -3   17.00    1.09
   1   6   3   17.15    0.90
   1   6   4    2.65    0.29
   1   6   4    3.16    0.41
  -1  -6  -4    2.44    0.28
  -1  -6  -4    3.02    0.43
  -1  -6  -5    0.19    0.08
  -1  -6  -5    0.23    0.09
   1   6   5    0.04    0.04
   1   6   5    0.16    0.07
  -1  -6  -6   11.56    0.65
  -1  -6  -6   10.78    0.84
   1   6   6   12.17    0.67
  -1  -6  -7    4.31    0.37
  -1  -6  -7    4.43    0.52
   1   6   7    4.29    0.35
  -1  -6  -8    8.61    0.58
  -1  -6  -8   10.69    0.88
  -1  -6  -8    9.46    0.87
   1   6   8    8.40    0.52
  -1  -6  -9    0.12    0.06
  -1  -6  -9    0.17    0.11
   1   6   9    0.08    0.05
  -1  -6  -9    0.08    0.05
  -1  -6 -10    0.54    0.18
  -1  -6 -10    0.40    0.17
   1   6  10    0.47    0.10
  -1  -6 -10    0.39    0.10
  -1  -6 -11    2.07    0.36
   1   6  11    1.89    0.19
  -1  -6 -12    8.71    0.79
   1   6  12    9.20    0.48
  -1  -6 -13    1.01    0.26
  -1  -6 -14    4.14    0.55
  -1  -6 -15    7.57    0.78
  -1  -6 -16    0.15    0.10
  -1  -6 -17    1.52    0.38
  -1  -6 -18    1.80    0.41
   1   7 -12    0.01    0.15
   1   7 -11    2.08    0.53
   1   7 -10    4.93    0.80
   1   7  -9    0.17    0.20
   1   7  -8   27.21    1.90
   1   7  -7    2.00    0.45
   1   7  -6   63.92    3.11
   1   7  -5   13.01    1.13
   1   7  -4    3.16    0.51
  -1  -7   3   14.12    1.00
  -1  -7   3   13.05    0.87
   1   7  -3   12.33    1.03
  -1  -7   2    2.90    0.41
   1   7  -2    2.63    0.42
  -1  -7   2    2.77    0.36
  -1  -7   2    2.97    0.45
   1   7  -1   42.83    2.12
   1   7  -1   43.64    2.02
  -1  -7   1   41.75    2.09
  -1  -7   1   46.17    1.92
   1   7   0   20.71    1.28
  -1  -7   0   22.73    1.12
   1   7   1   60.59    2.64
  -1  -7  -1   63.87    2.43
   1   7   1   59.55    2.48
   1   7   2   18.64    1.07
   1   7   2   22.23    1.26
  -1  -7  -2   20.87    1.07
  -1  -7  -2   20.27    1.24
  -1  -7  -3    0.03    0.05
   1   7   3    0.02    0.08
  -1  -7  -3    0.01    0.09
  -1  -7  -4    1.64    0.24
   1   7   4    1.70    0.30
  -1  -7  -5    8.16    0.56
   1   7   5    8.28    0.71
  -1  -7  -6    9.42    0.62
  -1  -7  -6   10.25    0.83
  -1  -7  -7    1.30    0.29
  -1  -7  -7    1.43    0.22
  -1  -7  -7    1.39    0.31
   1   7   7    0.96    0.18
  -1  -7  -8    0.03    0.07
  -1  -7  -8    0.00    0.01
   1   7   8   -0.03    0.03
  -1  -7  -8    0.04    0.10
   1   7   9    0.41    0.11
  -1  -7  -9    0.48    0.13
  -1  -7  -9    0.47    0.17
  -1  -7  -9    0.24    0.09
  -1  -7 -10    0.55    0.15
   1   7  10    0.52    0.12
  -1  -7 -10    0.74    0.22
  -1  -7 -10    0.44    0.19
   1   7  11    0.03    0.05
  -1  -7 -11    0.00    0.07
  -1  -7 -12    5.05    0.59
   1   7  12    5.08    0.38
   1   7  13    0.06    0.05
  -1  -7 -13    0.31    0.17
  -1  -7 -14    2.40    0.41
  -1  -7 -15    3.92    0.55
  -1  -7 -16    0.14    0.09
  -1  -7 -17    1.81    0.40
  -1  -7 -18    0.33    0.19
   1   8 -11    0.12    0.12
   1   8 -10    1.02    0.39
   1   8  -9    2.19    0.53
   1   8  -8    0.05    0.17
   1   8  -7    0.64    0.29
   1   8  -6   11.49    1.12
   1   8  -5    2.65    0.51
   1   8  -4    6.98    0.80
   1   8  -3   12.70    1.08
   1   8  -2    0.70    0.23
  -1  -8   2    0.77    0.22
  -1  -8   1    1.05    0.26
   1   8  -1    1.14    0.28
   1   8  -1    0.76    0.22
  -1  -8   0    1.26    0.31
   1   8   0    1.63    0.30
  -1  -8   0    1.60    0.27
   1   8   0    1.29    0.29
   1   8   1    8.06    0.77
  -1  -8  -1    9.38    0.67
   1   8   1    7.54    0.67
  -1  -8  -2    0.43    0.14
   1   8   2    0.32    0.11
   1   8   2    0.35    0.13
  -1  -8  -3   12.16    0.78
   1   8   3   12.00    0.91
   1   8   3   11.90    0.81
   1   8   4   33.51    1.75
  -1  -8  -4   35.61    1.56
   1   8   4   34.14    1.60
   1   8   5   10.47    0.84
  -1  -8  -5   10.75    0.71
   1   8   5   11.10    0.75
  -1  -8  -6    7.47    0.57
   1   8   6    7.71    0.59
  -1  -8  -7   37.44    1.69
  -1  -8  -7   37.44    1.94
  -1  -8  -7   41.09    2.13
  -1  -8  -8    4.13    0.43
  -1  -8  -8    3.47    0.49
  -1  -8  -8    3.11    0.50
  -1  -8  -9   10.11    0.76
  -1  -8  -9    9.27    0.95
  -1  -8 -10   12.66    0.86
  -1  -8 -10   15.39    1.14
  -1  -8 -11   -0.05    0.04
  -1  -8 -11    0.07    0.09
   1   8  12    7.83    0.54
  -1  -8 -12    7.65    0.77
  -1  -8 -13    9.89    0.88
   1   8  13    9.68    0.60
  -1  -8 -14   45.61    2.30
   1   8  14   46.58    1.80
  -1  -8 -15    0.77    0.23
  -1  -8 -16    7.46    0.79
  -1  -8 -17    0.23    0.16
  -1  -8 -18    2.12    0.47
   1   9 -11    0.72    0.34
   1   9 -10   -0.10    0.11
   1   9  -9    1.61    0.45
   1   9  -8    1.68    0.45
   1   9  -7    1.44    0.42
   1   9  -6    0.46    0.24
   1   9  -5   -0.13    0.11
   1   9  -4    0.07    0.15
   1   9  -3    3.32    0.55
   1   9  -2    2.28    0.43
  -1  -9   1    0.77    0.24
   1   9  -1    0.93    0.24
  -1  -9   1    0.89    0.25
   1   9  -1    0.93    0.27
  -1  -9   0    0.37    0.17
   1   9   0    0.48    0.18
   1   9   0    0.25    0.12
   1   9   1    0.81    0.24
  -1  -9  -1    0.63    0.22
   1   9   1    0.99    0.27
   1   9   2    7.48    0.75
  -1  -9  -2    7.09    0.74
   1   9   2    8.19    0.70
  -1  -9  -3    0.71    0.18
   1   9   3    0.74    0.21
   1   9   3    0.54    0.18
  -1  -9  -3    0.30    0.14
  -1  -9  -4   31.19    1.47
   1   9   4   33.00    1.70
   1   9   5    1.48    0.30
  -1  -9  -5    1.46    0.27
   1   9   5    1.61    0.28
  -1  -9  -5    1.45    0.32
  -1  -9  -6    0.57    0.16
   1   9   6    0.31    0.12
   1   9   6    0.84    0.22
  -1  -9  -6    0.85    0.26
  -1  -9  -7    6.09    0.57
  -1  -9  -7    6.23    0.68
  -1  -9  -7    6.45    0.75
   1   9   7    5.46    0.52
  -1  -9  -8    5.24    0.55
  -1  -9  -8    6.12    0.67
  -1  -9  -8    5.08    0.67
   1   9   8    5.64    0.51
  -1  -9  -9   13.04    0.94
  -1  -9  -9   14.64    1.11
  -1  -9  -9   13.30    1.16
   1   9   9   13.91    0.85
   1   9  10    0.20    0.09
  -1  -9 -10    0.02    0.05
  -1  -9 -10    0.01    0.06
  -1  -9 -11   16.05    1.05
  -1  -9 -11   15.97    1.17
   1   9  11   16.32    0.92
  -1  -9 -12    0.14    0.11
  -1  -9 -12    0.45    0.15
  -1  -9 -13    3.17    0.48
  -1  -9 -14   11.19    0.97
  -1  -9 -15    0.92    0.27
  -1  -9 -16    6.36    0.74
  -1  -9 -17    0.51    0.22
  -1  -9 -18    1.39    0.37
   1  10 -10    0.07    0.05
   1  10  -9    1.18    0.42
   1  10  -8    2.77    0.61
   1  10  -7    0.87    0.39
   1  10  -6    4.64    0.75
   1  10  -5    0.17    0.18
   1  10  -4    3.71    0.62
   1  10  -3    0.21    0.13
   1  10  -2    0.41    0.19
   1  10  -1   -0.04    0.06
   1  10  -1   -0.02    0.06
  -1 -10   0    1.65    0.39
   1  10   0    1.70    0.37
   1  10   0    2.29    0.40
  -1 -10  -1    1.41    0.34
   1  10   1    1.02    0.26
   1  10   1    1.29    0.32
   1  10   2    5.67    0.66
  -1 -10  -2    5.52    0.69
   1  10   2    5.96    0.63
  -1 -10  -3    4.02    0.56
   1  10   3    4.44    0.57
   1  10   3    4.47    0.53
  -1 -10  -4    0.59    0.23
   1  10   4    1.00    0.24
   1  10   4    0.75    0.21
   1  10   5    5.67    0.64
  -1 -10  -5    6.68    0.74
   1  10   5    5.77    0.59
  -1 -10  -6    5.41    0.69
   1  10   6    6.47    0.67
   1  10   6    5.43    0.56
  -1 -10  -7    0.00    0.11
   1  10   7    0.05    0.06
  -1 -10  -7    0.10    0.08
   1  10   8    1.19    0.25
  -1 -10  -8    1.85    0.37
  -1 -10  -8    1.22    0.33
  -1 -10  -8    1.49    0.30
  -1 -10  -9    1.06    0.28
   1  10   9    1.30    0.26
  -1 -10  -9    1.02    0.26
  -1 -10  -9    0.93    0.30
  -1 -10 -10    7.25    0.72
  -1 -10 -10    9.43    0.92
   1  10  10    8.29    0.66
  -1 -10 -11   23.17    1.42
  -1 -10 -11   26.29    1.61
   1  10  11   24.04    1.27
  -1 -10 -12    1.09    0.25
   1  10  12    1.73    0.28
  -1 -10 -12    1.45    0.31
  -1 -10 -13    5.33    0.65
   1  10  13    5.43    0.51
   1  10  14    0.45    0.14
  -1 -10 -14    0.47    0.20
  -1 -10 -15    0.23    0.10
  -1 -10 -16    2.75    0.48
  -1 -10 -17    0.12    0.15
  -1 -10 -18    0.42    0.21
   1  11  -9    0.16    0.18
   1  11  -8   10.33    1.24
   1  11  -7    0.21    0.22
   1  11  -6    5.85    0.88
   1  11  -5    0.86    0.33
   1  11  -4    0.29    0.23
   1  11  -3    0.75    0.29
   1  11  -2    0.53    0.21
   1  11  -1    0.16    0.12
   1  11  -1    0.03    0.05
   1  11   0    0.06    0.07
   1  11   0    0.26    0.19
   1  11   1    8.09    0.79
   1  11   1    8.16    0.87
  -1 -11  -1    6.19    0.75
   1  11   2    1.41    0.32
  -1 -11  -2    0.91    0.27
   1  11   2    1.23    0.32
   1  11   3    3.62    0.53
  -1 -11  -3    2.97    0.50
   1  11   3    3.24    0.48
  -1 -11  -4    2.62    0.48
   1  11   4    2.20    0.41
   1  11   4    2.57    0.42
  -1 -11  -5    1.70    0.37
   1  11   5    1.86    0.37
   1  11   5    2.13    0.36
   1  11   6    0.36    0.13
   1  11   6    0.41    0.16
  -1 -11  -6    0.42    0.19
  -1 -11  -7    1.57    0.36
   1  11   7    1.54    0.31
  -1 -11  -7    1.86    0.41
  -1 -11  -8    2.81    0.48
  -1 -11  -8    3.09    0.55
   1  11   8    2.68    0.39
  -1 -11  -9    0.10    0.05
   1  11   9    0.05    0.07
  -1 -11 -10   23.05    1.51
   1  11  10   14.00    0.99
   1  11  11    7.22    0.66
  -1 -11 -11   10.28    0.96
  -1 -11 -12   17.06    1.25
   1  11  12   16.47    1.04
   1  11  13    0.62    0.17
  -1 -11 -13    1.00    0.30
   1  11  14    0.04    0.05
  -1 -11 -14    0.30    0.15
  -1 -11 -15    0.18    0.12
  -1 -11 -16    0.31    0.18
  -1 -11 -17    1.31    0.32
  -1 -11 -18    0.03    0.09
   1  12  -8    2.81    0.66
   1  12  -7    2.95    0.66
   1  12  -6    0.17    0.13
   1  12  -5    2.36    0.55
   1  12  -4    0.17    0.17
   1  12  -3    0.13    0.12
   1  12  -2    0.30    0.16
   1  12  -1    1.33    0.33
   1  12  -1    1.54    0.40
   1  12   0   11.33    1.07
   1  12   0   13.73    1.23
   1  12   1    3.57    0.55
   1  12   1    3.03    0.54
  -1 -12  -2    1.21    0.32
   1  12   2    1.33    0.33
   1  12   2    1.06    0.28
  -1 -12  -3    0.23    0.16
   1  12   3    0.35    0.14
   1  12   3    0.32    0.15
   1  12   4    3.41    0.54
  -1 -12  -4    3.69    0.58
   1  12   4    3.18    0.49
   1  12   5    3.71    0.54
  -1 -12  -5    3.98    0.61
   1  12   5    5.13    0.61
   1  12   6   12.11    1.02
  -1 -12  -6   10.98    1.06
   1  12   6   12.71    1.00
  -1 -12  -7    2.69    0.51
   1  12   7    2.30    0.40
  -1 -12  -7    2.18    0.46
  -1 -12  -8    5.18    0.68
   1  12   8    4.71    0.57
  -1 -12  -9    7.48    0.82
   1  12   9    6.58    0.67
   1  12  10    4.33    0.53
  -1 -12 -10    4.97    0.67
   1  12  11    0.98    0.24
  -1 -12 -11    1.03    0.30
   1  12  12    0.75    0.22
  -1 -12 -12    0.33    0.15
   1  12  13    0.56    0.18
  -1 -12 -13    0.72    0.24
   1  12  14    0.08    0.09
  -1 -12 -14    0.20    0.12
  -1 -12 -15    2.60    0.46
  -1 -12 -16    0.53    0.23
  -1 -12 -17    0.09    0.08
  -1 -12 -18    0.85    0.27
   1  13  -7    0.07    0.19
   1  13  -6    1.81    0.52
   1  13  -5    0.82    0.35
   1  13  -4    3.80    0.70
   1  13  -3    1.85    0.48
   1  13  -2    0.02    0.09
   1  13  -1   16.50    1.37
   1  13  -1   13.82    1.32
   1  13   0   20.59    1.55
   1  13   0   20.31    1.59
   1  13   1   22.82    1.57
   1  13   1   17.33    1.43
   1  13   2    1.11    0.30
   1  13   2    1.34    0.34
   1  13   3    1.21    0.32
   1  13   3    1.88    0.39
   1  13   4    6.33    0.78
   1  13   4    6.81    0.78
   1  13   5    0.03    0.06
   1  13   5   -0.04    0.11
   1  13   6   32.79    1.93
   1  13   6   34.18    1.90
   1  13   7    0.26    0.20
  -1 -13  -7   -0.07    0.08
  -1 -13  -8    9.36    0.96
   1  13   8    8.20    0.81
  -1 -13  -9   -0.03    0.14
   1  13   9    0.09    0.09
  -1 -13 -10    3.44    0.57
   1  13  10    3.04    0.47
   1  13  11    5.00    0.61
  -1 -13 -11    5.71    0.74
  -1 -13 -12    6.30    0.75
   1  13  12    6.79    0.70
  -1 -13 -13   11.57    1.05
   1  13  13   12.40    0.98
  -1 -13 -14    0.64    0.22
   1  13  14    0.90    0.24
  -1 -13 -15    1.11    0.30
  -1 -13 -16    0.32    0.18
   1  14  -5   -0.25    0.19
   1  14  -4    0.00    0.06
   1  14  -3    1.78    0.49
   1  14  -2    0.14    0.17
   1  14  -1    0.05    0.13
   1  14   0    9.11    1.03
   1  14   0    8.61    1.02
   1  14   1    1.40    0.40
   1  14   1    1.10    0.32
   1  14   2    9.19    0.99
   1  14   2    8.69    0.96
   1  14   3    6.61    0.82
   1  14   3    6.04    0.79
   1  14   4    0.16    0.13
   1  14   4    0.10    0.09
   1  14   5   -0.06    0.12
   1  14   5   -0.09    0.11
   1  14   6   20.77    1.45
   1  14   6   17.79    1.37
   1  14   7   17.11    1.31
  -1 -14  -7   17.25    1.46
  -1 -14  -8   10.06    1.01
   1  14   8    8.25    0.87
  -1 -14  -9    3.08    0.54
   1  14   9    3.24    0.52
  -1 -14 -10    0.86    0.28
   1  14  10    0.72    0.23
   1  14  11    0.35    0.17
  -1 -14 -11    0.53    0.25
   1  14  12    1.39    0.34
  -1 -14 -12    1.60    0.38
  -1 -14 -13    0.72    0.24
   1  14  13    0.72    0.23
   1  14  14    1.09    0.28
   1  15   0   11.03    1.20
   1  15   1    1.09    0.37
   1  15   1    0.96    0.34
   1  15   2    0.50    0.20
   1  15   2    0.54    0.23
   1  15   3    0.06    0.07
   1  15   3    0.02    0.03
   1  15   4    3.46    0.60
   1  15   4    3.04    0.55
   1  15   5    0.53    0.21
   1  15   5    0.63    0.27
   1  15   6    1.62    0.40
  -1 -15  -7    0.27    0.16
   1  15   7    0.12    0.10
  -1 -15  -8    2.93    0.56
   1  15   8    3.30    0.56
  -1 -15  -9    0.02    0.13
   1  15   9   -0.07    0.10
   1  15  10    0.29    0.16
   1  15  11   -0.02    0.11
   1  15  12    0.64    0.23
   1  15  13    0.47    0.19
   1  16   4    0.29    0.18
   1  16   5    2.49    0.53
   1  16   6    3.15    0.59
   1  16   7    4.22    0.68
   1  16   8    0.12    0.03
   1  16   9    1.08    0.33
   1  16  10    0.09    0.12
   1  16  11    0.48    0.24
   1  16  12    0.14    0.11
   1  16  13    0.42    0.23
  -2  14  11    0.05    0.06
  -2  14  10    2.65    0.51
  -2  14   9    4.98    0.70
  -2  14   8    4.40    0.64
  -2  14   7    7.88    0.86
  -2  14   6    0.88    0.29
  -2  14   5    1.40    0.34
  -2  14   4    1.98    0.44
  -2  14   3    0.16    0.08
  -2  14   2    1.38    0.35
  -2  14   1    0.23    0.15
  -2  14   0    1.53    0.37
  -2  14  -1    0.14    0.08
  -2  14  -2    0.30    0.16
  -2  13  14    0.59    0.25
  -2  13  13   -0.08    0.03
  -2  13  12    3.50    0.58
  -2  13  11    0.19    0.10
  -2  13  10    0.17    0.12
  -2  13   9    0.39    0.18
  -2  13   8    0.18    0.11
  -2  13   7    0.62    0.23
  -2  13   6    0.30    0.14
  -2  13   5    0.52    0.20
  -2  13   4    0.63    0.22
  -2  13   3    4.65    0.62
  -2  13   2    2.61    0.46
  -2  13   1    0.09    0.16
  -2  13   0    8.91    0.90
  -2  13  -1    0.25    0.15
  -2  13  -2    2.80    0.49
  -2  13  -3    0.83    0.27
  -2  13  -4    5.24    0.69
  -2  13  -5   11.01    1.05
  -2  13  -6    0.55    0.26
  -2  12  16   -0.22    0.15
  -2  12  15    0.30    0.19
  -2  12  14    0.15    0.11
  -2  12  13    1.75    0.42
  -2  12  12    0.20    0.09
  -2  12  11    0.08    0.13
  -2  12  10    0.65    0.25
  -2  12   9    3.73    0.58
  -2  12   8   -0.10    0.10
  -2  12   7    0.28    0.15
  -2  12   6    2.88    0.49
  -2  12   5    3.19    0.52
  -2  12   4    0.84    0.27
  -2  12   3    4.81    0.62
  -2  12   2    0.09    0.14
  -2  12   1    0.68    0.23
  -2  12   0    1.93    0.37
  -2  12  -1    0.14    0.11
  -2  12  -2    0.08    0.09
  -2  12  -3    1.08    0.29
  -2  12  -4    6.95    0.76
  -2  12  -5    0.22    0.15
  -2  12  -6    0.05    0.05
  -2  12  -7    1.50    0.37
  -2  11  16    0.12    0.13
  -2  11  15    0.77    0.29
  -2  11  14    2.99    0.56
  -2  11  13    0.48    0.22
  -2  11  12    0.56    0.21
  -2  11  11    0.50    0.25
  -2  11  10    0.55    0.25
  -2  11   9   -0.03    0.06
  -2  11   8    2.43    0.46
  -2  11   7    2.09    0.42
  -2  11   6    7.08    0.78
  -2  11   5    0.11    0.09
  -2  11   4    0.24    0.16
  -2  11   3    1.81    0.36
  -2  11   2    6.87    0.71
  -2  11   1    0.20    0.12
  -2  11   0    6.18    0.67
  -2  11  -1    0.45    0.19
  -2  11  -2    2.05    0.39
  -2  11  -3    0.20    0.14
  -2  11  -4    0.08    0.09
  -2  11  -5    0.11    0.15
  -2  11  -6    0.32    0.16
  -2  11  -7    1.91    0.39
  -2  10  17    2.73    0.56
  -2  10  16   -0.07    0.09
  -2  10  15    3.49    0.62
  -2  10  14    5.28    0.76
  -2  10  13    1.08    0.33
  -2  10  12    0.10    0.16
  -2  10  11    0.46    0.23
  -2  10  10    0.44    0.18
  -2  10   9    0.62    0.26
  -2  10   8    0.19    0.16
  -2  10   7    8.30    0.86
  -2  10   6    2.79    0.48
  -2  10   5    0.53    0.21
  -2  10   4    1.21    0.29
  -2  10   3    0.66    0.21
  -2  10   2    1.18    0.28
  -2  10   1    5.30    0.60
  -2  10   0    2.42    0.39
  -2  10  -1    8.59    0.77
  -2  10  -2    0.03    0.05
  -2  10  -2    0.07    0.05
  -2  10  -3    0.00    0.02
  -2  10  -3    0.20    0.11
  -2  10  -4    0.38    0.14
  -2  10  -4    0.24    0.08
  -2  10  -5    0.80    0.24
  -2  10  -6    0.02    0.08
  -2  10  -6    0.29    0.15
  -2  10  -7    0.17    0.12
  -2  10  -7    0.17    0.10
  -2  10  -8    2.89    0.50
  -2  10  -8    2.68    0.44
  -2  10  -9    1.45    0.38
  -2   9  17    0.30    0.13
  -2   9  16    0.42    0.21
  -2   9  15   15.34    1.37
  -2   9  14   -0.02    0.08
   2  -9 -13    0.06    0.03
  -2   9  13   -0.04    0.11
  -2   9  12    0.87    0.31
   2  -9 -12    0.88    0.22
   2  -9 -11    1.66    0.30
  -2   9  11    1.23    0.34
  -2   9  10    5.99    0.78
   2  -9 -10    6.21    0.55
   2  -9  -9    3.20    0.34
  -2   9   9    2.43    0.48
  -2   9   8    7.20    0.82
   2  -9  -8    6.84    0.41
   2  -9  -8    7.47    0.46
  -2   9   7    3.72    0.56
  -2   9   6    8.26    0.84
  -2   9   5    1.93    0.39
  -2   9   4    3.81    0.53
  -2   9   3   34.97    1.87
  -2   9   2   15.56    1.10
  -2   9   1   17.16    1.13
  -2   9   0   13.66    0.97
  -2   9  -1    0.73    0.13
  -2   9  -1    0.93    0.23
  -2   9  -1    0.81    0.13
   2  -9   1    0.97    0.20
   2  -9   2    6.20    0.57
  -2   9  -2    7.89    0.69
  -2   9  -2    4.92    0.44
  -2   9  -2    8.77    0.56
  -2   9  -3    1.41    0.27
  -2   9  -3    1.43    0.25
  -2   9  -3    1.15    0.21
  -2   9  -4    3.13    0.42
   2  -9   4    3.13    0.46
  -2   9  -4    2.56    0.39
  -2   9  -5    6.09    0.62
  -2   9  -5    7.54    0.70
  -2   9  -6    3.84    0.52
  -2   9  -6    4.60    0.54
  -2   9  -7    0.09    0.09
  -2   9  -7    0.05    0.09
  -2   9  -8    0.45    0.18
  -2   9  -8    0.44    0.17
  -2   9  -9    0.53    0.23
  -2   9 -10    8.54    0.94
  -2   9 -11    0.10    0.07
  -2   8  17    2.38    0.50
   2  -8 -16    2.11    0.46
  -2   8  16    3.90    0.66
   2  -8 -15    2.42    0.47
  -2   8  15    3.97    0.66
   2  -8 -14   -0.10    0.07
  -2   8  14    0.06    0.03
   2  -8 -13    0.92    0.27
  -2   8  13    1.02    0.30
  -2   8  12    4.92    0.70
   2  -8 -12    4.40    0.54
   2  -8 -11    0.81    0.21
  -2   8  11    0.73    0.26
  -2   8  10   15.23    1.27
  -2   8  10   14.19    0.89
  -2   8   9    1.22    0.19
   2  -8  -9    0.97    0.21
  -2   8   9    0.95    0.28
   2  -8  -8    1.32    0.21
  -2   8   8    1.81    0.39
  -2   8   7    0.10    0.10
   2  -8  -7    0.04    0.03
  -2   8   6    0.16    0.08
  -2   8   5   -0.07    0.07
  -2   8   4    0.15    0.04
  -2   8   3   73.70    3.19
  -2   8   2   42.52    2.08
  -2   8   1   41.33    2.01
  -2   8   0  120.17    4.49
  -2   8  -1    0.02    0.06
  -2   8  -1    0.01    0.03
  -2   8  -1    0.01    0.02
  -2   8  -2    7.67    0.54
   2  -8   2    6.89    0.60
  -2   8  -2    7.44    0.63
  -2   8  -2    5.48    0.47
  -2   8  -3   11.39    0.75
  -2   8  -3    9.57    0.67
  -2   8  -3   10.73    0.79
  -2   8  -4    3.02    0.40
   2  -8   4    2.97    0.43
  -2   8  -4    2.73    0.38
  -2   8  -5    7.24    0.63
   2  -8   5    6.25    0.70
  -2   8  -5    6.13    0.61
  -2   8  -6    4.01    0.52
  -2   8  -6    4.22    0.48
  -2   8  -7    0.52    0.18
  -2   8  -7    0.58    0.21
  -2   8  -8    0.09    0.09
  -2   8  -8    0.08    0.07
  -2   8  -9    2.26    0.44
  -2   8  -9    2.57    0.41
  -2   8 -10    0.19    0.11
  -2   8 -11    1.06    0.36
  -2   8 -12    0.00    0.08
   2  -7 -17    1.28    0.39
   2  -7 -16    0.39    0.22
  -2   7  16    0.34    0.19
  -2   7  15    0.20    0.12
   2  -7 -15    0.42    0.21
  -2   7  14    7.21    0.90
   2  -7 -14    5.36    0.69
  -2   7  13    0.08    0.13
   2  -7 -13    0.15    0.12
  -2   7  12    2.48    0.50
   2  -7 -12    3.06    0.47
   2  -7 -11    0.02    0.04
  -2   7  11   -0.06    0.09
  -2   7  11    0.07    0.07
   2  -7 -10   21.12    1.27
  -2   7  10   21.07    1.55
  -2   7  10   23.99    1.20
  -2   7   9    3.19    0.52
  -2   7   9    2.25    0.28
   2  -7  -9    3.33    0.41
   2  -7  -8    0.06    0.05
  -2   7   8    0.05    0.13
  -2   7   8    0.04    0.04
  -2   7   7    4.67    0.63
  -2   7   7    4.55    0.32
   2  -7  -7    4.20    0.40
  -2   7   6    2.76    0.47
   2  -7  -6    2.36    0.25
  -2   7   5   -0.04    0.07
   2  -7  -5    0.01    0.01
  -2   7   4    0.97    0.25
  -2   7   3    0.10    0.07
  -2   7   2    2.77    0.43
  -2   7   1    9.85    0.44
  -2   7   1   18.86    1.10
  -2   7   0   22.36    0.90
  -2   7   0   19.38    0.88
  -2   7  -1    0.23    0.08
  -2   7  -1    0.30    0.09
  -2   7  -1    0.42    0.15
   2  -7   2    8.96    0.85
  -2   7  -2   10.93    0.63
  -2   7  -2    9.96    0.73
   2  -7   2    8.68    0.68
  -2   7  -3    0.01    0.06
   2  -7   3   -0.01    0.04
  -2   7  -3    0.11    0.08
  -2   7  -3    0.01    0.04
   2  -7   4    2.68    0.45
  -2   7  -4    3.46    0.39
   2  -7   4    4.05    0.50
  -2   7  -4    3.84    0.42
   2  -7   5    0.07    0.07
  -2   7  -5    0.12    0.09
  -2   7  -5    0.07    0.09
  -2   7  -6    1.77    0.29
  -2   7  -6    1.62    0.31
  -2   7  -7    5.70    0.53
  -2   7  -7    4.58    0.55
  -2   7  -8    7.23    0.74
  -2   7  -8    6.27    0.58
  -2   7  -9    0.02    0.06
  -2   7  -9    0.09    0.13
  -2   7 -10    0.18    0.17
  -2   7 -11    0.58    0.24
  -2   7 -12   12.97    1.22
   2  -6 -18   -0.01    0.09
   2  -6 -17    4.59    0.74
   2  -6 -16    0.48    0.21
  -2   6  16    0.77    0.29
   2  -6 -15    0.39    0.13
  -2   6  15    0.89    0.29
   2  -6 -14    0.16    0.15
  -2   6  14   -0.06    0.12
   2  -6 -13    0.53    0.22
  -2   6  13    0.93    0.30
   2  -6 -12    2.40    0.42
  -2   6  12    2.50    0.49
  -2   6  12    1.91    0.36
  -2   6  11    7.29    0.85
  -2   6  11    6.96    0.63
   2  -6 -11    6.26    0.68
  -2   6  10    3.81    0.58
  -2   6  10    2.75    0.34
   2  -6 -10    3.65    0.48
   2  -6  -9   -0.02    0.03
  -2   6   9    0.02    0.09
  -2   6   9    0.03    0.04
   2  -6  -8    1.08    0.23
  -2   6   8    1.45    0.34
  -2   6   8    1.27    0.19
   2  -6  -7    0.29    0.11
  -2   6   7    0.43    0.16
  -2   6   7    0.38    0.09
   2  -6  -6    1.03    0.19
  -2   6   6    0.95    0.25
  -2   6   6    1.04    0.13
  -2   6   5    3.93    0.53
  -2   6   5    2.95    0.18
   2  -6  -5    3.73    0.34
  -2   6   4    1.97    0.37
   2  -6  -4    1.99    0.21
  -2   6   3   37.92    1.95
  -2   6   2    0.66    0.18
  -2   6   1    8.66    0.39
  -2   6   1    8.49    0.76
  -2   6   1    8.42    0.44
  -2   6   0   10.15    0.51
  -2   6   0   10.26    0.58
  -2   6  -1    0.09    0.05
  -2   6  -1   -0.01    0.04
  -2   6  -1    0.11    0.06
  -2   6  -2    7.41    0.49
  -2   6  -2    6.93    0.60
   2  -6   2    7.77    0.64
  -2   6  -2    5.86    0.52
   2  -6   3    0.59    0.18
  -2   6  -3    0.24    0.10
  -2   6  -3    0.29    0.11
  -2   6  -3    0.48    0.15
  -2   6  -4    6.75    0.54
  -2   6  -4    6.52    0.54
   2  -6   5    0.29    0.13
  -2   6  -5    0.39    0.13
   2  -6   5    0.32    0.13
  -2   6  -5    0.62    0.18
   2  -6   6    0.02    0.06
   2  -6   6   -0.07    0.08
  -2   6  -6   -0.02    0.06
  -2   6  -6    0.00    0.05
  -2   6  -7    9.45    0.77
  -2   6  -7   10.59    0.70
  -2   6  -8    0.84    0.20
  -2   6  -8    0.37    0.17
  -2   6  -9    0.23    0.19
  -2   6  -9    0.22    0.14
  -2   6 -10    0.17    0.04
  -2   6 -11    0.10    0.12
  -2   6 -12    1.40    0.36
  -2   6 -13    0.02    0.05
   2  -5 -17   -0.04    0.09
   2  -5 -16    1.12    0.36
  -2   5  16    1.60    0.43
   2  -5 -15    0.30    0.18
  -2   5  15   -0.04    0.06
   2  -5 -14    0.55    0.23
  -2   5  14    1.00    0.34
   2  -5 -13    0.32    0.17
  -2   5  13    0.52    0.20
   2  -5 -12    1.31    0.32
  -2   5  12    1.57    0.39
   2  -5 -11    1.17    0.29
  -2   5  11    1.07    0.30
  -2   5  11    1.24    0.26
  -2   5  10   31.30    1.96
  -2   5  10   30.31    1.50
  -2   5   9    9.01    0.93
  -2   5   9    9.13    0.63
   2  -5  -9    9.88    0.81
   2  -5  -8    0.04    0.07
  -2   5   8    0.12    0.12
  -2   5   8    0.06    0.06
  -2   5   7   14.36    0.77
   2  -5  -7   16.41    0.99
  -2   5   6    6.16    0.40
   2  -5  -6    5.99    0.53
  -2   5   5    1.03    0.27
  -2   5   5    1.67    0.17
   2  -5  -5    1.68    0.24
  -2   5   4   11.39    0.93
  -2   5   4   12.18    0.54
   2  -5  -4   11.23    0.68
  -2   5   3    0.03    0.04
  -2   5   3    0.07    0.02
  -2   5   2    0.88    0.23
  -2   5   2    1.21    0.15
   2  -5  -2    1.28    0.16
  -2   5   2    1.21    0.16
  -2   5   1    0.92    0.14
  -2   5   1    0.80    0.22
  -2   5   1    0.63    0.10
  -2   5   0   20.11    1.19
  -2   5   0   18.90    0.83
  -2   5   0   20.42    0.96
  -2   5  -1   11.57    0.67
  -2   5  -1   15.71    0.99
  -2   5  -2    1.56    0.21
  -2   5  -2    1.89    0.30
  -2   5  -2    2.06    0.28
  -2   5  -3    2.65    0.30
  -2   5  -3    2.93    0.35
   2  -5   3    2.59    0.38
  -2   5  -3    2.96    0.36
  -2   5  -4    1.11    0.20
  -2   5  -4    0.91    0.18
  -2   5  -4    0.62    0.16
   2  -5   5    0.26    0.14
  -2   5  -5    0.36    0.12
  -2   5  -5    0.29    0.12
  -2   5  -6    9.53    0.71
   2  -5   6    7.64    0.78
  -2   5  -6    8.02    0.57
  -2   5  -7    0.25    0.09
  -2   5  -7    0.10    0.08
  -2   5  -8    0.98    0.21
  -2   5  -8    0.39    0.22
  -2   5  -9    3.34    0.48
  -2   5  -9    3.68    0.39
  -2   5 -10    0.64    0.15
  -2   5 -10    0.70    0.22
  -2   5 -11    0.65    0.22
  -2   5 -12    0.56    0.26
  -2   5 -13    3.18    0.57
   2  -4 -17    1.59    0.44
   2  -4 -16    1.30    0.42
  -2   4  16    0.76    0.28
   2  -4 -15    0.05    0.04
   2  -4 -14    0.73    0.26
   2  -4 -13    0.30    0.19
   2  -4 -12    9.50    0.93
   2  -4 -11    1.36    0.32
  -2   4  11    0.85    0.21
  -2   4  10   81.23    3.26
   2  -4 -10   94.35    3.66
   2  -4  -9    0.34    0.11
  -2   4   9    0.36    0.12
  -2   4   8   11.20    0.71
   2  -4  -8   11.70    0.88
   2  -4  -7    1.25    0.25
  -2   4   7    1.25    0.20
  -2   4   6    4.24    0.35
   2  -4  -6    3.33    0.41
  -2   4   5    3.65    0.31
   2  -4  -5    3.17    0.38
  -2   4   4    6.56    0.42
   2  -4  -4    6.72    0.53
   2  -4  -3    8.33    0.56
  -2   4   3    8.12    0.53
  -2   4   2   27.97    1.49
   2  -4  -2   27.19    1.19
  -2   4   2   24.08    1.14
  -2   4   1    1.57    0.29
  -2   4   1    2.14    0.23
   2  -4  -1    1.52    0.21
  -2   4   1    1.39    0.20
  -2   4   0    4.24    0.49
  -2   4   0    5.42    0.41
  -2   4   0    4.43    0.41
  -2   4  -1    5.27    0.40
  -2   4  -1    4.17    0.42
  -2   4  -2    3.80    0.44
  -2   4  -2    5.04    0.41
  -2   4  -2    5.27    0.49
  -2   4  -3   10.85    0.66
  -2   4  -3   10.60    0.75
  -2   4  -4    2.96    0.34
  -2   4  -4    3.05    0.34
  -2   4  -4    3.32    0.39
  -2   4  -5   10.20    0.70
  -2   4  -5   10.70    0.65
   2  -4   5   10.52    0.88
   2  -4   6    0.89    0.26
  -2   4  -6    0.84    0.16
  -2   4  -6    0.65    0.17
   2  -4   7    0.30    0.22
  -2   4  -7    0.63    0.18
  -2   4  -7   -0.03    0.07
  -2   4  -8   15.53    1.04
  -2   4  -8   14.34    0.78
  -2   4  -9    0.41    0.11
  -2   4  -9    0.33    0.15
  -2   4 -10    2.95    0.32
  -2   4 -10    2.81    0.45
  -2   4 -11    0.52    0.23
  -2   4 -12    2.15    0.42
  -2   4 -13    1.16    0.30
  -2   4 -14    0.14    0.10
   2  -3 -17    0.76    0.29
   2  -3 -16    0.30    0.25
   2  -3 -15    3.04    0.59
   2  -3 -14    0.83    0.29
   2  -3 -13    2.31    0.47
   2  -3 -12    4.53    0.65
   2  -3 -11   28.06    1.73
  -2   3  10   32.36    1.62
   2  -3 -10   31.80    1.82
  -2   3   9    6.92    0.59
   2  -3  -9    6.25    0.67
  -2   3   8   26.86    1.32
   2  -3  -8   27.94    1.55
   2  -3  -7    0.32    0.13
  -2   3   7    0.19    0.09
   2  -3  -6    0.74    0.19
  -2   3   6    0.68    0.16
  -2   3   5   11.51    0.70
   2  -3  -5   13.89    0.88
  -2   3   4   13.71    0.73
   2  -3  -4   11.55    0.80
   2  -3  -3  177.40    6.18
  -2   3   3  185.58    6.11
   2  -3  -2   19.11    0.99
  -2   3   2   17.47    0.95
   2  -3  -1   11.26    0.70
  -2   3   1   10.25    0.67
  -2   3   0    4.30    0.48
  -2   3   0    3.48    0.35
   2  -3   0    4.87    0.42
  -2   3   0    4.26    0.41
  -2   3  -1    7.76    0.64
  -2   3  -1    7.53    0.61
  -2   3  -2   18.17    1.04
  -2   3  -2   19.78    1.00
  -2   3  -2   16.44    1.02
  -2   3  -3    5.98    0.51
  -2   3  -3    5.80    0.49
  -2   3  -3    5.49    0.55
  -2   3  -4    0.62    0.19
  -2   3  -4    0.39    0.18
  -2   3  -4    0.20    0.13
  -2   3  -5    0.14    0.10
   2  -3   5   -0.01    0.15
  -2   3  -5    0.04    0.09
  -2   3  -5    0.14    0.09
   2  -3   6    1.19    0.38
  -2   3  -6    1.36    0.21
  -2   3  -6    0.77    0.18
   2  -3   7    0.01    0.05
  -2   3  -7    0.07    0.06
  -2   3  -7    0.05    0.06
  -2   3  -8    0.22    0.11
  -2   3  -8    0.27    0.08
  -2   3  -9    2.28    0.38
  -2   3  -9    2.44    0.25
  -2   3 -10    8.36    0.52
  -2   3 -10    9.36    0.83
  -2   3 -11   11.67    0.98
  -2   3 -12    2.11    0.41
  -2   3 -13    2.87    0.50
  -2   3 -14    6.71    0.82
   2  -2 -16    0.34    0.22
   2  -2 -15    0.02    0.09
   2  -2 -14    4.54    0.73
   2  -2 -13    0.52    0.24
   2  -2 -12    4.12    0.64
   2  -2 -11    0.15    0.12
   2  -2 -10   20.22    1.41
   2  -2  -9    2.20    0.40
  -2   2   9    2.97    0.40
  -2   2   8   23.29    1.28
   2  -2  -8   28.82    1.58
  -2   2   7    5.13    0.49
   2  -2  -7    4.56    0.54
  -2   2   6    9.86    0.68
   2  -2  -6    9.27    0.77
   2  -2  -5    1.66    0.30
  -2   2   5    2.06    0.27
   2  -2  -4   26.40    1.38
  -2   2   4   26.95    1.35
   2  -2  -3   24.61    1.27
  -2   2   3   23.84    1.23
   2  -2  -2   28.33    1.37
  -2   2   2   26.61    1.32
   2  -2  -1   10.42    0.69
  -2   2   1    8.84    0.66
   2  -2   0    5.64    0.50
  -2   2   0    5.45    0.50
  -2   2  -1   24.17    1.21
   2  -2   1   25.36    1.24
  -2   2  -1   26.20    1.33
  -2   2  -2   16.52    0.96
  -2   2  -2   18.20    0.97
  -2   2  -3   12.34    0.81
  -2   2  -3   13.12    0.92
  -2   2  -4   95.06    3.32
  -2   2  -4   94.79    3.45
  -2   2  -5   23.19    1.08
  -2   2  -5   20.71    1.26
  -2   2  -6   10.36    0.75
  -2   2  -6    8.52    0.52
  -2   2  -6    9.09    0.76
   2  -2   7    0.06    0.12
  -2   2  -7    0.20    0.06
  -2   2  -7    0.24    0.12
  -2   2  -8    0.05    0.04
  -2   2  -8    0.08    0.09
  -2   2  -9   27.46    1.53
  -2   2  -9   30.25    1.15
  -2   2 -10    0.54    0.17
  -2   2 -11   35.48    1.92
  -2   2 -12    8.06    0.83
  -2   2 -13    0.20    0.15
  -2   2 -14    0.33    0.20
  -2   2 -15    7.51    0.89
   2  -1 -16    0.03    0.09
   2  -1 -15    1.26    0.40
   2  -1 -14    2.13    0.51
   2  -1 -13    0.62    0.28
   2  -1 -12    0.42    0.23
   2  -1 -11    8.73    0.94
   2  -1 -10    0.94    0.29
   2  -1  -9    0.64    0.23
  -2   1   9    0.69    0.19
   2  -1  -8    0.35    0.18
  -2   1   8    0.26    0.11
   2  -1  -7    1.90    0.36
  -2   1   7    1.90    0.31
   2  -1  -6    1.67    0.32
  -2   1   6    1.95    0.30
  -2   1   5    7.05    0.58
   2  -1  -5    7.63    0.69
   2  -1  -4    5.30    0.55
  -2   1   4    5.88    0.56
   2  -1  -3    1.77    0.30
  -2   1   3    1.96    0.31
  -2   1   2    0.36    0.13
   2  -1  -2    0.25    0.11
  -2   1   1    2.56    0.35
   2  -1  -1    2.51    0.34
   2  -1   0    2.46    0.34
  -2   1   0    2.43    0.34
   2  -1   1    9.26    0.69
  -2   1  -1    9.66    0.74
  -2   1  -2    7.93    0.63
   2  -1   2    8.50    0.69
  -2   1  -2    7.57    0.66
  -2   1  -3   15.43    0.99
  -2   1  -3   20.39    1.18
  -2   1  -4    4.93    0.43
  -2   1  -4    6.72    0.61
  -2   1  -4    6.45    0.63
  -2   1  -5    0.06    0.08
  -2   1  -5    0.08    0.09
  -2   1  -5    0.05    0.11
  -2   1  -6    7.67    0.49
  -2   1  -6    9.87    0.75
   2  -1   6    8.57    0.85
  -2   1  -6    8.41    0.74
  -2   1  -7    0.28    0.11
  -2   1  -7    0.48    0.17
  -2   1  -7    0.55    0.09
  -2   1  -8    9.94    0.80
  -2   1  -8    9.92    0.46
  -2   1  -9    0.23    0.05
  -2   1  -9    0.36    0.14
  -2   1 -10   12.71    0.96
  -2   1 -11   19.92    1.30
  -2   1 -12   21.69    1.43
  -2   1 -13    6.19    0.73
  -2   1 -14    1.40    0.37
  -2   1 -15    0.07    0.14
   2   0 -15    0.69    0.31
   2   0 -14    5.61    0.86
   2   0 -13    0.14    0.16
   2   0 -12   -0.04    0.08
   2   0 -11    2.86    0.54
   2   0 -10    1.88    0.42
   2   0  -9    0.95    0.28
   2   0  -8   -0.01    0.11
  -2   0   8   -0.01    0.02
  -2   0   7   31.19    1.54
   2   0  -7   24.27    1.57
   2   0  -6    0.03    0.08
  -2   0   6    0.09    0.08
  -2   0   5    1.91    0.30
   2   0  -5    2.17    0.37
   2   0  -4    1.26    0.27
  -2   0   4    1.10    0.25
  -2   0   3    1.37    0.27
   2   0  -3    0.82    0.21
  -2   0   2    0.91    0.21
   2   0  -2    0.72    0.20
  -2   0   1   20.06    1.16
   2   0  -1   20.74    1.19
   2   0   0    1.96    0.31
  -2   0   0    1.70    0.29
   2   0   1   46.04    2.01
  -2   0  -1   43.71    2.03
   2   0   2    1.13    0.27
  -2   0  -2    1.15    0.26
  -2   0  -3   46.49    2.13
  -2   0  -3   55.57    2.34
  -2   0  -4    0.21    0.09
  -2   0  -4    0.33    0.15
  -2   0  -5   20.52    1.20
  -2   0  -5   19.09    1.20
  -2   0  -6    3.81    0.32
  -2   0  -6    4.65    0.51
  -2   0  -6    4.65    0.55
  -2   0  -7    7.58    0.73
  -2   0  -7    6.84    0.38
  -2   0  -7    6.86    0.65
   2   0   7    8.03    0.85
  -2   0  -8    2.52    0.39
  -2   0  -8    2.17    0.14
  -2   0  -8    2.19    0.38
  -2   0  -9    4.94    0.56
  -2   0 -10    5.31    0.60
  -2   0 -11    0.33    0.17
  -2   0 -12    3.25    0.50
  -2   0 -13    1.63    0.38
  -2   0 -14    0.67    0.26
  -2   0 -15    0.16    0.12
   2   1 -15    1.12    0.39
   2   1 -14    0.78    0.30
   2   1 -13    1.26    0.41
   2   1 -12    4.69    0.74
   2   1 -11    0.36    0.19
   2   1 -10    1.55    0.40
   2   1  -9   -0.03    0.08
   2   1  -8    0.19    0.15
  -2  -1   7    3.22    0.45
   2   1  -7    2.83    0.48
  -2  -1   6    9.13    0.76
   2   1  -6    8.04    0.81
  -2  -1   5   12.94    0.90
   2   1  -5   11.63    0.95
   2   1  -4    1.68    0.33
  -2  -1   4    1.46    0.30
   2   1  -3    0.82    0.21
  -2  -1   3    0.84    0.22
   2   1  -2   13.25    0.94
  -2  -1   2   12.69    0.92
  -2  -1   1   20.88    1.23
   2   1  -1   21.85    1.26
   2   1   0   67.11    2.76
  -2  -1   0   66.35    2.77
   2   1   1   23.30    1.30
  -2  -1  -1   24.58    1.38
   2   1   2    0.81    0.28
  -2  -1  -2    0.58    0.22
  -2  -1  -3   13.55    0.94
   2   1   3   15.11    0.99
  -2  -1  -3   14.67    1.03
  -2  -1  -4   10.84    0.82
  -2  -1  -4   11.10    0.91
  -2  -1  -5   54.50    2.39
  -2  -1  -5   52.96    2.49
  -2  -1  -6   -0.14    0.09
  -2  -1  -6    0.04    0.04
  -2  -1  -7    2.63    0.22
  -2  -1  -7    3.25    0.44
  -2  -1  -7    3.31    0.48
  -2  -1  -8    5.37    0.24
  -2  -1  -8    5.72    0.26
  -2  -1  -9    0.12    0.10
  -2  -1 -10   32.98    1.77
  -2  -1 -11   11.16    0.93
  -2  -1 -12    5.33    0.63
  -2  -1 -13    0.18    0.15
  -2  -1 -14    0.42    0.19
  -2  -1 -15    0.06    0.09
  -2  -1 -16    0.17    0.10
   2   2 -14    0.42    0.30
   2   2 -13    0.41    0.22
   2   2 -12    3.44    0.68
   2   2 -11    8.74    1.03
   2   2 -10    5.47    0.78
   2   2  -9    7.31    0.87
   2   2  -8    0.45    0.23
   2   2  -7   13.65    1.15
   2   2  -6    2.49    0.45
  -2  -2   6    2.66    0.41
  -2  -2   5    9.36    0.78
   2   2  -5    9.92    0.90
   2   2  -4    1.26    0.29
  -2  -2   4    1.42    0.31
   2   2  -3    5.85    0.63
  -2  -2   3    5.25    0.60
   2   2  -2   14.21    1.02
  -2  -2   2   13.11    0.97
   2   2  -1    8.27    0.74
  -2  -2   1    7.44    0.71
   2   2   0   30.24    1.59
  -2  -2   0   28.65    1.56
   2   2   1   10.91    0.86
  -2  -2  -1    9.55    0.83
   2   2   2   20.20    1.25
  -2  -2  -2   23.49    1.38
   2   2   3   18.55    1.16
  -2  -2  -3   18.75    1.24
  -2  -2  -4    1.44    0.29
   2   2   4    0.88    0.23
  -2  -2  -4    1.31    0.29
  -2  -2  -5   22.90    1.35
  -2  -2  -5   25.30    1.52
  -2  -2  -6    1.50    0.31
  -2  -2  -6    1.65    0.35
  -2  -2  -7    0.05    0.03
  -2  -2  -7    0.06    0.13
  -2  -2  -7    0.03    0.06
  -2  -2  -8    0.02    0.02
  -2  -2  -8    0.01    0.03
  -2  -2  -8    0.04    0.02
  -2  -2  -8   -0.02    0.10
  -2  -2  -9   13.00    1.01
  -2  -2 -10   17.15    1.21
  -2  -2 -11    9.67    0.86
  -2  -2 -12   40.01    2.09
  -2  -2 -13    1.76    0.37
  -2  -2 -14    0.08    0.10
  -2  -2 -15    0.39    0.18
  -2  -2 -16    0.45    0.21
   2   3 -14    0.23    0.18
   2   3 -13   -0.18    0.20
   2   3 -12    0.17    0.15
   2   3 -11   19.11    1.64
   2   3 -10   -0.06    0.09
   2   3  -9    0.02    0.09
   2   3  -8    0.07    0.05
   2   3  -7   22.30    1.57
   2   3  -6   19.89    1.44
   2   3  -5    1.42    0.34
  -2  -3   5    1.36    0.30
   2   3  -4   10.35    0.93
  -2  -3   4    9.23    0.85
   2   3  -3   41.62    2.10
  -2  -3   3   40.40    2.08
  -2  -3   2    1.78    0.36
   2   3  -2    1.58    0.35
   2   3  -1    2.78    0.47
   2   3   0   82.33    3.37
   2   3   1    0.32    0.13
   2   3   2  271.20    9.21
   2   3   3   34.66    1.79
   2   3   4   67.64    2.88
  -2  -3  -5   10.78    0.89
  -2  -3  -5   12.56    1.02
  -2  -3  -6    0.95    0.15
  -2  -3  -6    1.01    0.26
  -2  -3  -6    0.97    0.26
  -2  -3  -7    2.76    0.44
  -2  -3  -7    2.57    0.46
  -2  -3  -7    2.65    0.23
  -2  -3  -8    1.69    0.14
  -2  -3  -8    1.78    0.37
  -2  -3  -8    1.99    0.39
  -2  -3  -9   16.87    1.21
  -2  -3 -10    0.78    0.23
  -2  -3 -11    0.26    0.13
  -2  -3 -12    1.29    0.32
  -2  -3 -13    0.58    0.22
  -2  -3 -14    1.53    0.36
  -2  -3 -15    1.32    0.33
  -2  -3 -16    0.10    0.10
   2   4 -13    0.75    0.34
   2   4 -12   -0.25    0.24
   2   4 -11    0.44    0.22
   2   4 -10    2.59    0.58
   2   4  -9    0.10    0.13
   2   4  -8    0.50    0.21
   2   4  -7    0.71    0.26
   2   4  -6    0.11    0.19
   2   4  -5    8.05    0.87
   2   4  -4    0.51    0.23
  -2  -4   4    0.41    0.21
   2   4  -3   13.01    1.08
  -2  -4   3   12.04    1.02
   2   4  -2   26.22    1.66
  -2  -4   2   28.71    1.69
   2   4  -1   33.79    1.86
   2   4   0  132.78    5.06
   2   4   1  134.63    5.08
   2   4   2    9.58    0.82
  -2  -4  -3   37.32    1.63
   2   4   3   38.57    1.95
  -2  -4  -4  178.29    5.95
   2   4   4  177.12    6.40
  -2  -4  -5    0.22    0.13
  -2  -4  -5    0.16    0.06
   2   4   5    0.26    0.11
  -2  -4  -5    0.27    0.15
  -2  -4  -6    0.21    0.14
  -2  -4  -6    0.24    0.09
  -2  -4  -6    0.24    0.13
  -2  -4  -7    4.19    0.55
  -2  -4  -7    4.64    0.64
  -2  -4  -7    3.99    0.31
  -2  -4  -8    1.72    0.36
  -2  -4  -8    1.72    0.17
  -2  -4  -9   12.53    1.05
  -2  -4  -9   11.06    0.48
  -2  -4 -10    2.23    0.40
  -2  -4 -11   19.33    1.35
  -2  -4 -12    0.26    0.17
  -2  -4 -13    1.17    0.31
  -2  -4 -14   -0.03    0.08
  -2  -4 -15    0.45    0.21
  -2  -4 -16    4.89    0.68
   2   5 -12    0.20    0.22
   2   5 -11    2.27    0.55
   2   5 -10   10.12    1.17
   2   5  -9    4.42    0.73
   2   5  -8   -0.29    0.18
   2   5  -7    0.95    0.32
   2   5  -6    7.13    0.87
   2   5  -5   -0.05    0.07
   2   5  -4    0.79    0.32
  -2  -5   3    5.08    0.55
   2   5  -3    5.05    0.66
  -2  -5   3    5.55    0.69
  -2  -5   2    0.38    0.24
  -2  -5   2    0.01    0.17
   2   5  -2    0.06    0.13
  -2  -5   1   16.06    1.04
   2   5  -1   18.41    1.29
  -2  -5   1   18.76    1.29
  -2  -5   0    4.14    0.46
  -2  -5   0    4.84    0.61
   2   5   0    4.41    0.58
  -2  -5  -1  103.00    3.79
   2   5   1  106.34    4.16
  -2  -5  -1   99.64    4.18
  -2  -5  -2   10.49    0.72
   2   5   2   10.56    0.89
  -2  -5  -2   10.15    0.93
   2   5   3    1.14    0.27
  -2  -5  -3    1.81    0.38
  -2  -5  -3    1.59    0.25
   2   5   4    8.25    0.79
  -2  -5  -4    8.75    0.89
  -2  -5  -4    8.30    0.60
  -2  -5  -5    0.47    0.12
   2   5   5    0.51    0.18
  -2  -5  -5    0.41    0.19
  -2  -5  -6   18.08    1.28
  -2  -5  -6   19.16    1.40
  -2  -5  -6   18.35    0.91
  -2  -5  -7    1.27    0.30
  -2  -5  -7    1.32    0.18
  -2  -5  -7    1.77    0.41
  -2  -5  -8    7.11    0.76
  -2  -5  -8    6.60    0.42
  -2  -5  -9    0.33    0.18
  -2  -5  -9    0.23    0.06
  -2  -5 -10    0.80    0.11
  -2  -5 -10    0.82    0.24
  -2  -5 -11    0.09    0.03
  -2  -5 -12   10.79    1.01
  -2  -5 -13    0.10    0.13
  -2  -5 -14    1.05    0.30
  -2  -5 -15    0.15    0.19
  -2  -5 -16    7.06    0.82
  -2  -5 -17    0.06    0.10
   2   6 -11   12.22    1.39
   2   6 -10    8.88    1.13
   2   6  -9    6.40    0.94
   2   6  -8    0.04    0.10
   2   6  -7    3.39    0.62
   2   6  -6    1.43    0.40
   2   6  -5    0.06    0.20
   2   6  -4    2.79    0.53
   2   6  -3    0.56    0.23
   2   6  -2    0.43    0.20
  -2  -6   1    0.94    0.28
  -2  -6   1    1.07    0.23
   2   6  -1    1.12    0.31
  -2  -6   0    2.47    0.45
   2   6   0    2.95    0.50
  -2  -6   0    2.81    0.38
  -2  -6  -1    0.10    0.11
  -2  -6  -1   -0.03    0.03
   2   6   1   -0.02    0.10
   2   6   2    8.26    0.81
  -2  -6  -2    9.14    0.89
  -2  -6  -2    8.23    0.65
   2   6   3    9.59    0.90
  -2  -6  -3   10.93    1.01
  -2  -6  -3   10.16    0.72
  -2  -6  -4    0.11    0.08
   2   6   4    0.07    0.06
  -2  -6  -4    0.03    0.05
  -2  -6  -5    0.96    0.19
   2   6   5    1.11    0.29
  -2  -6  -5    0.88    0.28
  -2  -6  -6    1.43    0.35
   2   6   6    1.68    0.35
  -2  -6  -6    1.42    0.36
  -2  -6  -6    1.34    0.21
  -2  -6  -7    0.08    0.05
  -2  -6  -7    0.19    0.07
  -2  -6  -8   26.10    1.63
  -2  -6  -8   24.45    1.09
  -2  -6  -9   -0.02    0.04
  -2  -6  -9    0.09    0.05
  -2  -6 -10    7.32    0.46
  -2  -6 -10    8.13    0.88
  -2  -6 -11    0.04    0.03
  -2  -6 -11    0.01    0.06
  -2  -6 -12    0.00    0.07
  -2  -6 -13    0.93    0.28
  -2  -6 -14    0.23    0.15
  -2  -6 -15    0.37    0.16
  -2  -6 -16    0.04    0.12
  -2  -6 -17   -0.02    0.04
   2   7 -11    4.61    0.87
   2   7 -10    0.23    0.23
   2   7  -9    6.61    0.97
   2   7  -8    0.49    0.35
   2   7  -7    2.54    0.56
   2   7  -6    1.29    0.43
   2   7  -5    0.69    0.27
   2   7  -4   23.27    1.70
   2   7  -3    6.44    0.83
   2   7  -2   12.58    1.16
   2   7  -1    0.05    0.07
   2   7   0    6.07    0.75
  -2  -7   0    6.46    0.77
  -2  -7  -1    0.15    0.10
  -2  -7  -1    0.40    0.15
   2   7   1    0.12    0.09
   2   7   2    7.86    0.82
  -2  -7  -2    7.60    0.84
  -2  -7  -2    7.77    0.64
   2   7   3    7.50    0.80
  -2  -7  -3    6.71    0.80
  -2  -7  -3    6.23    0.56
   2   7   4    7.68    0.81
  -2  -7  -4    7.44    0.60
  -2  -7  -4    8.82    0.93
   2   7   5    5.75    0.69
  -2  -7  -5    6.54    0.81
  -2  -7  -5    5.46    0.53
  -2  -7  -6    3.78    0.39
   2   7   6    3.15    0.50
  -2  -7  -6    4.39    0.68
  -2  -7  -7    0.52    0.19
  -2  -7  -7    0.82    0.17
  -2  -7  -8    8.03    0.84
  -2  -7  -8    7.84    0.55
  -2  -7  -9    1.04    0.28
  -2  -7  -9    0.94    0.17
  -2  -7 -10    0.12    0.08
  -2  -7 -10    0.19    0.09
  -2  -7 -11    0.11    0.06
  -2  -7 -11    0.12    0.07
  -2  -7 -12    3.11    0.53
  -2  -7 -13    3.70    0.59
  -2  -7 -14    2.44    0.47
  -2  -7 -15    4.45    0.65
  -2  -7 -16    0.14    0.12
  -2  -7 -17    2.83    0.53
   2   8 -10    0.74    0.36
   2   8  -9    9.21    1.19
   2   8  -8    0.85    0.38
   2   8  -7    0.25    0.26
   2   8  -6   26.83    2.00
   2   8  -5    0.11    0.17
   2   8  -4    5.32    0.78
   2   8  -3    1.68    0.43
   2   8  -2    0.94    0.31
   2   8  -1    0.16    0.11
   2   8   0    4.95    0.70
   2   8   1   33.77    2.03
   2   8   2    0.05    0.06
   2   8   3    7.13    0.81
  -2  -8  -3    7.25    0.62
   2   8   4    1.01    0.31
  -2  -8  -4    1.06    0.22
  -2  -8  -5    0.48    0.16
   2   8   5    0.33    0.20
  -2  -8  -6    0.07    0.07
   2   8   6    0.04    0.03
  -2  -8  -7    2.85    0.52
   2   8   7    2.68    0.48
  -2  -8  -7    2.71    0.34
  -2  -8  -8    2.15    0.45
  -2  -8  -8    1.96    0.27
  -2  -8  -9    1.22    0.21
  -2  -8  -9    1.05    0.31
  -2  -8 -10    1.14    0.35
  -2  -8 -10    1.11    0.21
  -2  -8 -11    0.01    0.04
  -2  -8 -11    0.19    0.26
  -2  -8 -12    0.30    0.18
  -2  -8 -13    0.08    0.07
  -2  -8 -14    4.85    0.70
  -2  -8 -15    3.76    0.61
  -2  -8 -16    0.04    0.10
  -2  -8 -17    2.43    0.50
   2   9  -9    0.78    0.38
   2   9  -8    0.37    0.30
   2   9  -7    3.23    0.68
   2   9  -6   10.73    1.23
   2   9  -5    3.24    0.71
   2   9  -4   45.29    2.73
   2   9  -3    4.91    0.77
   2   9  -2   11.70    1.19
   2   9  -1    0.51    0.24
   2   9   0    0.40    0.20
   2   9   1   18.19    1.44
   2   9   2    0.83    0.27
   2   9   3   21.45    1.54
   2   9   4    0.70    0.25
   2   9   5   -0.02    0.05
  -2  -9  -6    3.23    0.40
   2   9   6    2.69    0.49
  -2  -9  -7    0.13    0.08
   2   9   7    0.13    0.10
  -2  -9  -8    0.10    0.16
  -2  -9  -8    0.01    0.04
  -2  -9  -9   10.74    0.77
  -2  -9  -9   13.26    1.18
  -2  -9 -10    1.82    0.42
  -2  -9 -10    1.14    0.23
  -2  -9 -11    2.40    0.52
  -2  -9 -11    1.46    0.26
  -2  -9 -12    0.15    0.03
  -2  -9 -13    0.13    0.07
  -2  -9 -14    3.85    0.63
  -2  -9 -15    0.00    0.08
  -2  -9 -16    2.88    0.54
  -2  -9 -17    3.57    0.61
   2  10  -8    8.55    1.18
   2  10  -7    0.62    0.29
   2  10  -6   -0.06    0.12
   2  10  -5    1.20    0.40
   2  10  -4    2.31    0.55
   2  10  -3    0.04    0.04
   2  10  -2   -0.07    0.15
   2  10  -1    0.32    0.19
   2  10   0    0.05    0.05
   2  10   1   -0.05    0.06
   2  10   2    1.51    0.41
   2  10   3    1.29    0.33
   2  10   4    1.67    0.41
   2  10   5   20.11    1.51
   2  10   6   -0.01    0.05
   2  10   7    1.18    0.33
  -2 -10  -8    8.83    1.00
  -2 -10  -9    6.58    0.84
  -2 -10 -10    3.54    0.45
  -2 -10 -10    4.14    0.65
  -2 -10 -11    0.62    0.27
  -2 -10 -12    2.09    0.49
  -2 -10 -13    3.83    0.61
  -2 -10 -14    2.14    0.46
  -2 -10 -15    8.69    0.99
  -2 -10 -16   19.61    1.53
   2  11  -7    0.74    0.38
   2  11  -6    0.74    0.33
   2  11  -5    0.88    0.32
   2  11  -4    0.03    0.06
   2  11  -3    0.50    0.28
   2  11  -2    4.63    0.78
   2  11  -1    2.00    0.50
   2  11   0    0.03    0.07
   2  11   1    0.04    0.10
   2  11   2    0.13    0.08
   2  11   3    5.71    0.79
   2  11   4    7.59    0.91
   2  11   5    5.54    0.76
   2  11   6    1.69    0.40
   2  11   7    0.36    0.18
  -2 -11  -8    0.46    0.11
  -2 -11  -9    2.29    0.49
  -2 -11 -10    8.44    0.98
  -2 -11 -11    4.18    0.70
  -2 -11 -12   11.58    1.24
  -2 -11 -13    0.11    0.14
  -2 -11 -14    0.05    0.07
  -2 -11 -15    0.85    0.30
  -2 -11 -16    5.17    0.76
   2  12  -6    0.06    0.21
   2  12  -5    0.22    0.17
   2  12  -4   -0.12    0.09
   2  12  -3    1.87    0.53
   2  12  -2    0.00    0.10
   2  12  -1    2.75    0.61
   2  12   0    0.09    0.02
   2  12   1    0.13    0.14
   2  12   2    0.00    0.08
   2  12   3    1.35    0.38
   2  12   4    1.63    0.43
   2  12   5    2.32    0.50
   2  12   6   -0.02    0.08
   2  12   7    3.39    0.59
  -2 -12  -8    2.31    0.55
  -2 -12  -9    1.81    0.46
  -2 -12 -10    3.58    0.65
  -2 -12 -11   15.01    1.41
  -2 -12 -12    8.47    1.08
  -2 -12 -13    3.25    0.65
  -2 -12 -14    0.62    0.27
  -2 -12 -15    0.31    0.16
  -2 -12 -16    0.64    0.26
   2  13  -5    4.98    0.91
   2  13  -4    0.26    0.18
   2  13  -3    0.21    0.21
   2  13  -2    0.33    0.21
   2  13  -1    0.34    0.15
   2  13   0    0.84    0.34
   2  13   1    0.51    0.26
   2  13   2    2.07    0.52
   2  13   3    0.28    0.20
   2  13   4   -0.01    0.13
   2  13   5    2.33    0.53
   2  13   6    0.49    0.20
   2  13   7   -0.01    0.12
  -2 -13  -8    4.05    0.74
  -2 -13  -9    1.12    0.38
  -2 -13 -10    1.10    0.38
  -2 -13 -11    9.76    1.15
  -2 -13 -12    0.94    0.36
  -2 -13 -13    3.85    0.71
  -2 -13 -14    2.09    0.50
  -2 -13 -15    0.24    0.18
  -2 -13 -16    2.09    0.48
   2  14  -4    0.14    0.20
   2  14  -3    0.77    0.30
   2  14  -2   -0.13    0.19
   2  14  -1    1.15    0.41
   2  14   0    1.00    0.39
   2  14   1    1.27    0.41
   2  14   2    0.31    0.08
   2  14   3    1.41    0.41
   2  14   4    0.17    0.19
   2  14   5    0.13    0.10
   2  14   6    5.53    0.82
   2  14   7    0.16    0.11
  -2 -14  -8    5.12    0.88
  -2 -14  -9    4.21    0.76
  -2 -14 -10    1.48    0.41
  -2 -14 -11    9.27    1.14
  -2 -14 -12    0.81    0.34
  -2 -14 -13    0.40    0.16
  -2 -14 -14    0.03    0.06
  -2 -14 -15    2.65    0.56
   2  15  -2    1.81    0.52
   2  15  -1    4.53    0.83
   2  15   0    0.26    0.24
   2  15   1   25.68    2.08
   2  15   2    0.13    0.07
   2  15   3    6.90    1.00
   2  15   4    0.43    0.21
   2  15   5    2.02    0.50
   2  15   6    0.97    0.30
   2  15   7   -0.18    0.16
  -2 -15  -8   13.99    1.54
  -2 -15  -9    0.88    0.35
  -2 -15 -10    3.89    0.71
  -2 -15 -11    1.33    0.43
  -2 -15 -12    0.16    0.13
  -2 -15 -13    3.29    0.68
   2  16   2    0.13    0.22
   2  16   3    0.68    0.31
   2  16   4    3.64    0.72
   2  16   5    0.02    0.07
   2  16   6    1.00    0.35
  -2 -16  -8   20.50    1.93
  -2 -16  -9    1.38    0.41
  -3  12   9    1.82    0.46
  -3  12   8    2.08    0.50
  -3  12   7    0.09    0.15
  -3  12   6    6.63    0.86
  -3  12   5    1.72    0.42
  -3  12   4    0.96    0.31
  -3  12   3    0.53    0.24
  -3  12   2   -0.07    0.11
  -3  12   1    0.57    0.20
  -3  12   0    3.47    0.54
  -3  12  -1   -0.07    0.02
  -3  12  -2    1.52    0.36
  -3  12  -3    0.10    0.14
  -3  12  -4    0.08    0.11
  -3  11  11    0.12    0.13
  -3  11  10    0.43    0.25
  -3  11   9    0.60    0.28
  -3  11   8    3.58    0.66
  -3  11   7    0.04    0.08
  -3  11   6   -0.06    0.06
  -3  11   5    1.49    0.40
  -3  11   4    0.35    0.21
  -3  11   3    2.10    0.43
  -3  11   2    2.72    0.50
  -3  11   1    0.09    0.09
  -3  11   0    2.89    0.49
  -3  11  -1    0.52    0.21
  -3  11  -2    7.27    0.78
  -3  11  -3    3.65    0.53
  -3  11  -4    4.71    0.62
  -3  11  -5    1.97    0.38
  -3  10  13    0.21    0.17
  -3  10  12    0.73    0.31
  -3  10  11    3.37    0.66
  -3  10  10    0.13    0.16
  -3  10   9   -0.01    0.10
  -3  10   8    2.40    0.53
  -3  10   7    0.03    0.08
  -3  10   6    0.21    0.16
  -3  10   5    1.89    0.45
  -3  10   4    0.57    0.25
  -3  10   3    1.51    0.37
  -3  10   2    0.86    0.28
  -3  10   1    1.04    0.30
  -3  10   0    0.20    0.11
  -3  10  -1    0.04    0.11
  -3  10  -2    0.17    0.10
  -3  10  -3    0.03    0.05
  -3  10  -4    2.85    0.44
  -3  10  -5    0.30    0.13
  -3  10  -6    2.36    0.40
  -3   9  14    0.37    0.26
  -3   9  13    0.07    0.20
  -3   9  12    0.54    0.29
  -3   9  11    0.38    0.21
  -3   9  10    0.19    0.14
  -3   9   9    0.17    0.13
  -3   9   8    0.69    0.26
  -3   9   7    9.81    1.08
  -3   9   6    4.35    0.70
  -3   9   5    3.19    0.58
  -3   9   4    0.86    0.31
  -3   9   3    0.14    0.10
  -3   9   2    0.32    0.16
  -3   9   1    7.58    0.82
  -3   9   0    3.67    0.54
  -3   9  -1    0.17    0.11
  -3   9  -2    0.90    0.27
  -3   9  -3    2.22    0.38
  -3   9  -4    1.12    0.26
  -3   9  -5    0.16    0.08
  -3   9  -6    0.46    0.17
  -3   9  -7    0.12    0.11
  -3   8  15    9.40    1.27
  -3   8  14   -0.15    0.19
  -3   8  13   11.35    1.34
  -3   8  12    0.04    0.12
  -3   8  11    0.79    0.32
  -3   8  10    0.20    0.14
  -3   8   9    0.53    0.31
  -3   8   8    0.45    0.24
  -3   8   7    0.14    0.18
  -3   8   6    2.82    0.56
  -3   8   5    0.47    0.21
  -3   8   4   -0.02    0.04
  -3   8   3    0.25    0.14
  -3   8   2    3.11    0.54
  -3   8   1   18.22    0.70
  -3   8   1   24.44    1.54
  -3   8   0    0.09    0.04
  -3   8   0    0.14    0.11
  -3   8  -1   19.51    0.96
  -3   8  -1   29.62    1.60
  -3   8  -2    3.87    0.38
  -3   8  -2    4.85    0.58
  -3   8  -3    0.15    0.08
  -3   8  -3    0.12    0.10
  -3   8  -4    0.65    0.20
  -3   8  -4    0.34    0.12
  -3   8  -5    3.90    0.47
  -3   8  -5    3.11    0.42
  -3   8  -6    0.34    0.14
  -3   8  -6    0.12    0.05
  -3   8  -7    0.10    0.06
  -3   8  -7   -0.06    0.11
  -3   8  -8    4.85    0.62
  -3   8  -9    0.09    0.08
  -3   7  15    4.95    0.90
  -3   7  14    2.99    0.67
  -3   7  13    5.12    0.86
  -3   7  12    1.25    0.40
   3  -7 -11    0.12    0.13
  -3   7  11   -0.01    0.13
  -3   7  10    0.60    0.26
   3  -7 -10    0.44    0.17
  -3   7   9    2.81    0.58
   3  -7  -9    2.14    0.38
  -3   7   8   11.79    1.23
   3  -7  -8   11.82    0.91
  -3   7   7    0.95    0.35
   3  -7  -7    0.71    0.19
  -3   7   6   15.85    1.36
  -3   7   6   12.69    0.56
  -3   7   6   14.76    0.67
   3  -7  -6   13.64    0.84
  -3   7   5    0.24    0.22
  -3   7   5    0.09    0.03
   3  -7  -5    0.21    0.08
  -3   7   5    0.06    0.02
  -3   7   4    2.17    0.50
  -3   7   3    6.41    0.33
  -3   7   3    8.56    0.33
  -3   7   2    0.95    0.11
  -3   7   2    1.24    0.34
  -3   7   1   14.03    0.67
  -3   7   1   14.43    1.19
  -3   7   0    4.04    0.32
  -3   7   0    4.01    0.58
  -3   7   0    3.90    0.40
  -3   7  -1    0.47    0.20
  -3   7  -1    0.40    0.11
  -3   7  -1    0.41    0.14
  -3   7  -2    0.06    0.06
  -3   7  -2    0.16    0.12
  -3   7  -2    0.10    0.10
  -3   7  -3    1.15    0.22
  -3   7  -3    1.05    0.25
  -3   7  -4    0.04    0.06
  -3   7  -4    0.00    0.04
  -3   7  -5    1.88    0.31
  -3   7  -5    1.80    0.30
  -3   7  -6   12.98    0.94
  -3   7  -6   11.54    0.84
  -3   7  -7    0.82    0.20
  -3   7  -7    1.05    0.26
  -3   7  -8    2.28    0.40
  -3   7  -9    0.80    0.25
  -3   7 -10    0.93    0.28
  -3   7 -11    6.62    0.83
  -3   6  16    1.46    0.49
  -3   6  15    0.20    0.05
   3  -6 -14    1.29    0.35
  -3   6  14    0.93    0.35
   3  -6 -13    0.43    0.19
  -3   6  13    0.54    0.26
   3  -6 -12    1.90    0.42
  -3   6  12    2.95    0.65
  -3   6  11    9.73    1.17
   3  -6 -11    7.05    0.80
   3  -6 -10    0.02    0.08
  -3   6  10   -0.03    0.17
  -3   6   9    1.27    0.40
   3  -6  -9    1.36    0.33
  -3   6   8    0.87    0.35
   3  -6  -8    0.76    0.23
  -3   6   7    5.49    0.41
   3  -6  -7    5.48    0.61
  -3   6   6    0.74    0.29
  -3   6   6    0.52    0.11
   3  -6  -6    0.54    0.17
  -3   6   5    0.02    0.07
  -3   6   5    0.11    0.05
   3  -6  -5   -0.02    0.06
  -3   6   4    7.06    0.44
  -3   6   4    6.57    0.81
  -3   6   4    5.87    0.46
   3  -6  -4    6.74    0.56
  -3   6   3    0.09    0.06
  -3   6   3    0.11    0.14
   3  -6  -3   -0.03    0.04
  -3   6   2    2.26    0.44
  -3   6   2    2.44    0.25
  -3   6   2    2.33    0.30
  -3   6   1   54.45    2.27
  -3   6   1   69.27    2.53
  -3   6   0   25.99    1.59
  -3   6   0   26.03    1.29
  -3   6  -1   86.11    3.70
  -3   6  -1   86.89    3.17
  -3   6  -1   91.91    3.48
  -3   6  -2   14.93    0.83
  -3   6  -2   13.66    1.05
  -3   6  -2   12.34    0.96
  -3   6  -3    0.07    0.09
  -3   6  -3    0.06    0.04
  -3   6  -3    0.12    0.11
  -3   6  -4    2.24    0.31
  -3   6  -4    2.31    0.36
  -3   6  -4    1.31    0.31
  -3   6  -5    0.77    0.20
  -3   6  -5    1.15    0.30
  -3   6  -5    1.24    0.25
  -3   6  -6    2.71    0.40
  -3   6  -6    2.98    0.37
  -3   6  -7    0.52    0.14
  -3   6  -7    0.67    0.21
  -3   6  -8    0.19    0.10
  -3   6  -8    0.02    0.09
  -3   6  -9    0.17    0.16
  -3   6 -10    3.55    0.55
  -3   6 -11    0.14    0.12
  -3   6 -12    0.31    0.21
   3  -5 -16    2.95    0.62
  -3   5  16    4.10    0.83
   3  -5 -15    0.09    0.16
  -3   5  15   -0.55    0.30
   3  -5 -14    0.09    0.06
  -3   5  14   -0.27    0.25
   3  -5 -13    1.28    0.37
  -3   5  13    1.36    0.43
   3  -5 -12   -0.01    0.07
   3  -5 -11    9.51    0.96
   3  -5 -10    4.48    0.63
  -3   5   9   12.98    0.87
   3  -5  -9   15.90    1.19
  -3   5   8    1.21    0.22
   3  -5  -8    1.76    0.37
  -3   5   7    1.35    0.39
  -3   5   7    0.91    0.18
   3  -5  -7    1.25    0.29
  -3   5   6    2.65    0.54
  -3   5   6    3.37    0.36
   3  -5  -6    3.90    0.50
  -3   5   5   -0.03    0.09
  -3   5   5    0.06    0.06
   3  -5  -5   -0.01    0.06
  -3   5   4    0.26    0.19
  -3   5   4    0.32    0.11
   3  -5  -4    0.30    0.13
   3  -5  -3    6.60    0.59
  -3   5   3    6.63    0.56
  -3   5   3    5.00    0.50
  -3   5   2    1.67    0.29
  -3   5   2    1.82    0.39
  -3   5   2    2.06    0.28
   3  -5  -2    2.29    0.32
  -3   5   1    5.91    0.70
  -3   5   1    4.92    0.51
  -3   5   0    1.72    0.30
  -3   5   0    1.53    0.34
  -3   5   0    1.65    0.25
  -3   5  -1    7.88    0.61
  -3   5  -1    7.75    0.72
  -3   5  -2    0.57    0.21
  -3   5  -2    0.43    0.14
  -3   5  -2    0.48    0.21
  -3   5  -3    0.03    0.04
  -3   5  -3    0.17    0.09
  -3   5  -3    0.24    0.14
  -3   5  -4    1.45    0.29
  -3   5  -4    1.60    0.27
  -3   5  -4    1.11    0.28
  -3   5  -5    0.88    0.21
  -3   5  -5    0.96    0.22
  -3   5  -5    0.84    0.25
  -3   5  -6    1.57    0.26
  -3   5  -6    1.41    0.27
  -3   5  -7    1.45    0.23
  -3   5  -7    2.10    0.37
  -3   5  -8    0.58    0.15
  -3   5  -8    0.56    0.21
  -3   5  -9    5.08    0.62
  -3   5 -10    1.58    0.36
  -3   5 -11    0.03    0.06
  -3   5 -12    0.92    0.30
   3  -4 -16    0.63    0.30
  -3   4  16    0.21    0.22
   3  -4 -15    1.35    0.40
   3  -4 -14    3.68    0.66
   3  -4 -13   -0.08    0.10
   3  -4 -12    0.69    0.27
   3  -4 -11    4.24    0.64
   3  -4 -10    6.65    0.79
   3  -4  -9    2.12    0.43
  -3   4   9    2.03    0.33
   3  -4  -8    0.27    0.15
  -3   4   8    0.23    0.09
  -3   4   7    0.94    0.20
   3  -4  -7    0.67    0.23
  -3   4   6    0.67    0.17
   3  -4  -6    0.61    0.22
  -3   4   5    2.08    0.30
   3  -4  -5    2.31    0.40
   3  -4  -4    2.89    0.43
  -3   4   4    3.27    0.42
   3  -4  -3    2.93    0.41
  -3   4   3    2.89    0.40
   3  -4  -2    9.84    0.77
  -3   4   2    8.50    0.72
  -3   4   1    4.72    0.49
   3  -4  -1    5.36    0.54
  -3   4   1    5.80    0.58
  -3   4   0    6.99    0.74
  -3   4   0    5.70    0.55
  -3   4   0    5.10    0.57
  -3   4  -1   10.84    0.93
  -3   4  -1   10.74    0.82
  -3   4  -1    9.82    0.84
  -3   4  -2   -0.09    0.08
  -3   4  -2    0.09    0.10
  -3   4  -2    0.06    0.04
  -3   4  -3    1.18    0.27
  -3   4  -3    1.06    0.27
  -3   4  -3    0.81    0.20
  -3   4  -4    0.71    0.20
  -3   4  -4    0.42    0.17
  -3   4  -4    0.46    0.15
  -3   4  -5    3.40    0.42
  -3   4  -5    2.36    0.36
  -3   4  -5    2.08    0.41
  -3   4  -6    3.46    0.45
  -3   4  -6    3.03    0.37
  -3   4  -7    2.54    0.39
  -3   4  -7    1.64    0.25
  -3   4  -8    2.80    0.42
  -3   4  -8    2.06    0.27
  -3   4  -9    1.51    0.33
  -3   4 -10    0.00    0.08
  -3   4 -11    0.20    0.16
  -3   4 -12    0.23    0.11
  -3   4 -13    0.47    0.22
   3  -3 -15    0.03    0.09
   3  -3 -14    0.35    0.16
   3  -3 -13    0.09    0.08
   3  -3 -12    0.27    0.16
   3  -3 -11    4.75    0.71
   3  -3 -10    2.02    0.45
   3  -3  -9    4.55    0.65
   3  -3  -8    0.82    0.28
  -3   3   8    0.48    0.15
  -3   3   7   19.91    1.19
   3  -3  -7   20.73    1.43
  -3   3   6    0.12    0.08
   3  -3  -6    0.08    0.07
  -3   3   5    2.38    0.34
   3  -3  -5    2.05    0.39
  -3   3   4    0.72    0.21
   3  -3  -4    0.94    0.24
   3  -3  -3   26.38    1.50
  -3   3   3   23.50    1.42
  -3   3   2    0.07    0.05
   3  -3  -2   -0.02    0.07
   3  -3  -1    3.32    0.45
  -3   3   1    3.07    0.43
  -3   3   0   12.06    0.89
   3  -3   0   12.35    0.91
  -3   3   0   13.44    1.00
  -3   3  -1    2.29    0.40
  -3   3  -1    2.58    0.38
  -3   3  -1    1.60    0.33
  -3   3  -2    8.35    0.76
  -3   3  -2    7.67    0.71
  -3   3  -2    5.87    0.69
  -3   3  -3    1.40    0.29
  -3   3  -3    1.14    0.30
  -3   3  -3    1.15    0.28
  -3   3  -4    4.76    0.53
  -3   3  -4    3.41    0.45
  -3   3  -4    3.98    0.56
  -3   3  -5    0.59    0.18
  -3   3  -5    0.34    0.19
  -3   3  -5    0.72    0.20
  -3   3  -6    0.42    0.13
  -3   3  -6    0.44    0.18
  -3   3  -7   10.26    0.83
  -3   3  -7    8.25    0.60
  -3   3  -8    0.55    0.13
  -3   3  -8    0.59    0.20
  -3   3  -9    0.59    0.13
  -3   3  -9    0.71    0.23
  -3   3 -10    3.46    0.51
  -3   3 -11    0.68    0.23
  -3   3 -12    0.21    0.14
  -3   3 -13    0.10    0.11
   3  -2 -15    0.42    0.25
   3  -2 -14    0.44    0.22
   3  -2 -13    0.48    0.22
   3  -2 -12    0.16    0.07
   3  -2 -11    6.69    0.87
   3  -2 -10   26.09    1.80
   3  -2  -9   23.67    1.65
   3  -2  -8   30.09    1.88
   3  -2  -7    2.32    0.46
  -3   2   7    2.57    0.40
  -3   2   6    1.41    0.28
   3  -2  -6    1.50    0.37
  -3   2   5    0.55    0.15
   3  -2  -5    0.70    0.24
  -3   2   4    0.59    0.20
   3  -2  -4    0.39    0.18
  -3   2   3    0.51    0.18
   3  -2  -3    0.66    0.20
  -3   2   2    2.22    0.39
   3  -2  -2    1.97    0.37
   3  -2  -1    7.37    0.71
  -3   2   1    4.87    0.60
   3  -2   0    8.19    0.76
  -3   2   0    7.82    0.77
  -3   2  -1    0.83    0.22
   3  -2   1    1.00    0.25
  -3   2  -1    0.68    0.19
  -3   2  -2    2.83    0.43
  -3   2  -2    3.84    0.55
  -3   2  -3    2.80    0.43
  -3   2  -3    2.86    0.45
  -3   2  -3    2.25    0.43
  -3   2  -4    1.78    0.32
  -3   2  -4    2.37    0.40
  -3   2  -4    1.50    0.36
  -3   2  -5    1.28    0.25
  -3   2  -5    1.29    0.33
  -3   2  -5    1.62    0.33
  -3   2  -6    0.65    0.17
  -3   2  -6    0.78    0.22
  -3   2  -7    0.41    0.12
  -3   2  -7    0.50    0.16
  -3   2  -8   -0.04    0.07
  -3   2  -8    0.01    0.04
  -3   2  -9    2.61    0.44
  -3   2  -9    2.48    0.24
  -3   2 -10    3.37    0.51
  -3   2 -11    2.05    0.40
  -3   2 -12    0.05    0.08
  -3   2 -13    1.88    0.42
   3  -1 -14    1.35    0.46
   3  -1 -13    2.48    0.57
   3  -1 -12    4.45    0.75
   3  -1 -11    2.70    0.56
   3  -1 -10    0.83    0.27
   3  -1  -9    3.74    0.63
   3  -1  -8   29.14    1.88
   3  -1  -7    6.87    0.81
  -3   1   6   10.71    0.88
   3  -1  -6   14.18    1.16
  -3   1   5    0.18    0.12
   3  -1  -5   -0.02    0.12
  -3   1   4    0.34    0.14
   3  -1  -4    0.67    0.22
   3  -1  -3   50.87    2.52
  -3   1   3   52.49    2.50
   3  -1  -2    7.69    0.77
  -3   1   2    7.53    0.76
   3  -1  -1   45.04    2.20
  -3   1   1   42.57    2.20
  -3   1   0   -0.01    0.07
   3  -1   0    0.05    0.06
   3  -1   1   -0.01    0.06
  -3   1  -1   -0.04    0.09
  -3   1  -2    2.14    0.38
   3  -1   2    3.10    0.46
  -3   1  -2    2.07    0.42
  -3   1  -3    6.12    0.66
  -3   1  -3    6.94    0.79
  -3   1  -4    0.29    0.18
  -3   1  -4    0.38    0.17
  -3   1  -5    3.75    0.45
  -3   1  -5    4.86    0.63
  -3   1  -5    4.32    0.62
  -3   1  -6    7.74    0.64
  -3   1  -6   12.11    0.97
  -3   1  -7    0.01    0.05
  -3   1  -7   -0.03    0.05
  -3   1  -8    1.79    0.23
  -3   1  -8    1.88    0.37
  -3   1  -9    0.04    0.04
  -3   1  -9    0.06    0.09
  -3   1 -10    1.64    0.36
  -3   1 -11    8.97    0.88
  -3   1 -12    0.84    0.32
  -3   1 -13    3.46    0.56
  -3   1 -14    2.24    0.47
   3   0 -14   -0.13    0.09
   3   0 -13    0.79    0.30
   3   0 -12    3.52    0.69
   3   0 -11    3.77    0.69
   3   0 -10    0.06    0.09
   3   0  -9    0.62    0.26
   3   0  -8    3.86    0.64
   3   0  -7    2.06    0.44
   3   0  -6    0.59    0.22
   3   0  -5    0.95    0.30
  -3   0   4    0.73    0.23
   3   0  -4    0.75    0.25
   3   0  -3   13.07    1.10
  -3   0   3   12.94    1.08
  -3   0   2    2.63    0.45
   3   0  -2    2.69    0.47
  -3   0   1    0.93    0.27
   3   0  -1    0.53    0.19
  -3   0   0    0.22    0.14
   3   0   0    0.06    0.02
   3   0   1    0.02    0.03
  -3   0  -1   -0.05    0.09
   3   0   2    3.46    0.50
  -3   0  -2    3.69    0.57
  -3   0  -3    6.87    0.74
   3   0   3    9.59    0.85
  -3   0  -3    7.63    0.85
  -3   0  -4   33.10    1.85
  -3   0  -4   34.56    2.04
  -3   0  -5    0.03    0.10
  -3   0  -6   30.02    1.51
  -3   0  -6   33.64    1.92
  -3   0  -7    0.84    0.18
  -3   0  -7    1.21    0.29
  -3   0  -8    7.54    0.53
  -3   0  -8    7.77    0.79
  -3   0  -9    0.49    0.10
  -3   0  -9    0.64    0.23
  -3   0 -10    5.41    0.66
  -3   0 -11    4.84    0.64
  -3   0 -12    4.46    0.63
  -3   0 -13   21.28    1.50
  -3   0 -14    7.65    0.87
   3   1 -13    2.26    0.57
   3   1 -12    0.57    0.30
   3   1 -11    1.76    0.47
   3   1 -10    0.21    0.16
   3   1  -9    7.12    0.92
   3   1  -8    0.32    0.21
   3   1  -7   -0.13    0.11
   3   1  -6    2.90    0.54
   3   1  -5    3.32    0.57
   3   1  -4    5.54    0.73
  -3  -1   3    1.08    0.31
   3   1  -3    1.17    0.32
  -3  -1   2    0.19    0.12
   3   1  -2    0.25    0.15
  -3  -1   1    0.01    0.02
   3   1  -1    0.16    0.12
  -3  -1   0   -0.05    0.13
   3   1   0    0.16    0.14
   3   1   1    2.91    0.48
  -3  -1  -1    2.50    0.47
   3   1   2   12.84    1.07
  -3  -1  -2   13.85    1.18
   3   1   3    2.46    0.44
  -3  -1  -3    2.24    0.46
  -3  -1  -4   10.63    0.95
   3   1   4   10.40    0.94
  -3  -1  -4   11.34    1.09
  -3  -1  -5    0.62    0.26
  -3  -1  -6    3.84    0.56
  -3  -1  -7    0.63    0.24
  -3  -1  -8    7.12    0.52
  -3  -1  -8    6.83    0.78
  -3  -1  -9    3.13    0.28
  -3  -1  -9    3.37    0.52
  -3  -1 -10    0.92    0.27
  -3  -1 -11   11.03    1.01
  -3  -1 -12    1.69    0.39
  -3  -1 -13   17.04    1.33
  -3  -1 -14    1.21    0.33
   3   2 -12    0.16    0.12
   3   2 -11   -0.04    0.11
   3   2 -10    1.64    0.46
   3   2  -9    0.38    0.29
   3   2  -8    2.41    0.52
   3   2  -7    3.31    0.60
   3   2  -6    4.53    0.70
   3   2  -5    0.08    0.11
   3   2  -4    1.08    0.36
   3   2  -3    0.46    0.20
   3   2  -2    4.40    0.64
  -3  -2   1    0.14    0.10
   3   2  -1   -0.06    0.07
  -3  -2   0    1.70    0.38
   3   2   0    1.78    0.38
   3   2   1    5.45    0.69
  -3  -2  -1    7.37    0.83
   3   2   2   14.40    1.18
  -3  -2  -2   16.61    1.33
   3   2   3    8.17    0.86
  -3  -2  -3    7.53    0.89
  -3  -2  -4    7.79    0.82
   3   2   4    6.51    0.75
  -3  -2  -5    0.29    0.14
  -3  -2  -6   -0.06    0.00
  -3  -2  -7    1.49    0.36
  -3  -2  -8    5.12    0.70
  -3  -2  -9    2.16    0.23
  -3  -2  -9    2.13    0.24
  -3  -2  -9    2.29    0.44
  -3  -2 -10    0.25    0.05
  -3  -2 -10    0.29    0.16
  -3  -2 -11   14.88    1.24
  -3  -2 -12    0.51    0.24
  -3  -2 -13    0.73    0.29
  -3  -2 -14    0.30    0.19
   3   3 -12    0.35    0.22
   3   3 -11    2.91    0.67
   3   3 -10    4.02    0.76
   3   3  -9    6.76    0.96
   3   3  -8    1.22    0.39
   3   3  -7    1.12    0.36
   3   3  -6    4.41    0.71
   3   3  -5    0.15    0.16
   3   3  -4    0.80    0.27
   3   3  -3    5.47    0.76
   3   3  -2    0.26    0.12
   3   3  -1    0.14    0.16
   3   3   0    7.49    0.85
   3   3   1    3.93    0.58
   3   3   2    6.18    0.75
   3   3   3    0.38    0.19
   3   3   4    1.78    0.38
  -3  -3  -5   14.15    1.20
   3   3   5   14.24    1.17
  -3  -3  -6    8.65    0.90
  -3  -3  -7    2.89    0.50
  -3  -3  -8    0.09    0.14
  -3  -3  -8    0.15    0.07
  -3  -3  -9   15.53    1.31
  -3  -3  -9   13.45    0.71
  -3  -3 -10    7.54    0.43
  -3  -3 -10    9.55    0.96
  -3  -3 -11   13.49    1.17
  -3  -3 -12    3.42    0.59
  -3  -3 -13   -0.06    0.07
  -3  -3 -14    0.64    0.23
  -3  -3 -15    0.33    0.18
   3   4 -11    2.95    0.67
   3   4 -10    0.29    0.21
   3   4  -9    8.55    1.12
   3   4  -8    1.52    0.44
   3   4  -7    0.93    0.36
   3   4  -6    8.87    1.06
   3   4  -5    0.15    0.16
   3   4  -4    0.70    0.27
   3   4  -3    1.13    0.34
   3   4  -2    0.58    0.24
   3   4  -1    0.38    0.18
   3   4   0   33.94    2.05
   3   4   1    5.65    0.74
   3   4   2    0.69    0.26
   3   4   3    3.80    0.59
   3   4   4   18.07    1.38
   3   4   5   12.78    1.13
  -3  -4  -6    0.58    0.25
  -3  -4  -6    0.59    0.15
  -3  -4  -7    4.50    0.44
  -3  -4  -7    4.38    0.65
  -3  -4  -8    0.10    0.09
  -3  -4  -8    0.24    0.08
  -3  -4  -9    1.40    0.40
  -3  -4  -9    1.23    0.18
  -3  -4 -10   11.19    1.13
  -3  -4 -11   -0.05    0.13
  -3  -4 -12   22.88    1.64
  -3  -4 -13    2.37    0.49
  -3  -4 -14    3.11    0.56
  -3  -4 -15    0.80    0.29
   3   5 -10    1.74    0.53
   3   5  -9    1.46    0.46
   3   5  -8    2.12    0.53
   3   5  -7    3.10    0.65
   3   5  -6    1.83    0.50
   3   5  -5    7.99    1.03
   3   5  -4    3.85    0.69
   3   5  -3   15.38    1.39
   3   5  -2    6.64    0.87
   3   5  -1   26.99    1.88
   3   5   0    0.68    0.25
   3   5   1   26.12    1.77
   3   5   2    4.74    0.68
  -3  -5  -3   14.03    0.99
   3   5   3   16.09    1.32
  -3  -5  -4   35.01    1.76
   3   5   4   39.49    2.23
  -3  -5  -5   15.53    0.99
   3   5   5   15.27    1.27
  -3  -5  -6   17.41    1.02
  -3  -5  -6   16.97    1.40
   3   5   6   15.07    1.28
  -3  -5  -7    5.63    0.76
  -3  -5  -7    5.69    0.51
  -3  -5  -8    0.41    0.21
  -3  -5  -8    0.51    0.13
  -3  -5  -9    0.56    0.21
  -3  -5  -9    0.49    0.12
  -3  -5 -10    0.13    0.12
  -3  -5 -11    7.07    0.90
  -3  -5 -12    0.53    0.23
  -3  -5 -13    1.35    0.37
  -3  -5 -14    0.48    0.22
  -3  -5 -15    0.25    0.13
   3   6  -9    1.50    0.51
   3   6  -8    0.45    0.29
   3   6  -7    0.20    0.14
   3   6  -6    0.59    0.30
   3   6  -5    0.49    0.26
   3   6  -4    0.07    0.14
   3   6  -3    3.10    0.63
   3   6  -2    3.05    0.61
   3   6  -1   -0.01    0.10
   3   6   0   70.07    3.48
   3   6   1   10.59    1.09
   3   6   2   31.71    2.02
   3   6   3    3.76    0.64
   3   6   4   21.32    1.59
   3   6   5    7.47    0.88
  -3  -6  -5    8.96    0.73
   3   6   6   29.96    1.91
  -3  -6  -6   28.47    1.47
  -3  -6  -7    0.18    0.08
  -3  -6  -7    0.03    0.06
  -3  -6  -8    0.46    0.21
  -3  -6  -8    0.47    0.13
  -3  -6  -9    0.53    0.26
  -3  -6  -9    0.34    0.11
  -3  -6 -10    1.17    0.37
  -3  -6 -11    2.56    0.56
  -3  -6 -12    1.78    0.43
  -3  -6 -13    0.61    0.24
  -3  -6 -14    3.59    0.63
  -3  -6 -15   -0.05    0.14
   3   7  -8    0.91    0.38
   3   7  -7    2.19    0.57
   3   7  -6    0.05    0.17
   3   7  -5    0.44    0.21
   3   7  -4    1.59    0.46
   3   7  -3    0.23    0.14
   3   7  -2    0.36    0.24
   3   7  -1    0.03    0.08
   3   7   0   13.15    1.31
   3   7   1    2.25    0.50
   3   7   2   13.76    1.28
   3   7   3    3.45    0.61
   3   7   4    0.32    0.19
   3   7   5    0.11    0.05
   3   7   6    2.54    0.53
  -3  -7  -6    2.16    0.34
  -3  -7  -7   11.59    1.21
   3   7   7   10.25    1.07
  -3  -7  -7   10.76    0.77
  -3  -7  -8   -0.05    0.02
  -3  -7  -8   -0.07    0.06
  -3  -7  -9    3.66    0.64
  -3  -7  -9    2.68    0.33
  -3  -7 -10    0.09    0.14
  -3  -7 -11    0.54    0.27
  -3  -7 -12    1.33    0.42
  -3  -7 -13    4.14    0.70
  -3  -7 -14    0.47    0.25
   3   8  -7    0.13    0.15
   3   8  -6    0.92    0.37
   3   8  -5    2.64    0.62
   3   8  -4   -0.08    0.02
   3   8  -3   -0.04    0.20
   3   8  -2    0.17    0.07
   3   8  -1    0.50    0.23
   3   8   0    0.34    0.15
   3   8   1    0.06    0.04
   3   8   2    1.20    0.36
   3   8   3    1.73    0.46
   3   8   4    0.06    0.06
   3   8   5   -0.05    0.07
   3   8   6    4.04    0.67
  -3  -8  -7    3.24    0.64
   3   8   7    1.96    0.46
  -3  -8  -8    1.63    0.48
  -3  -8  -8    0.56    0.16
  -3  -8  -9    6.12    0.85
  -3  -8  -9    4.85    0.48
  -3  -8 -10    0.66    0.27
  -3  -8 -11    1.32    0.39
  -3  -8 -12   -0.09    0.10
  -3  -8 -13    0.26    0.21
  -3  -8 -14    0.01    0.11
   3   9  -6    0.31    0.24
   3   9  -5   -0.03    0.19
   3   9  -4    9.35    1.23
   3   9  -3   11.11    1.34
   3   9  -2    6.79    1.02
   3   9  -1    5.03    0.85
   3   9   0    0.21    0.19
   3   9   1    2.38    0.55
   3   9   2    5.26    0.80
   3   9   3   13.60    1.35
   3   9   4    4.27    0.74
   3   9   5    0.71    0.31
   3   9   6    1.34    0.38
   3   9   7    3.49    0.63
  -3  -9  -8    2.99    0.64
  -3  -9  -9    0.61    0.27
  -3  -9 -10    0.37    0.20
  -3  -9 -11    0.20    0.13
  -3  -9 -12    0.18    0.11
  -3  -9 -13    0.21    0.17
  -3  -9 -14    4.42    0.74
   3  10  -5    0.08    0.16
   3  10  -4    7.65    1.14
   3  10  -3    2.69    0.66
   3  10  -2    7.14    1.05
   3  10  -1   -0.03    0.13
   3  10   0    0.48    0.24
   3  10   1    1.22    0.38
   3  10   2    0.15    0.12
   3  10   3    5.02    0.82
   3  10   4    0.19    0.16
   3  10   5    1.71    0.46
   3  10   6    0.63    0.30
   3  10   7    0.00    0.02
  -3 -10  -8    0.16    0.16
  -3 -10  -9    0.07    0.15
  -3 -10 -10    0.05    0.18
  -3 -10 -11    1.08    0.38
  -3 -10 -12    3.12    0.68
  -3 -10 -13    0.13    0.16
  -3 -10 -14    0.36    0.22
   3  11  -4   14.61    1.64
   3  11  -3    0.23    0.22
   3  11  -2   22.73    2.03
   3  11  -1    1.00    0.41
   3  11   0    3.19    0.69
   3  11   1    0.17    0.15
   3  11   2    0.59    0.28
   3  11   3    4.12    0.78
   3  11   4    0.42    0.18
   3  11   5    1.07    0.35
   3  11   6    0.25    0.18
   3  11   7    0.42    0.23
  -3 -11  -8    0.05    0.16
   3  11   8    0.39    0.18
  -3 -11  -9    4.95    0.84
  -3 -11 -10    7.13    1.05
  -3 -11 -11    3.02    0.65
  -3 -11 -12    4.98    0.87
  -3 -11 -13   -0.03    0.10
   3  12  -2    1.97    0.59
   3  12  -1    0.10    0.15
   3  12   0    0.28    0.26
   3  12   1    0.68    0.35
   3  12   2    1.84    0.53
   3  12   3    0.23    0.17
   3  12   4    6.93    1.01
   3  12   5   -0.08    0.23
   3  12   6    3.72    0.72
   3  12   7    0.04    0.06
  -3 -12  -8    2.60    0.68
   3  12   8    1.40    0.42
  -3 -12  -9    0.22    0.17
  -3 -12 -10    1.67    0.51
  -3 -12 -11    2.55    0.62
  -3 -12 -12    2.92    0.68
   3  13  -1    1.19    0.44
   3  13   0    0.55    0.32
   3  13   1   -0.12    0.16
   3  13   2    0.12    0.20
   3  13   3    1.54    0.51
   3  13   4    0.56    0.28
   3  13   5    4.68    0.85
   3  13   6   -0.08    0.08
   3  13   7    0.28    0.20
  -3 -13  -8    0.85    0.39
   3  13   8    0.93    0.36
  -3 -13  -9    0.45    0.21
  -3 -13 -10    2.22    0.61
  -3 -13 -11    1.81    0.54
   3  14   2    0.23    0.22
   3  14   3    0.29    0.23
   3  14   4    0.00    0.04
   3  14   5    0.52    0.27
   3  14   6    0.70    0.30
   3  14   7    2.81    0.64
  -3 -14  -8    0.01    0.17
   3  14   8    0.07    0.17
  -3 -14  -9    0.14    0.09
  -3 -14 -10    4.62    0.91
   3  15   6    0.06    0.17
   3  15   7    0.09    0.16
  -4  10   3   -0.06    0.07
  -4  10   2   -0.14    0.12
  -4  10   1    0.36    0.22
  -4  10   0    0.10    0.14
  -4  10  -1    0.48    0.21
  -4  10  -2    5.97    0.73
  -4  10  -3    0.02    0.10
  -4   9   6   -0.05    0.16
  -4   9   5    0.05    0.12
  -4   9   4    0.78    0.31
  -4   9   3    0.24    0.23
  -4   9   2    1.08    0.36
  -4   9   1    0.87    0.30
  -4   9   0    0.02    0.09
  -4   9  -1    0.16    0.10
  -4   9  -2    0.67    0.25
  -4   9  -3    4.39    0.60
  -4   9  -4    0.05    0.07
  -4   8   8    0.10    0.15
  -4   8   7    0.46    0.28
  -4   8   6    0.61    0.29
  -4   8   5    1.54    0.45
  -4   8   4    0.12    0.07
  -4   8   3    0.07    0.06
  -4   8   2    1.47    0.40
  -4   8   1    0.07    0.06
  -4   8   0    0.00    0.14
  -4   8  -1    0.88    0.27
  -4   8  -2    0.44    0.22
  -4   8  -3    0.14    0.12
  -4   8  -4   -0.01    0.08
  -4   8  -5    1.78    0.34
  -4   7   9    0.29    0.25
  -4   7   8    0.14    0.18
  -4   7   7    6.86    1.04
  -4   7   6    2.61    0.61
  -4   7   5    4.27    0.78
  -4   7   4   -0.08    0.12
  -4   7   3    0.56    0.29
  -4   7   2    0.85    0.28
  -4   7   1    0.07    0.13
  -4   7   0    3.88    0.65
  -4   7  -1    0.13    0.11
  -4   7  -2    2.64    0.50
  -4   7  -3    1.73    0.38
  -4   7  -4    1.34    0.31
  -4   7  -5    0.37    0.16
  -4   6  10    0.03    0.16
  -4   6   9    0.52    0.28
  -4   6   8    0.47    0.32
  -4   6   7    1.25    0.43
  -4   6   6    0.97    0.38
  -4   6   5    3.85    0.72
  -4   6   4    1.70    0.47
  -4   6   3   -0.03    0.19
  -4   6   2    0.01    0.13
  -4   6   1    7.96    0.98
  -4   6   0    6.75    0.87
  -4   6  -1   12.84    1.19
  -4   6  -2    4.24    0.64
  -4   6  -2    3.89    0.45
  -4   6  -3    2.72    0.38
  -4   6  -3    1.73    0.38
  -4   6  -4    0.68    0.23
  -4   6  -4    0.45    0.17
  -4   6  -5    1.35    0.28
  -4   6  -5    1.48    0.31
  -4   6  -6    0.82    0.22
  -4   5  10    0.16    0.28
  -4   5   9    3.01    0.72
  -4   5   8   -0.02    0.04
   4  -5  -8    0.02    0.05
  -4   5   7    2.45    0.61
   4  -5  -7    2.31    0.49
  -4   5   6    9.23    1.21
   4  -5  -6    9.85    0.95
  -4   5   5    0.54    0.29
   4  -5  -5    0.35    0.19
  -4   5   4   12.04    1.31
   4  -5  -4    8.96    0.88
  -4   5   3    0.02    0.04
  -4   5   3    0.14    0.10
   4  -5  -3   -0.05    0.07
  -4   5   2    3.87    0.67
  -4   5   2    3.80    0.49
   4  -5  -2    3.26    0.47
  -4   5   1    1.60    0.32
  -4   5   1    1.72    0.45
  -4   5   0   13.52    1.31
  -4   5   0   19.50    1.23
  -4   5  -1   12.43    1.19
  -4   5  -1   13.02    0.96
  -4   5  -2   14.08    1.23
  -4   5  -2   12.41    0.94
  -4   5  -3    4.67    0.65
  -4   5  -3    3.77    0.50
  -4   5  -4    0.01    0.08
  -4   5  -4    0.07    0.04
  -4   5  -5    0.13    0.03
  -4   5  -5    0.04    0.03
  -4   5  -6    1.74    0.34
  -4   5  -6    1.53    0.30
  -4   5  -7   -0.09    0.07
  -4   5  -8    2.92    0.48
  -4   5  -9   -0.14    0.12
  -4   5 -10    0.24    0.15
   4  -4 -11    1.30    0.40
   4  -4 -10    3.81    0.70
   4  -4  -9    0.17    0.17
   4  -4  -8    0.82    0.30
   4  -4  -7    1.65    0.42
   4  -4  -6    1.63    0.41
   4  -4  -5    2.23    0.46
   4  -4  -4    3.78    0.60
  -4   4   3    8.69    1.09
   4  -4  -3    9.08    0.90
  -4   4   2    4.41    0.74
  -4   4   2    4.77    0.60
   4  -4  -2    4.10    0.57
  -4   4   1   -0.08    0.11
   4  -4  -1   -0.03    0.09
  -4   4   0    6.73    0.87
  -4   4   0    7.99    0.78
  -4   4  -1   54.23    2.76
  -4   4  -1   44.25    2.38
  -4   4  -2    0.41    0.21
  -4   4  -2    0.16    0.09
  -4   4  -3   19.25    1.43
  -4   4  -3   20.03    1.31
  -4   4  -4    1.84    0.36
  -4   4  -4    2.14    0.39
  -4   4  -5    0.11    0.08
  -4   4  -5    0.12    0.03
  -4   4  -6    0.07    0.06
  -4   4  -6    0.05    0.07
  -4   4  -7    0.97    0.27
  -4   4  -8    0.50    0.21
  -4   4  -9    1.11    0.28
  -4   4 -10    0.20    0.10
  -4   4 -11    1.56    0.38
   4  -3 -13    0.07    0.08
   4  -3 -12    0.01    0.13
   4  -3 -11    3.13    0.64
   4  -3 -10    6.86    0.95
   4  -3  -9    6.27    0.89
   4  -3  -8    0.07    0.07
   4  -3  -7    1.15    0.35
   4  -3  -6    0.13    0.18
   4  -3  -5    0.84    0.29
   4  -3  -4   -0.04    0.13
   4  -3  -3    1.44    0.37
   4  -3  -2    3.73    0.58
  -4   3   1    5.94    0.71
   4  -3  -1    6.15    0.73
  -4   3   0    9.79    1.08
  -4   3   0    8.91    0.88
   4  -3   0   12.11    1.03
  -4   3  -1    7.23    0.89
  -4   3  -1    9.46    0.90
  -4   3  -2    3.97    0.61
  -4   3  -2    4.41    0.62
  -4   3  -3    0.13    0.07
  -4   3  -3    0.18    0.16
  -4   3  -4    3.65    0.55
  -4   3  -4    3.82    0.55
  -4   3  -5    0.20    0.15
  -4   3  -5    0.07    0.11
  -4   3  -6    0.26    0.14
  -4   3  -6    0.00    0.08
  -4   3  -7    0.05    0.09
  -4   3  -7    0.02    0.10
  -4   3  -8    3.05    0.50
  -4   3  -9    0.54    0.23
  -4   3 -10    0.63    0.22
  -4   3 -11    0.31    0.16
   4  -2 -12    1.22    0.41
   4  -2 -11    3.15    0.66
   4  -2 -10    0.88    0.35
   4  -2  -9    4.26    0.74
   4  -2  -8    0.22    0.17
   4  -2  -7    0.88    0.33
   4  -2  -6    0.26    0.16
   4  -2  -5    2.81    0.54
   4  -2  -4    2.26    0.48
   4  -2  -3    0.57    0.23
   4  -2  -2    3.86    0.63
   4  -2  -1    2.44    0.47
  -4   2   0    0.60    0.24
   4  -2   0    0.36    0.17
  -4   2  -1    3.33    0.53
   4  -2   1    2.76    0.49
  -4   2  -2    7.76    0.83
  -4   2  -3    0.06    0.12
  -4   2  -3    0.38    0.20
  -4   2  -4    0.12    0.10
  -4   2  -4    0.21    0.16
  -4   2  -5    0.71    0.24
  -4   2  -5    0.88    0.29
  -4   2  -6    0.23    0.14
  -4   2  -6    0.13    0.15
  -4   2  -7    2.02    0.34
  -4   2  -7    2.22    0.44
  -4   2  -8    2.92    0.50
  -4   2  -9   -0.07    0.09
  -4   2 -10    0.14    0.09
  -4   2 -11    0.31    0.18
   4  -1 -12   -0.17    0.20
   4  -1 -11    1.83    0.50
   4  -1 -10    2.94    0.64
   4  -1  -9    2.45    0.57
   4  -1  -8    2.91    0.61
   4  -1  -7    2.95    0.62
   4  -1  -6    0.51    0.28
   4  -1  -5    7.66    0.96
   4  -1  -4    1.84    0.43
   4  -1  -3    0.11    0.12
   4  -1  -2    4.37    0.67
   4  -1  -1    9.36    1.00
   4  -1   0    4.28    0.65
  -4   1  -1    1.77    0.40
   4  -1   1    1.36    0.35
  -4   1  -2    2.11    0.43
   4  -1   2    1.53    0.36
  -4   1  -3    0.05    0.07
  -4   1  -4    0.42    0.21
  -4   1  -4    0.28    0.13
  -4   1  -5    1.38    0.39
  -4   1  -5    0.73    0.22
  -4   1  -6    2.90    0.45
  -4   1  -6    2.75    0.52
  -4   1  -7    1.03    0.24
  -4   1  -7    0.95    0.29
  -4   1  -8    1.92    0.40
  -4   1  -9   -0.03    0.08
  -4   1 -10    1.06    0.32
  -4   1 -11    0.37    0.20
   4   0 -11    4.64    0.85
   4   0 -10    3.16    0.70
   4   0  -9   17.29    1.63
   4   0  -8    3.27    0.67
   4   0  -7    7.33    1.00
   4   0  -6   18.56    1.61
   4   0  -5    4.29    0.73
   4   0  -4    0.48    0.24
   4   0  -3    0.13    0.12
   4   0  -2    0.96    0.31
   4   0  -1    3.33    0.62
   4   0   0    2.96    0.54
   4   0   1    1.46    0.38
  -4   0  -2    4.28    0.66
   4   0   2    4.29    0.65
  -4   0  -3    0.67    0.25
   4   0   3    0.85    0.29
  -4   0  -4    0.51    0.23
  -4   0  -5    0.11    0.10
  -4   0  -6    0.08    0.12
  -4   0  -6    0.00    0.09
  -4   0  -7    1.96    0.34
  -4   0  -7    1.55    0.41
  -4   0  -8    5.33    0.55
  -4   0  -8    5.01    0.71
  -4   0  -9    0.09    0.11
  -4   0 -10    0.73    0.25
  -4   0 -11    0.39    0.18
  -4   0 -12    0.39    0.18
   4   1 -10    6.11    0.98
   4   1  -9    0.94    0.37
   4   1  -8    2.23    0.56
   4   1  -7    9.37    1.17
   4   1  -6   14.53    1.44
   4   1  -5    5.76    0.88
   4   1  -4    6.25    0.89
   4   1  -3    0.08    0.06
   4   1  -2    5.21    0.78
   4   1  -1    3.68    0.64
   4   1   0    3.17    0.59
   4   1   1    6.21    0.84
   4   1   2    1.05    0.35
  -4  -1  -3    0.18    0.19
   4   1   3    0.21    0.10
  -4  -1  -4    1.16    0.37
  -4  -1  -5    0.43    0.20
  -4  -1  -6    8.81    0.99
  -4  -1  -7    0.04    0.08
  -4  -1  -7    0.07    0.09
  -4  -1  -8    5.23    0.55
  -4  -1  -8    6.53    0.86
  -4  -1  -9    0.41    0.18
  -4  -1 -10    1.82    0.43
  -4  -1 -11    0.10    0.11
  -4  -1 -12    0.15    0.06
   4   2 -10    0.07    0.17
   4   2  -9    1.77    0.53
   4   2  -8    0.14    0.19
   4   2  -7    0.37    0.21
   4   2  -6    2.09    0.56
   4   2  -5    2.58    0.60
   4   2  -4    0.25    0.22
   4   2  -3    6.05    0.87
   4   2  -2    5.85    0.84
   4   2  -1   -0.02    0.08
   4   2   0    0.16    0.15
   4   2   1    1.60    0.42
   4   2   2    0.97    0.32
   4   2   3    0.41    0.20
  -4  -2  -4    0.13    0.13
   4   2   4    0.37    0.21
  -4  -2  -5    8.38    0.98
  -4  -2  -6    4.64    0.72
  -4  -2  -7    0.06    0.07
  -4  -2  -8   15.19    1.44
  -4  -2  -9    3.71    0.67
  -4  -2 -10    1.28    0.37
  -4  -2 -11    2.31    0.51
  -4  -2 -12    0.32    0.22
   4   3  -9    0.80    0.39
   4   3  -8    2.35    0.61
   4   3  -7    0.09    0.10
   4   3  -6    0.42    0.28
   4   3  -5    1.98    0.53
   4   3  -4    0.69    0.30
   4   3  -3    0.56    0.26
   4   3  -2   -0.16    0.17
   4   3  -1   -0.07    0.09
   4   3   0    0.09    0.18
   4   3   1    1.01    0.34
   4   3   2    0.69    0.25
   4   3   3    6.99    0.91
  -4  -3  -4    0.92    0.31
   4   3   4    0.52    0.24
  -4  -3  -5    4.27    0.71
   4   3   5    5.66    0.80
  -4  -3  -6    0.22    0.18
  -4  -3  -7    0.90    0.34
  -4  -3  -8    0.04    0.10
  -4  -3  -9    2.30    0.54
  -4  -3 -10    0.22    0.08
  -4  -3 -11    0.28    0.13
  -4  -3 -12    1.38    0.41
   4   4  -8    0.01    0.16
   4   4  -7    0.17    0.14
   4   4  -6    3.49    0.75
   4   4  -5   -0.12    0.03
   4   4  -4    0.16    0.21
   4   4  -3   -0.03    0.05
   4   4  -2   -0.04    0.11
   4   4  -1    5.00    0.81
   4   4   0    0.29    0.15
   4   4   1    0.06    0.09
   4   4   2    2.78    0.58
   4   4   3    1.12    0.38
   4   4   4    5.20    0.79
  -4  -4  -5    0.33    0.19
   4   4   5    0.36    0.14
  -4  -4  -6    0.07    0.07
  -4  -4  -7   -0.09    0.10
  -4  -4  -8    5.09    0.79
  -4  -4  -9    0.06    0.13
  -4  -4 -10    6.21    0.93
  -4  -4 -11    2.49    0.55
  -4  -4 -12    3.88    0.70
   4   5  -7    7.44    1.14
   4   5  -6    0.24    0.26
   4   5  -5    2.67    0.66
   4   5  -4    0.10    0.13
   4   5  -3    0.61    0.31
   4   5  -2    0.86    0.37
   4   5  -1    1.10    0.39
   4   5   0    2.18    0.53
   4   5   1    5.19    0.85
   4   5   2    1.29    0.41
   4   5   3   -0.06    0.15
   4   5   4    0.66    0.27
   4   5   5    0.04    0.09
  -4  -5  -6    0.86    0.35
   4   5   6    0.60    0.26
  -4  -5  -7    4.04    0.72
  -4  -5  -8    0.18    0.08
  -4  -5  -9    0.08    0.06
  -4  -5 -10    2.40    0.60
  -4  -5 -11   26.10    2.03
   4   6  -6    1.44    0.49
   4   6  -5    1.09    0.43
   4   6  -4    0.62    0.30
   4   6  -3    0.76    0.36
   4   6  -2    0.03    0.12
   4   6  -1    0.51    0.24
   4   6   0    2.00    0.54
   4   6   1    3.18    0.66
   4   6   2    1.69    0.47
   4   6   3   -0.43    0.23
   4   6   4    0.89    0.33
   4   6   5    4.90    0.79
  -4  -6  -6    9.28    1.17
   4   6   6    9.26    1.11
  -4  -6  -7   11.32    1.27
  -4  -6  -8    0.79    0.35
  -4  -6  -9    3.98    0.75
  -4  -6 -10    0.11    0.14
  -4  -6 -11    2.62    0.62
   4   7  -5    0.01    0.11
   4   7  -4    0.31    0.30
   4   7  -3    0.36    0.22
   4   7  -2    5.43    0.93
   4   7  -1    9.33    1.21
   4   7   0   11.09    1.30
   4   7   1   16.57    1.60
   4   7   2   13.45    1.45
   4   7   3    0.39    0.21
   4   7   4    0.74    0.28
   4   7   5    5.01    0.83
   4   7   6   10.89    1.23
  -4  -7  -7   11.17    1.33
   4   7   7   11.97    1.30
  -4  -7  -8    2.19    0.56
  -4  -7  -9    2.15    0.55
  -4  -7 -10    0.13    0.07
  -4  -7 -11    2.88    0.68
   4   8  -3    0.02    0.15
   4   8  -2    0.64    0.32
   4   8  -1    0.53    0.32
   4   8   0    1.61    0.50
   4   8   1   21.41    1.90
   4   8   2    1.17    0.41
   4   8   3    4.32    0.81
   4   8   4    1.15    0.42
   4   8   5    2.77    0.61
   4   8   6    8.63    1.11
  -4  -8  -7    4.13    0.81
   4   8   7    5.32    0.86
  -4  -8  -8    7.84    1.12
  -4  -8  -9    0.79    0.36
  -4  -8 -10   -0.30    0.21
   4   9  -1    0.38    0.16
   4   9   0    2.47    0.62
   4   9   1    5.22    0.93
   4   9   2    3.07    0.70
   4   9   3   -0.10    0.17
   4   9   4    0.17    0.12
   4   9   5    0.31    0.18
   4   9   6    0.26    0.19
  -4  -9  -7    0.69    0.35
   4   9   7    0.78    0.33
  -4  -9  -8    3.50    0.77
  -4  -9  -9    0.40    0.26
   4  10   1    1.34    0.50
   4  10   2    0.10    0.17
   4  10   3    0.85    0.36
   4  10   4    0.75    0.32
   4  10   5    0.25    0.21
   4  10   6    0.49    0.29
   4  10   7    1.80    0.51
  -4 -10  -8    0.23    0.19
  -5   6   0   -0.21    0.20
  -5   6  -1    0.20    0.10
  -5   6  -2    0.02    0.08
  -5   6  -3    0.47    0.24
  -5   5   2    0.22    0.05
  -5   5   1    0.96    0.40
  -5   5   0    0.90    0.30
  -5   5  -1    2.74    0.60
  -5   5  -2    0.24    0.20
  -5   5  -3    0.36    0.19
  -5   5  -4    3.23    0.59
  -5   4   3   -0.14    0.10
  -5   4   2    2.90    0.67
  -5   4   1    1.56    0.49
  -5   4   0    4.34    0.78
  -5   4  -1    0.07    0.10
  -5   4  -2    0.19    0.04
  -5   4  -3    6.09    0.85
  -5   4  -4    0.06    0.03
  -5   3   2    5.63    0.98
  -5   3   1    0.00    0.13
  -5   3   0    1.14    0.41
  -5   3  -1   10.74    1.24
  -5   3  -2    4.05    0.73
  -5   3  -3   21.05    1.69
  -5   3  -4    0.63    0.29
   5  -2  -6    0.24    0.19
   5  -2  -5    0.76    0.32
   5  -2  -4    0.83    0.34
   5  -2  -3    0.79    0.32
   5  -2  -2   -0.04    0.14
  -5   2   1    6.55    0.89
   5  -2  -1    8.57    1.04
  -5   2   0    3.97    0.65
   5  -2   0    5.26    0.78
  -5   2  -1    0.81    0.26
  -5   2  -1    0.58    0.25
  -5   2  -2    6.39    0.94
  -5   2  -2    6.09    0.83
  -5   2  -3    8.77    1.05
  -5   2  -3    8.86    1.05
  -5   2  -4    0.08    0.02
  -5   2  -4    0.21    0.16
  -5   2  -5    3.83    0.62
  -5   2  -5    4.96    0.76
  -5   2  -6    0.09    0.01
  -5   2  -7    1.09    0.37
  -5   2  -8    0.27    0.17
   5  -1  -8    3.84    0.79
   5  -1  -7    0.10    0.16
   5  -1  -6    0.31    0.18
   5  -1  -5   -0.08    0.03
   5  -1  -4    0.96    0.33
   5  -1  -3   -0.22    0.19
   5  -1  -2    0.72    0.27
   5  -1  -1    0.35    0.16
  -5   1   0    9.09    1.08
   5  -1   0    9.20    1.11
  -5   1  -1    0.12    0.12
   5  -1   1    0.01    0.13
  -5   1  -2    5.31    0.79
  -5   1  -3    0.07    0.14
  -5   1  -3   -0.05    0.10
  -5   1  -4    0.82    0.31
  -5   1  -4    0.67    0.29
  -5   1  -5    0.76    0.34
  -5   1  -5    3.99    0.94
  -5   1  -6    0.56    0.26
  -5   1  -7    0.36    0.27
  -5   1  -8    0.09    0.16
   5   0  -7    0.04    0.05
   5   0  -6   -0.05    0.04
   5   0  -5    0.10    0.19
   5   0  -4    0.09    0.16
   5   0  -3    0.21    0.21
   5   0  -2   -0.03    0.14
   5   0  -1    2.78    0.62
   5   0   0    0.43    0.15
  -5   0  -1    0.57    0.23
   5   0   1    0.40    0.24
  -5   0  -2    3.02    0.61
   5   0   2    3.39    0.65
  -5   0  -3    1.38    0.42
  -5   0  -4    1.20    0.47
  -5   0  -5    0.39    0.34
  -5   0  -5   -0.06    0.04
  -5   0  -6    0.53    0.29
  -5   0  -7    1.58    0.46
  -5   0  -8   -0.04    0.11
   5   1  -6    0.59    0.31
   5   1  -5    3.08    0.70
   5   1  -4    0.12    0.11
   5   1  -3   11.51    1.36
   5   1  -2    1.27    0.44
   5   1  -1    0.12    0.11
   5   1   0    1.01    0.37
   5   1   1    0.33    0.21
  -5  -1  -2    0.62    0.35
   5   1   2    0.29    0.25
  -5  -1  -3    0.01    0.10
   5   1   3    0.13    0.09
  -5  -1  -4    3.78    0.73
  -5  -1  -5   -0.02    0.10
  -5  -1  -6    0.32    0.17
  -5  -1  -7    2.86    0.65
  -5  -1  -8    0.23    0.23
   5   2  -5    6.59    1.06
   5   2  -4    3.86    0.79
   5   2  -3    1.74    0.50
   5   2  -2    0.00    0.12
   5   2  -1   -0.08    0.11
   5   2   0   -0.16    0.18
   5   2   1    1.41    0.47
   5   2   2    1.84    0.51
  -5  -2  -3    0.04    0.13
   5   2   3    0.05    0.10
  -5  -2  -4    0.35    0.28
  -5  -2  -5   -0.01    0.15
  -5  -2  -6    0.35    0.22
  -5  -2  -7    0.24    0.22
   5   3  -3    8.76    1.22
   5   3  -2    0.08    0.04
   5   3  -1    1.64    0.66
   5   3   0    0.36    0.24
   5   3   1    0.76    0.35
   5   3   2    1.48    0.45
  -5  -3  -3    4.00    0.81
   5   3   3    3.08    0.67
  -5  -3  -4    0.43    0.22
   5   3   4    0.43    0.24
  -5  -3  -5    0.01    0.22
  -5  -3  -6    0.90    0.37
  -5  -3  -7    0.97    0.36
   5   4  -2    2.04    0.59
   5   4  -1    0.03    0.06
   5   4   0    0.22    0.25
   5   4   1    0.85    0.39
   5   4   2    0.17    0.11
   5   4   3    0.51    0.30
  -5  -4  -4    1.61    0.51
   5   4   4    1.47    0.46
  -5  -4  -5    0.85    0.36
   5   4   5    0.89    0.37
  -5  -4  -6    0.50    0.24
   5   5   1   -0.08    0.20
   5   5   2    1.07    0.41
   5   5   3    0.20    0.08
  -5  -5  -4    2.68    0.69
   5   5   4    1.80    0.53
  -5  -5  -5    2.36    0.62
   0   0   0    0.00    0.00
;
loop_
_space_group_symop_operation_xyz
'x, y, z'
'-x, -y, -z'
loop_
_atom_site_label
_atom_site_type_symbol
_atom_site_fract_x
_atom_site_fract_y
_atom_site_fract_z
_atom_site_U_iso_or_equiv
_atom_site_adp_type
_atom_site_occupancy
_atom_site_site_symmetry_order
_atom_site_calc_flag
_atom_site_refinement_flags_posn
_atom_site_refinement_flags_adp
_atom_site_refinement_flags_occupancy
_atom_site_disorder_assembly
_atom_site_disorder_group
C1 C 0.8932(5) 0.65626(14) 0.16741(13) 0.0215(4) Uani 1 1 d . . . . .
C2 C 0.7312(5) 0.72771(14) 0.21974(13) 0.0203(4) Uani 1 1 d . . . . .
C3 C 0.7835(5) 0.69310(13) 0.32835(13) 0.0224(4) Uani 1 1 d . . . . .
H3A H 0.639175 0.736137 0.357335 0.027 Uiso 1 1 calc R U . . .
H3B H 1.007410 0.706690 0.339160 0.027 Uiso 1 1 calc R U . . .
C4 C 0.7151(5) 0.57074(14) 0.37833(13) 0.0226(4) Uani 1 1 d . . . . .
H4A H 0.771521 0.548179 0.447041 0.027 Uiso 1 1 calc R U . . .
H4B H 0.483280 0.559332 0.376104 0.027 Uiso 1 1 calc R U . . .
C5 C 0.9975(5) 0.39189(15) 0.38072(14) 0.0248(5) Uani 1 1 d . . . . .
H5 H 0.935214 0.361534 0.447066 0.030 Uiso 1 1 calc R U . . .
C6 C 1.1765(5) 0.32829(15) 0.33572(14) 0.0273(5) Uani 1 1 d . . . . .
H6 H 1.232012 0.255789 0.371612 0.033 Uiso 1 1 calc R U . . .
C7 C 1.2744(5) 0.37250(15) 0.23654(14) 0.0249(5) Uani 1 1 d . . . . .
C8 C 1.1857(5) 0.47998(14) 0.18311(14) 0.0226(4) Uani 1 1 d . . . . .
H8 H 1.248110 0.509892 0.116740 0.027 Uiso 1 1 calc R U . . .
C9 C 1.0022(5) 0.54312(14) 0.22931(13) 0.0204(4) Uani 1 1 d . . . . .
C10 C 0.9074(5) 0.50092(14) 0.32894(13) 0.0210(4) Uani 1 1 d . . . . .
C11 C 0.5586(5) 0.81598(14) 0.16365(13) 0.0225(4) Uani 1 1 d . . . . .
H11 H 0.551297 0.821417 0.097805 0.027 Uiso 1 1 calc R U . . .
C12 C 0.3809(5) 0.90467(14) 0.18738(13) 0.0223(4) Uani 1 1 d . . . . .
C13 C 0.2055(5) 0.98777(14) 0.29846(14) 0.0244(5) Uani 1 1 d . . . . .
C14 C 0.0570(5) 1.07664(15) 0.22600(15) 0.0288(5) Uani 1 1 d . . . . .
H14 H -0.049705 1.133695 0.241718 0.035 Uiso 1 1 calc R U . . .
C15 C 0.0759(5) 1.07572(15) 0.13119(14) 0.0295(5) Uani 1 1 d . . . . .
H15 H -0.017966 1.132873 0.080569 0.035 Uiso 1 1 calc R U . . .
C16 C 0.2371(5) 0.98832(15) 0.11154(14) 0.0249(5) Uani 1 1 d . . . . .
H16 H 0.248408 0.986000 0.047716 0.030 Uiso 1 1 calc R U . . .
C17 C 0.3289(6) 0.89823(15) 0.46620(14) 0.0325(5) Uani 1 1 d . . . . .
H17A H 0.238639 0.831305 0.465483 0.049 Uiso 1 1 calc R U . . .
H17B H 0.286711 0.905347 0.529839 0.049 Uiso 1 1 calc R U . . .
H17C H 0.560790 0.896779 0.452808 0.049 Uiso 1 1 calc R U . . .
C18 C 1.5485(6) 0.34415(17) 0.09731(15) 0.0344(5) Uani 1 1 d . . . . .
H18A H 1.355831 0.363651 0.059011 0.052 Uiso 1 1 calc R U . . .
H18B H 1.673117 0.288442 0.080016 0.052 Uiso 1 1 calc R U . . .
H18C H 1.679046 0.407776 0.084055 0.052 Uiso 1 1 calc R U . . .
N1 N 0.3651(4) 0.90504(11) 0.28168(11) 0.0225(4) Uani 1 1 d . . . . .
O1 O 1.4560(4) 0.30353(10) 0.19940(10) 0.0328(4) Uani 1 1 d . . . . .
O2 O 0.9342(4) 0.68720(10) 0.07762(9) 0.0310(4) Uani 1 1 d . . . . .
O3 O 0.1806(4) 0.98961(10) 0.39229(10) 0.0302(4) Uani 1 1 d . . . . .
loop_
_atom_site_aniso_label
_atom_site_aniso_U_11
_atom_site_aniso_U_22
_atom_site_aniso_U_33
_atom_site_aniso_U_23
_atom_site_aniso_U_13
_atom_site_aniso_U_12
C1 0.0203(11) 0.0235(10) 0.0204(10) -0.0066(8) -0.0024(8) -0.0025(8)
C2 0.0188(10) 0.0202(9) 0.0215(10) -0.0061(8) 0.0013(8) -0.0044(8)
C3 0.0227(11) 0.0224(9) 0.0224(10) -0.0084(8) -0.0011(8) 0.0011(8)
C4 0.0189(10) 0.0279(10) 0.0191(10) -0.0052(8) -0.0010(8) -0.0033(8)
C5 0.0271(11) 0.0223(10) 0.0222(10) -0.0031(8) -0.0029(8) -0.0059(8)
C6 0.0307(12) 0.0191(9) 0.0295(11) -0.0041(8) -0.0066(9) -0.0019(8)
C7 0.0228(11) 0.0236(10) 0.0312(11) -0.0126(8) -0.0042(8) -0.0005(8)
C8 0.0226(11) 0.0246(10) 0.0208(10) -0.0076(8) -0.0011(8) -0.0030(8)
C9 0.0185(10) 0.0210(9) 0.0229(10) -0.0085(8) -0.0035(8) -0.0024(8)
C10 0.0201(10) 0.0227(9) 0.0211(10) -0.0077(8) -0.0041(8) -0.0043(7)
C11 0.0219(11) 0.0257(10) 0.0190(10) -0.0061(8) 0.0006(8) -0.0035(8)
C12 0.0210(10) 0.0193(9) 0.0246(10) -0.0044(8) -0.0006(8) -0.0024(8)
C13 0.0247(11) 0.0211(9) 0.0278(11) -0.0088(8) 0.0011(8) -0.0036(8)
C14 0.0288(12) 0.0194(10) 0.0377(12) -0.0095(9) 0.0022(9) 0.0020(9)
C15 0.0283(12) 0.0246(10) 0.0302(12) -0.0024(8) -0.0035(9) 0.0022(9)
C16 0.0245(11) 0.0242(10) 0.0241(10) -0.0056(8) -0.0003(8) -0.0004(8)
C17 0.0416(14) 0.0288(11) 0.0251(11) -0.0072(9) 0.0021(9) 0.0012(10)
C18 0.0359(13) 0.0356(12) 0.0340(12) -0.0162(10) 0.0004(10) 0.0074(10)
N1 0.0225(9) 0.0190(8) 0.0243(9) -0.0052(7) 0.0011(7) -0.0024(7)
O1 0.0406(9) 0.0249(7) 0.0326(8) -0.0106(6) -0.0001(7) 0.0069(6)
O2 0.0415(9) 0.0281(7) 0.0201(8) -0.0053(6) 0.0012(6) 0.0079(6)
O3 0.0391(9) 0.0261(7) 0.0253(8) -0.0095(6) 0.0012(6) 0.0044(6)
loop_
_atom_type_symbol
_atom_type_description
_atom_type_scat_dispersion_real
_atom_type_scat_dispersion_imag
_atom_type_scat_source
C C 0.0033 0.0016 'International Tables Vol C Tables 4.2.6.8 and 6.1.1.4'
H H 0.0000 0.0000 'International Tables Vol C Tables 4.2.6.8 and 6.1.1.4'
N N 0.0061 0.0033 'International Tables Vol C Tables 4.2.6.8 and 6.1.1.4'
O O 0.0106 0.0060 'International Tables Vol C Tables 4.2.6.8 and 6.1.1.4'
loop_
_geom_angle_atom_site_label_1
_geom_angle_atom_site_label_2
_geom_angle_atom_site_label_3
_geom_angle
_geom_angle_site_symmetry_1
_geom_angle_site_symmetry_3
O2 C1 C9 120.41(15) . .
O2 C1 C2 122.30(15) . .
C9 C1 C2 117.29(16) . .
C11 C2 C1 116.32(16) . .
C11 C2 C3 127.76(16) . .
C1 C2 C3 115.92(14) . .
C2 C3 C4 110.48(14) . .
C2 C3 H3A 109.6 . .
C4 C3 H3A 109.6 . .
C2 C3 H3B 109.6 . .
C4 C3 H3B 109.6 . .
H3A C3 H3B 108.1 . .
C10 C4 C3 111.75(16) . .
C10 C4 H4A 109.3 . .
C3 C4 H4A 109.3 . .
C10 C4 H4B 109.3 . .
C3 C4 H4B 109.3 . .
H4A C4 H4B 107.9 . .
C6 C5 C10 121.55(18) . .
C6 C5 H5 119.2 . .
C10 C5 H5 119.2 . .
C5 C6 C7 120.11(16) . .
C5 C6 H6 119.9 . .
C7 C6 H6 119.9 . .
O1 C7 C8 124.81(18) . .
O1 C7 C6 115.61(15) . .
C8 C7 C6 119.59(17) . .
C7 C8 C9 119.71(18) . .
C7 C8 H8 120.1 . .
C9 C8 H8 120.1 . .
C10 C9 C8 121.48(16) . .
C10 C9 C1 120.50(16) . .
C8 C9 C1 117.94(17) . .
C9 C10 C5 117.54(16) . .
C9 C10 C4 120.90(15) . .
C5 C10 C4 121.56(17) . .
C2 C11 C12 131.81(17) . .
C2 C11 H11 114.1 . .
C12 C11 H11 114.1 . .
N1 C12 C16 121.49(16) . .
N1 C12 C11 120.08(15) . .
C16 C12 C11 118.42(16) . .
N1 C13 O3 118.84(16) . .
N1 C13 C14 124.91(17) . .
O3 C13 C14 116.25(16) . .
C15 C14 C13 117.18(17) . .
C15 C14 H14 121.4 . .
C13 C14 H14 121.4 . .
C14 C15 C16 119.21(17) . .
C14 C15 H15 120.4 . .
C16 C15 H15 120.4 . .
C12 C16 C15 119.78(17) . .
C12 C16 H16 120.1 . .
C15 C16 H16 120.1 . .
O3 C17 H17A 109.5 . .
O3 C17 H17B 109.5 . .
H17A C17 H17B 109.5 . .
O3 C17 H17C 109.5 . .
H17A C17 H17C 109.5 . .
H17B C17 H17C 109.5 . .
O1 C18 H18A 109.5 . .
O1 C18 H18B 109.5 . .
H18A C18 H18B 109.5 . .
O1 C18 H18C 109.5 . .
H18A C18 H18C 109.5 . .
H18B C18 H18C 109.5 . .
C13 N1 C12 117.41(15) . .
C7 O1 C18 117.24(14) . .
C13 O3 C17 116.12(14) . .
loop_
_geom_bond_atom_site_label_1
_geom_bond_atom_site_label_2
_geom_bond_distance
_geom_bond_site_symmetry_2
C1 O2 1.224(2) .
C1 C9 1.496(2) .
C1 C2 1.496(2) .
C2 C11 1.349(2) .
C2 C3 1.500(2) .
C3 C4 1.534(2) .
C3 H3A 0.9700 .
C3 H3B 0.9700 .
C4 C10 1.506(2) .
C4 H4A 0.9700 .
C4 H4B 0.9700 .
C5 C6 1.379(3) .
C5 C10 1.398(2) .
C5 H5 0.9300 .
C6 C7 1.394(3) .
C6 H6 0.9300 .
C7 O1 1.367(2) .
C7 C8 1.386(3) .
C8 C9 1.395(3) .
C8 H8 0.9300 .
C9 C10 1.395(3) .
C11 C12 1.462(3) .
C11 H11 0.9300 .
C12 N1 1.360(2) .
C12 C16 1.386(3) .
C13 N1 1.317(2) .
C13 O3 1.360(2) .
C13 C14 1.404(3) .
C14 C15 1.370(3) .
C14 H14 0.9300 .
C15 C16 1.391(3) .
C15 H15 0.9300 .
C16 H16 0.9300 .
C17 O3 1.432(2) .
C17 H17A 0.9600 .
C17 H17B 0.9600 .
C17 H17C 0.9600 .
C18 O1 1.423(2) .
C18 H18A 0.9600 .
C18 H18B 0.9600 .
C18 H18C 0.9600 .
loop_
_geom_hbond_atom_site_label_D
_geom_hbond_atom_site_label_H
_geom_hbond_atom_site_label_A
_geom_hbond_distance_DH
_geom_hbond_distance_HA
_geom_hbond_distance_DA
_geom_hbond_angle_DHA
_geom_hbond_site_symmetry_A
_geom_hbond_publ_flag
C18 H18B O2 0.96 2.66 3.335(3) 128.0 2_865 yes
C18 H18A O2 0.96 2.63 3.418(3) 139.9 2_765 yes
loop_
_geom_torsion_atom_site_label_1
_geom_torsion_atom_site_label_2
_geom_torsion_atom_site_label_3
_geom_torsion_atom_site_label_4
_geom_torsion
_geom_torsion_site_symmetry_1
_geom_torsion_site_symmetry_2
_geom_torsion_site_symmetry_3
_geom_torsion_site_symmetry_4
O2 C1 C2 C11 16.4(3) . . . .
C9 C1 C2 C11 -162.86(17) . . . .
O2 C1 C2 C3 -162.91(18) . . . .
C9 C1 C2 C3 17.8(2) . . . .
C11 C2 C3 C4 131.7(2) . . . .
C1 C2 C3 C4 -49.1(2) . . . .
C2 C3 C4 C10 53.2(2) . . . .
C10 C5 C6 C7 0.5(3) . . . .
C5 C6 C7 O1 178.78(17) . . . .
C5 C6 C7 C8 -1.2(3) . . . .
O1 C7 C8 C9 -179.32(17) . . . .
C6 C7 C8 C9 0.6(3) . . . .
C7 C8 C9 C10 0.6(3) . . . .
C7 C8 C9 C1 -176.11(17) . . . .
O2 C1 C9 C10 -169.04(17) . . . .
C2 C1 C9 C10 10.3(3) . . . .
O2 C1 C9 C8 7.7(3) . . . .
C2 C1 C9 C8 -172.98(16) . . . .
C8 C9 C10 C5 -1.3(3) . . . .
C1 C9 C10 C5 175.37(17) . . . .
C8 C9 C10 C4 178.79(17) . . . .
C1 C9 C10 C4 -4.6(3) . . . .
C6 C5 C10 C9 0.7(3) . . . .
C6 C5 C10 C4 -179.34(17) . . . .
C3 C4 C10 C9 -27.6(2) . . . .
C3 C4 C10 C5 152.47(18) . . . .
C1 C2 C11 C12 -177.47(19) . . . .
C3 C2 C11 C12 1.8(4) . . . .
C2 C11 C12 N1 -1.7(3) . . . .
C2 C11 C12 C16 177.0(2) . . . .
N1 C13 C14 C15 1.1(3) . . . .
O3 C13 C14 C15 -179.25(17) . . . .
C13 C14 C15 C16 0.2(3) . . . .
N1 C12 C16 C15 0.8(3) . . . .
C11 C12 C16 C15 -177.84(18) . . . .
C14 C15 C16 C12 -1.2(3) . . . .
O3 C13 N1 C12 178.93(16) . . . .
C14 C13 N1 C12 -1.5(3) . . . .
C16 C12 N1 C13 0.4(3) . . . .
C11 C12 N1 C13 179.10(17) . . . .
C8 C7 O1 C18 -2.7(3) . . . .
C6 C7 O1 C18 177.34(17) . . . .
N1 C13 O3 C17 -1.1(3) . . . .
C14 C13 O3 C17 179.28(18) . . . .
