#------------------------------------------------------------------------------
#$Date: 2022-03-21 11:16:05 +0200 (Mon, 21 Mar 2022) $
#$Revision: 273867 $
#$URL: file:///home/coder/svn-repositories/cod/cif/8/10/48/8104819.cif $
#------------------------------------------------------------------------------
#
# This file is available in the Crystallography Open Database (COD),
# http://www.crystallography.net/
#
# All data on this site have been placed in the public domain by the
# contributors.
#
data_8104819
loop_
_publ_author_name
'Xu, Xindi'
'Ma, Xun'
'Huang, Meifen'
'Li, Tianyu'
'Wu, Qiong'
_publ_section_title
;
 Crystal structure of
 4-bromo-N&#x2032;-[(3-bromo-2-hydroxyphenyl)methylidene]benzohydrazide
 methanol solvate, C15H14Br2N2O3
;
_journal_issue                   2
_journal_name_full
'Zeitschrift f\"ur Kristallographie - New Crystal Structures'
_journal_page_first              323
_journal_page_last               324
_journal_paper_doi               10.1515/ncrs-2020-0540
_journal_volume                  236
_journal_year                    2021
_chemical_formula_moiety         'C14 H10 Br2 N2 O2, C H4 O'
_chemical_formula_sum            'C15 H14 Br2 N2 O3'
_chemical_formula_weight         430.10
_space_group_crystal_system      triclinic
_space_group_IT_number           2
_space_group_name_Hall           '-P 1'
_space_group_name_H-M_alt        'P -1'
_atom_sites_solution_hydrogens   geom
_atom_sites_solution_primary     iterative
_cell_angle_alpha                99.458(2)
_cell_angle_beta                 100.401(2)
_cell_angle_gamma                99.499(2)
_cell_formula_units_Z            2
_cell_length_a                   7.2748(3)
_cell_length_b                   9.0786(4)
_cell_length_c                   12.8613(5)
_cell_measurement_reflns_used    5335
_cell_measurement_temperature    150(2)
_cell_measurement_theta_max      26.15
_cell_measurement_theta_min      2.56
_cell_volume                     807.35(6)
_computing_cell_refinement       'SAINT v8.37A (Bruker, 2015)'
_computing_data_reduction        'SAINT v8.37A (Bruker, 2015)'
_computing_molecular_graphics    'Olex2 (Dolomanov et al., 2009)'
_computing_publication_material  'Olex2 (Dolomanov et al., 2009)'
_computing_structure_refinement  'ShelXL (Sheldrick, 2015)'
_computing_structure_solution    'olex2.solve (Bourhis et al., 2015)'
_diffrn_ambient_temperature      150.0
_diffrn_measured_fraction_theta_full 0.999
_diffrn_measured_fraction_theta_max 0.995
_diffrn_measurement_device_type  'Bruker APEX-II CCD'
_diffrn_measurement_method       '\f and \w scans'
_diffrn_radiation_type           MoK\a
_diffrn_radiation_wavelength     0.71073
_diffrn_reflns_av_R_equivalents  0.0360
_diffrn_reflns_av_unetI/netI     0.0255
_diffrn_reflns_Laue_measured_fraction_full 0.999
_diffrn_reflns_Laue_measured_fraction_max 0.995
_diffrn_reflns_limit_h_max       9
_diffrn_reflns_limit_h_min       -9
_diffrn_reflns_limit_k_max       11
_diffrn_reflns_limit_k_min       -11
_diffrn_reflns_limit_l_max       16
_diffrn_reflns_limit_l_min       -16
_diffrn_reflns_number            15976
_diffrn_reflns_point_group_measured_fraction_full 0.999
_diffrn_reflns_point_group_measured_fraction_max 0.995
_diffrn_reflns_theta_full        25.242
_diffrn_reflns_theta_max         26.447
_diffrn_reflns_theta_min         2.321
_diffrn_standards_number         0
_exptl_absorpt_coefficient_mu    5.033
_exptl_absorpt_correction_T_max  0.0276
_exptl_absorpt_correction_T_min  0.0085
_exptl_absorpt_correction_type   none
_exptl_absorpt_process_details
;
SADABS-2016/2 (Bruker,2016/2) was used for absorption correction.
wR2(int) was 0.0988 before and 0.0469 after correction.
The Ratio of minimum to maximum transmission is 0.3080.
The \l/2 correction factor is Not present.
;
_exptl_crystal_density_diffrn    1.769
_exptl_crystal_F_000             424
_refine_diff_density_max         0.321
_refine_diff_density_min         -0.260
_refine_diff_density_rms         0.058
_refine_ls_extinction_coef       .
_refine_ls_extinction_method     none
_refine_ls_goodness_of_fit_ref   1.049
_refine_ls_hydrogen_treatment    constr
_refine_ls_matrix_type           full
_refine_ls_number_parameters     202
_refine_ls_number_reflns         3303
_refine_ls_number_restraints     0
_refine_ls_restrained_S_all      1.049
_refine_ls_R_factor_all          0.0347
_refine_ls_R_factor_gt           0.0253
_refine_ls_shift/su_max          0.001
_refine_ls_shift/su_mean         0.000
_refine_ls_structure_factor_coef Fsqd
_refine_ls_weighting_details
;
 w=1/[\s^2^(Fo^2^)+(0.0334P)^2^+0.1877P]
 where P=(Fo^2^+2Fc^2^)/3
;
_refine_ls_weighting_scheme      calc
_refine_ls_wR_factor_gt          0.0639
_refine_ls_wR_factor_ref         0.0673
_reflns_Friedel_coverage         0.000
_reflns_Friedel_fraction_full    .
_reflns_Friedel_fraction_max     .
_reflns_number_gt                2746
_reflns_number_total             3303
_reflns_threshold_expression     'I > 2\s(I)'
_iucr_refine_instructions_details
;  

TITL
CELL 0.71073 7.2748 9.0786 12.8613 99.4578 100.4012 99.4987
ZERR 2 0.0003 0.0004 0.0005 0.0021 0.0023 0.0023
LATT 1
SFAC C H Br N O
UNIT 30 28 4 4 6

L.S. 16
PLAN  10
TEMP -123.15
fmap 2 53
acta
REM <olex2.extras>
REM <HklSrc "%.\\mo_0824_5_0m.hkl">
REM </olex2.extras>

WGHT    0.033400    0.187700
FVAR       0.24816
BR1   3    0.101845    0.490857    0.773334    11.00000    0.05852    0.04220 =
         0.04228    0.01647    0.01352    0.00791
BR2   3    0.342944    1.341475    0.036257    11.00000    0.04231    0.05841 =
         0.05990    0.02465    0.01959    0.00478
O1    5    0.312819    0.946275    0.421313    11.00000    0.02941    0.05213 =
         0.05114    0.02323    0.00684    0.00503
O2    5    0.247572    1.152577    0.197442    11.00000    0.02976    0.05048 =
         0.04107    0.01570    0.00485    0.00494
AFIX 147
H2    2    0.219075    1.103315    0.244100    11.00000   -1.50000
AFIX   0

O3    5    0.598479    0.809235    0.357378    11.00000    0.03071    0.05499 =
         0.05988    0.00905    0.01123    0.00486
AFIX 147
H3A   2    0.538848    0.866539    0.390213    11.00000   -1.50000
AFIX   0

C13   1   -0.239819    1.186683   -0.015359    11.00000    0.03931    0.05796 =
         0.03753    0.01512    0.00205    0.01373
AFIX  43
H13   2   -0.350338    1.194894   -0.064444    11.00000   -1.20000
AFIX   0
N2    4   -0.005595    0.901820    0.363568    11.00000    0.02927    0.03593 =
         0.03514    0.01060    0.00749    0.00429
AFIX  43
H2A   2   -0.120447    0.862028    0.370498    11.00000   -1.20000
AFIX   0
C7    1    0.155265    0.885060    0.429706    11.00000    0.03341    0.03360 =
         0.03463    0.00524    0.00614    0.00716
C9    1   -0.097235    1.089564    0.137828    11.00000    0.03289    0.03525 =
         0.03402    0.00641    0.00687    0.00533

C3AA  1    0.468764    0.685312    0.288771    11.00000    0.04959    0.07436 =
         0.07899    0.00500    0.00617    0.00360
AFIX 137
H3AA  2    0.527176    0.642817    0.230742    11.00000   -1.50000
H3AB  2    0.353800    0.719355    0.257634    11.00000   -1.50000
H3AC  2    0.434457    0.606964    0.329879    11.00000   -1.50000
AFIX   0

C8    1   -0.123895    1.001560    0.220088    11.00000    0.03068    0.03502 =
         0.03425    0.00559    0.00608    0.00322
AFIX  43
H8    2   -0.248626    0.956958    0.225439    11.00000   -1.20000
AFIX   0
N1    4    0.022372    0.984475    0.285543    11.00000    0.03546    0.03531 =
         0.03065    0.00806    0.00794    0.00728
C10   1    0.085407    1.161061    0.128881    11.00000    0.03281    0.03743 =
         0.03495    0.00527    0.00627    0.00670
C2    1    0.297273    0.775780    0.580538    11.00000    0.03489    0.04091 =
         0.04059    0.01286    0.00965    0.00740
AFIX  43
H2B   2    0.417588    0.827347    0.573291    11.00000   -1.20000
AFIX   0
C5    1   -0.054324    0.627453    0.602975    11.00000    0.03893    0.03626 =
         0.03977    0.00717    0.01111    0.00373
AFIX  43
H5    2   -0.174241    0.577004    0.611558    11.00000   -1.20000
AFIX   0
C1    1    0.130636    0.788981    0.512186    11.00000    0.03366    0.03220 =
         0.03632    0.00581    0.00722    0.00539
C11   1    0.098207    1.242540    0.047662    11.00000    0.03519    0.04015 =
         0.03967    0.00933    0.01355    0.00532
C14   1   -0.257020    1.106465    0.065473    11.00000    0.03116    0.04437 =
         0.03965    0.00938    0.00439    0.00207
AFIX  43
H14   2   -0.380606    1.061395    0.072319    11.00000   -1.20000
AFIX   0
C4    1    0.112905    0.613849    0.668173    11.00000    0.04708    0.03072 =
         0.03383    0.00959    0.01179    0.00708
C3    1    0.288349    0.687898    0.658942    11.00000    0.03955    0.04114 =
         0.03854    0.01083    0.00624    0.00799
AFIX  43
H3    2    0.401575    0.679054    0.705457    11.00000   -1.20000
AFIX   0
C6    1   -0.044857    0.715589    0.524951    11.00000    0.03327    0.03526 =
         0.03718    0.00711    0.00595    0.00698
AFIX  43
H6    2   -0.158971    0.725867    0.479965    11.00000   -1.20000
AFIX   0
C12   1   -0.061430    1.255084   -0.024774    11.00000    0.04793    0.05172 =
         0.03743    0.01810    0.01422    0.01484
AFIX  43
H12   2   -0.048110    1.310384   -0.080505    11.00000   -1.20000
AFIX   0
HKLF 4

REM
REM R1 =  0.0253 for    2746 Fo > 4sig(Fo)  and  0.0347 for all    3303 data
REM    202 parameters refined using      0 restraints

END

WGHT      0.0333      0.1873

REM Highest difference peak  0.321,  deepest hole -0.260,  1-sigma level  0.058
Q1    1  -0.0484  0.4576  0.7482  11.00000  0.05    0.32
Q2    1   0.3207  1.4189  0.0803  11.00000  0.05    0.29
Q3    1   0.2538  0.5038  0.7830  11.00000  0.05    0.29
Q4    1   0.0446  0.7196  0.4997  11.00000  0.05    0.28
Q5    1   0.0583  0.8656  0.3762  11.00000  0.05    0.27
Q6    1   0.3442  1.4249 -0.0003  11.00000  0.05    0.27
Q7    1   0.2814  0.7276  0.6170  11.00000  0.05    0.25
Q8    1   0.1548  1.1564  0.1592  11.00000  0.05    0.24
Q9    1   0.2020  0.7757  0.5401  11.00000  0.05    0.24
Q10   1   0.1138  1.0044  0.2639  11.00000  0.05    0.23
;
_cod_data_source_file            suppl_j_ncrs-2020-0540_suppl.cif
_cod_data_source_block           X3
_cod_database_code               8104819
_shelx_space_group_comment
;
The symmetry employed for this shelxl refinement is uniquely defined
by the following loop, which should always be used as a source of
symmetry information in preference to the above space-group names.
They are only intended as comments.
;
_olex2_refinement_description
;
1. Fixed Uiso
 At 1.2 times of:
  All C(H) groups, All N(H) groups
 At 1.5 times of:
  All C(H,H,H) groups, All O(H) groups
2.a Aromatic/amide H refined with riding coordinates:
 C13(H13), N2(H2A), C8(H8), C2(H2B), C5(H5), C14(H14), C3(H3), C6(H6), C12(H12)
2.b Idealised Me refined as rotating group:
 C3AA(H3AA,H3AB,H3AC)
2.c Idealised tetrahedral OH refined as rotating group:
 O2(H2), O3(H3A)
;
_olex2_submission_special_instructions 'No special instructions were received'
_shelx_hkl_file
;


  -1   0   0  484.07   11.07
  -1   0   0  408.40   11.15
   1   0   0  472.03   11.03
   1   0   0  477.04   11.07
  -2   0   0    0.28    0.43
  -2   0   0    0.51    0.50
   2   0   0    0.54    0.44
   2   0   0   -0.21    0.41
  -3   0   0  149.01    4.45
  -3   0   0  137.59    4.69
   3   0   0  141.01    4.34
   3   0   0  149.47    4.42
  -4   0   0  150.24    5.12
  -4   0   0  152.88    4.81
   4   0   0  149.36    4.68
   4   0   0  150.77    4.73
  -5   0   0  124.47    4.30
  -5   0   0  126.02    4.63
   5   0   0  125.49    4.22
   5   0   0  116.91    4.11
  -6   0   0    0.82    0.85
  -6   0   0    2.25    1.05
   6   0   0   -0.52    0.79
   6   0   0   -0.06    0.87
   6   0   0   -0.17    0.73
   6   0   0    0.08    0.36
  -7   0   0    4.81    1.19
  -7   0   0    4.52    1.29
  -7   0   0    7.07    1.23
   7   0   0    6.39    1.31
   7   0   0    6.98    1.18
   7   0   0    5.62    0.46
   7   0   0    3.53    1.10
  -8   0   0    3.51    1.26
  -8   0   0    1.73    1.04
  -8   0   0    2.14    1.00
   8   0   0    2.63    1.11
   8   0   0    4.70    1.23
   8   0   0    2.85    0.99
   8  -1   0    3.94    1.24
   8  -1   0    5.26    1.21
   8  -1   0    4.43    1.28
  -8   1   0    5.47    1.24
  -8   1   0    3.00    1.19
   7  -1   0   23.13    1.85
   7  -1   0   22.19    2.12
   7  -1   0   21.39    2.91
  -7   1   0   22.62    2.17
  -7   1   0   19.70    1.93
   6  -1   0   29.89    2.24
   6  -1   0   29.42    2.00
  -6   1   0   32.63    2.25
  -6   1   0   27.01    1.99
   5  -1   0    8.01    1.20
   5  -1   0    8.15    0.37
   5  -1   0    8.74    1.19
  -5   1   0    9.04    1.25
  -5   1   0    8.02    1.30
   4  -1   0  264.99    7.31
   4  -1   0  252.00    6.24
   4  -1   0  267.31    7.39
  -4   1   0  276.81    7.42
  -4   1   0  257.67    7.58
   3  -1   0   50.78    2.11
   3  -1   0   53.63    2.23
   3  -1   0   52.87    1.39
  -3   1   0   58.57    2.23
  -3   1   0   49.70    2.27
  -3   1   0   53.19    2.22
   2  -1   0  186.22    5.04
   2  -1   0  188.28    5.18
   2  -1   0  190.54    5.25
  -2   1   0  188.85    5.19
  -2   1   0  197.30    5.21
  -2   1   0  190.99    5.06
  -2   1   0  186.02    4.50
   1  -1   0    9.04    0.51
   1  -1   0    9.40    0.53
   1  -1   0    9.90    0.65
  -1   1   0    9.02    0.49
  -1   1   0    9.42    0.64
  -1   1   0    9.22    0.52
  -1   1   0    9.45    0.44
   0  -1   0   29.14    0.90
   0  -1   0   31.15    0.96
   0   1   0   29.71    0.89
  -1  -1   0   29.82    1.07
  -1  -1   0   30.24    1.18
   1   1   0   30.31    1.17
   1   1   0   28.26    1.06
  -2  -1   0   25.39    1.36
  -2  -1   0   25.66    1.24
   2   1   0   25.49    1.34
  -3  -1   0   27.40    1.68
  -3  -1   0   28.94    1.59
  -3  -1   0   28.67    1.99
   3   1   0   30.99    1.71
  -4  -1   0   35.34    2.30
  -4  -1   0   35.35    2.05
  -4  -1   0   31.76    1.83
   4   1   0   34.17    2.01
   4   1   0   34.34    2.06
   4   1   0   37.32    1.89
  -5  -1   0  114.34    4.16
  -5  -1   0  114.58    3.97
  -5  -1   0  115.83    4.51
   5   1   0  117.09    4.21
   5   1   0  116.04    3.95
   5   1   0  114.65    4.07
  -6  -1   0   15.08    1.82
  -6  -1   0   16.76    1.65
  -6  -1   0   13.79    2.30
   6   1   0   14.46    1.51
   6   1   0   15.82    1.63
   6   1   0   15.64    1.67
  -7  -1   0    8.58    1.25
  -7  -1   0    6.97    1.34
  -7  -1   0    5.60    1.33
   7   1   0    9.35    1.19
   7   1   0   10.86    1.48
   7   1   0    7.51    1.29
   7   1   0    7.09    0.76
  -8  -1   0    7.50    1.36
  -8  -1   0   10.64    1.36
  -8  -1   0    8.27    1.57
   8   1   0    8.72    1.18
   8   1   0    9.45    0.76
   8   1   0    8.20    1.42
   8   1   0    8.75    1.40
   8  -2   0   14.60    1.75
   8  -2   0   15.24    1.65
  -8   2   0   10.84    1.51
  -8   2   0   11.06    1.48
   7  -2   0    4.08    1.08
   7  -2   0    1.95    0.99
  -7   2   0    4.00    1.15
  -7   2   0    1.81    1.00
   6  -2   0   17.62    1.80
  -6   2   0   15.04    1.57
  -6   2   0   18.20    1.83
   5  -2   0    9.15    1.18
   5  -2   0    6.52    1.13
  -5   2   0   10.10    1.27
  -5   2   0    8.79    1.26
  -5   2   0    9.55    1.30
   4  -2   0  140.16    4.65
   4  -2   0  140.76    4.41
  -4   2   0  144.04    4.46
  -4   2   0  148.76    4.61
  -4   2   0  146.56    4.67
   3  -2   0   73.66    2.79
   3  -2   0   72.18    3.79
   3  -2   0   76.00    2.59
  -3   2   0   76.30    2.82
  -3   2   0   72.91    2.57
  -3   2   0   73.70    2.62
   2  -2   0  150.21    4.14
   2  -2   0  148.45    4.41
  -2   2   0  150.96    4.39
  -2   2   0  150.40    4.05
  -2   2   0  161.36    4.20
   1  -2   0    8.48    0.75
   1  -2   0    7.70    0.42
   1  -2   0    6.95    0.45
  -1   2   0    8.32    0.47
  -1   2   0    6.99    0.74
  -1   2   0    7.11    0.41
   0  -2   0    4.83    0.52
   0  -2   0    3.35    0.39
   0   2   0    3.43    0.44
   0   2   0    2.96    0.38
  -1  -2   0  871.45   19.92
  -1  -2   0  874.92   20.06
   1   2   0  837.04   20.30
   1   2   0  836.50   19.84
   1   2   0  821.22   20.02
  -2  -2   0    0.40    0.52
  -2  -2   0    0.79    0.44
   2   2   0    0.55    0.53
   2   2   0    0.46    0.43
  -3  -2   0   22.38    1.37
  -3  -2   0   21.56    1.55
   3   2   0   25.34    1.50
   3   2   0   21.82    1.55
  -4  -2   0   20.63    1.96
  -4  -2   0   16.45    1.60
  -4  -2   0   16.19    1.37
   4   2   0   16.01    1.57
   4   2   0   14.49    1.42
  -5  -2   0  103.87    3.65
  -5  -2   0   95.55    3.80
  -5  -2   0  113.63    4.43
   5   2   0  107.53    3.83
   5   2   0  105.46    3.89
   5   2   0  100.12    3.59
  -6  -2   0    0.26    0.75
  -6  -2   0    1.33    0.98
   6   2   0    1.55    0.80
   6   2   0    0.52    0.81
  -7  -2   0    8.81    1.54
  -7  -2   0   13.84    1.61
  -7  -2   0   17.42    1.69
   7   2   0   11.51    1.33
   7   2   0   17.70    1.71
   7   2   0   13.96    1.62
  -8  -2   0    0.38    0.95
  -8  -2   0    0.61    1.13
  -8  -2   0    0.13    1.69
   8   2   0    0.15    0.95
   8   2   0    0.28    1.01
   8   2   0    0.51    0.80
   8   2   0   -0.18    0.50
   8  -3   0    5.82    1.26
   8  -3   0    6.67    1.27
   8  -3   0    4.84    1.26
  -8   3   0    5.23    1.21
  -8   3   0    7.65    1.33
   7  -3   0    1.40    0.96
   7  -3   0    1.86    0.96
  -7   3   0    3.66    1.09
  -7   3   0    2.79    1.04
   6  -3   0  121.03    4.32
   6  -3   0  116.91    4.16
  -6   3   0  117.12    4.17
  -6   3   0  118.92    4.32
  -6   3   0  113.40    4.14
   5  -3   0    8.17    1.10
   5  -3   0    9.93    1.32
  -5   3   0    8.14    1.14
  -5   3   0   10.79    1.41
  -5   3   0    9.60    1.15
   4  -3   0    6.37    0.94
   4  -3   0    5.61    1.02
  -4   3   0    5.97    0.89
  -4   3   0    6.67    1.08
  -4   3   0    5.57    0.82
   3  -3   0  205.57    5.72
   3  -3   0  202.92    6.03
  -3   3   0  208.20    5.54
  -3   3   0  210.78    5.73
  -3   3   0  215.21    6.06
   2  -3   0    7.49    0.62
   2  -3   0    9.04    0.66
   2  -3   0    7.60    0.90
  -2   3   0    7.37    0.90
  -2   3   0    8.26    0.61
   1  -3   0  206.88    5.17
   1  -3   0  211.88    5.60
   1  -3   0  207.14    5.03
  -1   3   0  197.72    6.06
  -1   3   0  205.08    5.41
   0  -3   0    0.67    0.71
   0  -3   0    0.78    0.38
   0   3   0    1.76    0.48
   0   3   0    1.54    0.43
  -1  -3   0  198.90    5.12
  -1  -3   0  193.42    4.80
   1   3   0  194.74    5.32
   1   3   0  199.03    5.23
   1   3   0  185.82    5.13
  -2  -3   0    0.69    0.46
   2   3   0    0.38    0.33
   2   3   0    0.47    0.58
   2   3   0    0.29    0.46
  -3  -3   0  199.07    5.41
  -3  -3   0  199.53    5.76
   3   3   0  176.88    6.18
   3   3   0  196.18    5.69
  -4  -3   0   -0.31    0.80
  -4  -3   0    0.43    0.63
  -4  -3   0   -0.57    0.74
   4   3   0    0.29    0.73
   4   3   0    0.70    0.59
  -5  -3   0    3.47    0.86
  -5  -3   0    4.38    1.21
  -5  -3   0    3.75    1.09
   5   3   0    3.16    0.85
   5   3   0    4.71    1.09
  -6  -3   0   64.00    3.08
  -6  -3   0   61.09    2.69
   6   3   0   64.30    2.79
   6   3   0   64.92    2.73
  -7  -3   0    7.43    1.49
  -7  -3   0    5.07    1.00
  -7  -3   0    3.42    1.16
   7   3   0    5.47    1.07
   7   3   0    6.44    1.82
   7   3   0    4.62    1.27
   8  -4   0    0.95    1.00
   8  -4   0    1.36    1.07
  -8   4   0    1.72    1.03
  -8   4   0    0.99    0.97
   7  -4   0   15.04    1.67
   7  -4   0   15.32    1.58
  -7   4   0   15.35    1.61
  -7   4   0   16.69    1.79
  -7   4   0   16.95    1.73
   6  -4   0    3.55    1.30
  -6   4   0    4.73    0.92
  -6   4   0    5.24    1.04
  -6   4   0    6.45    1.26
   5  -4   0  101.77    3.92
  -5   4   0  104.00    3.91
  -5   4   0  106.39    3.51
  -5   4   0  102.02    3.63
   4  -4   0    4.83    0.85
   4  -4   0    5.62    1.08
  -4   4   0    4.87    1.02
  -4   4   0    3.40    0.64
  -4   4   0    2.24    0.74
   3  -4   0   71.90    2.46
   3  -4   0   78.30    3.02
   3  -4   0   74.42    2.31
  -3   4   0   80.85    3.06
  -3   4   0   77.92    2.68
  -3   4   0   68.73    2.35
   2  -4   0    4.38    0.65
   2  -4   0    3.67    0.43
   2  -4   0    2.31    0.69
  -2   4   0    3.29    0.40
  -2   4   0    2.87    0.65
  -2   4   0    4.48    0.85
   1  -4   0  159.49    4.06
   1  -4   0  162.77    4.70
  -1   4   0  161.01    4.76
  -1   4   0  159.82    4.48
   0  -4   0    3.78    0.65
   0  -4   0    4.97    0.65
   0   4   0    4.80    0.65
   0   4   0    4.45    0.72
  -1  -4   0  126.19    3.66
  -1  -4   0  128.74    3.25
   1   4   0  123.96    3.88
   1   4   0  126.89    3.65
   1   4   0  127.04    3.83
  -2  -4   0  116.85    3.57
   2   4   0  122.03    3.60
   2   4   0  121.78    3.71
   2   4   0  120.82    3.91
  -3  -4   0   15.19    1.23
   3   4   0   17.57    1.21
   3   4   0   15.73    1.49
   3   4   0   14.62    1.24
  -4  -4   0   21.78    1.74
  -4  -4   0   22.17    2.04
  -4  -4   0   22.33    1.54
   4   4   0   20.19    1.68
   4   4   0   21.20    1.33
  -5  -4   0    0.88    0.93
  -5  -4   0   -1.06    0.66
  -5  -4   0    0.54    0.98
   5   4   0   -0.21    0.58
  -6  -4   0   30.08    2.16
  -6  -4   0   30.40    2.49
  -6  -4   0   27.08    2.07
   6   4   0   32.26    1.86
  -7  -4   0   -0.06    0.76
  -7  -4   0   -0.14    0.97
  -7  -4   0    2.00    1.19
   7   4   0    1.31    1.05
   7   4   0   -0.44    0.77
   7   4   0   -0.24    0.71
   8  -5   0    3.53    1.23
  -8   5   0   -0.02    0.98
  -8   5   0    1.37    0.94
   7  -5   0    0.08    1.33
  -7   5   0    0.90    0.90
  -7   5   0    1.96    0.85
  -7   5   0    1.66    1.10
   6  -5   0    3.80    1.18
  -6   5   0    2.84    0.92
  -6   5   0    4.16    1.16
  -6   5   0    3.15    0.80
   5  -5   0   63.48    3.09
  -5   5   0   66.01    3.09
  -5   5   0   69.89    2.47
  -5   5   0   67.79    2.76
   4  -5   0    7.87    0.93
   4  -5   0   10.33    1.35
  -4   5   0    7.48    1.21
  -4   5   0    9.15    0.89
  -4   5   0    6.60    0.95
   3  -5   0    0.25    0.66
   3  -5   0    0.71    0.45
   3  -5   0   -0.49    0.33
  -3   5   0    0.13    0.64
  -3   5   0    0.31    0.74
  -3   5   0    0.20    0.59
  -3   5   0   -0.36    0.55
   2  -5   0   70.80    2.03
   2  -5   0   65.29    2.69
   2  -5   0   66.22    2.17
  -2   5   0   71.46    2.84
  -2   5   0   70.22    2.55
   1  -5   0  187.77    4.91
   1  -5   0  198.18    5.66
  -1   5   0  195.26    5.39
  -1   5   0  200.74    5.76
   0  -5   0   95.78    3.18
   0  -5   0   94.51    3.01
   0   5   0   93.55    2.97
   0   5   0   87.11    3.16
  -1  -5   0    5.53    0.74
  -1  -5   0    5.48    0.47
   1   5   0    5.73    0.75
   1   5   0    6.55    0.93
   1   5   0    5.39    0.87
  -2  -5   0   98.92    3.19
   2   5   0  103.53    3.54
   2   5   0   97.93    3.34
   2   5   0   99.05    3.19
  -3  -5   0    0.45    0.61
   3   5   0   -0.16    0.58
   3   5   0    0.22    0.73
   3   5   0    1.46    0.67
   4   5   0   18.16    1.56
  -5  -5   0    0.38    0.69
   5   5   0    1.49    0.61
  -6  -5   0    4.08    1.30
  -6  -5   0    5.39    0.97
   6   5   0    2.77    0.81
   6   5   0    2.52    1.06
  -7  -5   0    6.26    1.57
  -7  -5   0    7.96    1.17
   7   5   0    4.99    1.02
   8  -6   0    0.80    1.30
  -8   6   0    3.76    1.21
  -8   6   0    1.18    0.88
  -8   6   0    1.02    1.04
   7  -6   0    0.79    1.04
  -7   6   0    2.70    0.88
  -7   6   0    1.25    0.90
  -7   6   0    1.95    1.12
  -6   6   0    1.21    0.89
  -6   6   0    2.61    0.69
  -6   6   0    0.93    1.04
   5  -6   0   25.89    1.99
  -5   6   0   20.97    1.25
  -5   6   0   22.82    1.69
   4  -6   0   65.08    2.34
   4  -6   0   63.73    2.94
  -4   6   0   64.18    2.70
  -4   6   0   61.00    2.97
  -4   6   0   65.47    2.61
  -4   6   0   65.72    2.11
   3  -6   0    2.31    0.54
   3  -6   0    0.53    0.75
   3  -6   0    2.53    0.46
  -3   6   0    3.06    0.85
  -3   6   0    1.69    0.87
   2  -6   0   36.73    1.50
   2  -6   0   37.30    1.29
   2  -6   0   39.48    2.09
  -2   6   0   32.38    1.82
  -2   6   0   36.97    2.11
   1  -6   0    1.28    0.70
   1  -6   0    1.98    0.40
  -1   6   0    2.12    0.81
  -1   6   0    2.24    0.71
   0  -6   0  185.52    5.15
   0  -6   0  177.53    5.26
   0   6   0  177.62    5.04
   0   6   0  176.54    5.40
  -1  -6   0    1.72    0.67
  -1  -6   0    0.76    0.26
   1   6   0    2.07    0.78
   1   6   0    0.93    0.70
   1   6   0    0.68    0.56
  -2  -6   0    9.91    1.00
   2   6   0   11.26    1.18
   2   6   0   10.07    1.03
   2   6   0    9.79    1.20
  -3  -6   0    9.26    1.02
   3   6   0    7.35    1.12
   3   6   0    7.32    1.00
   3   6   0    8.73    0.99
  -4  -6   0   14.68    1.70
  -4  -6   0   15.28    1.37
   4   6   0   15.22    1.41
   4   6   0   15.89    1.41
  -5  -6   0    4.06    1.29
  -5  -6   0    2.61    0.93
   5   6   0    2.87    1.03
   5   6   0    3.39    0.84
  -6  -6   0    1.69    0.81
  -6  -6   0   -0.74    1.88
   6   6   0    0.93    1.06
   7  -7   0    0.14    1.01
  -7   7   0    0.65    0.90
  -7   7   0    0.04    0.60
  -7   7   0    0.85    1.04
   6  -7   0    2.34    1.07
  -6   7   0   -0.19    0.48
  -6   7   0    1.44    0.98
  -6   7   0    0.57    0.80
  -6   7   0    1.13    0.97
  -5   7   0    3.64    0.58
  -5   7   0    4.18    1.03
  -5   7   0    4.82    1.23
  -5   7   0    5.30    1.01
   4  -7   0   77.99    2.49
   4  -7   0   78.23    2.56
  -4   7   0   75.68    2.31
  -4   7   0   80.35    3.11
  -4   7   0   73.24    4.07
  -4   7   0   78.55    2.95
   3  -7   0    1.47    0.41
   3  -7   0    2.09    0.58
  -3   7   0    1.45    0.80
  -3   7   0    2.40    1.01
   2  -7   0    1.84    0.60
   2  -7   0    0.68    0.33
   2  -7   0    2.00    0.87
  -2   7   0    1.25    0.85
  -2   7   0    1.94    0.78
   1  -7   0   14.28    1.35
  -1   7   0   14.72    1.56
  -1   7   0   11.89    1.17
   0  -7   0   90.26    3.15
   0   7   0   92.34    3.46
   0   7   0   91.79    3.08
  -1  -7   0   33.03    1.72
   1   7   0   33.67    1.97
   1   7   0   33.53    1.71
  -2  -7   0   -0.14    0.58
   2   7   0    0.79    0.80
   2   7   0   -1.16    0.53
   2   7   0    0.69    0.71
  -3  -7   0   16.86    1.38
   3   7   0   15.82    1.33
   3   7   0   16.77    1.51
  -4  -7   0   11.11    1.32
   4   7   0   10.65    1.22
   4   7   0    9.25    1.16
   4   7   0   12.03    1.42
  -5  -7   0   22.83    1.66
  -5  -7   0   22.72    2.36
   5   7   0   21.72    1.95
   5   7   0   22.89    2.79
   7  -8   0    2.11    1.16
  -7   8   0    0.56    1.39
  -7   8   0    0.59    0.56
  -7   8   0   -1.06    1.00
  -7   8   0    1.02    1.01
   6  -8   0    7.10    1.40
  -6   8   0    5.96    1.12
  -6   8   0    5.70    1.35
  -6   8   0    5.49    1.21
  -6   8   0    6.32    0.70
  -5   8   0    0.02    0.38
  -5   8   0    1.62    0.95
  -5   8   0    1.34    1.00
  -5   8   0    0.02    0.76
   4  -8   0   32.62    1.47
  -4   8   0   34.30    1.95
  -4   8   0   32.50    2.28
  -4   8   0   30.09    1.94
   3  -8   0   23.00    1.03
   3  -8   0   23.81    1.90
   3  -8   0   24.10    1.27
  -3   8   0   24.85    1.76
  -3   8   0   22.83    1.93
   2  -8   0   26.08    1.06
   2  -8   0   27.67    1.86
   2  -8   0   23.96    1.37
  -2   8   0   25.32    2.31
  -2   8   0   28.83    3.24
   1  -8   0   18.87    1.33
   1  -8   0   22.15    1.68
   1  -8   0   21.35    1.02
  -1   8   0   17.73    1.76
  -1   8   0   22.16    1.53
   0  -8   0   25.95    1.63
   0  -8   0   24.02    1.24
   0   8   0   24.00    1.85
   0   8   0   26.76    1.61
  -1  -8   0   71.02    2.74
   1   8   0   75.56    2.70
   1   8   0   72.43    3.06
   1   8   0   72.14    2.98
  -2  -8   0    0.30    0.66
   2   8   0   -0.64    0.72
   2   8   0    0.12    0.74
   2   8   0    0.44    0.77
  -3  -8   0   -0.85    0.83
   3   8   0    0.67    0.92
   3   8   0    0.05    0.84
   3   8   0   -0.75    0.64
  -4  -8   0    0.71    1.06
  -4  -8   0    0.27    0.71
   4   8   0    0.27    0.76
   4   8   0   -0.46    0.91
   4   8   0    0.43    0.75
   6  -9   0    3.87    1.22
  -6   9   0    3.87    1.18
  -6   9   0    4.10    1.10
  -6   9   0    6.09    1.31
   5  -9   0    1.49    1.09
  -5   9   0    1.51    1.09
  -5   9   0    0.72    0.93
  -5   9   0    1.90    0.92
   4  -9   0    8.00    1.38
   4  -9   0    7.27    0.74
   4  -9   0    7.00    0.83
  -4   9   0    8.03    1.21
  -4   9   0    5.82    1.32
   3  -9   0   14.85    1.11
   3  -9   0   15.19    0.79
   3  -9   0   14.57    1.56
  -3   9   0   14.43    1.68
  -3   9   0   15.80    1.45
   2  -9   0    0.80    0.62
   2  -9   0   -0.15    0.35
   2  -9   0    0.49    0.80
  -2   9   0    0.42    0.86
  -2   9   0    0.15    0.72
   1  -9   0   -0.12    0.64
   1  -9   0    0.05    0.75
   1  -9   0    0.12    0.34
  -1   9   0    0.58    0.70
  -1   9   0    0.79    0.92
   0  -9   0   -0.43    0.40
   0  -9   0    0.48    0.18
   0  -9   0    0.28    1.08
   0   9   0   -0.66    0.65
   0   9   0    0.11    0.85
  -1  -9   0   39.18    2.00
   1   9   0   39.37    2.26
   1   9   0   36.94    1.91
   1   9   0   41.82    2.34
  -2  -9   0    9.36    1.12
   2   9   0    8.43    1.20
   2   9   0   10.67    1.37
   2   9   0    9.75    1.10
  -3  -9   0    0.71    0.78
   3   9   0    0.12    0.68
   3   9   0    0.99    0.99
   3   9   0    0.71    0.81
   5 -10   0    3.63    1.25
  -5  10   0    3.36    1.87
  -5  10   0    4.43    1.18
  -5  10   0    3.17    1.04
   4 -10   0    2.59    1.15
   4 -10   0    2.75    0.67
  -4  10   0    0.60    0.94
  -4  10   0    2.57    1.12
   3 -10   0   14.09    1.13
   3 -10   0   15.51    0.68
   3 -10   0   17.17    1.81
  -3  10   0   13.43    1.67
  -3  10   0   17.93    1.67
   2 -10   0    0.36    0.37
   2 -10   0    0.73    0.89
   2 -10   0    0.34    0.63
  -2  10   0    0.41    0.96
  -2  10   0    0.79    0.81
   1 -10   0    5.76    0.94
   1 -10   0    6.65    0.60
  -1  10   0    8.24    1.39
  -1  10   0    6.62    1.01
   0 -10   0    4.38    0.61
   0  10   0    3.12    1.09
   0  10   0    4.64    0.94
  -1 -10   0   19.16    1.56
  -1 -10   0   15.92    1.17
   1  10   0   18.30    1.81
   1  10   0   16.64    1.48
   1  10   0   18.63    1.87
  -2 -10   0   12.68    1.48
  -2 -10   0   11.02    1.23
   2  10   0   12.66    1.53
   2  10   0   11.37    1.47
   2  10   0   10.36    1.13
   3 -11   0    2.97    0.72
   3 -11   0    3.25    1.18
  -3  11   0    2.42    1.01
   2 -11   0    3.54    0.33
   2 -11   0    3.40    1.11
   2 -11   0    3.10    0.77
  -2  11   0    2.61    1.14
  -2  11   0    1.97    0.98
   1 -11   0    2.29    0.43
   1 -11   0    3.52    0.85
  -1  11   0    1.93    0.87
  -1  11   0    3.17    1.22
   0  11  -1    3.08    1.08
   0  11  -1    3.12    1.23
   0  11  -1    3.46    0.95
   0 -11   1    2.66    0.56
  -1  11  -1   16.36    1.77
  -1  11  -1   13.52    1.41
   1 -11   1   15.19    1.27
   1 -11   1   13.73    0.95
  -2  11  -1    2.25    1.13
   2 -11   1    1.72    0.41
   2 -11   1    0.83    0.93
  -3  11  -1    2.33    1.43
  -3  11  -1    1.46    1.01
   3 -11   1    1.40    0.64
   3 -11   1    2.36    1.11
   2  10  -1    4.05    1.07
   2  10  -1    4.09    0.99
   2  10  -1    4.27    1.18
  -2 -10   1    5.93    1.02
   1  10  -1   17.46    1.80
   1  10  -1   15.13    1.47
   1  10  -1   19.59    1.76
  -1 -10   1   13.95    1.36
  -1 -10   1   18.61    1.27
   0  10  -1    3.07    0.87
   0  10  -1    2.02    1.00
   0 -10   1    1.77    0.53
   0 -10   1    1.77    0.38
   0 -10   1    2.61    0.84
  -1  10  -1   26.23    1.76
  -1  10  -1   25.42    2.10
   1 -10   1   28.28    1.75
   1 -10   1   25.82    1.91
   1 -10   1   27.60    1.25
  -2  10  -1    1.41    1.02
  -2  10  -1    2.76    0.87
   2 -10   1    1.89    0.97
   2 -10   1    2.04    0.45
   2 -10   1    1.19    0.62
  -3  10  -1    1.52    0.88
  -3  10  -1    0.86    1.07
   3 -10   1    2.37    0.63
   3 -10   1    2.05    0.44
   3 -10   1    1.43    0.93
  -4  10  -1    5.77    1.34
  -4  10  -1    6.45    1.39
  -4  10  -1    8.45    1.18
   4 -10   1    8.31    0.86
   4 -10   1    9.75    2.27
   4 -10   1    9.01    0.88
  -5  10  -1    3.13    1.08
  -5  10  -1    3.85    1.01
   5 -10   1    2.13    1.16
   4   9  -1    1.98    1.11
   3   9  -1   25.85    1.75
   3   9  -1   25.19    3.13
   3   9  -1   25.56    1.86
  -3  -9   1   23.40    1.69
   2   9  -1    2.23    0.92
   2   9  -1    1.95    0.79
   2   9  -1    2.54    0.99
  -2  -9   1    1.91    0.77
   1   9  -1   13.90    1.56
   1   9  -1   15.37    1.42
   1   9  -1   14.49    1.48
  -1  -9   1   14.59    1.39
  -1  -9   1   14.19    0.60
   0   9  -1   -0.76    0.76
   0   9  -1    0.75    0.74
   0  -9   1    0.17    0.45
   0  -9   1    0.16    0.69
  -1   9  -1   15.42    1.47
  -1   9  -1   16.98    1.73
   1  -9   1   14.83    1.16
   1  -9   1   16.19    1.62
   1  -9   1   16.03    1.00
  -2   9  -1   19.32    1.60
  -2   9  -1   19.65    1.87
   2  -9   1   23.36    1.80
   2  -9   1   21.64    1.07
   2  -9   1   23.56    1.27
  -3   9  -1    2.15    1.02
  -3   9  -1    0.08    0.77
   3  -9   1    0.49    0.50
   3  -9   1    0.07    0.87
   3  -9   1    0.48    0.37
  -4   9  -1    0.57    1.01
  -4   9  -1   -0.58    0.81
  -4   9  -1    0.39    0.79
   4  -9   1    0.08    0.42
   4  -9   1    0.71    0.52
   4  -9   1   -0.85    0.90
  -5   9  -1    1.64    1.11
  -5   9  -1    2.07    0.91
  -5   9  -1    4.83    1.15
   5  -9   1    2.53    1.12
   5  -9   1    2.29    0.64
  -6   9  -1    4.81    0.67
  -6   9  -1    3.81    1.20
  -6   9  -1    5.45    1.59
  -6   9  -1    7.80    1.21
   6  -9   1    5.99    1.40
   5   8  -1    8.06    1.13
   5   8  -1    7.58    1.51
  -5  -8   1    7.64    2.32
  -5  -8   1    8.81    1.16
   4   8  -1    0.30    0.72
   4   8  -1    0.42    0.97
   4   8  -1    0.99    0.76
  -4  -8   1    0.51    0.71
   3   8  -1   10.10    1.36
   3   8  -1    9.93    1.16
   3   8  -1   10.30    1.19
  -3  -8   1   10.60    1.21
   2   8  -1   27.71    1.85
   2   8  -1   28.06    1.69
  -2  -8   1   29.88    1.74
   1   8  -1    9.97    1.22
   1   8  -1    9.56    1.28
  -1  -8   1    9.38    0.64
  -1  -8   1    8.16    1.04
   0   8  -1    6.00    1.10
   0   8  -1    6.86    1.11
   0  -8   1    7.73    1.07
   0  -8   1    4.83    0.93
   0  -8   1    5.85    0.70
  -1   8  -1    3.88    1.02
   1  -8   1    4.11    0.57
  -2   8  -1   69.30    3.17
  -2   8  -1   73.30    2.79
   2  -8   1   72.79    2.22
   2  -8   1   69.52    2.33
   2  -8   1   68.41    2.99
  -3   8  -1    0.80    0.96
  -3   8  -1    0.14    0.74
   3  -8   1    1.52    0.91
   3  -8   1    0.38    0.45
   3  -8   1    0.74    0.40
  -4   8  -1    2.27    0.84
  -4   8  -1    1.81    0.91
  -4   8  -1    1.15    0.98
   4  -8   1    2.53    0.55
   4  -8   1    3.12    0.61
   4  -8   1    3.43    1.35
  -5   8  -1   -0.60    0.84
  -5   8  -1    0.70    0.98
  -5   8  -1    0.15    0.46
  -5   8  -1    0.45    0.77
   5  -8   1    0.01    0.55
  -6   8  -1   22.27    1.34
  -6   8  -1   24.52    1.76
  -6   8  -1   23.11    1.99
  -6   8  -1   21.86    2.13
   6  -8   1   21.17    2.10
  -7   8  -1    6.58    1.39
  -7   8  -1    7.65    2.38
  -7   8  -1    9.49    1.50
  -7   8  -1    6.61    1.22
   7  -8   1    6.11    1.46
   5   7  -1   12.13    1.20
  -5  -7   1    9.25    1.57
  -5  -7   1    8.89    1.17
   4   7  -1    2.10    0.97
   4   7  -1    2.90    0.83
   4   7  -1    2.59    0.84
  -4  -7   1    1.72    0.81
   3   7  -1    3.78    0.84
   3   7  -1    1.68    1.05
  -3  -7   1    3.37    0.80
   2   7  -1   44.90    2.05
   2   7  -1   45.31    2.19
   2   7  -1   42.88    2.24
  -2  -7   1   46.92    2.12
   1   7  -1    1.04    0.69
   1   7  -1    0.68    0.64
   1   7  -1   -0.53    0.67
  -1  -7   1    0.71    0.65
  -1  -7   1    0.41    0.33
   0   7  -1   41.07    1.91
   0   7  -1   43.03    2.19
   0  -7   1   36.68    1.92
   0  -7   1   38.50    1.99
   0  -7   1   41.77    1.66
  -1   7  -1    1.21    0.79
  -1   7  -1    1.49    0.74
   1  -7   1    1.53    0.44
   1  -7   1    1.67    0.76
   1  -7   1    1.12    0.70
  -2   7  -1  101.47    3.45
  -2   7  -1  105.09    3.86
   2  -7   1   98.72    2.87
   2  -7   1   95.91    2.92
   2  -7   1   99.79    3.65
  -3   7  -1   26.69    1.74
  -3   7  -1   27.07    2.10
   3  -7   1   25.86    2.17
   3  -7   1   26.55    1.19
   3  -7   1   27.32    1.26
  -4   7  -1   32.25    3.31
  -4   7  -1   32.00    1.42
  -4   7  -1   33.05    1.82
  -4   7  -1   33.63    2.02
   4  -7   1   30.56    1.53
   4  -7   1   33.63    2.35
  -5   7  -1   -0.40    0.89
  -5   7  -1    0.09    0.46
  -5   7  -1   -0.75    0.67
   5  -7   1    0.45    0.60
  -6   7  -1    3.69    1.22
  -6   7  -1    4.38    0.75
  -6   7  -1    5.37    1.07
   6  -7   1    4.46    1.19
  -7   7  -1   28.24    1.72
  -7   7  -1   28.58    2.01
  -7   7  -1   29.80    2.44
   7  -7   1   27.09    2.59
   6   6  -1   29.72    2.23
   6   6  -1   21.32    1.47
  -6  -6   1   17.06    1.70
   5   6  -1   -0.32    0.56
   5   6  -1    0.96    0.94
  -5  -6   1    1.01    0.78
  -5  -6   1    1.41    1.04
   4   6  -1   50.65    3.84
   4   6  -1   55.29    2.32
  -4  -6   1   57.72    2.42
   3   6  -1    2.17    0.76
   3   6  -1    1.62    0.87
   3   6  -1    2.77    0.72
  -3  -6   1    1.17    0.72
   2   6  -1   31.26    1.70
   2   6  -1   31.40    1.76
   2   6  -1   31.57    1.93
  -2  -6   1   32.77    1.71
  -2  -6   1   32.14    1.30
   1   6  -1   17.73    1.49
   1   6  -1   16.71    1.41
   1   6  -1   18.51    1.33
  -1  -6   1   19.67    0.91
  -1  -6   1   16.96    1.27
   0   6  -1   98.66    3.25
   0   6  -1   95.60    3.44
   0  -6   1   99.80    3.30
   0  -6   1  101.16    3.35
  -1   6  -1   39.98    1.90
  -1   6  -1   37.73    2.10
   1  -6   1   40.20    1.88
   1  -6   1   38.04    1.64
   1  -6   1   39.42    1.97
  -2   6  -1   18.99    1.57
  -2   6  -1   18.39    1.37
   2  -6   1   14.74    1.49
   2  -6   1   16.32    0.93
   2  -6   1   16.71    1.45
  -3   6  -1   86.21    3.52
  -3   6  -1   91.29    2.72
  -3   6  -1   92.55    3.29
   3  -6   1   90.94    3.46
   3  -6   1   92.03    2.64
   3  -6   1   90.69    2.78
  -4   6  -1    1.12    0.70
  -4   6  -1    0.87    0.92
  -4   6  -1    2.68    0.57
  -4   6  -1    1.76    0.84
   4  -6   1    2.18    0.61
   4  -6   1    3.02    1.00
  -5   6  -1   30.13    1.55
  -5   6  -1   28.24    1.76
  -5   6  -1   28.46    2.54
   5  -6   1   27.54    2.07
   5  -6   1   28.73    1.73
  -6   6  -1   -1.69    0.71
  -6   6  -1    0.13    0.58
  -6   6  -1   -0.21    0.91
  -7   6  -1   11.01    1.64
  -7   6  -1    9.94    1.13
  -7   6  -1   11.50    1.39
   7  -6   1    8.99    1.52
  -8   6  -1    0.11    0.99
  -8   6  -1    1.36    0.93
   8  -6   1    0.17    1.15
   7   5  -1    0.66    1.14
   7   5  -1    1.57    0.79
  -7  -5   1    0.85    0.91
  -7  -5   1   -0.61    1.06
  -7  -5   1    0.01    1.14
   6   5  -1    2.30    0.78
   6   5  -1    2.65    1.12
  -6  -5   1    1.40    1.20
  -6  -5   1    0.87    1.04
  -6  -5   1    2.20    0.88
  -5  -5   1    0.22    0.73
  -5  -5   1    1.59    1.74
   4   5  -1  102.81    3.80
   4   5  -1  102.24    3.51
   4   5  -1  102.35    3.34
  -4  -5   1  102.01    3.53
   3   5  -1    6.25    1.02
   3   5  -1    8.49    0.96
   3   5  -1    7.23    0.94
  -3  -5   1    7.29    0.93
   2   5  -1   18.56    1.30
   2   5  -1   19.00    1.33
   2   5  -1   19.05    1.46
  -2  -5   1   19.82    1.05
  -2  -5   1   17.57    1.29
   1   5  -1   51.85    2.25
   1   5  -1   52.06    2.07
   1   5  -1   54.68    2.18
  -1  -5   1   54.14    1.72
  -1  -5   1   54.14    2.13
   0   5  -1  139.51    4.27
   0   5  -1  131.17    4.02
   0  -5   1  142.24    4.12
   0  -5   1  137.32    4.13
  -1   5  -1  132.68    4.01
  -1   5  -1  137.15    4.33
   1  -5   1  134.68    4.04
   1  -5   1  133.38    4.17
   1  -5   1  132.32    3.62
  -2   5  -1    3.80    0.89
  -2   5  -1    2.84    0.47
  -2   5  -1    1.81    0.68
   2  -5   1    1.23    0.69
   2  -5   1    3.57    0.50
   2  -5   1    2.06    0.43
  -3   5  -1  110.21    3.74
  -3   5  -1  114.26    4.07
  -3   5  -1  117.83    3.62
  -3   5  -1  116.25    3.32
   3  -5   1  114.93    3.40
   3  -5   1  119.25    4.09
  -4   5  -1   14.68    1.12
  -4   5  -1   16.35    1.35
  -4   5  -1   16.31    1.63
   4  -5   1   16.33    1.26
   4  -5   1   16.93    1.64
  -5   5  -1   33.59    1.72
  -5   5  -1   32.33    2.25
  -5   5  -1   33.04    1.95
   5  -5   1   35.99    2.99
   5  -5   1   32.75    1.90
  -6   5  -1    0.01    0.88
  -6   5  -1    0.20    0.62
  -6   5  -1    0.14    0.96
   6  -5   1    0.77    1.01
  -7   5  -1    3.76    1.21
  -7   5  -1    2.41    0.92
  -7   5  -1    3.09    1.04
   7  -5   1    5.27    1.23
  -8   5  -1    8.81    1.35
  -8   5  -1    5.75    1.22
   8  -5   1    9.50    1.52
   7   4  -1    0.82    0.83
   7   4  -1    1.14    0.74
   7   4  -1    0.25    1.11
  -7  -4   1    0.13    1.22
  -7  -4   1    2.14    1.10
  -7  -4   1    0.51    0.85
   6   4  -1    4.13    0.95
  -6  -4   1    2.53    1.08
  -6  -4   1    3.59    0.99
  -6  -4   1    4.97    1.28
   5   4  -1   23.45    1.58
  -5  -4   1   22.39    1.94
  -5  -4   1   21.61    2.24
  -5  -4   1   24.06    1.68
   4   4  -1   61.07    2.35
   4   4  -1   59.47    2.69
  -4  -4   1   61.67    2.54
  -4  -4   1   64.42    2.84
   3   4  -1  101.44    3.58
   3   4  -1  103.71    3.39
  -3  -4   1  100.86    3.37
   2   4  -1   83.12    2.71
   2   4  -1   81.89    2.78
   2   4  -1   82.26    2.98
  -2  -4   1   83.28    2.55
  -2  -4   1   80.94    2.77
   1   4  -1   75.75    2.68
   1   4  -1   81.86    2.77
   1   4  -1   80.11    2.62
  -1  -4   1   77.58    2.28
  -1  -4   1   80.34    2.64
   0   4  -1   10.10    0.93
   0   4  -1    7.39    0.85
   0  -4   1    8.09    0.86
   0  -4   1    9.30    0.87
  -1   4  -1  581.57   14.22
  -1   4  -1  592.68   14.50
   1  -4   1  579.23   14.23
   1  -4   1  568.21   14.35
   1  -4   1  577.42   13.85
  -2   4  -1    3.72    0.72
  -2   4  -1    3.26    0.49
  -2   4  -1    2.78    0.75
   2  -4   1    3.32    0.77
   2  -4   1    4.93    0.48
   2  -4   1    4.01    0.52
  -3   4  -1    3.63    0.69
  -3   4  -1    4.65    0.99
  -3   4  -1    3.27    0.54
   3  -4   1    5.26    0.99
   3  -4   1    4.52    0.69
  -4   4  -1    5.02    0.86
  -4   4  -1    4.90    0.76
  -4   4  -1    4.30    1.02
   4  -4   1    4.44    1.04
   4  -4   1    3.63    0.74
  -5   4  -1   35.26    1.89
  -5   4  -1   37.26    2.30
  -5   4  -1   33.38    1.90
   5  -4   1   36.95    2.26
   5  -4   1   31.18    1.99
  -6   4  -1   22.31    1.73
  -6   4  -1   23.36    1.79
  -6   4  -1   21.28    1.94
   6  -4   1   21.61    2.03
   6  -4   1   23.32    1.78
  -7   4  -1    0.09    0.87
  -7   4  -1   -0.52    0.80
   7  -4   1    1.47    0.90
  -8   4  -1   11.99    1.52
  -8   4  -1   10.26    1.39
   8  -4   1   10.90    1.47
   8  -4   1   11.79    1.62
   8   3  -1    1.78    0.98
   8   3  -1    1.57    0.82
   8   3  -1    1.85    1.30
  -8  -3   1   -0.09    1.26
  -8  -3   1    0.32    1.08
  -8  -3   1    1.13    0.95
   7   3  -1   15.93    1.56
   7   3  -1   19.74    1.52
   7   3  -1   17.88    1.76
  -7  -3   1   15.50    1.70
  -7  -3   1   15.39    1.86
  -7  -3   1   18.75    1.61
   6   3  -1    6.80    0.97
   6   3  -1    5.75    1.11
  -6  -3   1    5.82    1.20
  -6  -3   1    3.65    1.12
   5   3  -1    1.02    0.90
   5   3  -1    2.21    0.83
  -5  -3   1    0.46    0.73
  -5  -3   1    2.56    1.28
  -5  -3   1    0.85    0.88
   4   3  -1   17.46    1.61
   4   3  -1   16.40    1.36
  -4  -3   1   16.16    1.41
  -4  -3   1   13.23    1.42
   3   3  -1  231.88    6.59
   3   3  -1  233.31    6.28
   3   3  -1  238.77    6.42
  -3  -3   1  229.03    6.61
  -3  -3   1  235.54    6.40
   2   3  -1    6.34    0.87
   2   3  -1    6.48    0.77
  -2  -3   1    7.91    0.80
  -2  -3   1    6.88    0.88
  -2  -3   1    7.42    0.81
   1   3  -1   60.32    2.17
   1   3  -1   64.14    2.06
   1   3  -1   60.10    2.07
  -1  -3   1   61.03    1.86
   0   3  -1   20.10    1.09
   0   3  -1   19.92    1.08
   0  -3   1   20.15    1.05
   0  -3   1   19.93    1.05
  -1   3  -1  326.28    8.13
  -1   3  -1  318.71    8.34
  -1   3  -1  316.42    7.84
   1  -3   1  319.67    7.69
   1  -3   1  334.33    8.30
   1  -3   1  327.76    7.85
   1  -3   1  306.82    8.46
  -2   3  -1  100.78    2.86
  -2   3  -1  102.08    2.96
  -2   3  -1  101.81    3.15
  -2   3  -1  107.01    3.49
   2  -3   1  109.23    3.02
   2  -3   1  105.61    3.46
  -3   3  -1   37.96    1.67
  -3   3  -1   40.73    1.76
  -3   3  -1   42.55    2.14
   3  -3   1   40.19    1.78
   3  -3   1   39.39    2.06
  -4   3  -1  172.73    5.43
  -4   3  -1  166.47    5.00
  -4   3  -1  173.68    5.04
   4  -3   1  171.66    5.44
   4  -3   1  169.85    4.97
   4  -3   1  164.34    5.15
  -5   3  -1    1.88    0.82
  -5   3  -1    1.47    0.92
  -5   3  -1    1.48    0.80
   5  -3   1    2.22    0.98
   5  -3   1    1.04    0.75
  -6   3  -1   48.38    2.51
  -6   3  -1   48.01    2.49
   6  -3   1   43.71    2.62
   6  -3   1   45.80    2.66
  -7   3  -1   -0.70    0.80
  -7   3  -1    1.87    0.95
   7  -3   1   -0.41    0.85
   7  -3   1    1.61    1.02
  -8   3  -1    3.96    1.21
  -8   3  -1    3.61    1.18
   8  -3   1    3.19    1.13
   8  -3   1    1.88    1.07
   8   2  -1    1.14    0.58
   8   2  -1   -0.12    0.94
   8   2  -1    0.39    0.92
   8   2  -1    1.75    0.81
  -8  -2   1   -1.88    0.93
  -8  -2   1    1.74    1.08
  -8  -2   1   -0.85    1.11
   7   2  -1   26.41    2.04
   7   2  -1   28.99    1.80
  -7  -2   1   30.17    2.04
  -7  -2   1   19.82    2.36
  -7  -2   1   29.28    2.22
   6   2  -1    0.88    0.90
   6   2  -1    1.03    0.72
  -6  -2   1    0.57    0.94
  -6  -2   1    1.05    0.88
   5   2  -1   29.92    2.00
   5   2  -1   27.80    1.67
   5   2  -1   29.32    2.03
  -5  -2   1   30.05    2.06
  -5  -2   1   30.59    2.31
  -5  -2   1   28.92    1.84
   4   2  -1    4.73    0.99
   4   2  -1    6.17    1.00
  -4  -2   1    4.11    0.86
  -4  -2   1    5.47    1.03
   3   2  -1  459.98   11.70
   3   2  -1  461.65   11.85
  -3  -2   1  455.41   11.65
  -3  -2   1  468.26   11.89
   2   2  -1  803.45   19.36
   2   2  -1  781.35   19.13
   2   2  -1  793.80   19.21
  -2  -2   1  815.89   19.39
  -2  -2   1  804.13   19.22
   1   2  -1    6.35    0.61
   1   2  -1    5.79    0.60
   1   2  -1    6.97    0.51
  -1  -2   1    5.54    0.52
  -1  -2   1    5.95    0.58
  -1  -2   1    5.24    0.59
   0   2  -1   65.12    1.94
   0   2  -1   62.25    1.95
   0  -2   1   63.93    1.94
   0  -2   1   63.25    1.92
  -1   2  -1    0.23    0.32
  -1   2  -1    1.02    0.42
  -1   2  -1    0.52    0.23
   1  -2   1    0.64    0.40
   1  -2   1    0.12    0.23
   1  -2   1    0.47    0.15
  -2   2  -1  803.98   23.95
  -2   2  -1  942.41   21.89
  -2   2  -1  935.37   22.03
  -2   2  -1 1000.00   22.08
   2  -2   1  869.26   22.37
   2  -2   1  963.10   22.46
   2  -2   1  966.57   22.08
  -3   2  -1    0.40    0.51
  -3   2  -1    0.45    0.65
  -3   2  -1    0.45    0.54
   3  -2   1    0.69    0.52
   3  -2   1    0.26    0.63
   3  -2   1   -0.43    0.45
  -4   2  -1    7.71    1.10
  -4   2  -1    8.71    1.23
  -4   2  -1    8.97    1.09
   4  -2   1    7.23    1.16
   4  -2   1    6.96    0.95
   4  -2   1    8.53    1.14
  -5   2  -1    6.07    1.05
  -5   2  -1    4.83    1.09
   5  -2   1    4.88    0.98
   5  -2   1    4.00    1.03
  -6   2  -1   96.34    3.88
  -6   2  -1   98.81    3.75
   6  -2   1  105.11    5.17
   6  -2   1  104.41    3.91
  -7   2  -1    5.06    1.19
  -7   2  -1    6.78    1.24
   7  -2   1    6.68    1.27
   7  -2   1    7.08    1.26
  -8   2  -1    0.19    1.04
  -8   2  -1   -0.96    0.91
   8  -2   1    0.96    0.93
   8  -2   1   -0.35    0.93
   8   1  -1    3.06    0.57
   8   1  -1    1.97    1.11
   8   1  -1    4.02    0.98
   8   1  -1    3.93    1.47
  -8  -1   1    4.21    1.19
  -8  -1   1    3.22    1.06
   7   1  -1   23.03    1.70
   7   1  -1   19.86    1.88
   7   1  -1   19.22    1.11
  -7  -1   1   15.77    1.77
  -7  -1   1   24.46    1.92
  -7  -1   1   22.58    1.92
   6   1  -1   40.09    2.40
   6   1  -1   35.95    1.97
   6   1  -1   35.25    2.19
  -6  -1   1   35.56    3.41
  -6  -1   1   37.53    2.53
  -6  -1   1   34.59    2.14
   5   1  -1   58.77    2.80
   5   1  -1   60.69    2.49
   5   1  -1   55.55    2.69
  -5  -1   1   60.62    2.83
  -5  -1   1   60.63    3.11
  -5  -1   1   61.78    2.73
   4   1  -1   13.72    1.45
   4   1  -1   15.98    1.45
   4   1  -1   15.48    1.27
  -4  -1   1   15.01    1.38
  -4  -1   1   14.40    1.43
   3   1  -1    0.28    0.63
   3   1  -1    1.82    0.52
   3   1  -1    1.38    0.67
  -3  -1   1    0.67    0.64
  -3  -1   1    0.91    0.61
   2   1  -1  276.14    7.09
   2   1  -1  259.35    7.18
  -2  -1   1  267.95    7.09
  -2  -1   1  278.80    7.04
   1   1  -1   32.43    1.14
   1   1  -1   31.01    1.15
   1   1  -1   32.40    1.20
  -1  -1   1   31.25    1.19
  -1  -1   1   31.11    1.15
  -1  -1   1   31.57    1.14
   0   1  -1    9.37    0.46
   0   1  -1    9.72    0.46
   0  -1   1    8.71    0.42
   0  -1   1    7.63    0.41
  -1   1  -1  214.56    5.55
  -1   1  -1  212.73    5.24
  -1   1  -1  202.42    5.29
   1  -1   1  220.54    5.33
   1  -1   1  204.82    5.22
   1  -1   1  221.06    5.57
  -2   1  -1  794.95   19.12
  -2   1  -1  823.51   18.86
  -2   1  -1  749.92   18.90
   2  -1   1  736.85   19.16
   2  -1   1  793.29   18.97
   2  -1   1  812.65   18.83
  -3   1  -1  120.96    3.79
  -3   1  -1  122.24    3.94
   3  -1   1  115.51    3.69
   3  -1   1  118.64    3.95
   3  -1   1  117.68    3.95
  -4   1  -1   24.61    1.84
  -4   1  -1   24.05    1.66
   4  -1   1   24.28    1.62
   4  -1   1   28.74    1.87
  -5   1  -1  138.31    4.56
  -5   1  -1  130.68    4.73
   5  -1   1  137.93    4.51
   5  -1   1  133.47    4.58
  -6   1  -1   27.91    2.01
  -6   1  -1   27.89    2.30
   6  -1   1   28.32    2.08
   6  -1   1   27.88    2.05
  -7   1  -1   11.33    1.43
  -7   1  -1   14.79    1.74
   7  -1   1   10.88    1.43
   7  -1   1   11.99    1.49
  -8   1  -1    3.00    1.18
  -8   1  -1    0.35    0.97
   8  -1   1    2.84    1.11
   8  -1   1    0.97    1.03
   8   0  -1    2.39    1.10
   8   0  -1    1.52    0.86
   8   0  -1    2.41    1.14
   8   0  -1    2.33    0.34
  -8   0   1    1.51    1.06
  -8   0   1    3.19    1.12
  -8   0   1    1.76    1.10
   7   0  -1   -0.15    0.76
   7   0  -1    1.01    0.43
   7   0  -1    1.57    1.00
  -7   0   1    1.54    0.94
  -7   0   1    1.17    0.96
  -7   0   1    0.40    1.02
   6   0  -1   37.78    2.18
   6   0  -1   37.20    2.03
   6   0  -1   38.83    2.39
   6   0  -1   32.28    1.32
  -6   0   1   31.93    2.14
   5   0  -1    3.78    1.10
   5   0  -1    4.64    0.60
   5   0  -1    3.32    0.86
   5   0  -1    4.81    0.99
  -5   0   1    3.94    1.10
  -5   0   1    4.69    1.05
   4   0  -1   65.15    2.68
   4   0  -1   64.80    2.05
   4   0  -1   66.31    2.56
   4   0  -1   66.13    2.95
  -4   0   1   64.62    3.01
  -4   0   1   69.97    2.80
   3   0  -1   18.13    1.52
   3   0  -1   23.00    1.28
   3   0  -1   21.29    1.38
  -3   0   1   21.00    1.41
   2   0  -1  502.95   12.19
   2   0  -1  487.16   12.35
   2   0  -1  488.12   12.60
  -2   0   1  527.48   12.46
  -2   0   1  513.16   12.22
   1   0  -1  180.85    4.45
   1   0  -1  176.17    4.38
   1   0  -1  186.14    4.67
   1   0  -1  180.12    4.54
  -1   0   1  179.51    4.54
  -1   0   1  185.14    4.66
  -1   0   1  175.37    4.38
  -1   0  -1    5.56    0.53
  -1   0  -1    4.21    0.49
   1   0   1    5.60    0.52
   1   0   1    6.01    0.57
  -2   0  -1   39.56    1.67
  -2   0  -1   40.68    1.96
   2   0   1   37.78    1.81
   2   0   1   39.86    1.73
  -3   0  -1  290.39    8.43
  -3   0  -1  310.19    8.16
   3   0   1  309.30    8.22
   3   0   1  306.97    8.15
  -4   0  -1   11.58    1.25
  -4   0  -1   14.19    1.55
   4   0   1   15.13    1.40
   4   0   1   13.48    1.43
  -5   0  -1   17.17    1.83
  -5   0  -1   19.58    1.74
   5   0   1   20.79    1.70
   5   0   1   16.40    1.57
  -6   0  -1   14.19    1.73
  -6   0  -1   17.80    1.71
   6   0   1   21.08    1.78
   6   0   1   15.78    0.75
   6   0   1   14.71    1.55
  -7   0  -1   98.04    3.95
  -7   0  -1  103.59    4.26
  -7   0  -1  101.37    3.70
   7   0   1  102.63    4.04
   7   0   1   98.50    3.82
   7   0   1  106.85    3.88
  -8   0  -1    1.49    1.78
  -8   0  -1    0.43    1.05
  -8   0  -1   -1.04    0.83
   8   0   1    0.86    1.03
   8  -1  -1   14.35    1.73
   8  -1  -1   13.87    1.47
   8  -1  -1   12.22    1.55
  -8   1   1   10.91    1.47
  -8   1   1   12.40    1.58
   7  -1  -1    0.89    0.81
   7  -1  -1    1.00    0.95
   7  -1  -1    1.35    1.04
  -7   1   1    1.60    1.00
  -7   1   1    2.18    1.06
   6  -1  -1   88.00    3.37
   6  -1  -1   79.18    2.25
   6  -1  -1   90.95    3.79
   6  -1  -1   85.40    4.59
  -6   1   1   89.83    3.72
  -6   1   1   78.31    3.38
   5  -1  -1   23.21    1.69
   5  -1  -1   20.07    0.91
   5  -1  -1   22.15    1.66
  -5   1   1   22.70    1.77
  -5   1   1   23.84    1.94
   4  -1  -1  250.30    6.44
   4  -1  -1  258.54    7.23
   4  -1  -1  263.15    7.29
  -4   1   1  261.62    7.58
  -4   1   1  272.23    7.38
  -4   1   1  272.39    7.27
   3  -1  -1   13.82    0.72
   3  -1  -1   13.94    1.16
   3  -1  -1   13.87    1.14
  -3   1   1   13.66    1.10
  -3   1   1   13.52    1.31
  -3   1   1   14.12    1.15
   2  -1  -1  209.45    5.44
   2  -1  -1  212.71    5.47
   2  -1  -1  211.07    5.13
  -2   1   1  205.36    5.43
  -2   1   1  190.43    5.53
  -2   1   1  208.06    5.43
   1  -1  -1  557.11   13.11
   1  -1  -1  557.18   13.22
  -1   1   1  563.98   13.22
  -1   1   1  537.01   13.11
   0  -1  -1  244.69    5.68
   0  -1  -1  242.98    5.76
   0   1   1  239.80    5.67
   0   1   1  237.73    5.63
   0   1   1  233.18    5.80
  -1  -1  -1  431.25   10.39
  -1  -1  -1  438.63   10.16
  -1  -1  -1  413.70   10.65
   1   1   1  420.96   10.38
  -2  -1  -1   20.23    1.99
  -2  -1  -1   18.37    1.01
  -2  -1  -1   14.97    1.38
   2   1   1   16.56    1.14
  -3  -1  -1  259.06    7.04
  -3  -1  -1  250.24    6.75
  -3  -1  -1  251.26    7.47
   3   1   1  251.51    6.99
  -4  -1  -1   25.69    1.81
  -4  -1  -1   24.29    2.07
  -4  -1  -1   26.56    1.58
   4   1   1   25.56    1.73
  -5  -1  -1  107.39    4.29
  -5  -1  -1   97.84    3.55
  -5  -1  -1   99.84    3.78
   5   1   1   99.31    3.69
   5   1   1  106.06    3.84
  -6  -1  -1   -0.57    0.86
  -6  -1  -1    0.28    0.76
   6   1   1    0.92    0.81
   6   1   1    0.65    0.88
   6   1   1    0.02    0.88
  -7  -1  -1    4.56    1.27
  -7  -1  -1    3.72    1.14
  -7  -1  -1    3.39    1.01
   7   1   1    2.26    1.04
   7   1   1    3.25    1.12
   7   1   1    2.14    0.90
  -8  -1  -1   13.50    1.45
  -8  -1  -1   17.69    1.79
  -8  -1  -1    8.41    1.51
   8   1   1   11.15    0.68
   8   1   1   13.11    1.55
   8   1   1   11.10    1.51
   9  -2  -1    4.49    1.32
   9  -2  -1    2.76    1.43
   9  -2  -1    2.88    1.03
  -9   2   1    2.67    1.14
  -9   2   1    4.48    1.30
   8  -2  -1   42.57    2.75
   8  -2  -1   43.56    2.44
   8  -2  -1   42.97    2.54
  -8   2   1   39.33    2.54
  -8   2   1   41.95    2.47
   7  -2  -1   43.90    2.78
   7  -2  -1   44.36    2.46
   7  -2  -1   40.43    2.45
  -7   2   1   45.27    2.55
  -7   2   1   40.60    2.42
   6  -2  -1    6.38    1.17
  -6   2   1    7.90    1.25
  -6   2   1    5.98    1.15
   5  -2  -1   68.21    2.86
   5  -2  -1   71.36    2.97
  -5   2   1   76.54    2.99
  -5   2   1   64.80    2.92
  -5   2   1   69.19    2.90
   4  -2  -1  104.71    3.60
   4  -2  -1  101.87    3.43
  -4   2   1  102.76    3.47
  -4   2   1  100.54    3.58
  -4   2   1  101.28    3.53
   3  -2  -1  134.30    4.13
   3  -2  -1  137.23    3.99
  -3   2   1  131.07    4.07
  -3   2   1  142.65    4.04
  -3   2   1  121.04    4.06
   2  -2  -1    1.09    0.41
   2  -2  -1    0.65    0.46
  -2   2   1    1.60    0.35
  -2   2   1    0.72    0.47
  -2   2   1    1.08    0.44
   1  -2  -1  347.89    8.40
   1  -2  -1  332.87    8.11
  -1   2   1  326.05    7.75
  -1   2   1  326.82    8.36
   0  -2  -1    1.08    0.28
   0   2   1    0.69    0.38
   0   2   1    0.83    0.25
  -1  -2  -1  385.93    9.23
   1   2   1  380.74    9.55
   1   2   1  371.14    9.22
   1   2   1  391.33    9.09
  -2  -2  -1   28.75    1.89
  -2  -2  -1   28.75    1.26
  -2  -2  -1   27.78    1.51
   2   2   1   28.92    1.51
   2   2   1   27.06    1.30
  -3  -2  -1   96.88    3.08
  -3  -2  -1   95.18    3.38
  -3  -2  -1   98.97    3.91
   3   2   1   91.30    3.26
   3   2   1   95.73    3.36
  -4  -2  -1   29.93    1.70
  -4  -2  -1   32.32    2.33
  -4  -2  -1   33.16    2.02
   4   2   1   31.96    1.85
   4   2   1   31.76    2.00
  -5  -2  -1    9.40    1.11
  -5  -2  -1    8.17    1.29
  -5  -2  -1    7.90    1.54
   5   2   1    7.45    1.27
   5   2   1   10.59    1.27
  -6  -2  -1    0.68    0.92
  -6  -2  -1    1.94    0.81
   6   2   1    1.39    0.94
   6   2   1    1.96    0.93
   6   2   1   -0.18    0.80
  -7  -2  -1    0.54    1.00
  -7  -2  -1    0.92    1.02
  -7  -2  -1    0.78    0.86
   7   2   1    0.16    0.83
   7   2   1    0.54    0.81
   7   2   1    0.35    0.98
  -8  -2  -1   27.42    1.92
  -8  -2  -1   27.76    2.49
  -8  -2  -1   28.56    2.60
   8   2   1   22.34    1.96
   8   2   1   16.96    1.89
   8   2   1   29.96    2.26
   9  -3  -1    1.37    1.22
   9  -3  -1    1.28    1.03
   9  -3  -1    0.62    1.65
  -9   3   1    1.82    1.82
  -9   3   1    3.34    1.15
   8  -3  -1    4.52    1.13
   8  -3  -1    1.52    1.17
  -8   3   1    3.13    1.07
  -8   3   1    2.99    1.07
   7  -3  -1    0.75    0.91
   7  -3  -1    0.52    1.02
   7  -3  -1    0.48    0.86
  -7   3   1    0.17    0.82
  -7   3   1    0.81    0.79
   6  -3  -1   73.50    3.05
   6  -3  -1   75.36    3.28
  -6   3   1   73.61    3.20
  -6   3   1   75.86    3.12
  -6   3   1   78.54    3.20
   5  -3  -1    3.04    0.91
   5  -3  -1    3.03    0.96
  -5   3   1    3.84    0.82
  -5   3   1    2.24    0.87
  -5   3   1    3.78    0.92
   4  -3  -1    0.09    0.71
  -4   3   1    1.05    0.78
  -4   3   1    3.13    0.68
  -4   3   1    1.23    0.67
   3  -3  -1  505.72   13.05
  -3   3   1  510.80   12.51
  -3   3   1  520.01   12.81
  -3   3   1  519.89   13.07
   2  -3  -1    1.07    0.33
   2  -3  -1    0.92    0.55
  -2   3   1    1.25    0.57
  -2   3   1    1.45    0.26
   1  -3  -1    1.05    0.14
   1  -3  -1    1.81    0.56
   1  -3  -1    0.79    0.45
  -1   3   1    0.22    0.46
   0  -3  -1   39.85    1.66
   0  -3  -1   42.94    1.48
   0   3   1   40.16    1.44
  -1  -3  -1  204.90    5.26
   1   3   1  199.76    5.25
   1   3   1  208.46    5.58
   1   3   1  204.03    5.61
  -2  -3  -1   11.99    1.37
   2   3   1   11.25    0.91
   2   3   1   12.65    0.76
   2   3   1   11.68    1.15
  -3  -3  -1    6.69    1.04
  -3  -3  -1    7.19    1.29
  -3  -3  -1    8.10    0.87
   3   3   1    5.55    0.98
   3   3   1    7.23    0.82
  -4  -3  -1   90.69    3.15
  -4  -3  -1   95.37    3.55
  -4  -3  -1   99.84    4.07
   4   3   1   93.37    3.50
   4   3   1   94.37    3.23
  -5  -3  -1    5.32    1.39
  -5  -3  -1    7.03    0.99
  -5  -3  -1    3.51    1.24
   5   3   1    4.85    0.94
   5   3   1    6.29    1.20
  -6  -3  -1   26.59    2.10
  -6  -3  -1   25.64    1.74
   6   3   1   30.49    1.93
   6   3   1   26.37    2.09
  -7  -3  -1    2.29    1.11
  -7  -3  -1    1.30    1.48
  -7  -3  -1    1.65    0.83
   7   3   1    1.29    0.88
   7   3   1    0.62    1.22
   7   3   1    2.27    0.94
   8  -4  -1    0.80    0.97
   8  -4  -1    1.38    1.15
  -8   4   1   -0.33    0.90
  -8   4   1   -0.35    0.88
   7  -4  -1   42.17    2.54
  -7   4   1   41.80    2.55
  -7   4   1   43.69    2.46
   6  -4  -1    3.81    1.12
  -6   4   1    3.69    1.12
  -6   4   1    6.59    1.19
  -6   4   1    5.27    0.93
   5  -4  -1    4.09    1.03
  -5   4   1    4.57    0.80
  -5   4   1    2.38    0.95
  -5   4   1    3.17    0.89
   4  -4  -1   13.60    1.44
  -4   4   1   14.41    1.47
  -4   4   1   14.96    1.29
  -4   4   1   12.30    1.03
   3  -4  -1  237.91    6.93
   3  -4  -1  253.41    6.41
  -3   4   1  248.33    7.00
  -3   4   1  248.05    6.67
  -3   4   1  243.60    6.14
   2  -4  -1  156.49    4.68
   2  -4  -1  154.17    4.20
   2  -4  -1  153.39    3.88
  -2   4   1  153.69    4.74
  -2   4   1  156.06    4.44
  -2   4   1  151.25    3.79
   1  -4  -1   36.36    1.09
   1  -4  -1   36.23    1.50
   1  -4  -1   35.93    1.76
  -1   4   1   42.58    1.90
  -1   4   1   35.80    1.54
   0  -4  -1   29.12    1.54
   0   4   1   32.20    1.68
   0   4   1   31.24    1.35
  -1  -4  -1  101.02    3.01
   1   4   1  101.11    3.32
   1   4   1  102.75    3.36
   1   4   1  101.72    3.01
  -2  -4  -1  477.71   11.74
   2   4   1  471.77   11.75
   2   4   1  481.44   12.23
  -3  -4  -1    0.59    0.57
  -3  -4  -1    0.05    0.86
   3   4   1   -0.92    0.66
   3   4   1   -0.25    0.36
   3   4   1   -0.50    0.51
  -4  -4  -1   25.58    2.21
  -4  -4  -1   20.79    1.42
   4   4   1   15.04    2.45
   4   4   1   19.76    1.26
  -5  -4  -1   10.33    1.14
  -5  -4  -1   11.07    1.61
  -5  -4  -1   10.14    1.37
   5   4   1   11.32    1.11
  -6  -4  -1   11.74    1.52
  -6  -4  -1   12.75    1.42
  -6  -4  -1   14.09    1.80
   6   4   1   13.27    1.35
   6   4   1   16.91    1.76
  -7  -4  -1    2.56    1.28
  -7  -4  -1    1.76    1.16
  -7  -4  -1    2.27    0.85
   7   4   1    2.41    1.08
   7   4   1    2.74    1.30
   7   4   1    1.42    1.23
   8  -5  -1   -1.23    0.97
   8  -5  -1    0.01    1.08
  -8   5   1    0.28    0.81
  -8   5   1    0.61    0.98
  -8   5   1   -0.40    1.00
  -7   5   1   18.32    1.71
  -7   5   1   15.92    1.52
  -7   5   1   14.04    1.66
   6  -5  -1   16.98    1.77
  -6   5   1   13.85    1.45
  -6   5   1   13.97    1.30
  -6   5   1   14.13    2.37
   5  -5  -1   28.96    2.10
  -5   5   1   29.20    1.48
  -5   5   1   29.94    1.83
  -5   5   1   29.46    2.09
   4  -5  -1   23.05    1.80
  -4   5   1   21.62    1.53
  -4   5   1   22.10    1.74
  -4   5   1   21.72    1.10
   3  -5  -1   17.15    0.99
   3  -5  -1   17.72    1.50
   3  -5  -1   17.31    1.08
  -3   5   1   17.98    1.59
  -3   5   1   17.67    0.80
  -3   5   1   16.60    1.35
   2  -5  -1  159.74    4.00
   2  -5  -1  166.87    4.46
   2  -5  -1  164.40    4.99
  -2   5   1  156.77    4.65
  -2   5   1  158.84    5.04
   1  -5  -1    9.05    0.55
   1  -5  -1   11.94    1.20
   1  -5  -1   10.33    0.97
  -1   5   1   10.68    0.95
  -1   5   1    9.95    1.12
   0  -5  -1    9.08    0.89
   0   5   1   10.17    1.14
   0   5   1   10.65    0.97
  -1  -5  -1   17.88    1.16
   1   5   1   18.06    1.14
   1   5   1   18.98    1.43
   1   5   1   17.47    1.37
  -2  -5  -1  129.50    3.81
   2   5   1  127.28    4.11
   2   5   1  128.34    3.81
   2   5   1  132.05    4.26
  -3  -5  -1    1.27    0.60
  -3  -5  -1    1.63    1.01
   3   5   1    0.70    0.78
   3   5   1    2.12    0.74
   3   5   1    1.52    0.64
  -4  -5  -1    0.14    0.59
  -4  -5  -1    0.78    1.02
   4   5   1   -0.42    0.39
  -5  -5  -1   14.50    1.37
   5   5   1   13.83    1.13
  -6  -5  -1    5.38    1.44
  -6  -5  -1    4.28    0.95
   6   5   1    6.82    2.30
   6   5   1    6.01    0.87
   8  -6  -1    0.05    1.13
   8  -6  -1   -1.66    1.92
  -8   6   1    2.72    1.15
  -8   6   1   -0.15    0.94
  -8   6   1   -0.10    0.74
   7  -6  -1    2.46    1.14
  -7   6   1    4.00    0.78
  -7   6   1    5.73    1.14
  -7   6   1    3.39    1.18
  -6   6   1   30.29    2.20
  -6   6   1   31.89    1.99
  -6   6   1   31.80    1.56
   5  -6  -1    1.15    0.93
  -5   6   1   -0.21    0.41
  -5   6   1    1.96    0.83
   4  -6  -1    1.55    0.61
   4  -6  -1    3.41    0.95
  -4   6   1    1.39    0.92
  -4   6   1    1.63    0.77
  -4   6   1    2.10    0.49
  -4   6   1    3.11    0.90
   3  -6  -1    2.41    0.91
   3  -6  -1    1.78    0.61
   3  -6  -1    2.71    0.44
  -3   6   1    1.18    0.86
  -3   6   1    3.11    0.82
   2  -6  -1  154.11    3.93
   2  -6  -1  165.06    5.06
   2  -6  -1  157.09    4.45
  -2   6   1  162.18    4.69
  -2   6   1  157.73    5.11
   1  -6  -1   27.18    1.46
   1  -6  -1   25.64    0.98
   1  -6  -1   24.59    1.67
  -1   6   1   26.93    1.46
  -1   6   1   26.71    1.80
   0  -6  -1   20.23    1.32
   0   6   1   20.10    1.56
   0   6   1   22.12    1.30
  -1  -6  -1   22.32    1.34
   1   6   1   21.46    1.58
   1   6   1   21.32    1.64
   1   6   1   19.56    1.28
  -2  -6  -1    4.98    0.78
   2   6   1    5.33    0.94
   2   6   1    5.92    0.79
   2   6   1    4.15    1.15
  -3  -6  -1   81.94    3.54
  -3  -6  -1   72.34    2.67
   3   6   1   74.17    2.95
   3   6   1   79.58    2.76
  -4  -6  -1    1.23    0.66
  -4  -6  -1    2.46    1.14
   4   6   1    0.58    0.72
  -5  -6  -1    1.45    1.09
  -5  -6  -1    1.22    0.70
   5   6   1    1.35    1.00
  -6  -6  -1    0.44    0.74
  -6  -6  -1   -0.68    1.14
   6   6   1    0.82    0.79
   6   6   1    1.27    1.11
  -8   7   1    3.12    1.10
   7  -7  -1   -0.50    1.02
  -7   7   1    0.51    0.56
  -7   7   1   -0.72    0.82
  -7   7   1    1.42    1.08
   6  -7  -1   13.73    1.63
  -6   7   1   12.42    1.38
  -6   7   1   13.41    1.03
  -6   7   1   14.06    1.67
  -5   7   1    1.30    0.87
  -5   7   1    0.99    0.81
  -5   7   1    0.77    0.39
  -5   7   1    0.08    0.88
   4  -7  -1   29.51    1.48
  -4   7   1   31.93    1.98
  -4   7   1   32.96    2.19
  -4   7   1   30.61    2.20
   3  -7  -1    1.25    0.34
   3  -7  -1    1.88    0.95
   3  -7  -1    1.70    0.61
  -3   7   1    2.24    0.82
  -3   7   1    2.39    0.96
   2  -7  -1   31.10    1.02
   2  -7  -1   32.29    1.98
   2  -7  -1   31.05    1.53
  -2   7   1   30.12    1.74
  -2   7   1   35.28    2.10
   1  -7  -1   88.10    3.26
   1  -7  -1   87.04    2.94
   1  -7  -1   84.79    2.37
  -1   7   1   82.94    3.34
  -1   7   1   84.38    2.92
   0  -7  -1    0.04    0.56
   0   7   1   -0.64    0.52
   0   7   1    0.65    0.76
  -1  -7  -1    5.44    0.87
   1   7   1    6.62    1.10
   1   7   1    7.38    0.88
   1   7   1    5.96    1.03
  -2  -7  -1    0.19    0.78
  -2  -7  -1    0.72    0.56
   2   7   1    0.98    0.60
   2   7   1    0.89    0.78
  -3  -7  -1   42.87    1.93
   3   7   1   37.42    2.14
   3   7   1   41.61    1.94
  -4  -7  -1   10.29    1.09
   4   7   1   12.41    1.44
   4   7   1    8.68    1.38
  -5  -7  -1    0.79    0.69
  -5  -7  -1    1.24    1.22
   5   7   1    1.07    1.01
   5   7   1    1.78    0.81
   7  -8  -1    0.07    1.14
  -7   8   1   -0.31    0.88
  -7   8   1   -0.31    0.46
  -7   8   1    0.41    1.07
  -7   8   1    1.64    1.12
   6  -8  -1    2.96    1.24
  -6   8   1    5.60    1.09
  -6   8   1    5.10    1.24
  -6   8   1    5.22    0.59
  -6   8   1    4.39    1.13
  -5   8   1   19.05    1.74
  -5   8   1   11.12    1.57
  -5   8   1   10.51    1.29
   4  -8  -1   11.30    1.05
  -4   8   1   11.78    1.30
  -4   8   1    9.41    1.23
  -4   8   1   14.25    1.61
   3  -8  -1    7.68    1.22
   3  -8  -1    8.77    0.93
  -3   8   1    7.44    1.10
  -3   8   1    7.48    1.25
   2  -8  -1    7.49    1.17
   2  -8  -1    6.77    0.89
   2  -8  -1    5.85    0.45
  -2   8   1    8.04    1.29
  -2   8   1    5.51    1.08
   1  -8  -1   57.53    1.73
   1  -8  -1   56.76    2.29
   1  -8  -1   55.17    2.56
  -1   8   1   54.52    2.29
   0  -8  -1    1.30    0.69
   0   8   1    0.47    0.60
   0   8   1    0.33    0.74
  -1  -8  -1    6.58    0.92
  -1  -8  -1    7.03    1.07
   1   8   1    4.86    1.32
   1   8   1    6.69    0.91
  -2  -8  -1    1.39    0.69
  -2  -8  -1    0.71    0.83
   2   8   1    0.57    0.81
   2   8   1    0.15    0.68
   2   8   1    1.07    0.64
  -3  -8  -1   23.75    2.17
  -3  -8  -1   19.46    1.44
   3   8   1   20.05    1.79
   3   8   1   17.81    1.67
   3   8   1   20.50    1.48
  -4  -8  -1    4.91    0.91
  -4  -8  -1    6.26    1.32
   4   8   1    4.65    1.05
   4   8   1    8.13    1.36
   6  -9  -1   -0.59    1.04
  -6   9   1    0.49    1.01
  -6   9   1   -1.46    0.99
  -6   9   1    0.27    0.86
   5  -9  -1    9.37    1.51
  -5   9   1    9.79    1.33
  -5   9   1    6.75    1.18
  -5   9   1   10.42    1.55
   4  -9  -1    0.45    0.60
   4  -9  -1   -0.28    0.90
  -4   9   1   -0.66    0.83
  -4   9   1   -0.96    0.86
   3  -9  -1   33.52    1.61
   3  -9  -1   33.02    2.14
  -3   9   1   36.16    1.94
  -3   9   1   31.77    2.25
   2  -9  -1    2.22    0.25
   2  -9  -1    1.41    0.73
   2  -9  -1    3.20    1.00
  -2   9   1    2.01    1.00
  -2   9   1   -0.14    0.68
   1  -9  -1   11.41    0.73
   1  -9  -1   10.01    1.17
  -1   9   1   10.87    1.44
  -1   9   1   10.54    1.11
   0  -9  -1    7.69    0.79
   0  -9  -1    7.64    0.95
   0   9   1    7.54    0.97
   0   9   1    8.21    1.28
  -1  -9  -1    8.51    1.14
  -1  -9  -1    5.34    1.04
   1   9   1    5.46    1.16
   1   9   1    4.60    0.88
   1   9   1    5.59    1.18
  -2  -9  -1    4.05    1.18
  -2  -9  -1    2.31    0.75
   2   9   1    3.31    0.77
   2   9   1    2.82    1.12
   2   9   1    2.40    0.92
  -3  -9  -1    0.56    0.71
   3   9   1    0.44    0.71
   3   9   1    0.77    1.01
   3   9   1   -0.19    0.87
   5 -10  -1    0.43    0.63
   5 -10  -1   -1.20    1.03
  -5  10   1   -0.35    1.03
  -5  10   1   -0.58    0.92
  -5  10   1    0.79    0.97
   4 -10  -1    1.30    1.05
   4 -10  -1    1.83    0.72
  -4  10   1    3.53    1.18
  -4  10   1    1.83    0.95
   3 -10  -1   11.78    1.29
   3 -10  -1    9.83    1.40
  -3  10   1    8.97    1.46
  -3  10   1   11.48    1.29
   2 -10  -1    6.15    0.94
   2 -10  -1    7.19    0.79
   2 -10  -1    5.74    1.21
  -2  10   1    7.35    1.30
  -2  10   1    6.87    1.04
   1 -10  -1    2.64    0.58
   1 -10  -1    1.99    0.81
  -1  10   1    3.65    1.14
  -1  10   1    2.27    0.80
   0 -10  -1    8.30    0.82
   0 -10  -1    9.03    1.00
   0  10   1   10.79    1.14
   0  10   1    8.76    1.39
  -1 -10  -1    2.03    0.87
  -1 -10  -1    0.99    0.73
   1  10   1    1.46    0.73
   1  10   1    1.19    1.00
   1  10   1    1.40    0.98
   2  10   1    4.23    2.05
   2 -11  -1    6.49    0.94
  -2  11   1    5.88    1.11
   1 -11  -1   -0.29    0.71
  -1  11   1    0.37    1.03
   0  11  -2    1.82    1.05
   0  11  -2    0.62    0.91
   0 -11   2    0.40    0.38
   0 -11   2    0.47    0.52
  -1  11  -2    0.38    1.00
   1 -11   2    0.95    0.65
   1 -11   2    0.87    0.48
   1 -11   2    0.91    0.88
  -2  11  -2    0.00    0.86
  -2  11  -2    0.07    1.11
   2 -11   2    0.37    0.55
   2 -11   2   -0.42    0.39
  -3  11  -2    8.11    1.56
  -3  11  -2    3.69    1.09
   3 -11   2    7.34    0.75
   3 -11   2    6.13    1.25
   3 -11   2    7.77    0.71
   2  10  -2    1.41    1.11
   2  10  -2    1.18    0.87
   2  10  -2    2.18    0.86
  -2 -10   2    1.48    0.85
   1  10  -2    9.66    1.16
   1  10  -2    9.62    1.31
   1  10  -2    9.94    1.35
  -1 -10   2   11.00    1.13
  -1 -10   2   11.35    1.24
   0  10  -2   12.06    1.36
   0  10  -2   10.33    1.24
   0  10  -2   13.25    1.51
   0 -10   2   14.14    1.09
   0 -10   2   13.25    1.34
  -1  10  -2    4.50    1.16
  -1  10  -2    3.83    0.94
   1 -10   2    4.73    1.01
   1 -10   2    4.43    0.63
   1 -10   2    5.06    0.82
  -2  10  -2    2.81    0.93
  -2  10  -2    0.61    0.97
   2 -10   2    0.10    0.80
   2 -10   2    1.52    0.47
   2 -10   2    1.28    0.58
  -3  10  -2    1.47    1.08
  -3  10  -2    0.39    0.84
   3 -10   2   -0.58    0.94
   3 -10   2    1.74    0.54
   3 -10   2    1.18    0.47
  -4  10  -2   27.32    1.78
  -4  10  -2   23.46    2.14
   4 -10   2   19.07    1.21
  -5  10  -2    3.30    1.13
  -5  10  -2    3.34    1.00
   5 -10   2    3.21    0.70
   5 -10   2    2.03    1.25
   4   9  -2    0.94    1.07
   4   9  -2    1.20    0.91
  -4  -9   2    1.80    0.90
   3   9  -2    4.90    0.98
   3   9  -2    3.40    0.90
   3   9  -2    1.95    1.00
   2   9  -2    3.04    1.01
   2   9  -2    3.62    0.95
   2   9  -2    1.69    0.82
  -2  -9   2    2.15    0.82
   1   9  -2    1.65    0.89
   1   9  -2    1.61    0.73
  -1  -9   2    1.05    0.41
  -1  -9   2    0.82    0.76
  -1  -9   2    0.61    0.56
   0   9  -2   27.86    2.46
   0   9  -2   29.15    1.84
   0  -9   2   28.47    1.81
   0  -9   2   27.84    1.83
   0  -9   2   28.38    1.46
  -1   9  -2    0.66    0.78
  -1   9  -2    2.24    1.00
   1  -9   2    1.26    0.78
   1  -9   2    0.19    0.56
   1  -9   2    1.22    0.50
  -2   9  -2   13.54    1.36
  -2   9  -2   13.13    1.63
   2  -9   2   13.46    1.43
   2  -9   2   13.77    0.96
   2  -9   2   11.90    0.96
  -3   9  -2   -0.36    0.93
  -3   9  -2   -0.03    0.79
   3  -9   2    1.22    0.93
   3  -9   2    0.95    0.44
   3  -9   2    1.08    0.46
  -4   9  -2   31.67    2.43
  -4   9  -2   38.39    2.03
  -4   9  -2   33.20    2.15
   4  -9   2   31.60    2.22
   4  -9   2   36.34    1.59
  -5   9  -2    9.75    1.60
  -5   9  -2   10.47    1.37
  -5   9  -2   10.75    1.25
   5  -9   2    9.75    0.98
   5  -9   2   11.66    1.59
  -6   9  -2    1.17    1.04
  -6   9  -2   -0.55    0.81
  -6   9  -2    1.62    0.61
   6  -9   2   -0.47    0.66
   6  -9   2   -1.45    1.06
   5   8  -2   -0.60    1.04
   5   8  -2    0.05    0.63
  -5  -8   2    0.14    0.84
   4   8  -2   12.48    1.48
   4   8  -2   10.18    1.23
   4   8  -2   12.25    1.30
  -4  -8   2   11.88    1.29
   3   8  -2    8.46    1.11
   3   8  -2   11.76    1.25
   3   8  -2   11.56    1.39
  -3  -8   2    9.64    1.18
   2   8  -2   46.21    2.29
   2   8  -2   49.11    2.23
   2   8  -2   47.52    2.49
  -2  -8   2   46.18    1.66
   1   8  -2    9.03    1.09
   1   8  -2   11.95    1.35
   1   8  -2    8.80    1.20
  -1  -8   2    9.30    1.11
  -1  -8   2   10.93    0.84
   0   8  -2   43.37    2.13
   0   8  -2   43.63    2.37
   0  -8   2   44.96    2.18
   0  -8   2   40.54    2.08
   0  -8   2   42.59    1.78
  -1   8  -2   10.10    1.14
  -1   8  -2    7.45    1.24
   1  -8   2    7.53    1.07
   1  -8   2    9.52    0.92
   1  -8   2    8.16    1.11
  -2   8  -2   38.58    2.38
  -2   8  -2   36.81    1.99
   2  -8   2   35.65    1.41
   2  -8   2   36.51    2.11
   2  -8   2   33.35    1.48
  -3   8  -2    7.33    1.13
  -3   8  -2    7.59    1.33
   3  -8   2    7.73    1.22
   3  -8   2    7.39    0.66
   3  -8   2    6.45    0.72
  -4   8  -2    8.96    1.35
  -4   8  -2   11.15    1.32
  -4   8  -2    9.83    0.98
  -4   8  -2    9.92    1.50
   4  -8   2   10.85    1.46
   4  -8   2    9.45    0.92
  -5   8  -2   10.43    1.53
  -5   8  -2   16.04    1.79
  -5   8  -2   15.92    1.17
  -5   8  -2   14.75    1.43
   5  -8   2   14.18    1.26
  -6   8  -2    1.22    0.89
  -6   8  -2    0.90    1.15
  -6   8  -2    3.29    1.12
  -6   8  -2    1.38    0.63
   6  -8   2    1.12    0.71
   6  -8   2    0.53    1.11
  -7   8  -2    2.50    1.01
  -7   8  -2    0.44    1.31
  -7   8  -2    2.17    0.78
  -7   8  -2    0.41    1.04
   7  -8   2    2.32    1.25
   6   7  -2   13.44    1.36
   6   7  -2   11.25    1.78
  -6  -7   2   13.65    1.47
  -6  -7   2   13.62    1.80
   5   7  -2   -0.58    0.94
   5   7  -2    1.55    0.69
  -5  -7   2    2.14    0.91
   4   7  -2    3.06    0.78
   4   7  -2    5.07    1.00
   4   7  -2    4.57    1.04
  -4  -7   2    4.10    0.92
   3   7  -2    1.18    0.88
   3   7  -2   -0.43    0.65
   3   7  -2    0.40    0.58
  -3  -7   2    0.71    0.72
   2   7  -2  121.92    3.93
   2   7  -2  113.70    4.62
   2   7  -2  131.08    4.08
  -2  -7   2  123.95    3.97
  -2  -7   2  123.21    3.48
   1   7  -2    6.26    0.94
   1   7  -2    9.20    1.12
   1   7  -2    8.70    1.11
  -1  -7   2    7.39    1.05
  -1  -7   2    7.93    0.79
   0   7  -2    0.28    0.65
   0   7  -2    1.54    0.78
   0  -7   2    0.87    0.72
   0  -7   2    0.42    0.46
   0  -7   2    0.30    0.60
  -1   7  -2   22.85    1.76
  -1   7  -2   22.16    1.58
   1  -7   2   21.82    1.19
   1  -7   2   20.18    1.49
   1  -7   2   20.11    1.57
  -2   7  -2   21.06    1.77
  -2   7  -2   18.73    1.46
   2  -7   2   18.61    0.95
   2  -7   2   19.24    1.11
   2  -7   2   17.20    1.62
  -3   7  -2   26.16    2.03
   3  -7   2   24.34    2.20
   3  -7   2   22.49    1.43
   3  -7   2   26.78    1.33
  -4   7  -2    8.59    1.05
  -4   7  -2    5.87    0.74
  -4   7  -2    5.72    1.43
  -4   7  -2    4.70    1.15
   4  -7   2    7.57    1.28
   4  -7   2    5.47    0.77
  -5   7  -2   23.69    2.13
  -5   7  -2   23.87    1.42
   5  -7   2   25.63    1.60
  -6   7  -2    0.77    0.77
  -6   7  -2    2.10    0.90
  -6   7  -2    0.23    0.60
  -6   7  -2    0.08    1.02
   6  -7   2    1.30    0.72
   6  -7   2    2.56    1.01
  -7   7  -2    2.76    0.86
  -7   7  -2    6.86    1.35
  -7   7  -2    5.25    1.38
  -7   7  -2    6.03    1.10
   7  -7   2    2.22    1.49
   6   6  -2   23.15    2.33
   6   6  -2   21.66    1.42
  -6  -6   2   27.64    2.83
  -6  -6   2   26.13    1.89
   5   6  -2    5.00    1.16
   5   6  -2    8.88    0.97
  -5  -6   2    6.92    1.09
   4   6  -2    0.76    0.61
   4   6  -2   -0.76    0.66
   4   6  -2    1.77    0.92
  -4  -6   2    1.04    0.75
   3   6  -2   18.56    1.34
   3   6  -2   23.50    2.54
   3   6  -2   16.60    1.40
  -3  -6   2   17.89    1.19
  -3  -6   2   18.01    1.50
   2   6  -2  108.78    3.54
   2   6  -2  109.23    3.71
   2   6  -2  108.20    3.55
  -2  -6   2  105.36    3.15
  -2  -6   2  109.29    3.57
   1   6  -2  129.10    4.02
   1   6  -2  127.56    4.12
   1   6  -2  136.27    4.16
  -1  -6   2  131.42    4.07
   0   6  -2   42.16    1.91
   0   6  -2   40.89    2.11
   0  -6   2   41.90    1.91
   0  -6   2   41.43    1.97
   0  -6   2   42.45    1.72
  -1   6  -2  230.16    6.34
  -1   6  -2  233.21    6.67
   1  -6   2  218.96    6.40
   1  -6   2  231.83    6.39
   1  -6   2  228.65    5.96
  -2   6  -2    4.47    0.99
  -2   6  -2    3.68    0.85
   2  -6   2    3.58    0.49
   2  -6   2    3.51    0.58
   2  -6   2    4.29    0.91
  -3   6  -2  144.05    4.10
  -3   6  -2  148.37    4.36
  -3   6  -2  146.46    4.93
  -3   6  -2  144.92    4.58
   3  -6   2  147.49    4.83
   3  -6   2  143.91    4.15
  -4   6  -2   -0.33    0.80
  -4   6  -2    0.09    0.90
  -4   6  -2    0.37    0.63
  -4   6  -2   -0.10    0.48
   4  -6   2    0.07    0.51
   4  -6   2   -0.62    0.81
  -5   6  -2   14.69    1.70
  -5   6  -2   15.96    1.46
  -5   6  -2   17.00    1.32
   5  -6   2   17.38    1.43
  -6   6  -2   17.67    1.61
  -6   6  -2   18.11    1.49
  -6   6  -2   20.45    2.05
   6  -6   2   19.54    1.68
  -7   6  -2    7.89    1.53
  -7   6  -2    8.14    1.13
  -7   6  -2    7.07    1.17
   7  -6   2    8.43    1.50
  -8   6  -2    1.90    1.07
  -8   6  -2    2.23    1.02
   8  -6   2    1.02    1.23
   7   5  -2    1.90    1.11
   7   5  -2   -0.52    0.76
   7   5  -2    1.23    0.68
  -7  -5   2    1.14    1.20
  -7  -5   2    0.95    0.90
   6   5  -2   20.54    1.34
   6   5  -2   23.38    2.10
  -6  -5   2   18.47    1.71
  -6  -5   2   20.46    1.98
  -6  -5   2   18.24    1.93
   5   5  -2   59.89    2.29
  -5  -5   2   63.58    2.96
  -5  -5   2   61.69    3.81
   4   5  -2   14.50    1.36
   4   5  -2   13.34    1.10
   4   5  -2   10.19    1.32
  -4  -5   2   12.07    1.27
   3   5  -2    0.49    0.52
   3   5  -2    0.03    0.69
   3   5  -2    1.49    0.70
  -3  -5   2    0.52    0.52
  -3  -5   2   -0.11    0.61
   2   5  -2    1.07    0.54
   2   5  -2   -0.04    0.63
   2   5  -2    0.03    0.60
  -2  -5   2    0.61    0.45
  -2  -5   2    2.45    0.71
   1   5  -2  314.21    8.24
   1   5  -2  321.14    8.31
   1   5  -2  319.26    8.24
  -1  -5   2  309.39    8.06
  -1  -5   2  309.24    8.22
   0   5  -2    0.30    0.55
   0   5  -2    1.07    0.62
   0  -5   2    0.10    0.52
   0  -5   2    0.84    0.57
   0  -5   2    0.30    0.40
  -1   5  -2   16.33    1.39
  -1   5  -2   15.05    1.25
   1  -5   2   17.07    1.02
   1  -5   2   17.40    1.30
   1  -5   2   17.49    1.30
  -2   5  -2   27.74    1.57
  -2   5  -2   25.63    1.80
  -2   5  -2   26.44    1.27
   2  -5   2   25.77    0.95
   2  -5   2   26.20    1.28
   2  -5   2   28.14    1.76
  -3   5  -2  177.74    5.01
  -3   5  -2  176.83    5.24
  -3   5  -2  172.28    5.57
  -3   5  -2  176.70    4.85
   3  -5   2  176.35    4.90
   3  -5   2  177.46    5.55
  -4   5  -2   51.63    2.39
  -4   5  -2   48.71    2.14
  -4   5  -2   50.52    2.06
  -4   5  -2   48.96    2.67
   4  -5   2   51.62    2.60
   4  -5   2   50.05    2.15
  -5   5  -2    0.30    0.69
  -5   5  -2    0.20    0.91
  -5   5  -2    0.01    0.58
   5  -5   2    0.29    0.91
   5  -5   2   -0.44    0.61
  -6   5  -2    5.89    1.02
  -6   5  -2    6.76    1.32
   6  -5   2    6.33    1.33
   6  -5   2    4.16    0.99
  -7   5  -2    0.53    0.90
  -7   5  -2    1.83    0.90
   7  -5   2    2.02    1.11
  -8   5  -2    7.71    1.31
  -8   5  -2    7.07    1.25
   8  -5   2    7.18    1.83
   7   4  -2    0.68    0.65
   7   4  -2   -0.72    0.79
  -7  -4   2   -0.45    0.88
  -7  -4   2   -1.26    0.90
   6   4  -2    0.66    0.79
   6   4  -2    1.41    0.66
   6   4  -2    4.07    0.95
  -6  -4   2    0.68    0.87
  -6  -4   2    1.85    1.03
  -6  -4   2    0.16    0.83
   5   4  -2   42.08    2.08
   5   4  -2   42.85    2.37
  -5  -4   2   33.26    2.06
  -5  -4   2   40.07    2.76
   4   4  -2    0.31    0.68
   4   4  -2    0.03    0.72
   4   4  -2    0.02    0.56
  -4  -4   2    0.87    0.74
  -4  -4   2    0.38    0.77
   3   4  -2   17.92    1.51
   3   4  -2   20.97    1.41
  -3  -4   2   19.81    1.32
  -3  -4   2   16.96    1.49
  -3  -4   2   18.51    1.38
   2   4  -2    3.25    0.58
   2   4  -2    2.78    0.70
   2   4  -2    2.31    0.71
  -2  -4   2    2.53    0.54
  -2  -4   2    1.46    0.62
   1   4  -2  288.24    7.59
   1   4  -2  293.71    7.59
   1   4  -2  294.08    7.51
  -1  -4   2  287.93    7.39
  -1  -4   2  290.46    7.59
   0   4  -2   71.42    2.45
   0   4  -2   73.32    2.86
   0  -4   2   73.80    2.48
   0  -4   2   65.71    2.98
   0  -4   2   69.84    2.40
  -1   4  -2  107.93    3.55
  -1   4  -2  109.18    3.34
   1  -4   2  107.59    3.08
   1  -4   2  106.22    3.33
   1  -4   2  102.68    3.39
  -2   4  -2   22.84    1.20
  -2   4  -2   25.87    1.68
  -2   4  -2   25.33    1.45
   2  -4   2   25.72    1.66
   2  -4   2   25.87    1.29
  -3   4  -2   45.17    2.05
  -3   4  -2   41.68    1.80
  -3   4  -2   46.96    1.90
  -3   4  -2   46.03    2.35
   3  -4   2   43.49    2.27
   3  -4   2   45.41    1.87
  -4   4  -2  148.25    4.51
  -4   4  -2  150.91    5.06
  -4   4  -2  150.24    4.47
   4  -4   2  148.10    5.01
   4  -4   2  151.65    4.62
  -5   4  -2    1.76    0.99
  -5   4  -2    0.99    0.68
  -5   4  -2    0.87    0.71
   5  -4   2    0.59    0.71
   5  -4   2    1.05    0.97
  -6   4  -2    7.22    1.18
  -6   4  -2    6.39    1.17
   6  -4   2    6.66    1.33
   6  -4   2    7.47    1.16
  -7   4  -2    2.03    0.97
  -7   4  -2    0.04    0.91
   7  -4   2    0.34    0.97
   7  -4   2   -0.02    0.83
  -8   4  -2   13.75    1.60
  -8   4  -2   14.34    1.62
   8  -4   2   17.29    1.70
   8  -4   2   14.18    1.78
   8   3  -2    3.32    0.81
   8   3  -2    2.37    1.11
   8   3  -2    1.73    1.03
  -8  -3   2    1.88    0.98
  -8  -3   2    2.39    1.28
  -8  -3   2    1.43    1.19
   7   3  -2   12.42    1.56
   7   3  -2   10.47    1.09
   7   3  -2   10.50    1.37
  -7  -3   2   10.66    1.59
  -7  -3   2   10.35    1.33
  -7  -3   2    9.49    1.46
   6   3  -2    0.26    0.83
   6   3  -2    0.08    0.58
  -6  -3   2   -0.46    0.99
  -6  -3   2   -0.52    0.89
   5   3  -2   79.96    3.16
   5   3  -2   82.72    4.23
   5   3  -2   79.79    2.79
  -5  -3   2   81.89    3.19
  -5  -3   2   83.55    3.37
   4   3  -2   26.41    1.62
   4   3  -2   25.48    1.77
  -4  -3   2   26.02    1.65
  -4  -3   2   24.43    1.79
   3   3  -2  129.91    3.97
   3   3  -2  125.07    3.83
   3   3  -2  124.01    4.06
  -3  -3   2  128.32    3.93
  -3  -3   2  123.53    3.95
  -3  -3   2  126.14    4.10
   2   3  -2   10.46    0.72
   2   3  -2   10.25    1.01
   2   3  -2   11.08    1.02
  -2  -3   2    8.70    0.89
  -2  -3   2    8.67    0.92
  -2  -3   2    9.94    0.89
   1   3  -2   45.20    1.74
   1   3  -2   46.03    1.60
   1   3  -2   45.68    1.76
  -1  -3   2   47.45    1.80
  -1  -3   2   46.65    1.54
   0   3  -2  684.49   16.43
   0   3  -2  688.69   16.40
   0  -3   2  692.89   16.30
   0  -3   2  655.66   16.31
  -1   3  -2    0.56    0.50
  -1   3  -2    0.03    0.43
  -1   3  -2    0.07    0.30
   1  -3   2    0.20    0.32
   1  -3   2    0.16    0.45
   1  -3   2    0.18    0.14
   1  -3   2    0.23    0.40
  -2   3  -2   34.11    1.02
  -2   3  -2   36.74    1.47
  -2   3  -2   37.48    1.92
  -2   3  -2   34.14    1.60
  -2   3  -2   34.78    1.48
   2  -3   2   35.56    1.79
   2  -3   2   39.20    1.90
  -3   3  -2  164.92    5.14
  -3   3  -2  159.59    4.58
  -3   3  -2  156.60    4.55
   3  -3   2  157.78    4.63
   3  -3   2  159.38    5.07
  -4   3  -2   92.27    3.59
  -4   3  -2   83.57    3.06
  -4   3  -2   93.55    3.23
   4  -3   2   91.74    3.30
   4  -3   2   88.21    3.50
   4  -3   2   86.81    3.05
  -5   3  -2    9.83    1.28
  -5   3  -2    7.16    1.08
   5  -3   2    5.98    1.07
   5  -3   2    7.66    1.26
   5  -3   2    7.47    1.06
  -6   3  -2    8.55    2.22
  -6   3  -2    9.49    1.29
   6  -3   2    9.73    1.39
   6  -3   2   15.09    1.64
  -7   3  -2    5.75    1.19
  -7   3  -2    8.67    1.41
   7  -3   2    8.77    1.28
  -8   3  -2    1.20    1.11
  -8   3  -2    0.86    0.99
   8  -3   2    1.48    0.99
   8  -3   2    1.57    1.08
   8   2  -2    3.26    0.69
   8   2  -2    3.62    1.16
   8   2  -2    3.43    1.10
   8   2  -2    3.25    0.84
  -8  -2   2    2.78    1.15
  -8  -2   2    1.79    1.15
  -8  -2   2    3.13    1.12
   7   2  -2   37.53    1.93
   7   2  -2   39.13    2.46
  -7  -2   2   38.31    2.70
  -7  -2   2   37.72    2.24
  -7  -2   2   37.87    2.47
   6   2  -2    0.09    0.81
   6   2  -2    1.51    0.66
   6   2  -2   -0.97    0.63
  -6  -2   2    1.11    1.39
  -6  -2   2   -0.50    0.80
  -6  -2   2    0.69    0.92
   5   2  -2   11.17    1.07
   5   2  -2    9.40    1.29
   5   2  -2    9.08    1.26
  -5  -2   2    9.42    1.31
  -5  -2   2    9.16    1.25
   4   2  -2  117.56    3.71
   4   2  -2  123.79    4.08
   4   2  -2  121.15    4.10
  -4  -2   2  124.07    4.02
  -4  -2   2  118.32    4.14
   3   2  -2   63.64    2.61
   3   2  -2   64.61    2.51
  -3  -2   2   63.08    2.56
  -3  -2   2   68.81    2.55
  -3  -2   2   65.84    2.54
   2   2  -2  157.63    4.46
   2   2  -2  160.20    4.58
   2   2  -2  156.95    4.50
  -2  -2   2  169.73    4.58
  -2  -2   2  159.69    4.66
   1   2  -2   13.05    0.59
   1   2  -2   11.64    0.79
   1   2  -2    9.71    0.89
  -1  -2   2   12.37    0.83
  -1  -2   2   11.72    0.54
  -1  -2   2   11.36    0.75
   0   2  -2  232.93    5.87
   0   2  -2  232.09    5.89
   0  -2   2  224.88    5.81
   0  -2   2  236.77    5.88
   0  -2   2  230.49    5.83
  -1   2  -2  170.23    4.86
  -1   2  -2  173.10    4.58
  -1   2  -2  173.20    4.53
  -1   2  -2  175.75    4.37
   1  -2   2  174.32    4.58
   1  -2   2  168.96    4.80
   1  -2   2  176.34    4.54
  -2   2  -2   58.77    2.02
  -2   2  -2   54.80    1.90
  -2   2  -2   53.75    2.36
   2  -2   2   57.18    2.09
   2  -2   2   55.13    1.89
   2  -2   2   58.52    2.38
  -3   2  -2   13.39    1.09
  -3   2  -2   13.12    1.21
  -3   2  -2   16.04    1.45
   3  -2   2   13.31    1.10
   3  -2   2   13.98    1.42
   3  -2   2   12.38    1.20
  -4   2  -2  131.29    4.19
  -4   2  -2  129.50    4.27
   4  -2   2  124.40    4.31
   4  -2   2  133.26    4.50
   4  -2   2  127.57    4.08
  -5   2  -2   73.47    3.00
  -5   2  -2   72.80    3.13
   5  -2   2   72.29    3.23
   5  -2   2   67.62    3.11
   5  -2   2   69.73    2.88
  -6   2  -2   14.93    1.55
  -6   2  -2   14.84    1.59
   6  -2   2   14.77    1.70
   6  -2   2   13.48    1.86
  -7   2  -2   -1.15    0.86
  -7   2  -2    0.30    0.90
   7  -2   2    1.03    0.96
   7  -2   2    1.36    0.94
  -8   2  -2   -0.47    1.09
  -8   2  -2    0.43    0.94
   8  -2   2    0.61    1.05
   8  -2   2    1.16    0.94
   8   1  -2   19.00    1.58
   8   1  -2   16.75    1.08
   8   1  -2   16.15    1.81
  -8  -1   2   18.84    1.78
  -8  -1   2   18.71    2.07
  -8  -1   2   20.98    2.05
   7   1  -2   21.24    1.60
   7   1  -2   25.71    2.17
   7   1  -2   21.14    1.22
  -7  -1   2   24.94    2.00
  -7  -1   2   20.02    2.10
  -7  -1   2   21.20    1.84
   6   1  -2   34.46    1.85
   6   1  -2   33.18    1.52
   6   1  -2   31.08    2.22
   6   1  -2   34.66    2.11
  -6  -1   2   34.60    2.49
  -6  -1   2   35.55    2.30
  -6  -1   2   31.57    2.11
   5   1  -2   10.76    1.15
   5   1  -2   12.34    1.52
   5   1  -2   10.64    1.29
  -5  -1   2    9.55    1.25
  -5  -1   2   11.69    1.39
   4   1  -2  224.02    6.31
   4   1  -2  230.37    6.80
   4   1  -2  239.63    6.69
  -4  -1   2  237.27    6.71
  -4  -1   2  223.07    6.60
   3   1  -2  103.33    3.05
   3   1  -2  106.58    3.58
   3   1  -2  104.32    3.52
  -3  -1   2  107.40    3.55
  -3  -1   2  103.63    3.49
   2   1  -2  315.41    8.10
   2   1  -2  307.47    7.57
   2   1  -2  320.67    8.07
  -2  -1   2  332.33    8.12
  -2  -1   2  318.11    8.11
  -2  -1   2  292.36    8.48
   1   1  -2    4.50    0.50
   1   1  -2    4.63    0.49
  -1  -1   2    3.61    0.42
  -1  -1   2    4.22    0.49
  -1  -1   2    5.30    0.53
   0   1  -2  382.56    8.96
   0   1  -2  364.62    9.13
   0   1  -2  385.40    9.10
   0  -1   2  391.98    9.16
   0  -1   2  393.76    9.10
   0  -1   2  361.11    9.18
   0  -1   2  378.74    8.95
  -1   1  -2  144.88    3.70
  -1   1  -2  145.73    3.59
  -1   1  -2  136.50    3.78
  -1   1  -2  140.95    3.64
   1  -1   2  146.46    3.82
   1  -1   2  138.05    3.60
   1  -1   2  141.10    4.08
  -2   1  -2  139.03    4.04
  -2   1  -2  137.76    3.95
   2  -1   2  145.25    4.37
   2  -1   2  139.46    4.46
   2  -1   2  134.65    3.89
  -3   1  -2   24.91    1.64
  -3   1  -2   26.51    1.53
   3  -1   2   24.70    1.48
   3  -1   2   26.59    1.64
   3  -1   2   23.84    1.69
  -4   1  -2   -0.16    0.70
  -4   1  -2   -0.93    0.60
   4  -1   2    0.67    0.70
   4  -1   2    0.35    0.77
   4  -1   2    0.67    0.66
  -5   1  -2  169.22    5.27
  -5   1  -2  157.20    5.42
   5  -1   2  167.06    5.42
   5  -1   2  169.23    5.20
  -6   1  -2    8.35    1.25
  -6   1  -2    8.93    1.41
   6  -1   2   10.43    1.30
   6  -1   2    7.26    1.30
  -7   1  -2   13.58    1.69
  -7   1  -2   12.83    1.53
   7  -1   2   13.46    1.60
   7  -1   2   14.97    1.57
  -8   1  -2   -0.31    1.71
  -8   1  -2   -0.29    0.96
   8  -1   2    1.99    1.09
   8  -1   2    1.71    1.03
   8   0  -2    8.44    0.67
   8   0  -2    9.59    1.39
   8   0  -2    8.22    1.49
   8   0  -2    9.15    1.41
  -8   0   2    8.97    1.38
  -8   0   2    7.02    1.36
  -8   0   2    6.77    1.40
   7   0  -2    8.75    1.18
   7   0  -2   10.64    1.56
  -7   0   2    8.13    1.29
  -7   0   2   10.90    1.61
  -7   0   2    8.44    1.34
   6   0  -2   99.04    4.01
   6   0  -2   88.00    3.54
   6   0  -2   96.90    3.42
  -6   0   2   93.25    3.70
  -6   0   2   92.49    3.89
  -6   0   2   95.42    3.66
   5   0  -2    0.66    0.90
   5   0  -2    1.40    0.66
   5   0  -2    0.48    0.48
   5   0  -2    0.33    0.79
  -5   0   2    1.09    0.86
  -5   0   2    1.14    0.84
   4   0  -2    0.67    0.47
   4   0  -2    0.50    0.69
   4   0  -2    0.32    0.51
   4   0  -2    0.47    0.77
  -4   0   2   -0.28    0.64
   3   0  -2  218.24    6.20
   3   0  -2  204.73    5.43
   3   0  -2  206.68    5.54
   3   0  -2  204.79    5.83
  -3   0   2  211.88    5.91
  -3   0   2  208.50    5.55
   2   0  -2  609.60   14.37
   2   0  -2  606.32   14.49
   2   0  -2  633.14   14.92
   2   0  -2  592.82   14.64
  -2   0   2  595.05   14.35
  -2   0   2  587.25   14.96
  -2   0   2  606.48   14.69
   1   0  -2   52.43    1.72
   1   0  -2   53.31    1.69
   1   0  -2   54.09    1.66
   1   0  -2   54.46    1.60
   1   0  -2   55.28    1.49
  -1   0   2   54.21    1.71
  -1   0   2   55.65    1.62
  -1   0   2   53.03    1.73
  -1   0   2   52.93    1.48
   0   0  -2   14.35    0.63
   0   0  -2   14.60    0.50
   0   0  -2   15.26    0.72
   0   0  -2   15.82    0.63
   0   0   2   14.61    0.49
   0   0   2   14.01    0.61
   0   0   2   14.65    0.63
  -1   0  -2  388.16    9.51
  -1   0  -2  392.60    9.37
   1   0   2  375.62    9.36
   1   0   2  389.87    9.52
  -2   0  -2    1.50    0.52
  -2   0  -2    2.24    0.61
   2   0   2    0.03    0.84
   2   0   2    0.50    0.51
  -3   0  -2  203.89    5.80
  -3   0  -2  207.01    6.13
   3   0   2  201.17    5.80
   3   0   2  203.11    6.11
  -4   0  -2    1.91    0.87
  -4   0  -2    1.38    0.79
   4   0   2    3.90    0.98
   4   0   2    1.39    0.77
  -5   0  -2   15.98    1.71
  -5   0  -2   19.28    1.68
   5   0   2   18.55    1.75
   5   0   2   18.03    1.67
  -6   0  -2   28.24    2.35
  -6   0  -2   27.06    2.30
   6   0   2   26.21    1.91
   6   0   2   26.01    2.00
  -7   0  -2    5.16    1.03
  -7   0  -2    3.27    1.21
  -7   0  -2    4.73    1.19
   7   0   2    5.94    1.17
   7   0   2    3.82    1.06
  -8   0  -2    1.52    1.05
  -8   0  -2    2.40    1.24
  -8   0  -2    2.06    0.94
   8   0   2    1.32    1.02
   8   0   2    1.53    1.00
   8   0   2   -0.02    1.14
   9  -1  -2   -0.05    1.80
   9  -1  -2    1.04    1.51
  -9   1   2    0.45    1.01
  -9   1   2    1.68    1.14
   8  -1  -2    9.75    1.42
   8  -1  -2   10.39    1.28
   8  -1  -2   10.21    1.62
  -8   1   2   10.44    1.44
  -8   1   2    8.19    1.35
  -8   1   2   10.67    1.57
   7  -1  -2   17.38    1.93
   7  -1  -2   14.19    0.80
   7  -1  -2   16.11    1.60
  -7   1   2   16.56    1.75
  -7   1   2   17.67    1.71
   6  -1  -2   19.87    1.65
   6  -1  -2   17.87    2.47
   6  -1  -2   21.83    2.04
   6  -1  -2   19.40    1.00
  -6   1   2   21.84    1.97
  -6   1   2   23.90    1.88
   5  -1  -2   99.50    3.50
   5  -1  -2   99.27    4.03
   5  -1  -2   99.82    2.87
   5  -1  -2   95.90    3.58
  -5   1   2  101.24    3.68
  -5   1   2   98.01    3.45
  -5   1   2  103.94    3.92
   4  -1  -2    5.39    0.94
   4  -1  -2    6.62    0.86
   4  -1  -2    8.08    1.31
   4  -1  -2    6.92    0.69
  -4   1   2    7.55    1.13
  -4   1   2    6.58    0.86
  -4   1   2    5.88    0.98
   3  -1  -2   12.36    1.27
   3  -1  -2   14.12    1.15
   3  -1  -2   13.60    0.86
   3  -1  -2   15.97    1.46
  -3   1   2   14.54    1.03
  -3   1   2   13.96    1.12
   2  -1  -2   14.29    1.16
   2  -1  -2   13.71    0.82
   2  -1  -2   13.59    0.85
  -2   1   2   13.07    0.90
  -2   1   2   14.47    0.87
   1  -1  -2  106.62    3.00
   1  -1  -2  112.94    3.05
   1  -1  -2  105.38    2.97
   1  -1  -2  109.07    2.96
  -1   1   2  103.00    3.01
  -1   1   2  108.94    2.99
   0  -1  -2   20.01    0.75
   0   1   2   20.14    0.78
   0   1   2   19.01    0.56
  -1  -1  -2  221.41    5.79
  -1  -1  -2  218.07    5.29
   1   1   2  219.76    5.84
   1   1   2  215.49    5.63
  -2  -1  -2   38.28    1.69
  -2  -1  -2   37.19    1.42
  -2  -1  -2   35.98    1.89
   2   1   2   33.12    1.83
   2   1   2   38.14    1.68
  -3  -1  -2  312.71    8.95
  -3  -1  -2  325.05    8.54
   3   1   2  318.91    8.51
  -4  -1  -2   11.04    1.42
  -4  -1  -2   11.87    1.33
  -4  -1  -2   13.57    1.25
   4   1   2   12.77    1.35
  -5  -1  -2   20.38    1.79
  -5  -1  -2   23.00    2.19
  -5  -1  -2   21.04    1.57
   5   1   2   20.99    1.78
   5   1   2   20.60    1.74
  -6  -1  -2   47.68    2.30
  -6  -1  -2   45.83    2.57
   6   1   2   48.25    2.52
   6   1   2   48.37    2.55
  -7  -1  -2   -1.40    0.84
  -7  -1  -2    1.25    0.82
  -7  -1  -2    0.39    0.94
   7   1   2    0.32    0.84
   7   1   2    1.91    1.01
   7   1   2   -0.04    0.85
  -8  -1  -2    1.77    1.27
  -8  -1  -2    1.18    0.87
  -8  -1  -2    1.01    1.07
   8   1   2    0.05    0.91
   8   1   2    1.37    0.96
   8   1   2    1.85    1.10
   9  -2  -2    1.58    1.32
   9  -2  -2    9.40    1.31
   9  -2  -2    7.47    1.51
  -9   2   2    5.12    1.41
  -9   2   2    4.69    1.26
   8  -2  -2    1.68    1.12
   8  -2  -2    1.07    0.98
   8  -2  -2    1.14    0.91
  -8   2   2    1.53    0.95
  -8   2   2    0.57    0.94
   7  -2  -2   -0.27    1.04
   7  -2  -2    1.01    0.81
  -7   2   2    0.82    0.87
  -7   2   2    0.34    0.93
   6  -2  -2   37.41    2.39
   6  -2  -2   36.95    2.15
   6  -2  -2   38.64    2.60
  -6   2   2   34.38    2.09
  -6   2   2   41.28    2.37
  -6   2   2   35.93    2.20
   5  -2  -2  164.23    5.11
   5  -2  -2  165.52    5.73
   5  -2  -2  166.99    5.19
  -5   2   2  170.50    5.13
  -5   2   2  170.03    5.32
  -5   2   2  160.54    5.14
   4  -2  -2    7.46    0.98
   4  -2  -2    4.95    1.12
   4  -2  -2    5.70    0.94
  -4   2   2    6.61    0.96
  -4   2   2    5.86    0.89
  -4   2   2    6.01    0.92
   3  -2  -2    7.22    0.83
   3  -2  -2    5.67    0.84
   3  -2  -2    5.32    1.02
  -3   2   2    6.12    0.81
  -3   2   2    3.57    0.66
  -3   2   2    5.06    0.77
   2  -2  -2    0.30    0.40
   2  -2  -2    0.13    0.52
   2  -2  -2    0.66    0.46
  -2   2   2    0.56    0.45
  -2   2   2    0.22    0.29
  -2   2   2    0.76    0.47
  -1  -2  -2    1.93    0.29
  -1  -2  -2    2.66    0.63
   1   2   2    2.20    0.32
   1   2   2    2.85    0.56
  -2  -2  -2  219.15    5.54
  -2  -2  -2  216.66    5.98
  -2  -2  -2  209.91    6.36
   2   2   2  219.31    5.98
  -3  -2  -2   14.64    1.35
  -3  -2  -2   12.88    1.04
  -3  -2  -2   13.79    1.61
   3   2   2   13.18    1.26
  -4  -2  -2  181.25    5.58
  -4  -2  -2  191.24    6.17
  -4  -2  -2  177.36    5.16
   4   2   2  179.19    5.54
  -5  -2  -2    5.86    1.33
  -5  -2  -2    3.59    0.83
  -5  -2  -2    3.47    1.02
   5   2   2    4.37    0.97
   5   2   2    4.28    1.26
  -6  -2  -2   12.10    1.48
  -6  -2  -2   10.89    1.24
   6   2   2    9.93    1.41
   6   2   2   13.41    1.44
  -7  -2  -2    0.09    0.88
  -7  -2  -2   -1.07    0.73
  -7  -2  -2    0.87    1.12
   7   2   2    1.18    0.99
   7   2   2    1.33    0.92
   7   2   2   -0.57    0.91
   9  -3  -2    4.19    1.88
   9  -3  -2    3.52    1.36
   9  -3  -2    6.51    1.26
  -9   3   2    3.60    1.23
  -9   3   2    8.15    1.46
   8  -3  -2    4.49    1.13
   8  -3  -2    3.55    1.35
   8  -3  -2    5.71    1.40
  -8   3   2    2.92    0.98
  -8   3   2    5.42    1.23
   7  -3  -2   22.20    2.23
   7  -3  -2   21.55    2.17
  -7   3   2   19.72    1.90
  -7   3   2   17.37    1.79
   6  -3  -2    2.11    0.94
   6  -3  -2    0.67    0.87
   6  -3  -2    1.32    1.12
  -6   3   2    2.17    0.91
  -6   3   2    2.00    0.79
  -6   3   2    1.31    0.86
   5  -3  -2  118.71    4.15
   5  -3  -2  118.67    3.98
  -5   3   2  112.30    3.88
  -5   3   2  118.72    3.99
  -5   3   2  118.93    4.06
   4  -3  -2   97.93    3.46
  -4   3   2   89.11    3.09
  -4   3   2   95.94    3.38
  -4   3   2   95.49    3.28
   3  -3  -2   11.47    0.97
   3  -3  -2   14.39    1.27
  -3   3   2   11.79    1.11
  -3   3   2   11.92    1.15
  -3   3   2   13.78    0.88
   2  -3  -2    0.62    0.47
   2  -3  -2    1.22    0.59
  -2   3   2    1.15    0.58
  -2   3   2    0.87    0.18
   1  -3  -2    2.91    0.61
   1  -3  -2    2.36    0.46
   1  -3  -2    1.76    0.52
  -1   3   2    2.36    0.62
  -1   3   2    2.18    0.43
   0  -3  -2   59.46    1.88
   0  -3  -2   64.80    2.04
   0   3   2   60.70    1.85
   0   3   2   62.69    2.30
  -1  -3  -2    0.38    0.54
  -1  -3  -2    0.54    0.31
   1   3   2    0.17    0.31
   1   3   2    0.00    0.51
  -2  -3  -2    7.62    1.14
  -2  -3  -2    6.62    0.64
   2   3   2    6.17    0.93
   2   3   2    7.49    0.67
   2   3   2    5.51    0.63
  -3  -3  -2    5.48    0.70
  -3  -3  -2    3.62    1.03
   3   3   2    4.34    0.93
   3   3   2    5.00    0.73
  -4  -3  -2  125.08    3.75
  -4  -3  -2  122.77    4.72
  -4  -3  -2  121.93    4.22
   4   3   2  119.78    3.85
   4   3   2  120.82    4.16
  -5  -3  -2    0.84    0.86
  -5  -3  -2    1.13    0.68
  -5  -3  -2    1.88    1.08
   5   3   2   -1.79    0.74
   5   3   2    0.78    0.66
  -6  -3  -2    1.05    1.07
  -6  -3  -2    1.83    0.72
  -6  -3  -2    1.63    1.04
   6   3   2    2.55    1.10
   6   3   2    1.38    0.75
  -7  -3  -2   16.06    1.48
  -7  -3  -2   16.62    1.99
  -7  -3  -2   18.67    1.85
   7   3   2   19.38    2.12
   7   3   2   17.44    1.69
   8  -4  -2    0.02    1.09
   8  -4  -2    3.87    1.13
  -8   4   2    2.84    1.12
  -8   4   2    1.41    0.95
  -8   4   2    2.08    1.05
   7  -4  -2    8.36    1.32
   7  -4  -2    4.54    1.36
  -7   4   2    3.12    1.03
  -7   4   2    7.66    1.31
  -7   4   2    4.90    0.96
   6  -4  -2    9.64    1.38
  -6   4   2   11.59    1.43
  -6   4   2   12.88    2.35
  -6   4   2   11.57    1.20
   5  -4  -2   34.24    2.13
  -5   4   2   31.46    1.93
  -5   4   2   33.90    1.69
  -5   4   2   36.68    2.11
   4  -4  -2  116.88    4.02
  -4   4   2  110.62    3.92
  -4   4   2  113.23    3.29
  -4   4   2  113.01    3.73
   3  -4  -2   17.18    1.14
   3  -4  -2   17.09    1.41
  -3   4   2   17.92    1.30
  -3   4   2   14.39    0.72
  -3   4   2   19.91    1.51
   2  -4  -2    5.55    0.76
   2  -4  -2    3.99    0.84
  -2   4   2    4.80    0.89
   1  -4  -2    5.46    0.33
   1  -4  -2    5.57    0.85
   1  -4  -2    5.18    0.77
   1  -4  -2    5.17    0.61
  -1   4   2    3.54    0.73
  -1   4   2    5.33    0.65
   0  -4  -2  270.80    7.31
   0  -4  -2  285.10    7.17
   0   4   2  283.34    7.13
   0   4   2  296.97    7.70
  -1  -4  -2   82.80    3.19
  -1  -4  -2   87.78    2.66
   1   4   2   89.61    2.62
   1   4   2   88.01    3.09
  -2  -4  -2    6.55    1.17
  -2  -4  -2    6.17    0.66
   2   4   2    5.09    0.91
   2   4   2    6.56    0.70
  -3  -4  -2   12.92    1.06
  -3  -4  -2   19.24    1.94
   3   4   2   14.59    0.91
   3   4   2   15.91    1.48
  -4  -4  -2   23.20    1.41
  -4  -4  -2   25.31    2.24
   4   4   2   24.70    1.85
   4   4   2   26.65    1.38
  -5  -4  -2   15.14    1.78
  -5  -4  -2   17.19    1.38
   5   4   2   20.63    1.38
   5   4   2   17.45    1.74
  -6  -4  -2    6.43    1.00
  -6  -4  -2    8.14    1.51
   6   4   2    9.29    1.43
   6   4   2    7.63    1.01
  -7  -4  -2   -0.37    0.77
  -7  -4  -2   -0.08    1.20
   7   4   2    1.41    1.26
   7   4   2    1.49    0.90
   8  -5  -2    6.88    1.35
   8  -5  -2    6.29    1.54
  -8   5   2    9.01    1.20
  -8   5   2    7.03    1.30
  -8   5   2    7.53    1.40
   7  -5  -2   29.14    2.40
  -7   5   2   28.10    1.76
  -7   5   2   31.62    2.23
  -7   5   2   29.53    2.01
   6  -5  -2   21.99    1.95
  -6   5   2   20.61    1.41
  -6   5   2   22.98    1.82
   5  -5  -2   -0.30    0.76
  -5   5   2   -0.52    0.39
  -5   5   2    1.71    0.88
  -5   5   2   -0.42    0.68
   4  -5  -2  112.48    4.00
   4  -5  -2  110.36    3.44
  -4   5   2  112.26    3.73
  -4   5   2  112.35    3.99
  -4   5   2  106.66    3.01
   3  -5  -2    8.67    1.20
   3  -5  -2    8.77    0.95
  -3   5   2   10.14    1.22
  -3   5   2   10.96    0.47
   2  -5  -2   56.17    2.47
   2  -5  -2   55.73    2.11
  -2   5   2   59.77    2.57
  -2   5   2   57.49    2.23
   1  -5  -2   -0.06    0.25
   1  -5  -2    0.24    0.39
   1  -5  -2   -0.35    0.58
   1  -5  -2   -0.63    0.52
   1  -5  -2    0.12    0.17
  -1   5   2    1.05    0.51
  -1   5   2    0.30    0.67
   0  -5  -2   62.39    2.41
   0  -5  -2   72.27    2.35
   0   5   2   68.55    2.28
   0   5   2   72.72    2.82
  -1  -5  -2   22.83    1.24
  -1  -5  -2   27.35    1.77
   1   5   2   23.91    1.25
   1   5   2   23.59    1.59
  -2  -5  -2   41.83    1.70
  -2  -5  -2   45.06    2.49
   2   5   2   40.92    1.71
   2   5   2   44.56    2.13
   2   5   2   41.41    2.12
  -3  -5  -2    5.76    1.21
  -3  -5  -2    3.76    0.69
   3   5   2    3.60    1.01
   3   5   2    5.55    0.81
  -4  -5  -2   -0.77    0.84
  -4  -5  -2    0.43    0.56
   4   5   2    0.58    0.59
  -5  -5  -2   40.22    1.87
   5   5   2   35.04    2.30
   5   5   2   37.68    1.64
  -6  -5  -2    0.13    0.80
  -6  -5  -2    2.22    1.32
   6   5   2    1.11    0.60
   6   5   2   -0.57    1.06
   8  -6  -2    3.54    1.42
   8  -6  -2    3.13    1.26
  -8   6   2    3.53    0.85
  -8   6   2    2.49    1.20
  -8   6   2    2.30    1.09
   7  -6  -2    3.35    1.20
   7  -6  -2    3.37    1.31
  -7   6   2    2.46    0.70
  -7   6   2    3.46    1.03
  -7   6   2    1.98    1.08
  -6   6   2   33.31    1.51
  -6   6   2   32.97    2.01
  -6   6   2   31.01    2.17
   5  -6  -2    3.04    1.01
  -5   6   2    3.84    0.94
  -5   6   2    2.53    0.46
   4  -6  -2   19.09    1.28
   4  -6  -2   18.18    1.72
  -4   6   2   18.96    1.55
  -4   6   2   17.79    1.66
  -4   6   2   17.30    0.75
   3  -6  -2   17.72    1.60
   3  -6  -2   19.60    1.26
  -3   6   2   18.07    1.69
  -3   6   2   16.57    1.46
   2  -6  -2   42.02    1.82
   2  -6  -2   40.26    2.13
  -2   6   2   39.61    1.85
  -2   6   2   38.49    2.21
   1  -6  -2    4.96    0.90
   1  -6  -2    4.02    0.41
   1  -6  -2    3.28    0.86
   1  -6  -2    4.39    0.51
   1  -6  -2    4.77    0.57
  -1   6   2    3.89    0.91
  -1   6   2    4.86    0.73
   0  -6  -2   24.18    1.47
   0  -6  -2   26.66    1.42
   0   6   2   27.12    1.38
   0   6   2   26.49    1.74
  -1  -6  -2   96.95    3.12
  -1  -6  -2   96.97    3.61
   1   6   2  105.79    3.68
   1   6   2  104.44    3.62
   1   6   2  101.55    3.11
  -2  -6  -2    0.47    0.53
  -2  -6  -2   -0.44    0.74
   2   6   2    0.23    0.75
   2   6   2    0.44    0.71
   2   6   2    0.09    0.51
  -3  -6  -2    6.29    0.80
  -3  -6  -2    4.70    1.14
   3   6   2    5.67    1.02
   3   6   2    6.34    0.86
  -4  -6  -2   -1.75    0.91
  -4  -6  -2   -0.61    0.52
   4   6   2   -0.61    0.76
  -5  -6  -2   12.53    1.68
  -5  -6  -2   10.93    1.12
   5   6   2   12.37    1.62
   5   6   2   10.48    1.29
   7  -7  -2    5.89    1.39
   7  -7  -2    4.94    1.40
  -7   7   2    4.26    0.65
  -7   7   2    4.30    1.27
  -7   7   2    4.97    1.10
   6  -7  -2    9.35    1.53
   6  -7  -2    9.78    1.44
  -6   7   2   10.00    1.31
  -6   7   2   10.43    1.45
  -6   7   2   10.50    0.85
  -5   7   2    2.57    0.47
  -5   7   2    1.23    0.98
  -5   7   2    1.91    0.94
  -5   7   2    1.21    0.82
   4  -7  -2    0.86    0.67
   4  -7  -2   -0.49    0.68
  -4   7   2    0.50    0.86
  -4   7   2    1.70    0.83
  -4   7   2    2.33    0.84
   3  -7  -2   36.07    2.13
   3  -7  -2   35.13    1.71
  -3   7   2   38.55    2.33
  -3   7   2   38.78    1.96
   2  -7  -2    5.38    0.83
   2  -7  -2    5.35    0.90
  -2   7   2    4.20    0.81
  -2   7   2    4.57    1.05
   1  -7  -2   52.66    1.76
   1  -7  -2   54.17    2.25
   1  -7  -2   52.38    1.54
   1  -7  -2   52.77    1.69
  -1   7   2   58.15    2.17
  -1   7   2   55.77    2.65
   0  -7  -2    1.18    0.61
   0   7   2    0.81    0.77
   0   7   2    0.29    0.55
  -1  -7  -2   32.91    1.97
  -1  -7  -2   30.49    1.58
   1   7   2   32.88    2.03
   1   7   2   28.72    1.52
  -2  -7  -2   14.65    1.57
  -2  -7  -2   15.54    1.20
   2   7   2   14.99    1.50
   2   7   2   15.25    1.18
  -3  -7  -2   11.95    1.08
  -3  -7  -2   11.96    1.76
   3   7   2   12.30    1.21
   3   7   2   13.02    1.43
  -4  -7  -2    0.53    0.60
   4   7   2   -0.34    0.91
   4   7   2    0.89    0.82
  -5  -7  -2    0.70    0.67
  -5  -7  -2    0.90    1.24
   5   7   2    1.10    0.81
   5   7   2    0.68    1.10
   7  -8  -2    0.13    1.17
   7  -8  -2    0.44    1.18
  -7   8   2   -1.00    1.02
  -7   8   2   -0.54    1.17
  -7   8   2    1.20    1.07
  -7   8   2    0.68    0.43
   6  -8  -2    0.07    1.00
   6  -8  -2    0.56    1.04
  -6   8   2    0.91    1.05
  -6   8   2    0.64    0.54
  -6   8   2    0.07    0.80
  -6   8   2   -0.03    0.92
   5  -8  -2   21.26    1.36
   5  -8  -2   20.62    1.95
  -5   8   2   20.59    1.76
  -5   8   2   20.37    1.79
  -5   8   2   24.83    2.03
   4  -8  -2    1.47    0.70
  -4   8   2    2.23    0.87
  -4   8   2    1.41    0.97
   3  -8  -2    6.28    1.04
   3  -8  -2    6.43    0.92
  -3   8   2    4.30    0.90
  -3   8   2    5.80    1.18
   2  -8  -2   13.58    1.47
   2  -8  -2   14.49    1.16
   2  -8  -2   13.99    1.24
  -2   8   2   15.12    1.34
  -2   8   2   18.01    1.80
   1  -8  -2   31.09    1.04
   1  -8  -2   32.15    1.03
   1  -8  -2   32.38    1.24
   1  -8  -2   33.61    1.82
  -1   8   2   33.14    1.68
  -1   8   2   30.61    2.11
   0  -8  -2    6.68    0.87
   0   8   2    8.33    0.93
   0   8   2    7.62    1.25
  -1  -8  -2    2.11    0.82
  -1  -8  -2    1.50    0.64
   1   8   2    1.56    0.65
   1   8   2    3.42    0.98
  -2  -8  -2   11.64    1.10
  -2  -8  -2   14.97    1.51
   2   8   2   11.89    1.19
   2   8   2   11.85    1.38
  -3  -8  -2   -0.68    0.57
  -3  -8  -2    0.47    0.91
   3   8   2    0.57    0.94
   3   8   2    0.31    0.83
   3   8   2    0.82    0.86
  -4  -8  -2    3.82    1.20
   4   8   2    3.91    1.01
   4   8   2    2.81    1.20
   6  -9  -2    2.50    1.23
   6  -9  -2   -0.35    1.03
  -6   9   2   -0.65    0.95
  -6   9   2   -0.53    0.88
   5  -9  -2   14.90    1.69
  -5   9   2   16.78    1.57
  -5   9   2   14.02    1.73
  -5   9   2   13.59    1.44
   4  -9  -2    6.39    1.15
   4  -9  -2    6.46    1.03
   4  -9  -2    5.63    1.19
  -4   9   2    6.36    1.07
  -4   9   2    6.35    1.32
   3  -9  -2    1.01    0.93
   3  -9  -2    1.25    0.73
  -3   9   2    0.40    0.92
  -3   9   2    0.96    0.75
   2  -9  -2    8.20    0.76
   2  -9  -2    5.32    1.18
   2  -9  -2    6.54    0.98
  -2   9   2    8.72    1.08
  -2   9   2    7.18    1.30
   1  -9  -2    6.01    0.46
   1  -9  -2    6.90    0.61
   1  -9  -2    6.15    1.02
  -1   9   2    6.07    0.93
  -1   9   2    5.78    1.18
   0  -9  -2   23.09    1.40
   0  -9  -2   22.84    1.07
   0   9   2   23.51    1.88
   0   9   2   22.44    1.48
  -1  -9  -2    0.78    0.66
  -1  -9  -2    0.55    0.70
   1   9   2    0.23    0.88
   1   9   2    1.17    0.64
   1   9   2   -0.06    0.87
  -2  -9  -2    6.10    1.16
  -2  -9  -2    6.87    0.93
   2   9   2    4.71    1.11
   2   9   2    6.28    1.24
   2   9   2    4.79    0.85
  -3  -9  -2   -0.14    0.64
   3   9   2    0.56    0.90
   3   9   2    0.13    1.17
   3   9   2   -0.43    0.68
   5 -10  -2    3.07    1.11
   5 -10  -2    2.60    1.41
   5 -10  -2    3.56    0.85
  -5  10   2    4.87    1.29
  -5  10   2    4.44    1.15
  -5  10   2    2.72    1.06
   4 -10  -2    9.36    1.47
   4 -10  -2   13.19    1.18
   4 -10  -2    9.68    1.21
  -4  10   2    9.75    1.30
  -4  10   2   10.44    1.54
   3 -10  -2   -0.89    1.01
   3 -10  -2    0.24    0.66
   3 -10  -2   -0.31    0.59
  -3  10   2   -2.16    0.72
  -3  10   2    0.87    0.96
   2 -10  -2    4.26    0.90
  -2  10   2    5.88    1.29
  -2  10   2    4.03    0.91
   1 -10  -2    3.29    0.92
  -1  10   2    3.42    0.84
  -1  10   2    3.27    1.13
   0 -10  -2   16.05    0.92
   0 -10  -2   18.15    1.58
   0 -10  -2   16.75    1.19
   0  10   2   19.16    1.94
   0  10   2   19.49    1.41
  -1 -10  -2    2.55    0.83
   1  10   2    2.97    0.78
   1  10   2    4.21    1.14
   1  10   2    2.84    1.10
   0  11  -3    1.89    0.91
   0  11  -3   -0.27    1.00
   0 -11   3    2.48    0.99
   0 -11   3    2.09    0.54
   0 -11   3    1.48    0.60
  -1  11  -3    3.29    1.07
  -1  11  -3    3.34    1.25
   1 -11   3    4.58    0.73
   1 -11   3    2.56    0.94
   1 -11   3    2.63    0.62
  -2  11  -3   10.00    1.60
  -2  11  -3    9.23    1.28
   2 -11   3    8.37    0.80
   2 -11   3   10.96    1.61
   2 -11   3    9.90    0.88
  -3  11  -3   -0.25    1.11
  -3  11  -3    0.16    0.93
   3 -11   3    0.38    0.49
   3 -11   3    0.46    0.99
   3 -11   3   -0.05    0.45
   2  10  -3    2.25    0.99
   2  10  -3    2.63    0.92
   2  10  -3    1.19    0.91
  -2 -10   3    2.01    0.49
  -2 -10   3    2.42    0.95
   1  10  -3   16.28    1.61
   1  10  -3   17.09    1.78
   1  10  -3   16.62    1.65
  -1 -10   3   17.76    1.03
  -1 -10   3   18.23    1.62
  -1 -10   3   18.13    1.65
   0  10  -3    6.31    1.18
   0  10  -3    9.92    1.23
   0  10  -3    7.15    1.14
   0 -10   3   10.41    1.07
   0 -10   3    7.07    1.08
  -1  10  -3    2.03    1.03
  -1  10  -3    2.20    0.91
   1 -10   3    1.59    0.61
   1 -10   3    2.90    0.60
   1 -10   3    1.04    0.82
  -2  10  -3   17.29    1.84
  -2  10  -3   18.34    1.61
   2 -10   3   18.12    1.02
   2 -10   3   16.22    1.71
   2 -10   3   17.04    1.12
  -3  10  -3    0.35    1.07
  -3  10  -3    0.14    0.88
   3 -10   3    0.67    0.93
   3 -10   3    1.03    0.51
   3 -10   3    1.37    0.43
  -4  10  -3   26.46    1.94
  -4  10  -3   27.45    2.26
  -4  10  -3   27.51    1.81
   4 -10   3   28.72    1.47
  -5  10  -3    2.55    1.09
  -5  10  -3    1.80    1.55
  -5  10  -3    2.88    0.92
   5 -10   3    1.10    1.17
   5 -10   3    1.58    0.64
   4   9  -3   11.18    1.19
   4   9  -3   10.91    1.55
   4   9  -3   10.34    1.45
  -4  -9   3    9.83    1.27
   3   9  -3    7.99    1.10
   3   9  -3    6.10    1.04
   3   9  -3    6.65    1.21
  -3  -9   3    5.52    1.08
   2   9  -3    1.02    0.83
   2   9  -3    0.60    0.78
   2   9  -3    0.70    0.77
  -2  -9   3   -0.59    0.75
  -2  -9   3    0.53    0.47
   1   9  -3    0.73    0.77
   1   9  -3   -0.64    0.68
  -1  -9   3    0.57    0.80
  -1  -9   3   -0.11    0.52
  -1  -9   3   -0.06    0.45
   0   9  -3   54.37    2.69
   0   9  -3   53.99    2.42
   0  -9   3   48.28    2.03
   0  -9   3   48.73    2.37
   0  -9   3   50.48    2.28
  -1   9  -3    9.61    2.06
  -1   9  -3    8.95    1.15
   1  -9   3   10.47    1.22
   1  -9   3   10.41    1.24
   1  -9   3   10.41    1.02
   1  -9   3   10.12    0.91
  -2   9  -3    9.70    1.46
  -2   9  -3    8.62    1.20
   2  -9   3    6.43    1.17
   2  -9   3    7.62    0.79
   2  -9   3    8.57    0.76
  -3   9  -3   18.08    1.72
  -3   9  -3   19.85    2.08
   3  -9   3   20.62    1.80
   3  -9   3   18.14    1.21
  -4   9  -3    0.76    0.90
  -4   9  -3    0.98    0.96
  -4   9  -3    1.29    0.76
   4  -9   3   -0.16    0.47
   4  -9   3   -0.41    0.95
  -5   9  -3    0.55    0.54
  -5   9  -3    1.76    1.25
  -5   9  -3    0.52    0.72
  -5   9  -3    1.03    1.12
   5  -9   3    0.38    1.14
   5  -9   3   -0.47    0.56
  -6   9  -3    0.73    0.90
  -6   9  -3    0.03    0.61
  -6   9  -3    0.87    1.03
   6  -9   3    1.04    0.70
   6  -9   3   -0.29    1.08
   5   8  -3    1.41    1.05
   5   8  -3    1.08    0.67
   5   8  -3    1.43    0.97
  -5  -8   3    1.43    0.94
   4   8  -3   33.07    1.80
   4   8  -3   34.04    2.06
   4   8  -3   36.14    2.30
  -4  -8   3   30.67    1.95
   3   8  -3    8.51    1.69
   3   8  -3   17.55    1.48
   3   8  -3   19.63    1.62
  -3  -8   3   17.00    1.57
  -3  -8   3   15.52    1.13
   2   8  -3   42.37    2.16
   2   8  -3   42.95    2.23
   2   8  -3   40.93    2.08
  -2  -8   3   41.96    2.11
  -2  -8   3   37.80    1.61
   1   8  -3   62.76    2.51
   1   8  -3   55.52    2.50
   1   8  -3   56.93    2.62
  -1  -8   3   56.82    2.03
   0   8  -3   53.10    2.37
   0   8  -3   58.70    2.69
   0  -8   3   55.32    2.35
   0  -8   3   54.33    2.43
   0  -8   3   56.03    2.17
  -1   8  -3   21.58    1.62
  -1   8  -3   23.44    1.90
   1  -8   3   24.26    1.33
   1  -8   3   21.98    1.62
   1  -8   3   24.14    1.71
  -2   8  -3    2.19    0.98
  -2   8  -3    0.51    0.81
   2  -8   3    0.42    0.47
   2  -8   3    0.58    0.39
   2  -8   3    0.82    0.80
  -3   8  -3   53.09    2.52
  -3   8  -3   61.56    3.05
   3  -8   3   54.71    2.66
   3  -8   3   54.71    2.11
  -4   8  -3   -0.26    0.89
  -4   8  -3    0.15    0.49
  -4   8  -3   -0.96    0.62
   4  -8   3    1.04    0.58
   4  -8   3    0.25    0.90
  -5   8  -3   27.20    2.32
  -5   8  -3   26.49    1.69
  -5   8  -3   26.61    1.53
   5  -8   3   23.83    1.60
   5  -8   3   28.96    2.18
  -6   8  -3    1.37    0.88
  -6   8  -3    4.08    1.34
  -6   8  -3    3.42    0.81
   6  -8   3    2.38    0.81
  -7   8  -3    0.76    1.20
  -7   8  -3    2.95    0.99
  -7   8  -3    2.42    0.82
  -7   8  -3    1.94    1.35
   7  -8   3    1.68    1.37
   6   7  -3    0.87    1.11
   6   7  -3    0.41    0.58
  -6  -7   3    0.94    0.97
   5   7  -3    2.42    1.10
   5   7  -3    1.33    0.60
   5   7  -3    2.83    0.96
  -5  -7   3    0.76    0.88
   4   7  -3   34.25    2.01
   4   7  -3   32.81    1.73
  -4  -7   3   35.77    2.00
   3   7  -3   44.34    2.17
   3   7  -3   42.49    2.26
   3   7  -3   43.83    2.02
  -3  -7   3   41.53    1.81
   2   7  -3   28.64    1.86
   2   7  -3   29.45    1.71
  -2  -7   3   27.42    1.39
  -2  -7   3   28.08    1.72
   1   7  -3    0.27    0.67
   1   7  -3    0.69    0.71
   1   7  -3    1.88    0.78
  -1  -7   3    1.44    0.76
  -1  -7   3    1.27    0.62
   0   7  -3    3.76    0.92
   0   7  -3    2.07    0.80
   0  -7   3    1.88    0.76
   0  -7   3    3.07    0.74
   0  -7   3    3.24    0.65
  -1   7  -3  117.07    3.85
  -1   7  -3  116.42    4.15
   1  -7   3  113.91    3.47
   1  -7   3  115.37    3.87
   1  -7   3  116.90    3.86
  -2   7  -3    1.31    0.88
  -2   7  -3    1.80    0.80
   2  -7   3    3.20    0.89
   2  -7   3    1.91    0.40
   2  -7   3    1.35    0.53
  -3   7  -3    0.99    0.56
  -3   7  -3    0.61    0.66
  -3   7  -3    1.07    0.79
  -3   7  -3    1.00    0.91
   3  -7   3    1.05    0.54
   3  -7   3   -1.21    1.37
  -4   7  -3    1.06    0.68
  -4   7  -3    0.86    0.99
  -4   7  -3    0.64    0.57
   4  -7   3    2.30    0.65
   4  -7   3    1.11    0.94
  -5   7  -3   27.20    1.57
  -5   7  -3   23.13    2.23
  -5   7  -3   28.39    1.77
   5  -7   3   24.06    1.64
  -6   7  -3    0.79    0.78
  -6   7  -3    0.55    0.70
  -6   7  -3    0.10    1.07
  -6   7  -3    0.70    0.93
   6  -7   3    1.51    0.76
   6  -7   3    0.36    0.88
  -7   7  -3   -1.45    1.06
  -7   7  -3    0.22    0.81
  -7   7  -3    2.87    1.14
  -7   7  -3   -0.47    0.70
   7  -7   3   -2.13    1.05
   7  -7   3    0.17    0.78
   6   6  -3   10.47    0.99
   6   6  -3   10.96    1.75
  -6  -6   3    9.98    1.29
   5   6  -3    0.33    0.53
   5   6  -3    0.79    0.83
  -5  -6   3   -0.87    0.76
   4   6  -3    4.69    0.74
   4   6  -3    5.34    1.09
   4   6  -3    5.28    1.02
  -4  -6   3    6.11    1.20
   3   6  -3   92.39    3.04
   3   6  -3   95.36    3.47
   3   6  -3   93.18    3.30
  -3  -6   3   92.66    3.02
  -3  -6   3   87.94    3.31
   2   6  -3    0.64    0.67
   2   6  -3    0.13    0.67
   2   6  -3    0.77    0.58
  -2  -6   3    0.54    0.68
  -2  -6   3    0.45    0.48
   1   6  -3   16.72    1.34
   1   6  -3   17.45    1.34
   1   6  -3   14.86    1.31
  -1  -6   3   14.29    1.27
  -1  -6   3   14.63    1.14
   0   6  -3    1.13    0.67
   0   6  -3    1.27    0.68
   0  -6   3    2.15    0.58
   0  -6   3    1.71    0.66
   0  -6   3    1.61    0.70
  -1   6  -3  141.97    4.31
  -1   6  -3  141.90    4.63
   1  -6   3  134.49    3.98
   1  -6   3  136.58    4.33
   1  -6   3  141.28    4.35
  -2   6  -3   52.20    2.62
  -2   6  -3   51.41    2.29
  -2   6  -3   55.84    2.03
   2  -6   3   53.66    2.48
   2  -6   3   51.79    1.49
   2  -6   3   52.30    1.99
  -3   6  -3    6.27    1.19
  -3   6  -3    6.72    0.79
  -3   6  -3    6.37    0.98
  -3   6  -3    6.50    0.86
   3  -6   3    6.68    1.17
   3  -6   3    7.34    0.86
  -4   6  -3    6.61    0.92
  -4   6  -3    5.58    1.24
  -4   6  -3   10.40    1.02
   4  -6   3    8.08    0.92
   4  -6   3    5.50    1.93
  -5   6  -3   29.97    1.72
  -5   6  -3   34.25    2.40
  -5   6  -3   29.19    1.78
  -5   6  -3   29.67    1.96
   5  -6   3   31.51    1.84
  -6   6  -3   39.29    2.14
  -6   6  -3   42.11    2.34
  -6   6  -3   37.59    2.61
  -6   6  -3   39.01    2.07
   6  -6   3   37.64    2.20
  -7   6  -3   -0.30    0.78
  -7   6  -3    2.21    1.10
  -7   6  -3    0.89    0.91
   7  -6   3    0.66    1.12
   7   5  -3   12.77    1.68
   7   5  -3   15.85    1.20
   7   5  -3   15.01    1.15
  -7  -5   3   12.51    1.48
  -7  -5   3   15.09    1.95
  -7  -5   3   14.72    1.74
   6   5  -3    8.32    0.88
   6   5  -3    6.89    1.27
   6   5  -3    6.29    0.76
  -6  -5   3    5.02    1.22
  -6  -5   3    6.63    1.22
   5   5  -3    7.01    1.21
   5   5  -3    5.62    0.72
  -5  -5   3    5.74    1.20
  -5  -5   3    5.35    1.11
   4   5  -3   -0.77    0.79
   4   5  -3    0.01    0.70
   4   5  -3   -0.16    0.43
  -4  -5   3   -0.20    0.70
   3   5  -3  119.28    3.96
   3   5  -3  111.93    3.44
   3   5  -3  114.89    3.82
  -3  -5   3  119.44    3.87
  -3  -5   3  115.97    3.62
   2   5  -3   29.81    1.62
   2   5  -3   29.34    1.71
   2   5  -3   28.31    1.45
  -2  -5   3   27.53    1.62
  -2  -5   3   26.88    1.41
   1   5  -3   64.75    2.38
   1   5  -3   60.34    2.33
   1   5  -3   63.64    2.41
  -1  -5   3   63.88    2.42
  -1  -5   3   60.13    2.14
   0   5  -3    0.88    0.60
   0   5  -3    0.91    0.58
   0  -5   3    0.59    0.51
   0  -5   3    1.03    0.49
   0  -5   3    1.19    0.62
  -1   5  -3  161.51    4.90
  -1   5  -3  151.72    4.57
   1  -5   3  152.92    4.66
   1  -5   3  149.19    4.33
   1  -5   3  163.27    4.67
  -2   5  -3  197.32    5.68
  -2   5  -3  201.68    6.08
  -2   5  -3  200.47    5.40
   2  -5   3  202.47    5.92
   2  -5   3  195.59    5.39
  -3   5  -3   26.98    1.67
  -3   5  -3   28.23    1.46
  -3   5  -3   25.47    1.44
  -3   5  -3   26.11    1.96
   3  -5   3   26.34    1.47
   3  -5   3   24.58    1.83
  -4   5  -3    1.29    0.95
  -4   5  -3    2.05    0.71
  -4   5  -3    1.23    0.78
  -4   5  -3    1.01    0.60
   4  -5   3    1.30    0.66
   4  -5   3   -0.12    0.84
  -5   5  -3    1.51    0.27
  -5   5  -3    1.19    0.71
  -5   5  -3    1.04    0.74
  -5   5  -3    0.29    0.80
  -5   5  -3    1.02    1.06
   5  -5   3    3.14    1.07
   5  -5   3    1.80    0.76
  -6   5  -3   76.99    3.04
  -6   5  -3   63.65    3.34
   6  -5   3   78.27    3.23
  -7   5  -3    6.11    1.09
  -7   5  -3    4.05    1.05
   7  -5   3    2.04    1.19
  -8   5  -3    0.75    1.05
  -8   5  -3   -0.61    0.97
   8  -5   3   -0.40    1.12
   7   4  -3   25.43    2.17
   7   4  -3   24.70    1.42
   7   4  -3   24.56    1.95
  -7  -4   3   23.34    1.94
  -7  -4   3   24.40    2.06
  -7  -4   3   24.48    2.86
   6   4  -3   13.44    1.75
   6   4  -3   20.31    1.28
   6   4  -3   19.83    1.70
  -6  -4   3   19.50    1.83
  -6  -4   3   23.04    1.86
   5   4  -3   86.49    3.22
   5   4  -3   86.22    3.44
  -5  -4   3   88.80    3.61
  -5  -4   3   86.79    3.33
   4   4  -3    2.99    0.92
   4   4  -3    3.97    0.92
   4   4  -3    4.58    0.59
  -4  -4   3    4.81    1.01
  -4  -4   3    4.20    0.95
   3   4  -3   36.00    1.88
   3   4  -3   39.55    1.98
   3   4  -3   36.19    1.42
  -3  -4   3   34.37    1.84
  -3  -4   3   35.79    1.89
  -3  -4   3   34.02    1.73
   2   4  -3  164.60    4.45
   2   4  -3  165.83    4.85
   2   4  -3  170.88    4.86
  -2  -4   3  166.83    4.67
  -2  -4   3  162.18    4.82
   1   4  -3   68.24    2.45
   1   4  -3   69.12    2.31
   1   4  -3   70.90    2.39
  -1  -4   3   63.73    2.41
  -1  -4   3   66.74    2.14
   0   4  -3   58.13    2.19
   0  -4   3   60.95    2.23
   0  -4   3   58.20    2.09
   0  -4   3   56.08    2.07
  -1   4  -3   25.53    1.63
  -1   4  -3   24.72    1.41
  -1   4  -3   27.81    1.32
   1  -4   3   26.11    1.50
   1  -4   3   26.81    1.47
   1  -4   3   25.99    1.28
  -2   4  -3  224.08    5.84
  -2   4  -3  222.64    6.15
  -2   4  -3  218.78    5.95
  -2   4  -3  234.45    6.64
   2  -4   3  220.95    5.96
   2  -4   3  222.93    6.45
  -3   4  -3   31.29    1.70
  -3   4  -3   31.56    2.03
  -3   4  -3   30.88    1.50
  -3   4  -3   30.16    1.56
  -3   4  -3   29.71    0.95
   3  -4   3   28.55    1.55
   3  -4   3   30.45    1.95
  -4   4  -3   52.65    2.29
  -4   4  -3   55.42    2.83
  -4   4  -3   58.33    2.31
  -4   4  -3   53.05    1.57
   4  -4   3   55.25    2.40
   4  -4   3   55.64    2.81
  -5   4  -3    0.94    0.95
  -5   4  -3    0.52    0.74
  -5   4  -3   -0.40    0.64
   5  -4   3   -0.10    0.68
   5  -4   3    0.22    1.01
   5  -4   3   -0.18    0.63
  -6   4  -3    9.23    1.29
  -6   4  -3    9.67    1.21
   6  -4   3   10.34    1.38
   6  -4   3    7.38    1.45
   6  -4   3   11.05    1.28
  -7   4  -3   10.04    1.45
  -7   4  -3    7.41    1.21
   7  -4   3   13.57    1.69
   7  -4   3    8.73    1.25
  -8   4  -3    0.87    0.97
  -8   4  -3    2.38    1.18
   8  -4   3    2.27    1.03
   8   3  -3    0.90    0.94
   8   3  -3    0.37    0.66
   8   3  -3    0.36    0.62
   8   3  -3    0.49    1.01
  -8  -3   3    1.23    1.94
  -8  -3   3    2.03    1.04
  -8  -3   3    0.98    1.20
   7   3  -3    4.99    0.79
   7   3  -3    5.03    1.16
   7   3  -3    6.72    1.24
  -7  -3   3    4.91    1.15
  -7  -3   3    7.63    1.37
  -7  -3   3    6.44    1.33
   6   3  -3    6.73    0.83
   6   3  -3    4.80    1.10
   6   3  -3    6.30    1.18
  -6  -3   3    6.79    1.20
  -6  -3   3    6.18    1.24
   5   3  -3   68.36    2.36
   5   3  -3   67.95    2.93
   5   3  -3   69.57    3.01
  -5  -3   3   70.70    3.06
  -5  -3   3   71.03    2.91
   4   3  -3   52.97    2.38
   4   3  -3   56.91    2.54
  -4  -3   3   56.49    2.56
  -4  -3   3   56.57    2.48
   3   3  -3    1.91    0.74
   3   3  -3    2.64    0.74
   3   3  -3    2.51    0.68
   3   3  -3    2.62    0.39
  -3  -3   3    4.11    0.83
  -3  -3   3    2.39    0.67
  -3  -3   3    2.55    0.76
   2   3  -3  260.62    6.89
   2   3  -3  255.83    6.88
   2   3  -3  255.33    6.34
  -2  -3   3  263.05    6.93
  -2  -3   3  254.40    6.85
  -2  -3   3  259.23    6.80
   1   3  -3   38.80    2.28
   1   3  -3   41.53    1.48
   1   3  -3   40.72    1.71
  -1  -3   3   41.09    1.38
  -1  -3   3   45.43    1.77
   0   3  -3  359.18    8.91
   0   3  -3  358.40    8.87
   0  -3   3  352.57    8.85
   0  -3   3  347.56    9.18
   0  -3   3  336.40    8.74
  -1   3  -3    0.33    0.37
  -1   3  -3    0.30    0.43
  -1   3  -3    0.05    0.53
   1  -3   3   -0.18    0.41
   1  -3   3    0.11    0.64
   1  -3   3    0.30    0.50
  -2   3  -3  217.73    5.92
  -2   3  -3  221.35    5.68
  -2   3  -3  221.57    6.42
  -2   3  -3  208.51    5.82
   2  -3   3  222.10    5.88
   2  -3   3  221.25    6.33
  -3   3  -3  128.35    3.40
  -3   3  -3  134.14    4.06
  -3   3  -3  134.30    4.59
  -3   3  -3  130.27    3.91
   3  -3   3  134.32    4.09
   3  -3   3  132.46    4.52
   3  -3   3  135.21    3.88
  -4   3  -3   27.19    1.70
  -4   3  -3   25.89    1.62
   4  -3   3   26.86    1.57
   4  -3   3   24.65    1.92
   4  -3   3   26.12    1.75
  -5   3  -3    3.42    0.89
  -5   3  -3    2.52    0.93
   5  -3   3    2.10    1.03
   5  -3   3    1.16    0.80
   5  -3   3    1.73    0.76
  -6   3  -3    1.68    0.98
  -6   3  -3    0.73    0.83
   6  -3   3    2.81    0.89
   6  -3   3    2.08    1.16
   6  -3   3    2.69    1.10
  -7   3  -3   21.53    2.14
  -7   3  -3   19.82    1.77
   7  -3   3   20.44    1.79
  -8   3  -3   -0.94    0.89
   8  -3   3    0.41    0.88
   8  -3   3    0.70    1.09
   8   2  -3    7.99    1.34
   8   2  -3    6.03    0.85
   8   2  -3    6.28    1.29
   8   2  -3    7.12    0.95
  -8  -2   3    6.27    1.28
  -8  -2   3    5.95    1.30
  -8  -2   3    7.35    1.47
   7   2  -3    3.33    1.10
   7   2  -3    3.42    0.98
   7   2  -3    3.95    0.81
   7   2  -3    5.20    0.86
  -7  -2   3    5.03    1.16
  -7  -2   3    0.59    1.09
  -7  -2   3    3.13    1.12
   6   2  -3   26.16    1.49
   6   2  -3   25.88    2.05
   6   2  -3   26.84    1.94
  -6  -2   3   23.27    1.93
  -6  -2   3   20.54    2.05
   5   2  -3    0.73    0.81
   5   2  -3    1.62    0.56
   5   2  -3    0.17    0.81
  -5  -2   3    0.98    0.84
  -5  -2   3    1.81    0.87
   4   2  -3  227.99    6.59
   4   2  -3  219.60    5.86
   4   2  -3  223.82    6.58
  -4  -2   3  222.94    6.58
  -4  -2   3  241.92    6.61
   3   2  -3   56.54    1.72
   3   2  -3   54.81    2.34
   3   2  -3   58.32    2.37
   3   2  -3   58.98    2.32
  -3  -2   3   57.97    2.38
  -3  -2   3   54.70    2.33
  -3  -2   3   56.38    2.30
   2   2  -3    9.77    0.94
   2   2  -3    7.26    0.80
  -2  -2   3    9.71    0.90
  -2  -2   3   11.51    0.98
  -2  -2   3    8.29    1.00
   1   2  -3  407.57   10.00
   1   2  -3  414.54   10.36
   1   2  -3  424.13   10.22
  -1  -2   3  414.77    9.92
  -1  -2   3  435.61   10.40
  -1  -2   3  424.08   10.18
   0   2  -3  788.66   20.06
   0   2  -3  830.18   20.07
   0   2  -3  866.05   19.98
   0  -2   3  876.86   19.97
   0  -2   3  829.49   19.97
   0  -2   3  803.10   19.64
   0  -2   3  886.44   20.01
  -1   2  -3   85.89    2.10
  -1   2  -3   84.33    2.95
  -1   2  -3   85.71    2.32
  -1   2  -3   83.53    2.62
   1  -2   3   88.41    2.64
   1  -2   3   87.61    2.59
  -2   2  -3   16.48    1.06
  -2   2  -3   17.26    0.99
  -2   2  -3   15.41    0.76
  -2   2  -3   16.34    1.09
   2  -2   3   19.63    1.46
   2  -2   3   15.43    1.09
   2  -2   3   16.71    0.93
  -3   2  -3   36.80    1.09
  -3   2  -3   38.71    1.78
  -3   2  -3   37.90    1.87
   3  -2   3   35.74    2.15
   3  -2   3   35.26    1.66
   3  -2   3   37.43    1.84
  -4   2  -3    7.74    1.04
  -4   2  -3    8.06    1.13
   4  -2   3    8.88    1.34
   4  -2   3    8.72    1.11
   4  -2   3   10.19    1.07
  -5   2  -3   44.43    2.52
  -5   2  -3   44.02    2.21
   5  -2   3   48.01    2.64
   5  -2   3   41.48    2.43
   5  -2   3   46.73    2.26
  -6   2  -3    0.39    0.80
  -6   2  -3   -0.20    0.91
   6  -2   3   -0.16    0.96
   6  -2   3   -0.93    0.71
  -7   2  -3   14.29    1.52
  -7   2  -3   15.21    1.82
   7  -2   3   15.57    1.57
  -8   2  -3    3.97    1.46
  -8   2  -3    5.25    1.14
   8  -2   3    6.71    1.34
   8  -2   3    7.83    1.28
   8   1  -3   16.59    1.84
   8   1  -3   17.27    1.45
   8   1  -3   13.45    1.75
   8   1  -3   16.32    1.10
  -8  -1   3   17.13    1.74
  -8  -1   3   14.54    1.62
  -8  -1   3   14.62    1.68
   7   1  -3    0.60    0.67
   7   1  -3    0.00    0.53
   7   1  -3   -1.28    0.82
   7   1  -3   -0.11    0.61
  -7  -1   3    0.10    0.94
  -7  -1   3    0.18    0.88
  -7  -1   3   -0.79    0.93
   6   1  -3    2.94    0.72
   6   1  -3    4.63    1.17
   6   1  -3    3.79    0.79
   6   1  -3    3.20    1.01
  -6  -1   3    3.67    1.09
  -6  -1   3    2.67    1.02
   5   1  -3   32.85    2.00
   5   1  -3   31.82    1.60
   5   1  -3   34.10    1.63
   5   1  -3   30.30    2.17
  -5  -1   3   35.78    2.16
  -5  -1   3   33.35    2.08
   4   1  -3   82.91    3.27
   4   1  -3   84.58    3.12
   4   1  -3   77.40    2.54
  -4  -1   3   79.72    3.10
  -4  -1   3   79.74    3.10
   3   1  -3  133.74    3.51
   3   1  -3  136.06    4.25
   3   1  -3  131.23    4.10
  -3  -1   3  134.54    4.18
  -3  -1   3  131.63    4.15
  -3  -1   3  130.79    4.19
   2   1  -3   73.61    2.48
   2   1  -3   72.21    1.79
   2   1  -3   70.28    2.47
  -2  -1   3   77.51    2.54
  -2  -1   3   74.46    2.48
  -2  -1   3   68.67    2.76
   1   1  -3   73.13    2.24
   1   1  -3   75.17    2.39
   1   1  -3   72.10    2.11
  -1  -1   3   73.66    2.12
  -1  -1   3   73.61    2.24
   0   1  -3   78.97    2.21
   0   1  -3   74.54    2.29
   0   1  -3   83.84    2.41
   0   1  -3   76.73    2.12
   0  -1   3   74.98    2.30
   0  -1   3   81.26    2.22
   0  -1   3   78.68    2.12
  -1   1  -3  324.85    7.83
  -1   1  -3  324.13    7.85
  -1   1  -3  320.10    7.76
   1  -1   3  305.59    7.72
   1  -1   3  326.41    8.05
  -2   1  -3   22.40    0.88
  -2   1  -3   20.39    1.24
  -2   1  -3   20.84    1.16
   2  -1   3   20.80    1.56
   2  -1   3   20.96    1.15
   2  -1   3   22.61    1.32
  -3   1  -3  276.73    7.54
  -3   1  -3  275.02    7.35
   3  -1   3  262.15    7.25
   3  -1   3  275.63    7.57
   3  -1   3  274.64    7.81
  -4   1  -3   40.74    2.24
  -4   1  -3   38.25    1.98
   4  -1   3   38.65    2.33
   4  -1   3   37.19    2.16
   4  -1   3   37.34    1.94
  -5   1  -3   69.11    2.96
  -5   1  -3   67.99    3.20
   5  -1   3   70.84    2.95
   5  -1   3   69.12    3.20
   5  -1   3   75.77    3.25
  -6   1  -3    1.17    0.89
  -6   1  -3    0.89    0.94
   6  -1   3    0.49    0.95
   6  -1   3   -1.64    0.73
  -7   1  -3    1.07    1.13
  -7   1  -3    5.23    1.18
   7  -1   3    4.32    1.09
  -8   1  -3    6.41    1.31
  -8   1  -3    7.39    1.56
   8  -1   3    9.71    1.53
   8   0  -3   24.10    2.17
   8   0  -3   23.40    1.69
   8   0  -3   23.13    2.04
   8   0  -3   22.64    1.16
  -8   0   3   25.51    2.27
  -8   0   3   20.13    2.00
  -8   0   3   26.48    2.05
   7   0  -3    3.71    0.67
   7   0  -3    4.03    1.28
   7   0  -3    4.79    0.94
  -7   0   3    5.93    1.21
  -7   0   3    4.05    1.14
  -7   0   3    5.98    1.32
   6   0  -3   22.13    1.86
   6   0  -3   19.76    1.49
   6   0  -3   19.13    1.18
   6   0  -3   16.80    1.87
  -6   0   3   21.97    2.01
  -6   0   3   21.96    1.81
  -6   0   3   19.21    1.78
   5   0  -3   12.07    1.55
   5   0  -3   13.25    1.38
   5   0  -3   13.55    1.19
   5   0  -3   11.69    1.02
  -5   0   3   13.35    1.41
  -5   0   3   12.97    1.44
   4   0  -3  143.49    4.84
   4   0  -3  144.84    4.50
   4   0  -3  141.81    4.14
   4   0  -3  129.41    4.49
  -4   0   3  145.19    4.58
  -4   0   3  151.79    4.15
   3   0  -3  876.94   21.29
   3   0  -3  880.08   21.53
   3   0  -3  896.55   21.13
   3   0  -3  901.96   21.89
  -3   0   3  905.63   21.62
  -3   0   3  871.52   21.77
  -3   0   3  899.17   21.12
   2   0  -3   94.34    2.61
   2   0  -3   98.58    3.24
   2   0  -3   93.93    2.87
   2   0  -3   98.33    2.94
  -2   0   3   93.51    3.06
  -2   0   3   97.79    3.05
  -2   0   3   98.67    2.92
  -2   0   3   96.98    2.61
   1   0  -3    8.62    0.66
   1   0  -3    8.31    0.74
  -1   0   3    7.48    0.70
  -1   0   3    7.88    0.64
  -1   0   3    7.45    0.52
   0   0  -3  185.21    4.70
   0   0  -3  180.97    4.70
   0   0  -3  192.20    4.86
   0   0  -3  179.54    4.46
   0   0   3  183.42    4.71
   0   0   3  185.58    4.46
  -1   0  -3  771.54   18.07
  -1   0  -3  775.40   18.16
  -1   0  -3  730.91   18.61
   1   0   3  789.30   18.33
   1   0   3  750.96   18.09
  -2   0  -3  107.65    3.31
  -2   0  -3  111.89    3.54
   2   0   3  109.42    3.35
   2   0   3  111.09    3.56
  -3   0  -3    0.41    0.61
  -3   0  -3   -0.02    0.63
   3   0   3    0.13    0.60
   3   0   3    0.11    0.61
  -4   0  -3   70.29    2.83
  -4   0  -3   63.77    3.00
   4   0   3   67.39    2.97
   4   0   3   65.18    3.05
   4   0   3   70.39    2.83
  -5   0  -3   65.80    3.24
  -5   0  -3   67.47    2.92
   5   0   3   71.33    2.93
   5   0   3   72.62    3.21
  -6   0  -3   30.97    2.47
   6   0   3   28.95    2.04
   6   0   3   29.05    2.19
  -7   0  -3    0.30    0.94
  -7   0  -3    1.21    1.15
  -7   0  -3    0.01    0.74
   7   0   3   -0.26    0.87
  -8   0  -3    7.60    1.55
  -8   0  -3    5.41    1.26
  -8   0  -3    5.06    1.09
   8   0   3    9.72    1.46
   8   0   3    4.36    1.22
   8   0   3    6.35    1.27
   9  -1  -3    2.92    1.48
   9  -1  -3    1.61    1.30
   9  -1  -3   -0.18    0.86
  -9   1   3    2.39    1.16
  -9   1   3    3.57    1.19
  -9   1   3    2.01    1.09
   8  -1  -3    1.15    0.81
   8  -1  -3    3.36    1.06
   8  -1  -3    2.76    1.17
  -8   1   3    0.52    0.95
  -8   1   3    2.75    1.14
  -8   1   3    4.20    1.19
   7  -1  -3   63.47    3.23
   7  -1  -3   63.10    2.73
  -7   1   3   64.08    3.03
  -7   1   3   62.53    3.10
   6  -1  -3   11.98    1.69
   6  -1  -3   12.06    1.28
   6  -1  -3   10.41    1.52
  -6   1   3    9.61    1.36
  -6   1   3   12.28    1.43
   5  -1  -3    9.38    0.99
   5  -1  -3   10.93    1.25
   5  -1  -3    6.26    1.32
   5  -1  -3    9.16    1.04
  -5   1   3    8.91    1.01
  -5   1   3    8.96    1.24
  -5   1   3    8.67    1.25
   4  -1  -3    3.05    0.68
   4  -1  -3    2.68    0.98
   4  -1  -3    1.99    0.59
   4  -1  -3    1.70    0.71
  -4   1   3    2.97    0.79
  -4   1   3    3.20    0.67
   3  -1  -3  149.29    4.39
   3  -1  -3  152.86    4.86
   3  -1  -3  147.93    4.25
  -3   1   3  154.17    4.27
  -3   1   3  157.98    4.49
   2  -1  -3   87.05    2.70
   2  -1  -3   85.54    2.61
   2  -1  -3   92.30    2.72
   2  -1  -3   80.12    2.92
  -2   1   3   82.63    2.86
  -2   1   3   87.53    2.60
  -2   1   3   86.29    2.64
   1  -1  -3    0.16    0.33
   1  -1  -3    0.35    0.45
  -1   1   3    0.54    0.34
  -1   1   3    0.27    0.34
  -1   1   3    0.30    0.20
   0  -1  -3  239.21    6.39
   0  -1  -3  245.40    6.00
   0   1   3  242.09    6.02
   0   1   3  240.17    5.66
  -1  -1  -3  220.45    5.29
   1   1   3  230.92    5.96
   1   1   3  215.71    5.75
  -2  -1  -3  354.29    9.12
  -2  -1  -3  364.46    9.43
   2   1   3  353.74    9.12
   2   1   3  353.71    9.46
  -3  -1  -3    5.71    1.10
  -3  -1  -3    6.53    0.92
   3   1   3    5.70    0.89
   3   1   3    4.68    1.01
  -4  -1  -3   70.52    2.53
  -4  -1  -3   65.39    2.85
  -4  -1  -3   67.69    3.16
   4   1   3   68.35    2.85
  -5  -1  -3  121.02    4.72
  -5  -1  -3  113.64    3.74
  -5  -1  -3  112.95    4.08
   5   1   3  113.81    4.07
  -6  -1  -3   11.47    1.22
  -6  -1  -3    7.56    1.30
   6   1   3    9.08    1.39
   6   1   3   10.30    1.38
  -7  -1  -3   -0.44    0.77
  -7  -1  -3    0.18    1.06
  -7  -1  -3    1.07    1.00
   7   1   3    0.34    0.86
   7   1   3   -0.66    0.91
  -8  -1  -3   -0.14    0.82
   8   1   3    0.13    0.93
   8   1   3   -1.68    0.98
   8   1   3   -0.26    1.04
   9  -2  -3    3.45    1.42
   9  -2  -3    4.87    1.40
  -9   2   3    5.01    1.23
  -9   2   3    5.81    1.30
   8  -2  -3    2.03    1.23
   8  -2  -3    1.76    0.91
   8  -2  -3    2.20    1.00
  -8   2   3    3.41    1.11
  -8   2   3    3.20    1.03
   7  -2  -3   20.51    1.77
   7  -2  -3   22.39    2.29
  -7   2   3   21.88    1.91
  -7   2   3   23.60    1.96
   6  -2  -3    6.82    1.16
   6  -2  -3    6.49    1.06
   6  -2  -3   10.63    1.65
  -6   2   3    9.67    1.22
  -6   2   3    6.75    1.14
  -6   2   3    7.05    1.18
   5  -2  -3   34.86    2.00
   5  -2  -3   37.14    2.04
   5  -2  -3   34.50    1.56
   5  -2  -3   38.96    2.48
  -5   2   3   38.43    2.04
  -5   2   3   39.22    2.17
  -5   2   3   37.56    1.96
   4  -2  -3    0.37    0.63
   4  -2  -3   -0.21    0.48
   4  -2  -3   -0.13    0.56
   4  -2  -3   -0.09    0.76
  -4   2   3   -0.01    0.62
  -4   2   3    0.50    0.63
  -4   2   3   -0.05    0.54
   3  -2  -3  225.99    6.62
   3  -2  -3  220.26    5.99
   3  -2  -3  222.13    6.12
   3  -2  -3  224.61    6.04
  -3   2   3  227.50    6.12
  -3   2   3  224.87    6.11
   2  -2  -3  288.27    7.20
   2  -2  -3  271.54    7.28
   2  -2  -3  283.03    7.58
  -2   2   3  273.13    7.66
   1  -2  -3    2.51    0.42
   1  -2  -3    3.21    0.59
  -1   2   3    2.25    0.63
  -1   2   3    2.65    0.49
  -1   2   3    2.17    0.24
   0  -2  -3    5.55    0.54
   0   2   3    4.69    0.36
   0   2   3    6.04    0.58
   0   2   3    5.30    0.46
  -1  -2  -3    8.80    0.45
  -1  -2  -3    5.47    0.71
   1   2   3   10.42    0.89
   1   2   3    7.00    0.84
  -2  -2  -3  183.95    4.65
  -2  -2  -3  178.70    5.47
   2   2   3  182.17    5.18
  -3  -2  -3   16.36    1.43
  -3  -2  -3   13.50    1.51
   3   2   3   16.81    1.43
  -4  -2  -3   12.26    1.54
  -4  -2  -3   14.82    1.18
  -4  -2  -3   15.39    1.50
   4   2   3   17.29    1.55
  -5  -2  -3    2.78    1.17
  -5  -2  -3    1.73    0.70
  -5  -2  -3    2.33    0.98
   5   2   3    2.09    0.96
  -6  -2  -3   83.08    2.96
  -6  -2  -3   81.25    3.39
  -6  -2  -3   67.59    3.48
   6   2   3   84.04    3.42
   6   2   3   78.88    3.35
   6   2   3   82.87    3.22
  -7  -2  -3    5.49    0.98
  -7  -2  -3    9.31    1.45
   7   2   3    8.85    1.37
   7   2   3    9.17    1.30
   7   2   3    7.75    1.35
   9  -3  -3    9.63    1.35
   9  -3  -3   13.32    1.81
  -9   3   3    7.86    1.30
  -9   3   3   11.03    1.54
   8  -3  -3   -0.16    0.95
   8  -3  -3   -1.09    1.03
   8  -3  -3    0.55    0.88
  -8   3   3    0.42    0.94
  -8   3   3    0.77    0.87
   7  -3  -3   19.72    2.12
   7  -3  -3   16.80    1.91
  -7   3   3   22.33    1.81
  -7   3   3   19.28    1.77
  -7   3   3   18.74    1.86
   6  -3  -3   79.75    3.24
   6  -3  -3   84.73    3.84
   6  -3  -3   77.09    3.16
  -6   3   3   74.70    3.14
  -6   3   3   81.71    3.20
  -6   3   3   81.79    3.17
   5  -3  -3   66.22    3.39
   5  -3  -3   73.67    2.96
  -5   3   3   68.10    2.82
  -5   3   3   70.33    2.77
  -5   3   3   73.30    2.88
   4  -3  -3    1.29    0.92
   4  -3  -3    2.26    0.76
  -4   3   3    2.28    0.61
  -4   3   3    2.46    0.77
  -4   3   3    2.36    0.72
   3  -3  -3    5.07    0.87
   3  -3  -3    3.87    0.95
   3  -3  -3    3.13    0.70
  -3   3   3    3.79    0.53
  -3   3   3    4.29    0.76
  -3   3   3    4.42    0.80
   2  -3  -3  424.20   10.74
   2  -3  -3  421.61   10.48
  -2   3   3  412.31    9.77
  -2   3   3  420.46    9.74
  -2   3   3  416.87   10.71
   1  -3  -3   15.85    1.09
   1  -3  -3   17.55    0.87
   1  -3  -3   13.75    0.46
  -1   3   3   13.47    1.13
  -1   3   3   13.74    0.84
   0  -3  -3  228.69    5.82
   0   3   3  228.32    5.69
   0   3   3  236.79    6.37
  -1  -3  -3    5.09    0.46
  -1  -3  -3    4.30    0.75
   1   3   3    4.45    0.44
   1   3   3    4.67    0.76
  -2  -3  -3  104.15    2.90
  -2  -3  -3  104.68    3.79
   2   3   3  103.86    3.47
  -3  -3  -3   82.00    3.52
  -3  -3  -3   84.98    2.59
   3   3   3   79.48    3.08
  -4  -3  -3   26.46    1.39
  -4  -3  -3   26.85    2.23
  -4  -3  -3   24.40    1.82
   4   3   3   25.52    1.55
   4   3   3   27.78    1.87
  -5  -3  -3    3.59    1.18
  -5  -3  -3    5.01    1.09
  -5  -3  -3    5.83    0.83
   5   3   3    4.36    1.17
   5   3   3    5.70    0.92
  -6  -3  -3    1.55    1.05
  -6  -3  -3    0.75    0.69
  -6  -3  -3   -1.50    0.85
   6   3   3    0.67    0.95
   6   3   3    0.72    0.77
  -7  -3  -3   11.82    1.17
  -7  -3  -3   10.21    1.68
  -7  -3  -3    8.79    1.48
   7   3   3   11.92    1.26
   7   3   3    8.10    1.35
   7   3   3    9.73    1.56
   8  -4  -3   33.04    2.52
  -8   4   3   29.82    2.28
  -8   4   3   31.97    2.22
  -8   4   3   33.84    2.10
   7  -4  -3    4.68    1.38
   7  -4  -3    5.73    1.16
  -7   4   3    5.09    1.14
  -7   4   3    6.50    1.03
  -7   4   3    4.63    1.30
   6  -4  -3   36.65    2.24
  -6   4   3   34.48    2.06
  -6   4   3   36.87    1.89
  -6   4   3   32.35    2.14
   5  -4  -3    1.21    0.82
   5  -4  -3    1.36    1.05
  -5   4   3    1.32    0.76
  -5   4   3    2.44    0.89
  -5   4   3    0.91    0.57
   4  -4  -3   93.99    3.46
   4  -4  -3   87.29    3.74
   4  -4  -3   94.91    3.09
  -4   4   3   92.82    3.25
  -4   4   3   89.58    2.93
  -4   4   3   93.05    3.39
   3  -4  -3   -0.03    0.55
   3  -4  -3    0.61    0.71
   3  -4  -3   -0.26    0.72
  -3   4   3   -0.35    0.61
  -3   4   3    0.13    0.20
   2  -4  -3  114.79    4.09
   2  -4  -3  115.57    3.54
   2  -4  -3  112.55    3.79
  -2   4   3  117.83    3.85
   1  -4  -3  115.41    3.17
   1  -4  -3  116.00    3.59
  -1   4   3  117.31    3.84
  -1   4   3  116.05    3.31
   0  -4  -3  102.54    2.97
   0   4   3  103.09    3.50
  -1  -4  -3    9.19    0.74
  -1  -4  -3   11.45    1.19
   1   4   3    9.23    1.09
   1   4   3    7.92    0.99
   1   4   3    7.86    0.98
  -2  -4  -3   43.26    2.35
   2   4   3   44.22    2.13
   2   4   3   41.69    1.62
   2   4   3   44.20    1.22
  -3  -4  -3   51.97    2.78
  -3  -4  -3   49.15    1.82
   3   4   3   48.27    2.35
   3   4   3   50.61    1.73
  -4  -4  -3    0.09    1.74
  -4  -4  -3   -0.59    0.46
   4   4   3    0.54    0.83
   4   4   3   -0.24    0.48
  -5  -4  -3    0.31    0.58
   5   4   3    0.68    0.89
   5   4   3    0.28    0.55
  -6  -4  -3   -1.03    0.61
  -6  -4  -3    0.88    1.15
   6   4   3   -0.30    0.64
   6   4   3    0.63    1.06
   8  -5  -3    0.95    1.16
   8  -5  -3    0.81    1.05
  -8   5   3    1.00    1.04
  -8   5   3    0.98    1.08
  -8   5   3   -0.40    0.69
   7  -5  -3   19.62    2.09
  -7   5   3   16.38    1.69
  -7   5   3   15.04    1.41
  -7   5   3   16.61    1.61
   6  -5  -3    1.33    0.95
   6  -5  -3    3.52    1.29
  -6   5   3    0.56    0.56
  -6   5   3   -0.15    0.80
   5  -5  -3   17.45    1.66
   5  -5  -3   19.04    2.03
  -5   5   3   15.78    1.61
  -5   5   3   16.35    1.51
  -5   5   3   17.16    1.05
   4  -5  -3   90.12    3.52
   4  -5  -3   96.63    3.12
   4  -5  -3   91.31    3.80
  -4   5   3   93.01    2.45
  -4   5   3   88.45    3.43
  -4   5   3   87.54    3.23
   3  -5  -3   24.46    1.80
   3  -5  -3   29.38    1.81
   3  -5  -3   26.01    1.45
  -3   5   3   24.38    1.75
   2  -5  -3    1.51    0.75
   2  -5  -3    2.67    0.69
   2  -5  -3    1.95    0.69
  -2   5   3    3.93    0.89
  -2   5   3    3.11    0.69
   1  -5  -3   56.69    2.22
   1  -5  -3   52.82    1.37
   1  -5  -3   52.63    1.67
  -1   5   3   52.14    1.93
  -1   5   3   56.00    2.47
   0  -5  -3   18.01    1.06
   0   5   3   17.14    1.01
   0   5   3   17.63    1.50
  -1  -5  -3   33.30    1.81
  -1  -5  -3   28.87    1.33
   1   5   3   31.81    1.82
   1   5   3   31.10    1.81
   1   5   3   30.70    1.32
  -2  -5  -3    0.37    0.43
  -2  -5  -3   -0.03    0.76
   2   5   3    0.07    0.42
   2   5   3   -0.05    0.69
   2   5   3   -0.29    0.67
  -3  -5  -3   58.44    2.95
  -3  -5  -3   54.43    2.01
   3   5   3   58.98    2.69
  -4  -5  -3    1.75    0.59
  -4  -5  -3    4.42    1.22
   4   5   3    3.12    1.01
   4   5   3    2.53    0.50
  -5  -5  -3   12.07    1.16
  -5  -5  -3   14.00    1.68
   5   5   3   14.25    1.65
   5   5   3   11.85    0.99
  -6  -5  -3   -0.77    0.59
  -6  -5  -3    1.96    1.37
   6   5   3   -0.70    1.11
   6   5   3    0.17    0.55
   8  -6  -3    9.90    1.53
   8  -6  -3    7.21    1.66
  -8   6   3    6.98    1.63
  -8   6   3   10.13    2.29
  -8   6   3    8.97    1.46
   7  -6  -3    9.19    1.42
   7  -6  -3    9.55    1.67
  -7   6   3    6.10    0.80
  -7   6   3    8.31    1.40
  -7   6   3    8.56    1.31
   6  -6  -3   -0.96    1.04
  -6   6   3   -0.42    0.77
  -6   6   3    0.04    0.42
  -6   6   3   -0.58    0.84
   5  -6  -3    8.66    1.32
   5  -6  -3    7.79    1.44
  -5   6   3    7.41    1.12
  -5   6   3    6.79    0.69
  -5   6   3    6.73    1.40
   4  -6  -3   21.21    1.91
   4  -6  -3   22.23    1.45
  -4   6   3   21.60    1.83
  -4   6   3   23.72    1.69
   3  -6  -3   89.73    3.52
   3  -6  -3   95.98    3.14
   3  -6  -3   94.90    3.49
  -3   6   3   91.34    3.57
  -3   6   3   96.14    3.23
   2  -6  -3   -0.06    0.49
   2  -6  -3   -0.58    0.64
   2  -6  -3   -0.11    0.62
  -2   6   3    0.44    0.55
  -2   6   3    0.06    0.73
   1  -6  -3    8.30    0.42
   1  -6  -3    8.11    0.57
   1  -6  -3    8.44    1.10
   1  -6  -3    8.13    0.38
  -1   6   3    9.72    0.96
  -1   6   3    6.57    1.08
   0  -6  -3    0.58    0.45
   0   6   3   -0.08    0.73
   0   6   3    1.23    0.52
  -1  -6  -3  145.59    4.71
  -1  -6  -3  157.83    4.32
   1   6   3  159.19    4.27
   1   6   3  158.70    4.99
   1   6   3  148.72    5.37
  -2  -6  -3   12.00    1.40
  -2  -6  -3   12.08    0.98
   2   6   3   11.55    1.31
   2   6   3   11.22    0.98
   2   6   3   10.30    1.31
  -3  -6  -3    6.04    1.25
  -3  -6  -3    4.60    0.72
   3   6   3    6.32    1.17
   3   6   3    4.06    1.15
  -4  -6  -3   15.36    1.77
  -4  -6  -3   15.76    1.18
   4   6   3   15.53    1.60
   4   6   3   19.64    1.80
  -5  -6  -3    0.90    0.60
  -5  -6  -3    3.33    1.26
   5   6   3    0.99    1.03
   7  -7  -3    9.90    1.54
   7  -7  -3    7.15    1.57
  -7   7   3   11.28    1.36
  -7   7   3    8.80    0.89
  -7   7   3    7.82    1.38
   6  -7  -3    1.44    0.99
   6  -7  -3    2.86    1.17
  -6   7   3    1.17    0.89
  -6   7   3    0.50    0.96
  -6   7   3    1.82    0.39
   5  -7  -3    5.58    1.35
   5  -7  -3    5.81    0.94
  -5   7   3    4.60    1.00
  -5   7   3    5.24    1.10
  -5   7   3    4.66    1.15
   4  -7  -3    2.29    0.95
   4  -7  -3   -0.62    0.59
   4  -7  -3    1.33    0.69
  -4   7   3    1.03    0.92
  -4   7   3    2.68    0.85
   3  -7  -3   35.92    1.79
   3  -7  -3   34.70    1.96
  -3   7   3   35.36    3.72
  -3   7   3   39.11    1.87
   2  -7  -3   17.36    1.68
   2  -7  -3   18.25    1.16
   2  -7  -3   17.02    1.34
  -2   7   3   20.28    1.35
  -2   7   3   21.18    1.72
   1  -7  -3    6.65    1.04
   1  -7  -3    4.51    0.33
   1  -7  -3    4.39    0.36
  -1   7   3    3.26    0.69
  -1   7   3    4.27    1.02
   0  -7  -3   15.70    1.10
   0   7   3   15.50    1.59
   0   7   3   16.75    1.16
  -1  -7  -3   15.67    1.42
  -1  -7  -3   14.06    1.12
   1   7   3   16.51    1.13
   1   7   3   13.17    1.74
  -2  -7  -3   12.27    1.41
  -2  -7  -3    8.94    0.89
   2   7   3   10.92    1.03
   2   7   3    7.67    1.19
  -3  -7  -3   -0.48    0.48
  -3  -7  -3    0.27    0.91
   3   7   3   -0.30    0.52
   3   7   3    0.11    0.84
   3   7   3    1.62    0.86
  -4  -7  -3    7.15    0.83
  -4  -7  -3    6.35    2.21
   4   7   3    5.85    1.67
   4   7   3    5.42    1.10
   7  -8  -3   11.41    1.74
   7  -8  -3   10.52    1.72
  -7   8   3    6.55    1.42
  -7   8   3    8.75    0.70
  -7   8   3   11.25    1.76
  -7   8   3    9.68    1.54
   6  -8  -3    4.73    1.31
   6  -8  -3   -0.33    1.09
  -6   8   3    4.27    1.11
  -6   8   3    3.68    1.22
  -6   8   3    2.39    0.97
   5  -8  -3    1.89    1.02
   5  -8  -3   -0.30    0.94
   5  -8  -3    0.35    0.69
  -5   8   3    0.38    0.88
  -5   8   3    1.50    0.89
  -5   8   3    1.17    1.01
   4  -8  -3    4.72    0.98
   4  -8  -3    3.20    0.97
  -4   8   3    5.96    1.24
  -4   8   3    5.96    1.02
   3  -8  -3   23.94    1.57
   3  -8  -3   25.56    1.57
  -3   8   3   19.27    1.81
  -3   8   3   23.21    1.59
   2  -8  -3   22.94    1.16
   2  -8  -3   24.90    1.85
  -2   8   3   23.06    1.95
  -2   8   3   21.58    1.47
   1  -8  -3   -0.01    0.78
  -1   8   3   -1.08    0.74
  -1   8   3    0.50    0.57
   0  -8  -3    4.66    0.66
   0   8   3    4.05    0.74
   0   8   3    3.88    1.04
  -1  -8  -3    0.27    0.62
   1   8   3    1.03    0.89
   1   8   3    1.25    0.57
  -2  -8  -3   25.41    1.86
  -2  -8  -3   21.56    1.36
   2   8   3   24.25    1.96
   2   8   3   23.26    1.37
   2   8   3   21.37    1.93
  -3  -8  -3    0.32    0.59
  -3  -8  -3    1.52    0.99
   3   8   3    0.41    0.62
   3   8   3    1.66    1.03
   3   8   3    0.14    0.84
   6  -9  -3    4.05    1.25
   6  -9  -3    1.42    1.13
  -6   9   3    2.58    1.27
  -6   9   3    2.08    2.06
  -6   9   3    2.14    1.05
   5  -9  -3    1.86    1.10
   5  -9  -3    3.07    1.15
   5  -9  -3    6.55    0.98
  -5   9   3    4.07    1.05
  -5   9   3    3.98    1.05
  -5   9   3    3.93    1.17
   4  -9  -3   -0.63    0.69
   4  -9  -3    0.66    0.88
   4  -9  -3    0.20    0.66
  -4   9   3    0.45    0.97
  -4   9   3   -0.17    0.78
   3  -9  -3    2.75    0.67
   3  -9  -3    3.30    1.07
   3  -9  -3    2.21    0.81
  -3   9   3    1.94    0.76
  -3   9   3    2.51    1.04
   2  -9  -3   28.02    1.72
   2  -9  -3   24.41    1.24
  -2   9   3   25.79    1.61
  -2   9   3   30.95    2.21
   1  -9  -3    5.20    1.07
  -1   9   3    3.17    1.07
  -1   9   3    2.61    0.80
   0  -9  -3    0.62    0.86
   0  -9  -3    0.81    0.44
   0   9   3   -0.23    0.86
   0   9   3   -0.50    0.55
  -1  -9  -3    0.25    0.60
   1   9   3    0.96    0.86
   1   9   3   -1.56    1.30
   1   9   3    0.15    0.56
  -2  -9  -3    7.70    1.10
  -2  -9  -3    6.94    0.89
   2   9   3    8.50    1.38
   2   9   3    3.99    1.20
   4 -10  -3    1.28    1.12
   4 -10  -3    0.76    0.74
   4 -10  -3    2.13    0.80
  -4  10   3    2.31    0.94
   3 -10  -3    0.48    0.75
   3 -10  -3    0.60    0.51
   3 -10  -3    2.05    1.06
  -3  10   3    0.21    1.00
  -3  10   3    1.26    0.82
   2 -10  -3   16.87    1.44
  -2  10   3   11.77    1.19
  -2  10   3   14.08    1.64
   1 -10  -3    6.33    1.13
  -1  10   3    6.60    1.32
  -1  10   3    4.01    0.84
   0 -10  -3    0.03    0.38
   0 -10  -3    1.39    0.95
   0 -10  -3    0.78    0.37
   0  10   3    0.76    0.98
   0  10   3    0.23    0.65
   0  11  -4    3.89    1.04
   0  11  -4    3.41    1.17
   0  11  -4    4.06    1.05
   0 -11   4    4.52    1.06
   0 -11   4    3.28    0.69
  -1  11  -4   -0.09    0.85
  -1  11  -4    0.22    1.05
   1 -11   4    0.06    0.54
   1 -11   4    1.09    0.54
   1 -11   4   -0.96    0.77
  -2  11  -4    2.76    1.07
  -2  11  -4    5.04    1.36
   2 -11   4    3.28    0.66
   2 -11   4    4.81    1.14
   2 -11   4    4.78    0.60
  -3  11  -4    2.50    1.04
  -3  11  -4    2.22    1.25
   3 -11   4   -0.24    0.51
   3 -11   4    0.30    1.04
   2  10  -4   21.52    2.21
   2  10  -4   23.14    1.81
   2  10  -4   21.42    2.01
  -2 -10   4   21.83    1.73
  -2 -10   4   21.68    1.57
  -2 -10   4   22.71    1.24
   1  10  -4    1.29    0.90
   1  10  -4    0.75    0.87
   1  10  -4    0.66    0.88
  -1 -10   4    0.79    0.52
  -1 -10   4    2.71    0.93
  -1 -10   4    1.16    0.64
   0  10  -4   -1.08    0.83
   0  10  -4    0.87    0.87
   0  10  -4    2.70    1.08
   0 -10   4    2.20    0.69
   0 -10   4    1.62    0.85
   0 -10   4    2.14    0.78
  -1  10  -4    3.95    1.02
  -1  10  -4    1.44    1.03
   1 -10   4    3.96    0.63
   1 -10   4    2.89    0.95
   1 -10   4    3.15    0.89
   1 -10   4    3.21    0.68
  -2  10  -4   23.13    1.75
  -2  10  -4   22.71    2.16
   2 -10   4   22.75    1.35
   2 -10   4   21.51    0.99
   2 -10   4   24.08    1.94
  -3  10  -4   12.59    1.73
  -3  10  -4    8.85    1.41
   3 -10   4   13.21    1.49
   3 -10   4   10.38    1.06
  -4  10  -4   -0.15    0.93
  -4  10  -4    0.03    0.74
  -4  10  -4   -0.69    1.07
   4 -10   4    0.33    1.42
   4 -10   4    0.78    0.58
  -5  10  -4    4.01    0.93
  -5  10  -4    1.88    1.29
  -5  10  -4   -0.06    1.40
   5 -10   4    3.59    1.28
   5 -10   4    4.02    0.81
   4   9  -4    0.73    1.00
   4   9  -4    2.30    0.78
   4   9  -4   -0.48    0.94
  -4  -9   4    1.69    0.89
   3   9  -4   -0.19    0.69
   3   9  -4    1.43    0.80
   3   9  -4    0.22    0.87
  -3  -9   4   -0.77    0.52
  -3  -9   4    0.34    0.84
   2   9  -4   17.39    1.65
   2   9  -4   11.82    1.90
   2   9  -4   20.58    1.64
  -2  -9   4   17.21    1.18
  -2  -9   4   18.69    1.70
   1   9  -4    8.67    1.26
   1   9  -4    9.96    1.22
   1   9  -4    8.07    1.11
  -1  -9   4    8.02    1.15
  -1  -9   4    8.18    0.99
  -1  -9   4    9.83    0.99
   0   9  -4    2.23    0.81
   0   9  -4    3.37    1.06
   0   9  -4    0.26    0.78
   0  -9   4    1.73    0.86
   0  -9   4    2.49    0.67
  -1   9  -4    7.66    1.13
   1  -9   4    6.35    1.07
   1  -9   4    7.32    0.74
   1  -9   4    6.63    1.04
   1  -9   4    7.54    0.87
  -2   9  -4    7.80    1.39
  -2   9  -4    7.88    1.18
   2  -9   4    7.40    0.71
   2  -9   4    8.63    0.91
   2  -9   4    9.46    1.24
  -3   9  -4    8.52    1.47
  -3   9  -4    7.85    1.20
   3  -9   4    6.77    1.22
   3  -9   4    9.55    0.96
  -4   9  -4   20.38    1.81
  -4   9  -4   16.33    1.89
  -4   9  -4   18.31    1.44
   4  -9   4   16.79    1.30
   4  -9   4   14.87    1.64
  -5   9  -4    0.31    0.75
  -5   9  -4   -0.54    0.92
  -5   9  -4   -0.44    1.03
  -5   9  -4   -0.12    0.60
   5  -9   4    0.02    0.62
  -6   9  -4    0.33    1.03
  -6   9  -4   -1.58    1.12
  -6   9  -4   -0.78    0.65
  -6   9  -4    0.91    0.85
   6  -9   4   -0.45    1.11
   6  -9   4    0.24    0.73
   5   8  -4    6.37    0.87
   5   8  -4    6.93    1.29
  -5  -8   4    9.28    1.27
   4   8  -4    8.71    1.21
   4   8  -4    9.12    1.00
   4   8  -4    9.50    1.33
  -4  -8   4    7.92    1.23
   3   8  -4    0.95    0.66
   3   8  -4    2.52    0.86
  -3  -8   4    0.64    0.81
  -3  -8   4   -0.25    0.54
   2   8  -4   11.68    1.26
   2   8  -4   12.98    1.33
   2   8  -4   11.97    1.26
  -2  -8   4    9.31    1.20
  -2  -8   4   10.95    1.05
   1   8  -4   62.54    2.76
   1   8  -4   64.25    2.69
   1   8  -4   66.17    2.67
  -1  -8   4   64.17    2.42
  -1  -8   4   66.64    2.76
  -1  -8   4   62.60    2.49
   0   8  -4    0.94    0.84
   0   8  -4    2.08    0.84
   0  -8   4    1.35    0.91
   0  -8   4    1.20    0.66
   0  -8   4   -0.18    0.55
  -1   8  -4    2.64    1.00
  -1   8  -4    2.52    0.87
   1  -8   4    3.13    0.85
   1  -8   4    2.98    0.62
   1  -8   4    2.23    0.96
  -2   8  -4   -0.06    0.95
  -2   8  -4   -0.01    0.71
   2  -8   4    0.13    0.30
   2  -8   4    0.41    0.50
   2  -8   4    0.37    0.75
  -3   8  -4   55.54    2.97
  -3   8  -4   54.87    2.27
   3  -8   4   55.48    2.19
   3  -8   4   55.31    2.70
  -4   8  -4   33.00    1.70
  -4   8  -4   37.55    2.57
  -4   8  -4   32.58    1.80
   4  -8   4   35.64    2.38
   4  -8   4   34.42    1.76
  -5   8  -4    1.26    0.87
  -5   8  -4   -1.37    1.07
  -5   8  -4    1.44    1.15
  -5   8  -4    0.32    0.72
   5  -8   4   -0.11    0.63
   5  -8   4    0.53    1.05
  -6   8  -4    1.06    0.74
  -6   8  -4   -0.44    1.09
  -6   8  -4    0.08    1.19
  -6   8  -4    0.29    0.77
   6  -8   4   -0.05    1.11
   6  -8   4    1.78    0.78
   6   7  -4    2.34    0.58
   6   7  -4    1.89    0.56
   6   7  -4    2.25    1.15
  -6  -7   4    2.31    0.97
   5   7  -4   20.35    1.85
   5   7  -4   18.50    1.65
   5   7  -4   17.45    1.19
  -5  -7   4   18.94    1.77
   4   7  -4    4.81    1.05
   4   7  -4    7.77    0.89
  -4  -7   4    5.90    1.12
  -4  -7   4    6.38    0.94
   3   7  -4    1.13    0.81
   3   7  -4    2.84    0.89
   3   7  -4    2.13    0.67
  -3  -7   4    0.78    0.60
  -3  -7   4    2.11    0.88
   2   7  -4    1.38    0.78
   2   7  -4    0.12    0.61
   2   7  -4    0.90    0.78
  -2  -7   4    1.48    0.61
  -2  -7   4    0.91    0.75
   1   7  -4  103.10    3.56
   1   7  -4  102.93    3.54
   1   7  -4  100.42    3.44
  -1  -7   4   98.15    3.34
  -1  -7   4   99.25    3.51
  -1  -7   4   98.99    3.19
   0   7  -4    7.90    1.13
   0   7  -4    7.90    1.08
   0  -7   4    8.72    1.00
   0  -7   4   10.01    1.01
   0  -7   4    8.18    1.09
  -1   7  -4   21.38    1.59
  -1   7  -4   27.37    1.91
   1  -7   4   24.61    1.42
   1  -7   4   23.18    1.61
   1  -7   4   22.58    1.60
  -2   7  -4   -0.46    0.78
   2  -7   4   -0.08    0.47
   2  -7   4   -0.46    0.66
   2  -7   4    0.15    0.21
  -3   7  -4   49.69    2.05
  -3   7  -4   51.77    2.79
  -3   7  -4   49.55    2.03
  -3   7  -4   43.22    2.21
   3  -7   4   50.09    3.09
   3  -7   4   48.00    2.04
  -4   7  -4   71.12    3.36
  -4   7  -4   65.66    2.56
  -4   7  -4   67.02    2.55
   4  -7   4   69.28    3.17
   4  -7   4   70.14    2.62
  -5   7  -4    0.37    0.69
  -5   7  -4    1.18    0.82
  -5   7  -4    0.66    0.67
  -5   7  -4    0.69    1.06
   5  -7   4   -0.01    0.63
  -6   7  -4    1.40    0.34
  -6   7  -4    2.65    1.04
  -6   7  -4    3.18    0.85
  -6   7  -4    1.90    1.17
  -6   7  -4    1.09    0.76
   6  -7   4    1.92    0.80
   6  -7   4    2.32    1.12
  -7   7  -4    2.28    1.15
  -7   7  -4    0.03    0.88
  -7   7  -4   -0.21    0.84
   7  -7   4    0.12    1.14
   7  -7   4   -0.31    0.88
   6   6  -4    3.63    0.59
   6   6  -4    3.09    1.14
   6   6  -4    2.79    0.58
  -6  -6   4    3.54    1.05
   5   6  -4   29.06    1.34
   5   6  -4   23.01    2.38
   5   6  -4   30.70    1.98
  -5  -6   4   29.51    1.98
   4   6  -4    1.31    0.52
   4   6  -4    1.76    0.86
   4   6  -4    1.00    0.83
  -4  -6   4    1.51    0.86
  -4  -6   4   -0.87    0.61
   3   6  -4   96.35    3.01
   3   6  -4   88.28    3.36
  -3  -6   4   93.30    3.39
  -3  -6   4   92.07    3.10
   2   6  -4    6.24    0.95
   2   6  -4    5.09    0.96
   2   6  -4    4.86    0.78
  -2  -6   4    5.79    0.98
  -2  -6   4    5.64    0.80
   1   6  -4   80.89    2.87
   1   6  -4   76.69    2.91
   1   6  -4   85.01    3.02
  -1  -6   4   83.55    2.69
  -1  -6   4   83.07    3.00
   0   6  -4  127.01    4.00
   0   6  -4  122.11    4.12
   0  -6   4  129.52    3.86
   0  -6   4  122.37    3.82
   0  -6   4  125.09    4.01
  -1   6  -4   39.55    2.21
  -1   6  -4   35.02    1.86
   1  -6   4   39.55    1.92
   1  -6   4   36.87    1.71
   1  -6   4   36.73    1.96
  -2   6  -4   13.42    1.51
  -2   6  -4   12.23    1.12
  -2   6  -4   13.00    1.25
   2  -6   4   12.80    1.35
   2  -6   4   11.59    1.10
  -3   6  -4    8.54    0.92
  -3   6  -4    7.98    1.31
  -3   6  -4    6.86    0.87
  -3   6  -4    8.68    1.12
   3  -6   4    8.34    0.96
   3  -6   4    8.92    1.32
  -4   6  -4   54.96    2.29
  -4   6  -4   54.52    2.25
  -4   6  -4   56.45    2.98
  -4   6  -4   53.92    2.55
   4  -6   4   56.76    2.88
   4  -6   4   55.83    2.34
  -5   6  -4    2.06    1.10
  -5   6  -4    0.35    0.65
  -5   6  -4    1.75    0.45
  -5   6  -4    1.86    0.75
  -5   6  -4    2.84    0.96
   5  -6   4    1.83    0.77
  -6   6  -4    4.19    0.93
  -6   6  -4    3.89    0.96
  -6   6  -4    3.23    1.05
   6  -6   4    2.09    0.83
  -7   6  -4    0.19    0.99
  -7   6  -4    1.43    0.89
  -7   6  -4   -0.37    0.89
   7  -6   4    0.29    0.86
   7   5  -4   32.75    2.35
   7   5  -4   30.89    1.34
   7   5  -4   28.74    1.29
  -7  -5   4   29.45    2.13
  -7  -5   4   27.37    2.23
   6   5  -4   -0.65    0.41
   6   5  -4   -0.47    0.88
   6   5  -4   -0.27    0.40
  -6  -5   4   -1.24    0.85
  -6  -5   4    0.91    0.91
   5   5  -4    1.06    0.97
   5   5  -4    0.69    0.44
  -5  -5   4    1.18    0.95
  -5  -5   4    0.59    0.87
   4   5  -4   51.27    2.41
   4   5  -4   50.80    1.74
  -4  -5   4   45.54    2.41
  -4  -5   4   48.60    2.37
  -4  -5   4   48.44    2.25
   3   5  -4  132.15    3.74
   3   5  -4  140.03    4.32
   3   5  -4  134.30    4.32
  -3  -5   4  134.08    4.12
  -3  -5   4  130.41    4.27
   2   5  -4   76.63    2.54
   2   5  -4   76.48    2.85
   2   5  -4   76.48    2.79
  -2  -5   4   76.79    2.68
  -2  -5   4   78.13    2.87
   1   5  -4    5.12    0.85
   1   5  -4    4.00    0.73
   1   5  -4    3.35    0.68
  -1  -5   4    4.32    0.60
  -1  -5   4    4.66    0.80
   0   5  -4  100.14    3.38
   0   5  -4  100.83    3.29
   0  -5   4   96.20    3.14
   0  -5   4   94.64    3.24
   0  -5   4   96.52    3.10
  -1   5  -4    1.62    0.68
  -1   5  -4    2.09    0.80
   1  -5   4    1.04    0.66
   1  -5   4    1.41    0.64
   1  -5   4    0.59    0.47
  -2   5  -4   46.18    2.41
  -2   5  -4   46.40    2.11
  -2   5  -4   45.01    1.75
  -2   5  -4   46.66    1.94
   2  -5   4   46.73    2.31
   2  -5   4   44.63    1.91
  -3   5  -4    8.67    1.36
  -3   5  -4    8.10    1.06
  -3   5  -4    8.34    0.92
  -3   5  -4   11.09    1.02
   3  -5   4    8.33    1.24
   3  -5   4    9.74    1.00
  -4   5  -4   64.06    1.76
  -4   5  -4   73.49    2.69
  -4   5  -4   66.71    2.56
  -4   5  -4   70.18    2.84
  -4   5  -4   73.66    3.35
   4  -5   4   68.09    2.71
   4  -5   4   66.83    3.14
  -5   5  -4   21.98    1.76
  -5   5  -4   19.19    1.57
  -5   5  -4   18.60    1.93
  -5   5  -4   17.08    0.62
  -5   5  -4   17.97    1.49
   5  -5   4   16.89    1.58
  -6   5  -4    6.14    1.11
  -6   5  -4   10.26    1.26
   6  -5   4    8.91    1.28
  -7   5  -4    0.65    0.92
  -7   5  -4   -0.54    0.82
   7  -5   4    1.89    1.19
   7  -5   4   -0.90    0.80
  -8   5  -4    0.42    1.03
  -8   5  -4    0.92    0.93
   8  -5   4   -0.18    1.20
   7   4  -4   13.72    1.03
   7   4  -4   12.91    1.49
   7   4  -4   16.05    1.69
  -7  -4   4   14.11    1.58
  -7  -4   4   14.05    1.68
   6   4  -4   24.96    1.88
   6   4  -4   27.00    1.28
  -6  -4   4   27.01    2.05
  -6  -4   4   31.58    2.01
   5   4  -4    1.99    0.47
   5   4  -4    0.95    0.90
   5   4  -4    2.17    0.42
  -5  -4   4    0.85    0.93
  -5  -4   4    2.76    0.99
   4   4  -4   47.24    2.31
   4   4  -4   43.76    2.35
   4   4  -4   48.28    1.56
  -4  -4   4   50.81    2.41
  -4  -4   4   51.25    2.31
  -4  -4   4   48.00    2.40
   3   4  -4   20.61    1.55
   3   4  -4   21.04    1.53
   3   4  -4   22.22    0.95
  -3  -4   4   20.69    1.49
  -3  -4   4   23.13    1.50
  -3  -4   4   21.61    1.57
   2   4  -4  334.40    8.30
   2   4  -4  329.52    8.73
   2   4  -4  342.62    8.82
  -2  -4   4  330.35    8.82
  -2  -4   4  344.29    8.74
   1   4  -4   60.69    2.33
   1   4  -4   61.60    2.15
   1   4  -4   62.06    2.15
  -1  -4   4   57.64    2.28
  -1  -4   4   61.83    1.96
   0   4  -4  555.03   13.93
   0   4  -4  519.35   13.35
   0  -4   4  538.41   13.39
   0  -4   4  533.13   13.26
   0  -4   4  552.76   13.35
  -1   4  -4  140.98    4.08
  -1   4  -4  136.60    4.47
  -1   4  -4  142.29    4.19
   1  -4   4  140.89    4.31
   1  -4   4  142.91    4.08
   1  -4   4  138.37    4.15
  -2   4  -4  276.14    7.90
  -2   4  -4  305.06    7.94
  -2   4  -4  316.05    8.64
  -2   4  -4  314.39    8.06
   2  -4   4  306.72    7.94
   2  -4   4  308.33    8.41
  -3   4  -4    3.14    0.72
  -3   4  -4    0.82    0.65
  -3   4  -4    1.04    0.53
  -3   4  -4    4.43    1.06
   3  -4   4    2.01    0.62
   3  -4   4    3.70    1.01
  -4   4  -4    7.69    1.02
  -4   4  -4   10.92    1.09
  -4   4  -4   10.50    0.62
  -4   4  -4   12.54    1.32
   4  -4   4   12.98    1.34
   4  -4   4   11.50    1.51
  -5   4  -4   95.63    3.45
  -5   4  -4   89.26    3.29
   5  -4   4   91.38    3.49
   5  -4   4   90.32    3.83
   5  -4   4   87.91    3.18
  -6   4  -4    2.77    0.92
  -6   4  -4    1.52    0.88
   6  -4   4    1.44    0.92
   6  -4   4    2.90    0.87
  -7   4  -4    6.99    1.17
  -7   4  -4    8.00    1.38
   7  -4   4    7.83    1.16
   7  -4   4   10.88    1.60
  -8   4  -4    1.54    1.16
  -8   4  -4   -0.68    0.88
   8  -4   4    0.50    1.15
   8  -4   4    0.42    0.97
   8   3  -4    0.59    0.72
   8   3  -4    1.65    0.60
   8   3  -4    1.74    1.02
   8   3  -4    1.76    1.04
  -8  -3   4    1.58    1.07
  -8  -3   4    1.30    1.21
  -8  -3   4    0.72    1.66
   7   3  -4    7.76    1.29
   7   3  -4    6.21    1.22
   7   3  -4    6.66    0.78
  -7  -3   4    9.69    1.43
  -7  -3   4    6.25    1.21
   6   3  -4  101.27    3.84
   6   3  -4  106.17    3.11
   6   3  -4  102.64    3.91
  -6  -3   4  101.56    3.94
  -6  -3   4  108.69    3.90
   5   3  -4    0.40    0.78
   5   3  -4    0.50    0.40
   5   3  -4   -0.84    0.68
  -5  -3   4    0.38    0.85
   4   3  -4    2.02    0.36
   4   3  -4    1.94    0.75
   4   3  -4    1.61    0.80
   4   3  -4    2.22    0.32
  -4  -3   4    1.41    0.82
  -4  -3   4    1.10    0.74
  -4  -3   4    2.08    0.85
   3   3  -4   21.88    1.47
   3   3  -4   19.93    0.66
   3   3  -4   21.06    0.64
   3   3  -4   19.53    1.50
  -3  -3   4   18.18    1.41
  -3  -3   4   17.45    1.42
  -3  -3   4   20.56    1.51
   2   3  -4  250.12    6.74
   2   3  -4  236.86    6.02
   2   3  -4  251.78    6.67
  -2  -3   4  255.33    6.63
  -2  -3   4  255.24    6.75
  -2  -3   4  253.58    6.80
   1   3  -4  150.68    4.14
   1   3  -4  159.30    4.19
   1   3  -4  157.54    4.44
  -1  -3   4  150.09    3.97
  -1  -3   4  155.61    4.41
   0   3  -4   76.91    2.69
   0   3  -4   75.48    2.55
   0  -3   4   83.08    2.61
   0  -3   4   78.51    2.58
   0  -3   4   78.19    2.55
  -1   3  -4  128.30    3.79
  -1   3  -4  129.72    4.20
  -1   3  -4  131.62    3.81
  -1   3  -4  132.51    3.39
   1  -3   4  131.70    3.80
   1  -3   4  129.01    4.06
   1  -3   4  130.25    3.81
  -2   3  -4   88.50    2.61
  -2   3  -4   85.93    2.60
  -2   3  -4   90.21    2.89
  -2   3  -4   83.24    2.85
  -2   3  -4   86.00    3.35
  -2   3  -4   86.03    2.12
   2  -3   4   86.69    3.32
   2  -3   4   86.69    2.90
  -3   3  -4  202.51    5.16
  -3   3  -4  208.95    5.62
  -3   3  -4  202.33    5.72
  -3   3  -4  206.85    5.81
   3  -3   4  205.87    5.85
   3  -3   4  204.80    6.32
   3  -3   4  202.17    5.48
  -4   3  -4   -1.05    0.56
  -4   3  -4    0.18    0.66
   4  -3   4   -0.47    0.60
   4  -3   4   -0.43    0.86
   4  -3   4   -0.77    0.49
  -5   3  -4   17.13    1.67
  -5   3  -4   14.86    1.42
   5  -3   4   16.76    1.43
   5  -3   4   16.12    2.60
   5  -3   4   17.85    1.68
  -6   3  -4    1.12    0.87
  -6   3  -4    0.79    0.93
   6  -3   4    1.33    0.82
   6  -3   4    1.28    1.02
   6  -3   4    3.84    1.10
  -7   3  -4   12.07    1.53
  -7   3  -4    8.36    1.25
   7  -3   4   12.44    1.66
   7  -3   4   13.32    1.39
  -8   3  -4    1.31    1.01
  -8   3  -4    1.96    1.23
   8  -3   4    1.99    1.01
   8  -3   4    3.13    1.26
   8   2  -4    0.71    1.02
   8   2  -4    1.01    0.63
   8   2  -4   -0.62    0.91
   8   2  -4    1.40    0.63
  -8  -2   4    1.29    1.19
  -8  -2   4   -0.10    1.02
  -8  -2   4    1.31    1.04
   7   2  -4    2.19    1.06
   7   2  -4    0.87    0.55
   7   2  -4    2.07    0.95
   7   2  -4    0.07    0.69
  -7  -2   4    1.36    1.08
  -7  -2   4    1.02    0.97
   6   2  -4   37.04    1.62
   6   2  -4   32.64    1.79
   6   2  -4   35.89    2.34
   6   2  -4   39.70    2.29
  -6  -2   4   38.71    2.26
  -6  -2   4   30.39    2.52
   5   2  -4   17.09    1.58
   5   2  -4   15.54    0.98
   5   2  -4   16.62    1.61
  -5  -2   4   16.50    1.61
  -5  -2   4   16.46    1.59
   4   2  -4    8.38    1.17
   4   2  -4    7.64    0.58
   4   2  -4    6.63    1.06
  -4  -2   4    7.62    1.12
  -4  -2   4    6.60    1.08
  -4  -2   4    7.36    1.14
   3   2  -4   18.41    1.39
   3   2  -4   16.21    1.35
   3   2  -4   14.02    1.32
  -3  -2   4   16.94    1.38
  -3  -2   4   15.37    1.36
  -3  -2   4   17.43    1.39
   2   2  -4  168.12    4.71
   2   2  -4  163.00    4.63
  -2  -2   4  164.75    4.71
  -2  -2   4  162.96    4.58
  -2  -2   4  162.97    4.72
   1   2  -4  274.24    6.67
   1   2  -4  265.26    6.87
  -1  -2   4  261.02    6.51
  -1  -2   4  260.71    6.92
  -1  -2   4  272.38    6.59
   0   2  -4   43.93    1.19
   0   2  -4   45.62    1.71
   0   2  -4   45.40    1.65
   0  -2   4   42.12    1.73
   0  -2   4   42.63    1.93
   0  -2   4   44.58    1.63
  -1   2  -4   19.23    0.71
  -1   2  -4   18.09    1.13
  -1   2  -4   17.60    1.00
  -1   2  -4   19.14    0.77
  -1   2  -4   18.96    1.06
   1  -2   4   20.02    1.14
   1  -2   4   18.61    1.03
   1  -2   4   17.73    1.37
  -2   2  -4    3.91    0.62
  -2   2  -4    1.53    0.57
  -2   2  -4    2.26    0.51
  -2   2  -4    2.58    0.46
   2  -2   4    2.13    0.82
   2  -2   4    2.39    0.45
   2  -2   4    2.76    0.64
  -3   2  -4  265.54    7.33
  -3   2  -4  273.33    7.18
  -3   2  -4  263.66    6.55
   3  -2   4  271.06    7.82
   3  -2   4  273.88    7.39
   3  -2   4  261.18    7.03
  -4   2  -4    5.37    1.01
  -4   2  -4    5.63    0.91
   4  -2   4    7.15    1.24
   4  -2   4    6.32    0.97
   4  -2   4    7.32    1.13
  -5   2  -4    2.28    1.00
  -5   2  -4    2.72    0.88
   5  -2   4    1.78    0.79
   5  -2   4    3.71    1.00
   5  -2   4    2.63    1.08
  -6   2  -4   18.92    1.85
  -6   2  -4   18.07    1.72
   6  -2   4   19.40    2.02
   6  -2   4   19.95    1.97
   6  -2   4   19.57    1.68
  -7   2  -4   17.21    1.81
  -7   2  -4   18.88    1.71
   7  -2   4   16.84    1.59
   7  -2   4   20.00    1.95
  -8   2  -4    0.29    1.19
  -8   2  -4   -0.16    0.95
   8  -2   4    1.18    1.51
   8  -2   4    1.37    1.49
   8   1  -4   14.58    1.72
   8   1  -4   16.00    1.15
   8   1  -4   15.55    1.70
   8   1  -4   16.73    1.38
  -8  -1   4   13.37    1.70
  -8  -1   4   15.28    1.64
  -8  -1   4   17.50    1.77
   7   1  -4    0.62    1.00
   7   1  -4    0.72    0.86
   7   1  -4    3.13    0.74
   7   1  -4    2.29    0.71
  -7  -1   4    2.41    1.07
  -7  -1   4    1.72    1.04
  -7  -1   4    2.20    1.07
   6   1  -4   33.60    2.38
   6   1  -4   37.32    1.79
   6   1  -4   35.92    2.19
   6   1  -4   39.97    1.77
  -6  -1   4   38.42    2.29
  -6  -1   4   33.89    2.25
   5   1  -4  118.79    4.00
   5   1  -4   92.85    4.06
   5   1  -4  115.66    4.23
   5   1  -4  111.27    3.56
  -5  -1   4  114.19    4.01
  -5  -1   4  112.06    4.03
   4   1  -4   72.05    2.64
   4   1  -4   72.10    3.03
   4   1  -4   67.17    2.74
   4   1  -4   72.19    2.18
  -4  -1   4   72.49    2.97
  -4  -1   4   71.16    2.87
  -4  -1   4   69.44    2.91
   3   1  -4   11.72    1.13
   3   1  -4   12.42    1.14
   3   1  -4   13.53    0.61
   3   1  -4   17.33    1.33
  -3  -1   4   14.58    1.33
  -3  -1   4   13.99    1.28
  -3  -1   4   10.92    1.15
   2   1  -4    0.22    0.40
   2   1  -4   -0.28    0.43
  -2  -1   4    0.08    0.39
  -2  -1   4    0.17    0.14
  -2  -1   4    0.21    0.48
  -2  -1   4    0.09    0.49
   1   1  -4  659.52   16.11
   1   1  -4  658.17   15.59
   1   1  -4  640.27   15.89
   1   1  -4  666.00   16.12
  -1  -1   4  670.58   15.87
  -1  -1   4  684.01   15.96
  -1  -1   4  653.14   15.66
   0   1  -4  152.11    3.99
   0   1  -4  155.92    4.27
   0   1  -4  150.49    4.17
   0   1  -4  154.36    3.97
   0  -1   4  153.48    4.18
   0  -1   4  151.72    3.97
  -1   1  -4   59.18    2.10
  -1   1  -4   59.90    1.84
  -1   1  -4   61.02    1.72
  -1   1  -4   57.93    1.97
   1  -1   4   62.31    2.13
   1  -1   4   55.67    1.74
  -2   1  -4  240.66    6.21
  -2   1  -4  240.38    6.03
  -2   1  -4  243.25    6.49
   2  -1   4  228.21    6.19
   2  -1   4  237.12    6.48
  -3   1  -4    3.76    0.88
  -3   1  -4    4.61    0.77
   3  -1   4    2.63    0.78
   3  -1   4    3.84    1.02
   3  -1   4    3.03    0.72
  -4   1  -4   65.33    2.95
  -4   1  -4   66.36    2.71
   4  -1   4   70.07    2.71
   4  -1   4   68.21    2.96
   4  -1   4   65.22    3.12
  -5   1  -4    7.79    1.19
   5  -1   4    6.94    1.23
   5  -1   4    8.76    1.43
   5  -1   4   10.41    1.25
  -6   1  -4    4.44    1.22
  -6   1  -4    6.02    1.17
   6  -1   4    5.94    1.16
   6  -1   4    5.84    1.26
  -7   1  -4    1.41    1.22
  -7   1  -4    0.96    0.88
   7  -1   4    0.99    0.98
   7  -1   4    1.20    0.94
  -8   1  -4    5.08    1.48
  -8   1  -4    4.19    1.17
   8  -1   4    6.44    1.30
   8   0  -4   11.21    1.45
   8   0  -4   10.54    1.63
   8   0  -4   10.30    1.17
   8   0  -4   11.46    1.00
  -8   0   4    9.11    1.41
  -8   0   4   11.03    1.48
  -8   0   4    8.59    1.41
   7   0  -4    5.43    0.92
   7   0  -4    8.69    0.93
   7   0  -4    7.59    1.41
  -7   0   4    7.53    1.37
  -7   0   4   10.18    1.46
  -7   0   4    6.93    1.29
   6   0  -4    0.36    0.58
   6   0  -4    0.21    0.94
   6   0  -4   -0.69    0.78
   6   0  -4    0.77    0.63
  -6   0   4   -1.00    0.79
  -6   0   4   -0.02    0.84
   5   0  -4  144.59    4.30
   5   0  -4  146.97    5.14
   5   0  -4  150.34    4.32
   5   0  -4  148.64    4.73
  -5   0   4  152.57    4.86
  -5   0   4  139.65    4.81
   4   0  -4    0.29    0.77
   4   0  -4   -0.34    0.38
   4   0  -4   -0.06    0.54
   4   0  -4   -0.09    0.63
  -4   0   4    0.44    0.71
  -4   0   4    0.66    0.74
  -4   0   4   -0.39    0.37
   3   0  -4  120.72    3.32
   3   0  -4  120.71    3.70
   3   0  -4  123.02    4.03
   3   0  -4  119.09    3.71
  -3   0   4  117.98    3.93
  -3   0   4  120.07    3.29
  -3   0   4  122.83    3.93
  -3   0   4  117.53    3.74
   2   0  -4    2.26    0.61
   2   0  -4    2.25    0.51
   2   0  -4    2.35    0.64
   2   0  -4    1.58    0.57
  -2   0   4    1.33    0.44
  -2   0   4    1.44    0.31
  -2   0   4    2.25    0.61
   1   0  -4  172.70    4.64
   1   0  -4  168.12    4.53
   1   0  -4  176.73    4.81
  -1   0   4  175.22    4.50
  -1   0   4  172.07    4.37
  -1   0   4  172.27    4.54
   0   0  -4  271.02    6.96
   0   0  -4  280.54    7.00
   0   0  -4  279.09    7.14
   0   0  -4  274.95    6.66
   0   0   4  276.37    6.97
   0   0   4  279.31    6.65
  -1   0  -4    1.33    0.46
  -1   0  -4    0.84    0.23
  -1   0  -4    0.83    0.48
   1   0   4    0.41    0.42
   1   0   4    0.65    0.33
  -2   0  -4    0.74    0.90
  -2   0  -4    1.76    0.65
   2   0   4    2.12    0.58
   2   0   4    1.67    0.64
  -3   0  -4   91.37    3.38
  -3   0  -4   90.68    3.09
   3   0   4   88.63    3.38
   3   0   4   88.45    3.12
  -4   0  -4  124.93    4.39
  -4   0  -4  123.99    4.04
   4   0   4  112.09    4.26
   4   0   4  115.25    3.97
  -5   0  -4    0.66    0.91
  -5   0  -4   -0.35    0.76
   5   0   4   -0.61    0.88
   5   0   4   -1.69    0.67
  -6   0  -4   -0.87    0.79
   6   0   4    0.24    0.84
   6   0   4   -0.53    0.92
  -7   0  -4    4.66    1.02
  -7   0  -4    3.59    1.27
  -7   0  -4    5.58    1.15
   7   0   4    4.50    1.10
   7   0   4    3.75    1.23
  -8   0  -4   14.76    1.69
   8   0   4   18.57    2.90
   8   0   4   19.08    1.77
   9  -1  -4   12.31    1.76
   9  -1  -4   10.25    2.21
   9  -1  -4   10.97    1.29
  -9   1   4    7.39    1.38
  -9   1   4   11.85    1.57
  -9   1   4   11.60    1.61
   8  -1  -4   -0.30    0.51
   8  -1  -4   -0.30    1.05
   8  -1  -4    1.02    0.76
   8  -1  -4    0.83    0.96
  -8   1   4    2.10    1.05
  -8   1   4   -0.05    0.85
  -8   1   4   -0.34    0.93
   7  -1  -4   36.86    2.58
   7  -1  -4   36.19    1.58
   7  -1  -4   35.55    2.02
  -7   1   4   35.35    2.25
  -7   1   4   33.55    2.32
  -7   1   4   34.07    2.32
   6  -1  -4    4.75    0.75
   6  -1  -4    6.10    1.39
   6  -1  -4    4.47    1.05
   6  -1  -4    5.99    0.95
  -6   1   4    6.03    1.16
  -6   1   4    4.71    1.07
  -6   1   4    4.84    0.86
   5  -1  -4   54.30    2.26
   5  -1  -4   52.02    2.07
   5  -1  -4   54.67    2.46
   5  -1  -4   54.29    2.92
  -5   1   4   54.34    2.56
  -5   1   4   55.52    2.20
   4  -1  -4  254.90    7.62
   4  -1  -4  262.71    6.88
   4  -1  -4  258.63    7.07
   4  -1  -4  250.41    6.85
  -4   1   4  256.79    6.80
  -4   1   4  263.98    7.14
   3  -1  -4  132.45    4.28
   3  -1  -4  124.02    3.87
   3  -1  -4  123.28    3.78
   3  -1  -4  128.30    3.82
  -3   1   4  128.71    3.68
  -3   1   4  131.74    3.90
  -3   1   4  127.11    4.19
   2  -1  -4    0.74    0.94
   2  -1  -4    0.42    0.49
   2  -1  -4    0.67    0.51
   2  -1  -4    0.46    0.39
  -2   1   4    1.09    0.50
  -2   1   4    0.38    0.51
  -2   1   4    0.76    0.42
   1  -1  -4   66.06    2.21
   1  -1  -4   66.89    2.41
  -1   1   4   64.69    1.95
  -1   1   4   63.37    2.18
  -1   1   4   69.44    2.22
   0  -1  -4  381.86    9.33
   0  -1  -4  390.54    9.68
   0  -1  -4  382.46    9.50
   0   1   4  375.45    8.88
   0   1   4  376.12    9.35
  -1  -1  -4   27.73    0.73
  -1  -1  -4   26.99    1.34
   1   1   4   27.26    1.28
   1   1   4   28.28    1.47
  -2  -1  -4   14.33    1.10
  -2  -1  -4   13.29    1.26
   2   1   4   16.28    1.16
   2   1   4   14.32    1.31
  -3  -1  -4    1.76    0.69
  -3  -1  -4    3.22    0.90
   3   1   4    2.78    0.75
   3   1   4    1.22    0.80
  -4  -1  -4   90.38    3.79
  -4  -1  -4   94.93    3.04
  -4  -1  -4   93.06    3.40
   4   1   4   95.08    3.43
  -5  -1  -4   39.07    1.89
  -5  -1  -4   40.59    2.59
  -5  -1  -4   41.74    2.23
   5   1   4   37.06    2.53
  -6  -1  -4    3.57    1.07
  -6  -1  -4    6.10    0.92
   6   1   4    7.46    1.22
   6   1   4    5.60    1.26
  -7  -1  -4   -0.35    0.77
  -7  -1  -4   -0.72    0.89
   7   1   4    0.73    1.00
   7   1   4    0.65    1.03
   9  -2  -4    2.55    1.32
   9  -2  -4    4.45    1.89
   9  -2  -4    4.84    1.26
  -9   2   4    3.86    1.18
  -9   2   4    6.76    1.35
  -9   2   4    1.85    1.14
   8  -2  -4   16.59    1.88
   8  -2  -4   14.02    1.57
   8  -2  -4   13.74    1.71
  -8   2   4   12.75    1.57
  -8   2   4   13.91    1.62
   7  -2  -4   20.81    1.67
   7  -2  -4   19.84    2.08
  -7   2   4   14.72    1.63
  -7   2   4   18.24    1.60
  -7   2   4   18.58    1.82
   6  -2  -4   13.04    1.44
   6  -2  -4   13.33    1.10
   6  -2  -4   14.02    1.44
   6  -2  -4   14.96    1.82
  -6   2   4   15.01    1.41
  -6   2   4   14.64    1.51
  -6   2   4   14.10    1.51
   5  -2  -4    2.16    1.05
   5  -2  -4    1.61    0.74
   5  -2  -4    2.02    0.78
   5  -2  -4    3.63    0.73
  -5   2   4    1.15    0.79
  -5   2   4    2.82    0.75
  -5   2   4    2.85    0.80
   4  -2  -4  161.34    4.80
   4  -2  -4  159.06    5.37
   4  -2  -4  162.10    4.68
  -4   2   4  165.57    4.76
  -4   2   4  159.30    4.84
   3  -2  -4   20.93    1.35
   3  -2  -4   22.75    1.42
   3  -2  -4   22.00    1.61
   3  -2  -4   23.51    1.40
  -3   2   4   20.32    1.29
  -3   2   4   22.17    1.36
   2  -2  -4  174.39    4.94
   2  -2  -4  175.40    4.85
   2  -2  -4  169.14    4.87
  -2   2   4  169.21    4.98
  -2   2   4  177.80    4.89
  -2   2   4  172.41    4.35
   1  -2  -4   26.65    1.38
   1  -2  -4   26.51    0.97
  -1   2   4   29.99    1.01
  -1   2   4   30.19    1.49
  -1   2   4   27.82    1.28
   0  -2  -4  186.18    4.76
   0   2   4  177.63    4.37
   0   2   4  187.93    4.87
  -1  -2  -4  102.76    3.23
   1   2   4  105.79    3.41
  -2  -2  -4  126.21    3.22
  -2  -2  -4  124.61    4.08
   2   2   4  125.39    3.87
   2   2   4  117.62    4.12
  -3  -2  -4    0.91    0.44
  -3  -2  -4    0.25    0.76
   3   2   4   -0.54    0.60
  -4  -2  -4    7.37    1.30
  -4  -2  -4   12.33    1.04
  -4  -2  -4    9.26    1.24
   4   2   4   11.89    1.34
  -5  -2  -4   43.25    1.93
  -5  -2  -4   46.56    2.84
   5   2   4   45.00    2.44
  -6  -2  -4    0.72    0.68
  -6  -2  -4    2.48    1.22
  -6  -2  -4    0.18    0.92
   6   2   4    1.35    0.99
  -7  -2  -4    0.75    1.01
  -7  -2  -4    0.89    0.77
  -7  -2  -4   -1.01    1.23
   7   2   4    2.00    1.08
   7   2   4    1.38    0.90
   9  -3  -4    5.88    1.19
   9  -3  -4    6.73    1.53
  -9   3   4    3.81    1.08
  -9   3   4    2.79    1.20
   8  -3  -4    5.40    1.16
   8  -3  -4    5.05    1.45
   8  -3  -4    6.77    1.34
  -8   3   4    5.44    1.09
  -8   3   4    4.44    1.20
  -8   3   4    7.57    1.23
   7  -3  -4   -0.40    0.74
   7  -3  -4   -1.29    0.98
  -7   3   4    0.78    0.94
  -7   3   4   -0.07    0.78
  -7   3   4    0.71    0.74
   6  -3  -4   46.80    2.99
   6  -3  -4   47.03    2.42
  -6   3   4   48.85    2.34
  -6   3   4   49.13    2.36
  -6   3   4   47.45    2.81
   5  -3  -4    3.05    0.87
   5  -3  -4    1.73    1.06
  -5   3   4    1.55    0.68
  -5   3   4    1.68    0.84
  -5   3   4    2.20    0.80
   4  -3  -4    3.63    1.07
   4  -3  -4    3.91    0.91
   4  -3  -4    3.49    0.87
  -4   3   4    2.06    0.60
  -4   3   4    2.45    0.76
  -4   3   4    2.30    0.72
   3  -3  -4   37.73    2.07
   3  -3  -4   38.40    1.93
   3  -3  -4   36.94    1.75
  -3   3   4   35.21    1.84
  -3   3   4   39.36    1.81
   2  -3  -4   30.89    1.70
   2  -3  -4   36.12    1.67
   2  -3  -4   35.83    1.66
  -2   3   4   35.52    1.00
  -2   3   4   38.30    1.82
   1  -3  -4    0.95    0.22
   1  -3  -4    0.59    0.59
  -1   3   4    0.44    0.27
  -1   3   4    0.35    0.57
  -1   3   4    0.28    0.41
   0  -3  -4   34.45    1.31
   0   3   4   36.00    1.79
   0   3   4   33.27    1.09
   0   3   4   34.13    1.51
   0   3   4   34.00    1.18
  -1  -3  -4  169.56    4.20
  -1  -3  -4  167.41    4.82
   1   3   4  170.39    4.93
   1   3   4  172.73    4.22
  -2  -3  -4   82.79    2.38
  -2  -3  -4   84.47    3.23
   2   3   4   96.37    3.17
  -3  -3  -4   28.52    2.02
   3   3   4   26.57    1.75
  -4  -3  -4    2.71    0.61
  -4  -3  -4    2.03    1.10
   4   3   4    0.91    1.59
  -5  -3  -4   43.52    1.85
   5   3   4   39.90    2.41
   5   3   4   45.10    2.10
  -6  -3  -4    2.04    0.73
  -6  -3  -4    1.71    1.25
  -6  -3  -4    1.46    1.02
   6   3   4    1.05    1.04
   6   3   4    2.41    0.84
  -7  -3  -4    0.94    0.73
  -7  -3  -4    1.92    1.40
   7   3   4    0.96    1.14
   7   3   4    0.58    1.16
   7   3   4    1.72    0.84
   8  -4  -4    1.86    1.25
  -8   4   4    0.36    0.90
  -8   4   4    1.78    1.04
  -8   4   4    2.37    0.83
   7  -4  -4    3.71    1.05
   7  -4  -4    2.27    1.22
  -7   4   4    3.67    1.05
  -7   4   4    3.22    0.84
  -7   4   4    3.48    1.79
   6  -4  -4   69.39    3.08
   6  -4  -4   73.02    4.34
  -6   4   4   76.37    3.07
  -6   4   4   72.80    2.73
  -6   4   4   72.83    3.04
   5  -4  -4    7.47    1.19
   5  -4  -4    5.12    1.28
  -5   4   4    5.67    0.76
  -5   4   4    5.45    1.02
  -5   4   4    5.82    1.02
   4  -4  -4    0.16    0.84
   4  -4  -4    0.44    0.72
   4  -4  -4    1.30    0.74
  -4   4   4    0.21    0.67
  -4   4   4    0.88    0.72
  -4   4   4    1.11    0.40
   3  -4  -4   27.56    1.52
   3  -4  -4   24.49    1.64
   3  -4  -4   24.84    1.70
  -3   4   4   26.07    1.72
  -3   4   4   26.02    0.72
  -3   4   4   25.34    0.74
   2  -4  -4  511.64   13.17
   2  -4  -4  511.91   12.81
   2  -4  -4  524.22   12.95
  -2   4   4  521.43   13.19
   1  -4  -4  903.86   21.52
   1  -4  -4  875.97   20.60
  -1   4   4  885.27   21.71
  -1   4   4  882.52   20.99
   0  -4  -4   17.36    0.94
   0   4   4   15.76    0.82
   0   4   4   17.82    1.41
  -1  -4  -4   63.65    2.38
  -1  -4  -4   59.46    1.83
   1   4   4   59.46    2.49
   1   4   4   60.62    1.82
  -2  -4  -4   27.33    1.81
  -2  -4  -4   22.60    1.00
   2   4   4   22.22    1.63
   2   4   4   20.37    0.82
  -3  -4  -4   92.98    3.76
  -3  -4  -4   94.94    2.71
   3   4   4   88.52    3.40
   3   4   4   89.51    2.69
  -4  -4  -4   10.91    0.95
  -4  -4  -4   12.19    1.57
   4   4   4   11.51    1.02
   4   4   4   10.87    1.37
  -5  -4  -4    4.25    1.30
  -5  -4  -4    7.96    0.86
   5   4   4    9.08    0.94
   5   4   4    5.57    1.21
  -6  -4  -4    2.78    1.44
  -6  -4  -4    2.88    0.74
   6   4   4    3.39    0.78
   8  -5  -4   10.66    1.54
   8  -5  -4   11.92    1.79
  -8   5   4   10.85    1.17
  -8   5   4   10.28    1.44
  -8   5   4    9.61    1.40
   7  -5  -4   -0.35    1.08
  -7   5   4    0.02    0.58
  -7   5   4    0.70    0.87
  -7   5   4    0.89    0.90
   6  -5  -4   26.16    2.36
   6  -5  -4   25.83    2.08
  -6   5   4   26.56    1.41
  -6   5   4   25.49    1.89
   5  -5  -4   53.05    2.65
   5  -5  -4   50.78    2.92
  -5   5   4   52.58    2.52
  -5   5   4   56.62    2.62
  -5   5   4   54.91    1.81
   4  -5  -4    0.97    0.82
   4  -5  -4   -0.46    0.67
   4  -5  -4    0.97    0.87
  -4   5   4    0.74    0.21
  -4   5   4    0.43    0.71
  -4   5   4    0.13    0.75
   3  -5  -4    3.69    0.84
   3  -5  -4    2.76    0.80
   3  -5  -4    1.88    0.83
  -3   5   4    3.06    0.90
   2  -5  -4    0.37    0.73
   2  -5  -4    0.11    0.45
   2  -5  -4   -0.95    0.60
  -2   5   4    0.09    0.68
  -2   5   4   -0.31    0.49
   1  -5  -4   29.33    0.84
   1  -5  -4   30.76    1.71
  -1   5   4   31.04    1.34
  -1   5   4   30.27    1.86
   0   5   4    6.06    1.02
   0   5   4    5.71    0.58
  -1  -5  -4    2.44    0.69
   1   5   4    4.05    0.95
   1   5   4    2.68    0.48
   1   5   4    4.48    0.92
  -2  -5  -4   19.36    1.03
  -2  -5  -4   22.37    1.75
   2   5   4   21.89    1.10
   2   5   4   19.48    1.64
   2   5   4   18.49    1.61
  -3  -5  -4   26.80    2.07
  -3  -5  -4   26.16    1.23
   3   5   4   24.07    1.88
  -4  -5  -4    4.82    0.67
  -4  -5  -4    8.17    1.47
   4   5   4    5.21    1.12
   4   5   4    4.81    0.52
  -5  -5  -4    0.91    1.06
  -5  -5  -4   -0.66    0.49
   5   5   4   -0.71    0.41
   5   5   4   -0.02    0.96
  -6  -5  -4   13.50    1.85
  -6  -5  -4   13.58    1.23
   6   5   4   12.85    1.09
   6   5   4   12.64    1.73
   8  -6  -4    0.93    1.12
   8  -6  -4    0.76    1.26
  -8   6   4    0.11    0.61
  -8   6   4   -0.59    0.98
  -8   6   4    1.55    1.17
   7  -6  -4    3.51    1.19
   7  -6  -4    3.84    1.37
  -7   6   4    3.56    1.12
  -7   6   4    3.25    1.07
  -7   6   4    3.18    0.63
   6  -6  -4   -0.16    1.02
  -6   6   4    0.65    0.83
  -6   6   4   -1.57    0.76
  -6   6   4    0.12    0.36
   5  -6  -4   47.34    2.77
   5  -6  -4   53.04    2.78
   5  -6  -4   54.81    2.31
  -5   6   4   56.69    2.52
  -5   6   4   51.95    1.46
  -5   6   4   55.08    2.75
   4  -6  -4    0.57    0.82
   4  -6  -4    0.42    0.86
   4  -6  -4    1.26    0.72
  -4   6   4    1.20    0.83
  -4   6   4    0.90    0.84
   3  -6  -4    0.32    0.67
   3  -6  -4    0.27    0.72
   3  -6  -4    1.70    0.84
  -3   6   4    1.04    0.66
  -3   6   4    0.00    0.78
   2  -6  -4    8.38    1.17
   2  -6  -4    9.32    1.16
   2  -6  -4    9.59    0.89
  -2   6   4    6.14    0.80
  -2   6   4    7.96    1.19
   1  -6  -4   52.52    2.36
  -1   6   4   51.35    2.56
  -1   6   4   54.54    1.95
   0  -6  -4   70.22    2.21
   0   6   4   69.70    2.25
   0   6   4   68.68    2.98
  -1  -6  -4    0.83    0.59
   1   6   4    2.42    0.53
   1   6   4    0.64    0.83
   1   6   4    2.62    0.87
  -2  -6  -4    6.75    0.72
  -2  -6  -4    6.02    1.05
   2   6   4    6.30    0.70
   2   6   4    6.40    1.09
  -3  -6  -4    0.51    0.95
  -3  -6  -4    1.75    0.52
   3   6   4    0.99    0.93
   3   6   4    1.46    0.90
  -4  -6  -4   10.36    0.97
   4   6   4   11.07    1.45
   4   6   4   11.64    1.36
  -5  -6  -4   -0.77    1.10
  -5  -6  -4    0.57    0.56
   5   6   4    1.63    1.08
   7  -7  -4   14.33    1.75
   7  -7  -4   14.02    1.86
  -7   7   4   11.80    0.82
  -7   7   4   11.06    1.40
  -7   7   4    9.98    1.48
   6  -7  -4    0.84    1.00
   6  -7  -4    0.24    1.04
  -6   7   4    0.16    0.83
  -6   7   4    1.29    1.01
  -6   7   4    0.14    0.22
   5  -7  -4   20.74    1.98
   5  -7  -4   18.46    1.44
  -5   7   4   19.22    1.88
  -5   7   4   22.10    1.71
   4  -7  -4   20.99    1.76
   4  -7  -4   20.28    2.12
   4  -7  -4   18.13    1.64
  -4   7   4   22.98    1.60
  -4   7   4   21.13    1.83
   3  -7  -4    8.49    1.13
   3  -7  -4    6.57    0.93
  -3   7   4    8.19    0.98
  -3   7   4    9.35    1.32
   2  -7  -4   -0.37    0.39
   2  -7  -4    0.24    0.76
  -2   7   4   -0.13    0.77
  -2   7   4    0.93    0.61
   1  -7  -4    9.62    1.35
  -1   7   4    7.95    0.85
  -1   7   4    7.79    1.37
   0  -7  -4   20.73    1.07
   0   7   4   21.30    1.75
   0   7   4   19.36    1.17
  -1  -7  -4    3.79    0.75
   1   7   4    3.76    0.98
   1   7   4    6.09    1.14
   1   7   4    3.80    0.64
  -2  -7  -4    2.68    0.89
  -2  -7  -4    1.63    0.54
   2   7   4    1.76    0.94
   2   7   4    1.78    0.55
   2   7   4    1.81    0.91
  -3  -7  -4    1.19    0.91
  -3  -7  -4    0.34    0.51
   3   7   4    0.17    0.78
   3   7   4    0.36    0.89
  -4  -7  -4   10.54    0.93
  -4  -7  -4    8.58    1.44
   4   7   4   10.77    1.45
   4   7   4    8.26    1.40
   7  -8  -4   -0.03    1.24
   7  -8  -4    1.46    1.36
  -7   8   4   -0.85    0.95
  -7   8   4    1.85    1.15
   6  -8  -4    1.52    1.67
   6  -8  -4    0.42    1.10
  -6   8   4    1.62    1.11
  -6   8   4    2.23    0.96
  -6   8   4    3.40    1.07
   5  -8  -4    0.40    0.97
   5  -8  -4    2.46    1.05
   5  -8  -4    1.89    0.78
  -5   8   4    0.93    0.87
  -5   8   4    0.92    0.85
  -5   8   4    1.18    1.02
   4  -8  -4   15.23    1.35
   4  -8  -4   11.37    1.26
  -4   8   4   13.22    1.61
  -4   8   4   13.80    1.31
   3  -8  -4    0.76    0.56
   3  -8  -4    1.23    0.80
  -3   8   4    0.67    0.75
  -3   8   4    1.31    0.90
   2  -8  -4    3.54    0.51
   2  -8  -4    3.50    0.97
  -2   8   4    2.21    0.69
  -2   8   4    1.48    0.93
   1  -8  -4    2.27    0.91
  -1   8   4    0.59    0.88
  -1   8   4    0.61    0.59
   0  -8  -4   33.73    1.32
   0  -8  -4   32.99    2.02
   0   8   4   31.75    2.14
   0   8   4   33.21    1.54
  -1  -8  -4    8.93    0.95
   1   8   4    6.46    1.25
   1   8   4    7.71    0.80
   1   8   4    7.45    1.27
  -2  -8  -4    0.40    0.71
  -2  -8  -4    0.52    0.51
   2   8   4    0.66    0.52
   2   8   4   -0.04    0.88
   2   8   4    1.06    0.97
  -3  -8  -4    1.38    0.59
  -3  -8  -4   -0.77    0.83
   3   8   4    0.02    1.02
   3   8   4   -0.75    0.89
   6  -9  -4    1.41    1.12
   6  -9  -4    0.49    1.08
  -6   9   4    0.17    0.97
  -6   9   4    1.68    1.15
  -6   9   4    1.16    1.00
   5  -9  -4    0.26    0.73
   5  -9  -4   -1.20    0.95
   5  -9  -4   -0.33    0.83
  -5   9   4    1.40    0.85
  -5   9   4    0.71    0.87
  -5   9   4    1.00    1.03
   4  -9  -4    5.22    1.41
   4  -9  -4    6.17    0.96
   4  -9  -4    4.39    0.93
  -4   9   4    2.96    1.13
  -4   9   4    5.34    0.97
   3  -9  -4    2.07    0.90
   3  -9  -4    2.19    0.58
  -3   9   4    3.80    0.86
  -3   9   4    2.87    1.05
   2  -9  -4    9.24    1.21
  -2   9   4    9.22    0.99
  -2   9   4    5.76    1.25
   1  -9  -4   -0.06    0.81
  -1   9   4   -0.14    0.59
  -1   9   4   -0.40    0.86
   0  -9  -4    3.48    0.47
   0  -9  -4    3.75    1.07
   0   9   4    3.73    0.70
   0   9   4    2.46    1.05
  -1  -9  -4   10.19    0.95
   1   9   4   10.11    0.93
   1   9   4   10.17    1.45
   1   9   4   11.34    1.50
  -2  -9  -4    0.57    0.85
   2   9   4   -0.24    0.57
   2   9   4    0.86    0.97
   2   9   4    0.60    1.08
   4 -10  -4    0.74    0.76
   4 -10  -4    1.68    0.68
   4 -10  -4    1.80    1.27
  -4  10   4    0.46    1.03
  -4  10   4    0.25    0.83
   3 -10  -4    6.42    0.64
   3 -10  -4    7.41    1.09
  -3  10   4    6.79    1.02
   2 -10  -4    1.18    0.90
  -2  10   4   -0.33    0.72
  -2  10   4    1.57    1.18
   1 -10  -4    3.12    0.99
  -1  10   4    1.94    1.14
  -1  10   4    3.57    0.77
   0 -10  -4    0.79    0.42
   0 -10  -4    0.58    0.95
   0 -10  -4    0.89    0.28
   0  10   4    0.01    0.62
   0  11  -5   15.65    1.47
   0  11  -5   14.92    1.53
   0  11  -5   13.69    1.64
   0 -11   5   12.37    1.27
   0 -11   5   14.36    1.49
  -1  11  -5    1.65    1.17
  -1  11  -5    2.73    1.09
   1 -11   5    3.84    0.62
   1 -11   5    4.24    0.99
   1 -11   5    2.93    0.66
  -2  11  -5    0.49    1.11
  -2  11  -5   -0.10    0.94
   2 -11   5    0.43    0.60
   2 -11   5    0.05    0.91
   2  10  -5    3.25    1.04
   2  10  -5    4.34    1.08
   2  10  -5    2.91    0.99
  -2 -10   5    2.84    1.00
  -2 -10   5    3.70    0.72
  -2 -10   5    3.62    0.83
   1  10  -5    1.01    0.89
   1  10  -5    0.53    0.79
   1  10  -5   -1.14    0.94
  -1 -10   5   -0.05    0.55
  -1 -10   5    0.30    0.65
  -1 -10   5   -0.19    0.81
   0  10  -5    8.27    1.24
   0  10  -5   11.67    1.48
   0 -10   5    7.86    0.98
   0 -10   5    7.99    1.19
   0 -10   5    8.01    1.05
  -1  10  -5   23.83    2.22
  -1  10  -5   27.03    1.94
   1 -10   5   22.52    1.69
   1 -10   5   23.32    1.10
   1 -10   5   24.79    1.49
   1 -10   5   23.69    1.77
  -2  10  -5    2.35    1.10
  -2  10  -5   -0.73    0.82
   2 -10   5    0.70    0.83
   2 -10   5    0.03    0.29
   2 -10   5    1.29    0.60
  -3  10  -5    1.10    1.06
  -3  10  -5    1.24    0.74
  -3  10  -5    2.16    1.18
   3 -10   5    1.25    0.91
   3 -10   5    0.82    0.60
  -4  10  -5    2.23    0.76
  -4  10  -5    1.18    0.96
  -4  10  -5    2.08    1.26
   4 -10   5    2.30    1.09
   4 -10   5    0.68    1.03
   4   9  -5    0.20    0.92
   4   9  -5   -0.04    0.64
  -4  -9   5   -0.06    0.89
  -4  -9   5    0.00    0.65
   3   9  -5   17.78    1.74
   3   9  -5   18.96    1.77
   3   9  -5   14.73    1.42
  -3  -9   5   15.19    1.53
  -3  -9   5   19.94    1.34
   2   9  -5    6.23    1.07
   2   9  -5    4.75    0.98
  -2  -9   5    6.78    1.02
  -2  -9   5    7.80    0.89
  -2  -9   5    6.57    1.11
   1   9  -5    6.73    1.17
   1   9  -5    5.45    0.97
   1   9  -5    5.85    1.08
  -1  -9   5    5.48    1.05
  -1  -9   5    6.48    1.60
   0   9  -5    4.38    1.04
   0   9  -5    4.14    0.88
   0   9  -5    4.55    1.09
   0  -9   5    4.37    1.03
   0  -9   5    4.26    0.76
   0  -9   5    3.31    0.96
  -1   9  -5   37.66    2.09
  -1   9  -5   31.23    2.86
   1  -9   5   40.20    2.10
   1  -9   5   38.73    1.84
   1  -9   5   38.48    1.37
   1  -9   5   39.25    2.13
  -2   9  -5    4.79    1.24
  -2   9  -5    6.21    1.13
   2  -9   5    6.10    1.08
   2  -9   5    5.99    0.87
  -3   9  -5    1.22    0.94
  -3   9  -5   -0.41    1.00
  -3   9  -5    0.07    0.61
   3  -9   5    0.38    0.60
   3  -9   5    0.37    0.85
  -4   9  -5    2.90    1.24
  -4   9  -5    0.60    0.68
  -4   9  -5   -0.04    0.82
   4  -9   5    1.05    0.95
   4  -9   5    0.03    0.57
  -5   9  -5    7.05    1.02
  -5   9  -5    5.66    1.18
  -5   9  -5    7.28    1.54
  -5   9  -5    7.43    1.00
   5  -9   5    5.31    0.94
   5  -9   5    6.92    1.45
   5   8  -5   10.19    0.97
   5   8  -5    8.59    1.79
   5   8  -5   11.40    1.49
  -5  -8   5    6.90    1.21
   4   8  -5    1.75    0.91
   4   8  -5    0.79    0.88
   4   8  -5    1.10    0.59
  -4  -8   5    0.44    0.68
  -4  -8   5    0.35    0.88
   3   8  -5   24.28    1.54
   3   8  -5   23.43    2.13
   3   8  -5   25.09    1.76
  -3  -8   5   26.09    1.52
  -3  -8   5   23.61    1.74
   2   8  -5   11.27    1.29
   2   8  -5    9.95    1.21
   2   8  -5   10.42    1.19
  -2  -8   5   10.77    1.05
  -2  -8   5   10.46    1.28
   1   8  -5   28.31    1.93
   1   8  -5   30.99    1.94
   1   8  -5   28.29    1.74
  -1  -8   5   28.57    1.54
  -1  -8   5   28.82    1.91
  -1  -8   5   32.42    1.78
   0   8  -5    0.75    0.78
   0   8  -5   -0.95    0.72
   0   8  -5    1.11    0.67
   0  -8   5   -0.41    0.59
   0  -8   5    0.57    0.57
   0  -8   5   -0.32    0.71
  -1   8  -5   47.73    2.65
   1  -8   5   57.13    2.42
   1  -8   5   52.35    2.42
   1  -8   5   54.73    2.20
  -2   8  -5   15.94    1.76
   2  -8   5   15.18    1.26
   2  -8   5   16.43    1.57
  -3   8  -5   50.88    2.15
  -3   8  -5   59.44    3.07
   3  -8   5   50.68    2.66
   3  -8   5   53.59    2.20
  -4   8  -5    4.86    0.85
  -4   8  -5    5.60    1.39
  -4   8  -5    3.53    1.29
   4  -8   5    5.78    1.23
   4  -8   5    5.96    0.89
  -5   8  -5    2.05    0.97
  -5   8  -5    1.59    1.21
  -5   8  -5    1.59    0.79
  -5   8  -5    2.45    0.80
   5  -8   5    0.95    0.72
   5  -8   5    1.30    1.09
  -6   8  -5   15.44    1.63
  -6   8  -5   17.89    1.98
  -6   8  -5   16.55    1.53
  -6   8  -5   15.30    1.59
   6  -8   5   16.80    1.61
   6  -8   5   15.14    1.90
   6   7  -5    0.19    0.31
   6   7  -5    0.25    0.29
   6   7  -5   -0.51    1.03
  -6  -7   5    1.06    0.95
   5   7  -5   40.24    2.43
   5   7  -5   40.03    2.28
   5   7  -5   33.33    1.66
  -5  -7   5   37.63    2.23
   4   7  -5    3.49    0.63
   4   7  -5    5.01    1.04
  -4  -7   5    4.47    1.04
  -4  -7   5    2.35    0.78
   3   7  -5    1.23    0.84
   3   7  -5    0.34    0.76
   3   7  -5    0.35    0.53
  -3  -7   5    0.92    0.63
  -3  -7   5    1.80    0.87
   2   7  -5   22.00    1.60
   2   7  -5   15.84    1.35
   2   7  -5   20.65    1.54
  -2  -7   5   21.97    1.40
   1   7  -5   74.80    2.76
   1   7  -5   72.73    2.91
   1   7  -5   75.52    2.97
  -1  -7   5   75.41    2.81
  -1  -7   5   75.99    2.94
  -1  -7   5   72.66    2.53
   0   7  -5   38.46    2.19
   0  -7   5   44.19    2.13
   0  -7   5   44.01    1.99
   0  -7   5   39.29    1.88
  -1   7  -5    8.31    1.25
   1  -7   5    9.02    1.11
   1  -7   5    8.86    1.12
   1  -7   5    7.82    0.92
  -2   7  -5   83.42    3.11
  -2   7  -5   85.79    3.61
   2  -7   5   77.57    3.19
   2  -7   5   81.26    2.85
  -3   7  -5    3.23    0.72
  -3   7  -5    4.49    1.26
  -3   7  -5    4.13    0.90
  -3   7  -5    3.69    0.70
   3  -7   5    1.76    0.97
   3  -7   5    2.84    0.71
  -4   7  -5    0.05    1.04
  -4   7  -5    0.23    0.62
  -4   7  -5   -0.22    0.56
   4  -7   5    0.23    0.62
   4  -7   5   -0.39    0.95
  -5   7  -5   -1.00    0.62
  -5   7  -5    0.26    0.46
  -5   7  -5   -0.38    0.99
  -5   7  -5    0.00    0.59
  -5   7  -5    1.87    0.86
   5  -7   5    1.36    1.26
   5  -7   5    0.67    1.06
  -6   7  -5    6.15    1.06
  -6   7  -5    7.77    1.32
  -6   7  -5    5.83    1.01
   6  -7   5   12.12    1.69
   6  -7   5    5.26    1.07
  -7   7  -5    1.81    1.00
  -7   7  -5    0.65    0.95
  -7   7  -5    1.21    1.11
   7  -7   5    1.89    1.31
   7  -7   5    2.41    0.93
   6   6  -5    0.43    0.25
   6   6  -5    1.34    1.04
   6   6  -5    0.29    0.25
  -6  -6   5   -0.42    0.88
   5   6  -5   35.52    2.15
   5   6  -5   35.69    1.23
   5   6  -5   34.40    1.25
  -5  -6   5   37.86    2.20
   4   6  -5   49.09    2.42
   4   6  -5   41.96    1.61
   4   6  -5   49.51    2.42
  -4  -6   5   46.28    2.41
  -4  -6   5   50.27    2.23
   3   6  -5   52.67    2.45
   3   6  -5   52.54    2.42
   3   6  -5   52.03    1.95
  -3  -6   5   56.41    2.29
  -3  -6   5   54.42    2.49
   2   6  -5  231.88    6.39
   2   6  -5  239.14    6.69
   2   6  -5  240.04    6.60
  -2  -6   5  235.02    6.48
  -2  -6   5  239.71    6.74
   1   6  -5   10.77    1.17
   1   6  -5   10.58    1.11
   1   6  -5   10.20    1.04
  -1  -6   5   10.54    1.17
  -1  -6   5    9.50    1.03
  -1  -6   5    9.39    0.92
   0   6  -5  115.80    3.96
   0   6  -5  118.96    3.85
   0  -6   5  113.61    3.59
   0  -6   5  117.21    3.83
   0  -6   5  111.17    3.63
  -1   6  -5    2.55    0.93
  -1   6  -5    2.38    0.82
   1  -6   5    1.83    0.78
   1  -6   5    0.85    0.56
   1  -6   5    1.29    0.70
  -2   6  -5  111.73    3.62
  -2   6  -5  116.10    4.31
  -2   6  -5  116.16    3.83
   2  -6   5  114.57    3.64
   2  -6   5  118.37    4.06
  -3   6  -5   42.67    2.20
  -3   6  -5   44.93    2.62
  -3   6  -5   40.57    1.78
  -3   6  -5   42.25    1.98
   3  -6   5   47.92    2.48
   3  -6   5   41.68    2.01
  -4   6  -5   47.83    2.38
  -4   6  -5   50.13    2.08
  -4   6  -5   46.22    2.18
   4  -6   5   49.69    2.73
   4  -6   5   47.34    2.22
  -5   6  -5    8.22    1.44
  -5   6  -5    5.12    1.21
  -5   6  -5    4.46    0.85
  -5   6  -5    6.15    1.01
  -5   6  -5    6.17    0.58
   5  -6   5    6.07    1.00
  -6   6  -5    6.88    1.23
  -6   6  -5    7.82    1.13
  -6   6  -5    7.51    1.14
   6  -6   5    7.71    1.19
   6  -6   5    5.27    1.33
  -7   6  -5    7.28    1.15
  -7   6  -5    8.92    1.32
   7  -6   5    7.94    1.26
   7  -6   5    9.35    1.64
   7   5  -5    1.35    1.04
  -7  -5   5   -0.16    1.00
  -7  -5   5    1.07    1.05
   6   5  -5   11.56    1.47
  -6  -5   5    9.77    1.37
  -6  -5   5   10.96    1.45
   5   5  -5   13.51    1.49
   5   5  -5   13.21    0.57
   5   5  -5   12.33    0.55
  -5  -5   5   12.88    1.44
  -5  -5   5   15.29    1.53
  -5  -5   5   11.15    1.39
   4   5  -5  114.94    3.95
   4   5  -5  115.58    3.95
   4   5  -5  103.83    2.87
  -4  -5   5  113.70    3.78
  -4  -5   5  111.33    3.86
  -4  -5   5  110.88    3.92
   3   5  -5   15.54    1.39
   3   5  -5   13.19    1.32
   3   5  -5   13.29    0.82
  -3  -5   5   13.22    1.30
  -3  -5   5   15.76    1.44
   2   5  -5    0.22    0.67
   2   5  -5    0.90    0.46
   2   5  -5   -0.33    0.56
  -2  -5   5    0.54    0.70
  -2  -5   5   -0.57    0.55
   1   5  -5   17.52    1.38
   1   5  -5   14.81    1.11
   1   5  -5   15.16    1.38
  -1  -5   5   17.07    1.33
  -1  -5   5   15.55    1.34
  -1  -5   5   14.26    0.96
   0   5  -5  172.20    4.97
   0   5  -5  166.61    5.08
   0  -5   5  166.98    4.76
   0  -5   5  160.74    4.91
   0  -5   5  171.67    4.88
  -1   5  -5   53.21    2.14
  -1   5  -5   50.29    2.48
  -1   5  -5   52.79    2.22
   1  -5   5   50.55    2.09
   1  -5   5   55.35    2.32
   1  -5   5   49.37    2.19
  -2   5  -5    0.56    0.65
  -2   5  -5   -0.04    0.39
  -2   5  -5    0.01    0.52
  -2   5  -5   -0.27    0.79
   2  -5   5    0.30    0.53
   2  -5   5   -0.05    0.70
  -3   5  -5   47.30    2.10
  -3   5  -5   43.83    1.83
  -3   5  -5   50.75    2.25
  -3   5  -5   43.67    2.60
   3  -5   5   43.08    2.05
   3  -5   5   47.63    2.53
  -4   5  -5   25.46    1.52
  -4   5  -5   26.24    1.72
  -4   5  -5   25.34    1.15
  -4   5  -5   28.78    2.22
  -4   5  -5   25.60    1.72
   4  -5   5   28.66    1.78
  -5   5  -5    3.68    0.99
  -5   5  -5    3.52    0.95
  -5   5  -5    3.55    0.83
  -5   5  -5    4.33    0.41
   5  -5   5    2.72    0.85
  -6   5  -5    4.84    1.05
  -6   5  -5    6.00    1.07
   6  -5   5    4.31    1.05
  -7   5  -5    8.48    1.23
  -7   5  -5   11.05    1.49
  -7   5  -5    9.14    1.32
   7  -5   5    8.80    1.36
   7   4  -5    6.87    1.24
   7   4  -5    7.83    0.59
   7   4  -5    7.14    0.53
   7   4  -5    8.17    1.30
  -7  -4   5    7.11    1.30
  -7  -4   5    8.75    1.42
   6   4  -5   -0.01    0.20
   6   4  -5    0.16    0.24
  -6  -4   5    1.11    0.96
  -6  -4   5   -0.57    0.90
   5   4  -5    1.71    0.93
  -5  -4   5   -0.17    0.85
  -5  -4   5   -0.45    0.91
  -5  -4   5    0.89    0.80
   4   4  -5  132.60    4.37
   4   4  -5  130.12    4.31
  -4  -4   5  130.60    4.37
  -4  -4   5  133.52    4.34
  -4  -4   5  127.26    4.23
   3   4  -5   29.00    1.69
   3   4  -5   28.09    1.70
  -3  -4   5   29.18    1.72
  -3  -4   5   27.99    1.78
  -3  -4   5   27.40    1.63
   2   4  -5    7.18    0.63
   2   4  -5    7.31    0.98
   2   4  -5    5.95    0.83
  -2  -4   5    4.98    0.86
  -2  -4   5    5.21    0.85
   1   4  -5   22.23    1.19
   1   4  -5   25.20    1.46
   1   4  -5   22.67    1.26
  -1  -4   5   22.63    1.46
  -1  -4   5   21.06    1.04
  -1  -4   5   23.72    1.46
   0   4  -5   59.28    2.27
   0   4  -5   56.33    2.39
   0  -4   5   60.51    2.18
   0  -4   5   56.47    2.22
   0  -4   5   59.77    2.29
  -1   4  -5  221.76    6.01
  -1   4  -5  215.76    5.99
  -1   4  -5  210.42    6.42
   1  -4   5  223.61    6.03
   1  -4   5  221.33    6.24
   1  -4   5  219.55    5.98
  -2   4  -5    0.82    0.40
  -2   4  -5    0.13    0.55
  -2   4  -5    0.95    0.63
  -2   4  -5    0.47    0.80
   2  -4   5    1.37    0.58
   2  -4   5    1.18    0.76
  -3   4  -5   18.35    1.38
  -3   4  -5   19.47    1.21
  -3   4  -5   20.31    1.47
  -3   4  -5   19.03    1.05
   3  -4   5   18.99    1.45
   3  -4   5   17.49    1.69
  -4   4  -5    4.63    0.50
  -4   4  -5    4.24    0.79
  -4   4  -5    4.20    0.93
  -4   4  -5    4.53    0.92
   4  -4   5    3.48    1.14
   4  -4   5    4.72    0.94
  -5   4  -5   87.37    3.22
  -5   4  -5   88.50    3.41
  -5   4  -5   88.87    3.48
   5  -4   5   84.45    3.05
   5  -4   5   90.35    3.50
  -6   4  -5    7.59    1.24
  -6   4  -5    6.05    1.07
   6  -4   5    7.24    1.02
   6  -4   5    6.55    1.22
   6  -4   5    3.20    1.06
  -7   4  -5    3.04    1.20
  -7   4  -5    2.83    0.94
   7  -4   5    3.96    1.05
   7  -4   5    4.84    1.23
   7  -4   5    3.31    1.25
   8   3  -5   20.61    1.86
   8   3  -5   22.81    2.13
   8   3  -5   19.84    1.07
  -8  -3   5   20.15    2.07
  -8  -3   5   19.06    2.10
  -8  -3   5   20.24    2.20
   7   3  -5    0.57    0.98
   7   3  -5    0.63    0.90
   7   3  -5    0.15    0.70
  -7  -3   5    0.70    0.95
  -7  -3   5   -0.22    0.98
   6   3  -5   14.28    0.76
   6   3  -5   13.42    2.72
   6   3  -5   15.03    1.55
  -6  -3   5   11.12    1.42
  -6  -3   5   14.36    1.62
   5   3  -5    6.86    1.15
   5   3  -5    9.95    1.26
  -5  -3   5    7.74    1.21
  -5  -3   5   10.00    1.31
  -5  -3   5   11.36    1.36
   4   3  -5   92.79    3.41
   4   3  -5   89.52    3.35
  -4  -3   5   94.68    3.43
  -4  -3   5   98.19    3.49
  -4  -3   5   91.22    3.40
   3   3  -5  159.92    4.89
   3   3  -5  163.59    4.96
  -3  -3   5  167.75    4.88
  -3  -3   5  167.67    4.98
  -3  -3   5  162.96    4.98
   2   3  -5   50.07    1.96
   2   3  -5   49.38    2.06
  -2  -3   5   46.42    1.82
  -2  -3   5   43.02    2.00
  -2  -3   5   47.09    2.03
   1   3  -5    0.81    0.37
   1   3  -5    0.58    0.54
  -1  -3   5    0.89    0.34
  -1  -3   5    0.92    0.56
  -1  -3   5    0.65    0.49
   0   3  -5  123.14    3.11
   0   3  -5  122.67    3.67
   0   3  -5  119.72    3.60
   0  -3   5  127.20    3.72
   0  -3   5  115.79    3.64
   0  -3   5  117.82    3.58
  -1   3  -5  402.92   10.08
  -1   3  -5  397.21   10.10
  -1   3  -5  398.68   10.01
  -1   3  -5  398.01    9.49
   1  -3   5  392.52    9.98
   1  -3   5  396.46   10.41
   1  -3   5  398.61   10.09
  -2   3  -5    1.14    0.57
  -2   3  -5    0.31    0.38
  -2   3  -5    0.86    0.55
  -2   3  -5    1.37    0.50
  -2   3  -5    0.66    0.23
   2  -3   5    0.10    0.73
   2  -3   5    0.04    0.50
  -3   3  -5    5.42    0.85
  -3   3  -5    5.50    0.62
  -3   3  -5    4.95    0.86
  -3   3  -5    5.11    0.76
   3  -3   5    6.66    0.98
   3  -3   5    6.26    1.23
   3  -3   5    6.86    0.74
  -4   3  -5   28.24    1.82
  -4   3  -5   25.60    1.64
  -4   3  -5   22.92    1.55
   4  -3   5   22.61    1.70
   4  -3   5   27.81    1.51
   4  -3   5   25.73    2.08
  -5   3  -5   63.72    2.67
  -5   3  -5   67.30    2.97
   5  -3   5   62.64    3.14
   5  -3   5   63.01    2.94
   5  -3   5   65.99    2.60
  -6   3  -5   33.97    2.38
  -6   3  -5   37.70    2.13
   6  -3   5   36.14    2.36
   6  -3   5   35.58    2.00
  -7   3  -5    0.99    1.10
  -7   3  -5    3.26    0.97
   7  -3   5    2.38    1.20
   7  -3   5    1.98    0.87
   8  -3   5    2.85    1.71
   8   2  -5    6.39    1.29
   8   2  -5    5.50    0.74
   8   2  -5    4.87    0.90
   8   2  -5    3.02    1.16
  -8  -2   5    4.64    1.31
  -8  -2   5    6.14    1.27
  -8  -2   5    5.20    1.29
   7   2  -5   67.66    3.03
   7   2  -5   65.84    3.23
   7   2  -5   65.71    2.59
   7   2  -5   64.29    2.20
  -7  -2   5   68.03    3.11
  -7  -2   5   66.29    3.06
   6   2  -5   37.04    2.75
   6   2  -5   33.42    1.40
   6   2  -5   37.99    2.25
   6   2  -5   37.26    1.93
  -6  -2   5   39.84    2.37
   5   2  -5   20.61    1.69
   5   2  -5   22.91    1.57
   5   2  -5   21.28    1.86
   5   2  -5   18.37    0.82
  -5  -2   5   19.49    1.69
  -5  -2   5   21.54    1.78
   4   2  -5    0.93    0.77
   4   2  -5    0.11    0.66
   4   2  -5    2.45    0.88
  -4  -2   5    1.69    0.79
  -4  -2   5    0.60    0.75
  -4  -2   5    0.77    0.70
   3   2  -5  331.81    8.71
   3   2  -5  324.70    8.59
  -3  -2   5  331.63    8.77
  -3  -2   5  321.23    8.68
  -3  -2   5  326.21    8.62
   2   2  -5    2.02    0.62
   2   2  -5    2.06    0.63
   2   2  -5    1.35    0.72
  -2  -2   5    0.82    0.48
  -2  -2   5    0.45    0.55
  -2  -2   5    0.69    0.59
   1   2  -5   34.47    1.53
   1   2  -5   36.97    1.81
   1   2  -5   36.85    1.28
  -1  -2   5   38.47    1.67
  -1  -2   5   39.00    1.61
  -1  -2   5   38.19    1.24
  -1  -2   5   37.22    1.41
   0   2  -5    0.44    0.42
   0   2  -5    1.89    0.65
   0   2  -5    0.41    0.45
   0   2  -5    0.90    0.38
   0  -2   5    1.25    1.03
   0  -2   5    0.53    0.46
  -1   2  -5  266.16    6.77
  -1   2  -5  255.61    6.62
  -1   2  -5  261.76    6.86
  -1   2  -5  255.34    6.34
  -1   2  -5  258.51    6.23
   1  -2   5  257.07    7.24
   1  -2   5  254.33    6.84
  -2   2  -5  154.72    4.24
  -2   2  -5  155.35    4.24
  -2   2  -5  160.44    4.65
  -2   2  -5  160.73    4.37
   2  -2   5  152.62    4.61
   2  -2   5  152.46    4.13
   2  -2   5  157.20    5.10
  -3   2  -5   26.43    1.68
  -3   2  -5   24.41    1.40
  -3   2  -5   26.05    1.46
  -3   2  -5   24.87    1.09
   3  -2   5   24.75    1.37
   3  -2   5   27.36    1.71
   3  -2   5   25.58    2.00
  -4   2  -5    0.77    0.69
  -4   2  -5   -0.21    0.73
   4  -2   5    0.66    0.93
   4  -2   5   -0.38    0.64
   4  -2   5    0.33    0.65
  -5   2  -5    1.01    0.75
  -5   2  -5    1.34    0.86
   5  -2   5    1.76    0.90
   5  -2   5   -0.11    0.70
   5  -2   5    2.57    1.12
  -6   2  -5   21.42    2.11
  -6   2  -5   23.54    1.76
   6  -2   5   21.64    1.72
   6  -2   5   23.16    2.05
  -7   2  -5   -0.67    0.81
  -7   2  -5    1.00    1.14
   7  -2   5   -0.03    1.04
   7  -2   5    0.74    0.87
   8   1  -5    3.35    1.15
   8   1  -5    4.03    0.82
   8   1  -5    3.37    1.24
   8   1  -5    4.88    0.77
  -8  -1   5    5.86    1.39
  -8  -1   5    4.42    1.21
  -8  -1   5    3.35    1.14
   7   1  -5    6.17    0.95
   7   1  -5    7.24    1.44
   7   1  -5    5.59    0.78
  -7  -1   5    4.11    1.15
  -7  -1   5    7.15    1.28
   6   1  -5    8.09    1.41
   6   1  -5    5.73    0.72
   6   1  -5    5.91    1.13
   6   1  -5    7.97    1.06
  -6  -1   5    8.08    1.25
   5   1  -5   81.65    3.21
   5   1  -5   84.50    3.00
   5   1  -5   82.81    3.48
   5   1  -5   80.01    2.46
  -5  -1   5   87.14    3.34
  -5  -1   5   74.53    3.21
   4   1  -5    0.52    0.66
   4   1  -5    0.43    0.68
   4   1  -5    0.00    0.25
   4   1  -5   -0.41    0.70
  -4  -1   5    0.87    0.75
  -4  -1   5    0.09    0.67
  -4  -1   5    0.02    0.70
   3   1  -5  169.08    5.05
   3   1  -5  169.62    4.88
   3   1  -5  172.31    5.17
  -3  -1   5  169.82    5.13
  -3  -1   5  173.39    5.08
  -3  -1   5  171.44    4.98
  -3  -1   5  169.90    4.20
   2   1  -5   64.34    2.54
   2   1  -5   65.46    2.40
   2   1  -5   70.65    2.21
  -2  -1   5   67.80    2.54
  -2  -1   5   71.30    2.42
  -2  -1   5   66.31    2.28
  -2  -1   5   66.33    1.85
   1   1  -5  364.67    9.25
   1   1  -5  372.26    9.58
   1   1  -5  363.34    9.27
  -1  -1   5  371.04    9.23
  -1  -1   5  370.13    8.98
  -1  -1   5  392.86    9.41
   0   1  -5    1.86    0.50
   0   1  -5    2.02    0.51
   0   1  -5    1.87    0.39
   0  -1   5    1.88    0.17
   0  -1   5    2.10    0.19
   0  -1   5    2.36    0.53
   0  -1   5    1.73    0.39
  -1   1  -5   94.28    2.62
  -1   1  -5   93.04    2.89
  -1   1  -5   91.05    2.95
   1  -1   5   92.16    2.97
   1  -1   5   90.15    2.53
  -2   1  -5  315.43    8.26
  -2   1  -5  323.05    8.07
  -2   1  -5  327.68    8.07
  -2   1  -5  324.81    8.46
   2  -1   5  302.63    8.45
   2  -1   5  325.58    8.48
  -3   1  -5    3.03    0.71
  -3   1  -5    3.31    0.88
   3  -1   5    2.87    0.68
   3  -1   5    4.73    0.91
  -4   1  -5    1.90    0.77
  -4   1  -5    0.95    0.85
   4  -1   5    1.37    0.84
   4  -1   5   -0.02    0.68
   4  -1   5    0.29    0.91
  -5   1  -5    0.21    0.91
  -5   1  -5   -0.16    0.70
   5  -1   5    1.06    1.06
   5  -1   5    1.43    1.14
   5  -1   5    0.26    0.71
  -6   1  -5   20.78    2.75
   6  -1   5   22.10    1.75
  -7   1  -5    2.17    1.25
  -7   1  -5    3.79    1.03
   7  -1   5    3.10    1.26
   7  -1   5    2.42    1.06
   8   0  -5    0.12    0.62
   8   0  -5    1.03    0.97
   8   0  -5    0.95    1.07
   8   0  -5    0.78    0.68
  -8   0   5    1.40    1.06
  -8   0   5    1.33    1.01
  -8   0   5    0.89    1.00
   7   0  -5    9.31    1.55
   7   0  -5   10.54    1.08
   7   0  -5    8.71    0.98
  -7   0   5    8.30    1.38
  -7   0   5    8.68    1.36
   6   0  -5   13.48    1.25
   6   0  -5   14.81    1.79
   6   0  -5   15.90    1.21
   6   0  -5   14.48    1.48
  -6   0   5   12.54    1.76
  -6   0   5   13.66    1.55
   5   0  -5  111.04    4.25
   5   0  -5  106.87    3.28
   5   0  -5  109.76    3.53
   5   0  -5  112.33    3.81
  -5   0   5  100.70    3.91
  -5   0   5  109.66    3.88
  -5   0   5  108.45    4.02
   4   0  -5    1.11    0.79
   4   0  -5    0.48    0.41
   4   0  -5    0.05    0.63
   4   0  -5   -0.04    0.63
  -4   0   5   -0.16    0.77
  -4   0   5    0.65    0.70
  -4   0   5    0.47    0.76
  -4   0   5    0.22    0.38
   3   0  -5   14.99    1.07
   3   0  -5   15.50    1.41
   3   0  -5   16.28    0.89
   3   0  -5   15.60    1.29
  -3   0   5   14.71    1.18
  -3   0   5   18.43    1.41
  -3   0   5   16.14    0.86
  -3   0   5   16.98    1.36
   2   0  -5  496.65   12.57
   2   0  -5  514.94   12.75
  -2   0   5  504.58   12.55
  -2   0   5  510.64   12.75
  -2   0   5  502.05   12.22
  -2   0   5  515.42   12.39
   1   0  -5  146.48    4.28
   1   0  -5  139.50    3.91
   1   0  -5  151.35    4.08
  -1   0   5  143.35    3.98
  -1   0   5  142.20    3.73
  -1   0   5  142.48    3.84
   0   0  -5  279.27    7.67
   0   0  -5  280.07    7.05
   0   0  -5  278.04    7.07
   0   0  -5  278.81    6.70
   0   0   5  275.24    6.67
   0   0   5  262.89    7.42
  -1   0  -5   27.86    1.45
  -1   0  -5   29.77    0.99
   1   0   5   29.11    1.21
   1   0   5   30.34    1.50
  -2   0  -5   60.40    2.12
  -2   0  -5   59.79    2.38
  -2   0  -5   59.94    1.83
   2   0   5   61.17    2.44
   2   0   5   56.52    2.15
  -3   0  -5    8.35    0.98
  -3   0  -5    5.71    1.02
   3   0   5    5.25    0.86
   3   0   5    7.43    1.09
  -4   0  -5   39.45    2.37
  -4   0  -5   35.99    2.01
   4   0   5   39.26    2.35
   4   0   5   36.89    2.03
  -5   0  -5    0.65    0.76
  -5   0  -5   -1.33    0.69
   5   0   5    0.12    0.94
   5   0   5    0.04    0.81
   5   0   5   -1.04    0.72
  -6   0  -5   10.83    1.38
   6   0   5   10.45    1.33
  -7   0  -5   16.44    1.61
  -7   0  -5   12.95    1.30
  -7   0  -5   14.74    2.45
   7   0   5   14.28    1.67
   7   0   5   14.79    1.56
   9  -1  -5    5.16    1.45
  -9   1   5    5.42    1.35
  -9   1   5    5.41    1.31
  -9   1   5    7.09    1.41
   8  -1  -5    3.70    1.12
   8  -1  -5    2.81    0.68
   8  -1  -5    3.21    0.89
   8  -1  -5    3.36    1.31
  -8   1   5    2.46    1.08
  -8   1   5    2.79    1.15
  -8   1   5    2.56    1.13
   7  -1  -5    0.46    0.67
   7  -1  -5    1.65    0.68
   7  -1  -5    3.33    1.27
  -7   1   5    3.32    1.05
  -7   1   5    0.86    0.91
  -7   1   5    1.38    1.03
   6  -1  -5   22.77    1.74
   6  -1  -5   24.41    1.45
   6  -1  -5   25.52    1.58
   6  -1  -5   21.93    2.12
  -6   1   5   24.21    1.95
  -6   1   5   22.13    1.49
  -6   1   5   23.23    1.90
   5  -1  -5    6.41    0.94
   5  -1  -5    5.10    1.23
   5  -1  -5    5.66    1.02
   5  -1  -5    5.64    0.80
  -5   1   5    4.79    0.74
  -5   1   5    3.83    0.97
   4  -1  -5   91.43    3.21
   4  -1  -5   95.25    3.71
   4  -1  -5   97.91    3.26
   4  -1  -5   95.37    3.08
  -4   1   5   98.51    3.33
  -4   1   5   96.54    3.02
   3  -1  -5    4.00    0.80
   3  -1  -5    3.98    0.65
   3  -1  -5    3.62    0.81
   3  -1  -5    3.16    0.83
  -3   1   5    2.59    0.95
  -3   1   5    2.02    0.76
  -3   1   5    3.00    0.64
   2  -1  -5   24.34    1.46
   2  -1  -5   22.66    1.39
   2  -1  -5   22.88    1.33
  -2   1   5   22.54    1.41
  -2   1   5   24.09    1.10
  -2   1   5   23.40    1.26
  -2   1   5   23.38    1.21
   1  -1  -5   16.49    1.26
   1  -1  -5   18.06    1.14
   1  -1  -5   16.75    0.90
  -1   1   5   15.72    1.10
  -1   1   5   17.38    0.92
  -1   1   5   16.80    0.86
   0  -1  -5  188.25    5.06
   0  -1  -5  202.19    5.46
   0  -1  -5  192.16    5.24
   0   1   5  187.61    4.54
   0   1   5  189.72    5.11
  -1  -1  -5   29.95    1.48
   1   1   5   31.03    1.40
   1   1   5   33.21    1.60
  -2  -1  -5   92.60    3.20
   2   1   5   89.50    3.27
   2   1   5   88.82    2.99
  -3  -1  -5  161.03    5.14
  -3  -1  -5  161.00    4.79
   3   1   5  157.07    5.18
   3   1   5  161.26    4.82
  -4  -1  -5   28.68    1.44
  -4  -1  -5   26.38    1.81
  -4  -1  -5   31.02    2.14
   4   1   5   26.32    2.02
   4   1   5   27.46    1.85
  -5  -1  -5    3.19    1.13
  -5  -1  -5    1.35    0.64
  -5  -1  -5    1.51    0.85
   5   1   5    1.19    0.86
  -6  -1  -5    0.73    1.00
  -6  -1  -5   -1.08    0.59
  -6  -1  -5    0.25    0.87
   6   1   5    0.52    0.91
  -7  -1  -5   13.63    1.58
  -7  -1  -5   10.99    1.72
   7   1   5   13.21    1.60
   7   1   5   12.81    1.67
   9  -2  -5    3.54    0.98
   9  -2  -5    5.51    1.55
  -9   2   5    5.68    1.36
  -9   2   5    6.54    1.27
  -9   2   5    4.89    1.18
   8  -2  -5   12.05    1.77
   8  -2  -5   11.66    1.31
   8  -2  -5   10.26    1.40
  -8   2   5   10.08    1.44
  -8   2   5   10.90    1.41
  -8   2   5   10.58    1.52
   7  -2  -5    6.26    1.04
   7  -2  -5    9.32    1.61
   7  -2  -5    8.23    0.93
  -7   2   5    8.39    1.11
  -7   2   5    8.14    1.34
   6  -2  -5   12.95    2.12
   6  -2  -5   11.38    1.25
   6  -2  -5   10.91    1.13
   6  -2  -5   10.54    1.34
  -6   2   5    9.38    1.28
  -6   2   5   10.47    1.12
  -6   2   5    8.07    1.11
   5  -2  -5    6.97    1.34
   5  -2  -5    6.52    0.94
   5  -2  -5    7.24    0.96
  -5   2   5    4.66    0.99
  -5   2   5    7.85    0.93
   4  -2  -5  362.41    9.49
   4  -2  -5  364.05   10.07
   4  -2  -5  350.96    9.47
  -4   2   5  366.99    9.55
  -4   2   5  375.25    9.43
   3  -2  -5  143.27    4.48
   3  -2  -5  135.12    4.14
   3  -2  -5  138.33    4.28
   3  -2  -5  136.98    4.19
  -3   2   5  135.98    4.44
  -3   2   5  134.62    4.08
  -3   2   5  137.01    4.10
   2  -2  -5    8.38    0.95
   2  -2  -5   10.15    1.01
   2  -2  -5    8.71    1.09
  -2   2   5    9.53    1.01
  -2   2   5   10.23    1.06
  -2   2   5    9.26    0.65
   1  -2  -5  121.48    3.69
   1  -2  -5  118.94    3.22
  -1   2   5  123.29    3.77
  -1   2   5  121.02    3.25
  -1   2   5  117.82    3.53
   0  -2  -5   91.89    3.11
   0  -2  -5   95.27    2.84
   0   2   5  102.12    2.95
  -1  -2  -5  182.33    5.11
   1   2   5  185.29    5.29
   1   2   5  184.88    5.13
  -2  -2  -5    0.93    0.23
  -2  -2  -5    0.88    0.70
   2   2   5    1.52    0.68
   2   2   5    1.38    0.71
  -3  -2  -5   61.86    2.81
  -3  -2  -5   61.45    1.92
   3   2   5   61.50    2.56
   3   2   5   61.05    2.90
  -4  -2  -5    4.10    0.64
  -4  -2  -5    6.24    2.13
   4   2   5    3.85    0.96
  -5  -2  -5   40.40    1.77
  -5  -2  -5   40.11    2.32
   5   2   5   42.59    2.36
  -6  -2  -5    0.62    0.61
  -6  -2  -5    2.09    1.13
  -6  -2  -5   -0.58    0.91
   6   2   5    1.02    1.02
  -7  -2  -5    1.04    1.25
  -7  -2  -5    2.98    1.14
   7   2   5    2.67    0.92
   7   2   5    5.22    1.76
   7   2   5    2.31    1.15
   8  -3  -5   31.39    2.12
   8  -3  -5   33.62    2.59
  -8   3   5   33.12    2.27
  -8   3   5   32.66    2.29
  -8   3   5   32.46    2.13
   7  -3  -5   -0.07    1.07
   7  -3  -5   -0.49    0.74
  -7   3   5    0.42    0.88
  -7   3   5    0.11    0.71
  -7   3   5   -0.10    0.73
   6  -3  -5    5.04    1.62
   6  -3  -5    6.43    1.10
  -6   3   5    5.11    1.24
  -6   3   5    3.00    0.87
  -6   3   5    4.85    0.96
   5  -3  -5   11.45    1.65
   5  -3  -5    8.41    1.20
  -5   3   5    9.01    1.09
  -5   3   5    8.55    1.01
  -5   3   5    9.07    1.18
   4  -3  -5   39.63    2.33
   4  -3  -5   41.76    2.13
   4  -3  -5   45.19    2.06
  -4   3   5   47.42    2.14
  -4   3   5   43.27    2.04
   3  -3  -5   61.92    2.64
   3  -3  -5   62.13    2.54
   3  -3  -5   67.03    2.50
  -3   3   5   62.53    1.85
  -3   3   5   62.70    2.53
  -3   3   5   64.72    2.46
   2  -3  -5    1.07    0.56
   2  -3  -5    1.09    0.68
  -2   3   5    0.38    0.59
  -2   3   5    0.14    0.60
  -2   3   5    0.73    0.24
   1  -3  -5  107.91    3.52
   1  -3  -5  109.75    2.89
  -1   3   5  100.88    4.16
  -1   3   5  110.47    3.62
  -1   3   5  113.97    3.00
   0  -3  -5    6.79    1.01
   0  -3  -5    6.29    0.63
   0   3   5    5.43    0.38
   0   3   5    6.06    0.73
   0   3   5    6.21    0.63
  -1  -3  -5  179.45    5.01
   1   3   5  173.38    5.25
   1   3   5  180.94    5.15
  -2  -3  -5    7.47    0.47
  -2  -3  -5   10.13    1.17
   2   3   5    8.40    1.06
  -3  -3  -5   17.56    1.70
  -3  -3  -5   14.39    0.80
   3   3   5   14.38    1.42
  -4  -3  -5  123.51    3.39
  -4  -3  -5  112.35    4.50
   4   3   5  119.76    4.13
  -5  -3  -5    1.24    0.56
   5   3   5    0.75    0.92
  -6  -3  -5    0.86    1.15
  -6  -3  -5    1.04    0.60
   6   3   5    1.99    1.10
   6   3   5    2.38    0.85
   8  -4  -5    0.40    1.15
  -8   4   5    1.35    1.05
  -8   4   5    0.58    0.89
  -8   4   5    0.69    0.75
   7  -4  -5   16.72    1.76
   7  -4  -5   22.25    2.23
  -7   4   5   19.63    1.87
  -7   4   5   18.11    1.54
   6  -4  -5    4.64    1.41
   6  -4  -5    9.00    1.31
  -6   4   5    4.95    1.06
  -6   4   5    6.30    1.04
  -6   4   5    6.76    0.89
   5  -4  -5    1.27    0.86
   5  -4  -5   -0.56    0.90
  -5   4   5   -0.16    0.49
  -5   4   5    0.40    0.74
  -5   4   5    0.39    0.75
   4  -4  -5   23.84    1.71
   4  -4  -5   24.48    1.86
   4  -4  -5   23.04    1.53
  -4   4   5   23.18    1.56
  -4   4   5   21.54    1.08
  -4   4   5   22.24    1.65
   3  -4  -5  170.45    5.00
   3  -4  -5  170.27    5.19
   3  -4  -5  173.68    5.14
  -3   4   5  165.07    4.01
  -3   4   5  167.40    5.17
   2  -4  -5   20.52    1.46
   2  -4  -5   22.30    1.27
  -2   4   5   19.64    1.57
   1  -4  -5   13.76    1.33
   1  -4  -5   14.64    0.65
  -1   4   5   13.01    1.26
  -1   4   5   14.53    1.37
   0  -4  -5    1.39    0.41
   0   4   5    2.18    0.38
   0   4   5    3.08    0.87
   0   4   5    2.07    0.34
  -1  -4  -5   58.92    2.26
   1   4   5   58.48    1.60
   1   4   5   60.13    1.69
   1   4   5   59.44    2.48
  -2  -4  -5   27.88    1.01
  -2  -4  -5   28.65    1.83
   2   4   5   27.50    1.72
  -3  -4  -5    0.78    0.36
  -3  -4  -5   -0.15    0.80
   3   4   5    0.34    0.78
  -4  -4  -5   -0.34    0.37
  -4  -4  -5   -0.29    0.94
   4   4   5    0.72    0.52
   4   4   5    1.49    0.90
  -5  -4  -5   29.75    1.41
  -5  -4  -5   33.97    2.60
   5   4   5   28.43    1.55
   5   4   5   30.14    2.10
  -6  -4  -5   15.42    1.20
  -6  -4  -5   15.39    1.90
   6   4   5   14.03    1.71
   6   4   5   16.85    1.34
   8  -5  -5    3.27    1.33
   8  -5  -5    1.95    1.12
  -8   5   5    2.06    0.79
  -8   5   5    1.11    0.99
  -8   5   5    0.54    1.05
   7  -5  -5   37.25    2.84
  -7   5   5   37.73    2.35
  -7   5   5   39.98    2.36
  -7   5   5   38.98    1.83
   6  -5  -5    0.45    0.90
   6  -5  -5    1.48    1.13
  -6   5   5    0.03    0.86
  -6   5   5    1.14    0.86
  -6   5   5    0.94    0.50
   5  -5  -5    6.50    2.01
   5  -5  -5    8.10    1.33
   5  -5  -5    6.17    1.28
  -5   5   5    6.22    1.12
  -5   5   5    8.55    0.73
  -5   5   5    8.38    1.15
   4  -5  -5    1.21    0.80
   4  -5  -5    0.53    0.84
   4  -5  -5    2.06    0.89
  -4   5   5    1.86    0.87
  -4   5   5    0.40    0.72
   3  -5  -5  103.07    3.41
   3  -5  -5   96.12    3.37
   3  -5  -5  104.14    3.71
  -3   5   5   95.56    3.64
   2  -5  -5   18.10    1.12
   2  -5  -5   14.99    1.31
  -2   5   5   17.01    1.12
  -2   5   5   18.35    1.52
   1  -5  -5   73.02    1.86
   1  -5  -5   70.77    2.76
  -1   5   5   69.83    2.22
  -1   5   5   71.21    2.95
   0  -5  -5    1.29    0.41
   0   5   5    1.78    0.84
   0   5   5    1.01    0.57
  -1  -5  -5   18.36    1.29
   1   5   5   17.65    1.59
   1   5   5   17.99    1.57
   1   5   5   17.68    0.86
  -2  -5  -5   62.93    1.89
  -2  -5  -5   60.28    2.66
   2   5   5   62.80    2.71
  -3  -5  -5    0.51    0.37
  -3  -5  -5    0.86    0.87
   3   5   5   -0.15    0.82
  -4  -5  -5    3.19    1.21
  -4  -5  -5    4.08    0.56
   4   5   5    2.25    0.41
   4   5   5    2.59    1.05
  -5  -5  -5   -0.05    0.48
  -5  -5  -5   -0.03    1.11
   5   5   5   -0.41    1.53
   5   5   5    0.37    0.43
   8  -6  -5    5.06    1.41
   8  -6  -5    5.55    1.54
  -8   6   5    3.95    0.72
  -8   6   5    3.84    1.16
  -8   6   5    4.05    1.20
   7  -6  -5    8.86    1.51
   7  -6  -5    6.17    1.47
  -7   6   5    8.91    0.91
  -7   6   5    8.33    1.33
  -7   6   5    4.73    1.16
   6  -6  -5    4.17    1.28
  -6   6   5    5.84    1.14
  -6   6   5    6.04    1.25
   5  -6  -5   16.64    1.66
   5  -6  -5   13.86    1.65
   5  -6  -5   15.69    1.47
  -5   6   5   11.75    1.30
  -5   6   5   16.96    1.66
   4  -6  -5    0.89    0.88
   4  -6  -5    2.81    0.89
   4  -6  -5    1.67    0.91
  -4   6   5    1.65    0.82
   3  -6  -5   13.10    1.32
   3  -6  -5   13.10    1.23
   3  -6  -5   15.24    1.57
  -3   6   5   13.45    1.21
  -3   6   5    9.78    1.32
   2  -6  -5   84.51    3.16
   2  -6  -5   85.82    2.64
  -2   6   5   86.72    2.80
  -2   6   5   90.14    3.46
   1  -6  -5    3.27    1.00
  -1   6   5    1.41    0.49
  -1   6   5    2.49    0.90
   0  -6  -5    3.76    0.53
   0  -6  -5    2.93    1.02
   0   6   5    4.12    0.98
   0   6   5    3.81    0.55
  -1  -6  -5    5.34    0.79
   1   6   5    4.56    1.11
   1   6   5    5.77    0.59
   1   6   5    3.34    0.97
  -2  -6  -5   30.61    1.28
  -2  -6  -5   31.09    1.95
   2   6   5   32.09    2.08
   2   6   5   35.29    2.15
  -3  -6  -5    2.13    1.01
  -3  -6  -5    3.43    0.54
   3   6   5    4.35    1.05
   3   6   5    4.27    1.12
  -4  -6  -5    0.24    0.44
  -4  -6  -5    1.84    1.60
   4   6   5   -0.27    0.95
   5   6   5    0.03    1.06
   7  -7  -5    3.76    1.47
   7  -7  -5   -0.65    1.14
  -7   7   5    1.52    1.02
  -7   7   5    1.32    1.04
   6  -7  -5    6.20    1.33
   6  -7  -5    7.47    1.33
  -6   7   5    6.58    1.14
  -6   7   5    6.76    1.32
   5  -7  -5    1.24    0.99
   5  -7  -5    7.15    1.28
   5  -7  -5    4.04    0.96
  -5   7   5    3.71    1.09
  -5   7   5    2.87    1.00
   4  -7  -5   14.84    1.39
   4  -7  -5   15.70    1.49
  -4   7   5   12.44    1.49
  -4   7   5   16.04    1.56
   3  -7  -5   -0.40    0.53
   3  -7  -5    0.06    0.79
  -3   7   5   -0.35    0.56
  -3   7   5    1.72    0.88
   2  -7  -5   13.79    1.40
  -2   7   5   10.54    1.05
  -2   7   5    9.57    1.33
   1  -7  -5    0.57    0.87
  -1   7   5    1.79    0.55
  -1   7   5    1.35    0.89
   0  -7  -5    9.07    1.32
   0  -7  -5   10.66    0.79
   0   7   5   11.55    0.92
   0   7   5   13.49    1.52
  -1  -7  -5    0.94    0.55
   1   7   5   -0.80    0.79
   1   7   5    0.28    0.85
   1   7   5    0.33    0.44
  -2  -7  -5   12.24    1.23
   2   7   5   11.72    0.95
   2   7   5   10.61    1.45
   2   7   5   14.31    1.50
  -3  -7  -5   10.99    1.41
  -3  -7  -5    8.84    0.89
   3   7   5   10.09    1.44
   3   7   5   11.02    1.42
  -4  -7  -5    2.39    0.55
  -4  -7  -5    1.42    1.11
   4   7   5    1.25    1.04
   4   7   5    3.00    1.24
   6  -8  -5    2.80    1.22
   6  -8  -5    3.70    1.24
  -6   8   5    1.80    0.95
  -6   8   5    1.05    0.96
  -6   8   5    1.53    1.04
   5  -8  -5    0.72    0.74
   5  -8  -5    0.59    0.85
   5  -8  -5    1.56    1.00
  -5   8   5   -0.13    0.82
  -5   8   5    1.23    0.91
  -5   8   5    0.85    0.95
   4  -8  -5   18.61    1.49
   4  -8  -5   20.13    1.91
   4  -8  -5   21.66    1.54
  -4   8   5   21.33    1.58
  -4   8   5   14.16    1.63
   3  -8  -5    2.01    0.57
   3  -8  -5    3.44    0.99
  -3   8   5    3.01    1.04
   2  -8  -5    1.11    0.89
  -2   8   5    1.52    0.63
  -2   8   5    1.59    0.94
   1  -8  -5    8.10    1.29
  -1   8   5    5.91    1.14
  -1   8   5    5.06    0.70
   0  -8  -5   21.30    1.79
   0  -8  -5   18.52    0.90
   0   8   5   16.86    1.11
   0   8   5   16.94    1.78
  -1  -8  -5   10.44    0.95
   1   8   5   12.46    0.97
   1   8   5   11.21    1.51
   1   8   5   10.31    1.40
  -2  -8  -5    1.14    0.72
   2   8   5    1.08    1.04
   2   8   5    0.31    0.93
   2   8   5    1.35    0.53
   3   8   5    8.88    1.50
   3   8   5    7.95    1.36
   5  -9  -5   -0.06    0.72
   5  -9  -5   -1.83    0.90
   5  -9  -5   -0.44    1.04
  -5   9   5   -1.28    1.63
  -5   9   5   -0.56    0.79
   4  -9  -5    2.45    1.11
   4  -9  -5    4.47    0.81
   4  -9  -5    4.48    0.96
  -4   9   5    4.54    0.92
  -4   9   5    4.63    1.23
   3  -9  -5    7.54    1.17
   3  -9  -5    6.21    0.66
  -3   9   5    7.20    0.96
  -3   9   5    5.67    1.22
   2  -9  -5    2.47    0.99
  -2   9   5    1.50    0.98
  -2   9   5    3.69    0.85
   1  -9  -5    6.86    1.22
  -1   9   5    5.90    0.77
  -1   9   5    4.82    1.21
   0  -9  -5   -0.82    0.84
   0   9   5    0.79    0.96
   0   9   5    0.55    0.54
  -1  -9  -5    2.09    0.58
   1   9   5    3.09    1.14
   1   9   5    2.36    1.11
   1   9   5    3.49    0.63
   3 -10  -5    5.87    1.13
  -3  10   5    7.29    1.00
  -3  10   5    6.79    1.40
   2 -10  -5    0.05    0.86
  -2  10   5    0.35    0.66
  -2  10   5   -0.05    1.02
   0  11  -6    1.66    1.15
   0  11  -6   -1.18    0.77
   0 -11   6    2.41    1.01
  -1  11  -6    1.08    1.08
  -1  11  -6   -0.21    0.99
  -1  11  -6    0.40    0.78
   1 -11   6    0.73    0.61
   1 -11   6    0.34    0.43
   1 -11   6    0.75    0.86
  -2  11  -6    0.88    1.14
   2 -11   6    1.77    0.67
   2 -11   6    0.57    0.95
   2  10  -6    2.02    0.98
   2  10  -6    1.13    0.87
   2  10  -6    1.77    0.89
  -2 -10   6    1.50    0.82
  -2 -10   6    0.11    0.90
  -2 -10   6    2.51    0.76
   1  10  -6   24.49    2.07
   1  10  -6   21.77    1.92
  -1 -10   6   18.92    2.13
  -1 -10   6   24.30    1.65
  -1 -10   6   19.29    1.83
   0  10  -6    4.20    1.72
   0  10  -6    5.97    1.00
   0  10  -6    4.09    1.18
   0 -10   6    6.48    1.15
   0 -10   6    6.32    0.96
   0 -10   6    4.95    0.84
  -1  10  -6   25.06    2.24
  -1  10  -6   24.55    2.25
   1 -10   6   23.20    0.98
   1 -10   6   26.61    1.58
   1 -10   6   26.79    1.92
   1 -10   6   23.75    1.72
  -2  10  -6    5.46    1.39
   2 -10   6    2.59    0.94
   2 -10   6    2.98    0.71
  -3  10  -6   19.88    2.13
  -3  10  -6   19.94    1.44
  -3  10  -6   17.15    1.66
   3 -10   6   18.56    1.84
   3 -10   6   17.26    1.39
  -4  10  -6    5.94    1.18
  -4  10  -6    6.99    1.56
  -4  10  -6    5.91    0.91
   4 -10   6    4.81    0.84
   4 -10   6    5.45    1.28
   4   9  -6    1.30    0.61
   4   9  -6    1.86    0.98
   4   9  -6    3.23    1.03
  -4  -9   6    1.61    0.81
  -4  -9   6    2.63    1.23
   3   9  -6   45.76    2.41
   3   9  -6   43.93    2.07
  -3  -9   6   45.49    2.47
  -3  -9   6   46.98    2.05
   2   9  -6    2.29    0.96
   2   9  -6    0.98    0.81
   2   9  -6    1.24    0.77
  -2  -9   6    1.70    0.71
  -2  -9   6    1.43    0.89
  -2  -9   6   -0.04    0.66
   1   9  -6   10.16    1.30
   1   9  -6   13.21    1.38
   1   9  -6    9.16    1.11
  -1  -9   6    7.84    1.01
  -1  -9   6   13.55    1.15
  -1  -9   6   13.06    1.37
   0   9  -6   12.38    1.38
   0   9  -6   11.72    1.53
   0   9  -6   11.14    1.33
   0  -9   6   13.22    1.27
   0  -9   6    8.67    1.64
   0  -9   6   12.32    1.38
  -1   9  -6    7.76    1.64
   1  -9   6    8.51    1.00
   1  -9   6   12.26    1.28
   1  -9   6   10.87    1.29
  -2   9  -6    2.66    1.14
   2  -9   6    0.76    0.79
   2  -9   6    0.31    0.60
  -3   9  -6   10.22    1.23
  -3   9  -6    7.95    1.47
  -3   9  -6    7.77    0.94
   3  -9   6    6.71    1.49
   3  -9   6    6.98    1.18
  -4   9  -6   15.41    1.80
  -4   9  -6   21.08    2.22
   4  -9   6   17.22    1.82
   4  -9   6   17.53    1.45
  -5   9  -6    2.04    1.02
  -5   9  -6    1.59    0.77
  -5   9  -6    0.18    1.23
  -5   9  -6    1.12    0.72
   5  -9   6    1.02    0.74
   5  -9   6    1.41    1.20
   5   8  -6    4.74    1.20
   5   8  -6    3.08    1.24
  -5  -8   6    3.14    1.13
   4   8  -6    4.44    1.06
   4   8  -6    3.43    1.05
  -4  -8   6    7.69    1.27
   3   8  -6   34.38    2.01
   3   8  -6   30.88    1.64
   3   8  -6   33.16    2.03
  -3  -8   6   34.33    2.04
  -3  -8   6   31.97    1.77
   2   8  -6   12.03    2.12
   2   8  -6   11.87    1.24
   2   8  -6   15.72    1.48
  -2  -8   6   14.96    1.29
  -2  -8   6   10.59    1.16
  -2  -8   6   11.06    1.30
   1   8  -6    2.88    0.89
   1   8  -6    1.27    0.71
   1   8  -6    0.57    0.78
  -1  -8   6    1.74    0.87
  -1  -8   6    0.54    0.62
  -1  -8   6    0.95    0.54
   0   8  -6   35.11    2.17
   0   8  -6   31.70    1.70
   0  -8   6   34.12    1.82
   0  -8   6   31.40    1.97
   0  -8   6   32.94    1.73
  -1   8  -6   14.45    1.67
   1  -8   6   15.22    1.39
   1  -8   6   14.85    1.43
   1  -8   6   15.05    1.33
  -2   8  -6   47.68    2.85
   2  -8   6   51.59    2.45
   2  -8   6   50.56    2.19
  -3   8  -6    0.94    0.71
  -3   8  -6    2.39    0.67
  -3   8  -6    2.18    1.15
   3  -8   6    1.92    0.99
   3  -8   6    1.19    0.66
  -4   8  -6   18.37    1.99
  -4   8  -6   17.56    1.46
  -4   8  -6   14.92    1.50
  -4   8  -6   14.16    1.26
   4  -8   6   15.16    1.69
   4  -8   6   18.04    1.72
  -5   8  -6    1.82    0.83
  -5   8  -6    2.15    0.62
  -5   8  -6   -0.23    1.04
  -5   8  -6   -1.04    0.86
   5  -8   6    0.38    1.11
   5  -8   6    0.82    0.70
  -6   8  -6    1.77    1.13
  -6   8  -6    2.78    0.94
  -6   8  -6    2.63    0.85
   6  -8   6    1.54    1.28
   6  -8   6    1.84    0.93
   6   7  -6    0.13    1.07
   5   7  -6    1.36    0.97
   5   7  -6    0.95    0.94
  -5  -7   6    2.05    0.86
  -5  -7   6    0.16    0.91
   4   7  -6    4.93    1.04
   4   7  -6    4.30    0.50
   4   7  -6    3.45    1.01
  -4  -7   6    6.78    1.20
  -4  -7   6    6.27    0.99
   3   7  -6   12.91    1.55
   3   7  -6   12.64    1.38
  -3  -7   6   13.83    1.44
  -3  -7   6   15.14    1.35
   2   7  -6   44.03    2.04
   2   7  -6   38.54    2.12
   2   7  -6   36.85    1.87
  -2  -7   6   42.26    1.98
  -2  -7   6   40.34    2.15
   1   7  -6    0.67    0.70
   1   7  -6    0.32    0.57
   1   7  -6    2.86    0.86
  -1  -7   6    1.11    0.84
  -1  -7   6    0.60    0.68
  -1  -7   6    0.66    0.49
   0   7  -6   23.30    1.86
   0   7  -6   27.70    1.72
   0   7  -6   25.70    1.44
   0  -7   6   24.92    1.62
   0  -7   6   26.39    1.74
   0  -7   6   24.42    1.46
  -1   7  -6    2.03    0.94
  -1   7  -6    1.14    0.68
   1  -7   6    0.34    0.65
   1  -7   6    1.50    0.81
   1  -7   6    0.12    0.41
   1  -7   6   -0.25    0.53
  -2   7  -6   38.66    2.06
  -2   7  -6   42.18    2.50
  -2   7  -6   37.17    1.62
   2  -7   6   37.04    1.89
   2  -7   6   36.30    2.17
  -3   7  -6   23.26    1.69
  -3   7  -6   24.94    1.59
  -3   7  -6   22.51    1.31
  -3   7  -6   14.22    3.03
   3  -7   6   20.49    1.53
   3  -7   6   21.89    1.87
  -4   7  -6    8.89    1.51
  -4   7  -6    5.32    0.83
  -4   7  -6    5.36    0.92
   4  -7   6    5.38    1.27
   4  -7   6    4.93    0.91
  -5   7  -6   14.48    1.31
  -5   7  -6   10.76    1.24
  -5   7  -6   13.67    0.91
  -5   7  -6   11.07    1.34
   5  -7   6    9.47    1.21
   5  -7   6   14.37    1.77
  -6   7  -6    8.41    1.19
  -6   7  -6    7.89    1.08
  -6   7  -6    7.62    1.34
   6  -7   6   10.61    1.73
   6  -7   6   11.98    1.40
   6   6  -6   35.12    2.25
  -6  -6   6   38.11    2.36
   5   6  -6    6.10    1.13
  -5  -6   6    5.60    1.08
  -5  -6   6    6.54    1.23
   4   6  -6    0.75    0.80
   4   6  -6    0.50    0.81
  -4  -6   6    1.93    0.77
  -4  -6   6    0.25    0.80
   3   6  -6    1.15    0.42
   3   6  -6    0.64    0.74
   3   6  -6    1.26    0.72
  -3  -6   6   -0.31    0.64
   2   6  -6  123.85    3.95
  -2  -6   6  128.15    4.18
  -2  -6   6  127.64    4.02
   1   6  -6    7.68    1.02
   1   6  -6    8.50    1.07
   1   6  -6    5.62    0.79
  -1  -6   6    6.12    0.94
  -1  -6   6    7.01    0.74
  -1  -6   6    7.29    1.05
   0   6  -6    2.37    0.78
   0   6  -6    2.19    0.82
   0   6  -6    2.88    0.59
   0  -6   6    2.73    0.69
   0  -6   6    3.68    0.81
   0  -6   6    1.79    0.78
  -1   6  -6   11.21    1.45
  -1   6  -6   10.81    1.18
   1  -6   6    9.64    1.09
   1  -6   6    8.27    0.97
   1  -6   6   11.52    1.22
  -2   6  -6   46.86    2.10
  -2   6  -6   46.97    2.61
  -2   6  -6   45.00    1.72
  -2   6  -6   42.92    2.12
   2  -6   6   45.16    2.07
   2  -6   6   45.76    2.33
  -3   6  -6  131.28    4.90
  -3   6  -6  129.80    4.18
  -3   6  -6  134.93    3.87
   3  -6   6  137.22    5.22
   3  -6   6  132.62    4.20
  -4   6  -6    9.84    0.91
  -4   6  -6    8.36    1.10
  -4   6  -6    8.90    1.19
  -4   6  -6    7.83    0.91
   4  -6   6    6.07    1.00
   4  -6   6    7.64    1.43
  -5   6  -6    5.32    0.95
  -5   6  -6    5.51    1.03
  -5   6  -6    5.42    0.56
   5  -6   6    3.16    1.26
   5  -6   6    5.91    1.07
  -6   6  -6    0.68    0.97
  -6   6  -6    1.54    0.89
  -6   6  -6    2.04    0.99
   6  -6   6    1.06    1.13
   6  -6   6    2.15    0.90
  -7   6  -6    6.68    1.14
  -7   6  -6    6.78    1.48
   7  -6   6    5.72    1.51
   7  -6   6    5.34    1.15
   7   5  -6   -0.36    0.97
  -7  -5   6    0.85    1.01
  -7  -5   6   -0.25    1.00
   6   5  -6   43.27    2.41
  -6  -5   6   41.43    2.49
  -6  -5   6   42.05    2.47
   5   5  -6    0.60    0.80
   5   5  -6    0.59    0.84
  -5  -5   6   -0.15    0.83
  -5  -5   6    0.15    0.81
  -5  -5   6    1.43    0.91
   4   5  -6    0.58    0.74
   4   5  -6   -0.18    0.76
  -4  -5   6   -0.24    0.77
  -4  -5   6    1.19    0.78
   3   5  -6   27.91    1.71
   3   5  -6   25.87    1.70
  -3  -5   6   27.62    1.70
  -3  -5   6   28.30    1.79
   2   5  -6  138.75    4.34
   2   5  -6  131.13    3.79
   2   5  -6  137.59    4.12
  -2  -5   6  138.85    4.27
  -2  -5   6  137.40    3.56
  -2  -5   6  136.73    4.34
   1   5  -6   88.59    3.37
   1   5  -6   95.55    3.27
   1   5  -6   95.70    2.92
  -1  -5   6   89.21    3.22
  -1  -5   6   92.95    2.80
  -1  -5   6   96.63    3.26
   0   5  -6   18.17    1.42
   0   5  -6   18.57    1.53
   0   5  -6   18.56    1.03
   0  -5   6   16.43    1.31
   0  -5   6   16.68    1.41
   0  -5   6   21.13    1.32
  -1   5  -6    4.31    1.01
  -1   5  -6    2.96    0.78
  -1   5  -6    5.20    0.82
   1  -5   6    4.00    0.76
   1  -5   6    3.86    0.80
   1  -5   6    3.21    0.85
  -2   5  -6   26.25    2.08
  -2   5  -6   28.40    1.23
  -2   5  -6   28.68    1.65
  -2   5  -6   25.01    1.60
   2  -5   6   29.03    1.64
   2  -5   6   24.12    1.87
  -3   5  -6  155.30    4.73
  -3   5  -6  157.57    4.35
  -3   5  -6  154.42    4.38
  -3   5  -6  155.23    4.74
   3  -5   6  152.67    5.21
   3  -5   6  152.97    4.74
  -4   5  -6    3.78    0.69
  -4   5  -6    2.57    0.88
  -4   5  -6    3.49    1.19
  -4   5  -6    3.04    0.69
   4  -5   6    2.57    1.11
   4  -5   6    0.67    0.71
  -5   5  -6    1.28    0.35
  -5   5  -6    0.61    0.79
  -5   5  -6    1.47    0.74
  -5   5  -6    0.79    0.86
   5  -5   6    1.64    0.87
  -6   5  -6    6.45    1.08
  -6   5  -6    3.18    1.12
   6  -5   6    5.33    1.14
   6  -5   6    1.54    1.03
  -7   5  -6   11.02    1.50
  -7   5  -6   11.04    2.41
  -7   5  -6   12.77    1.35
   7  -5   6   11.00    1.57
   7  -5   6   11.77    1.75
   7   4  -6    3.29    1.06
   7   4  -6    1.76    0.88
  -7  -4   6    2.50    1.08
  -7  -4   6    4.65    1.21
  -6  -4   6   14.60    1.66
  -6  -4   6   18.10    1.72
  -5  -4   6   41.06    2.33
  -5  -4   6   42.45    2.40
  -5  -4   6   43.93    2.82
   4   4  -6   73.68    3.01
  -4  -4   6   76.56    2.97
  -4  -4   6   76.25    3.06
  -4  -4   6   73.92    2.98
   3   4  -6    5.09    0.95
   3   4  -6    4.77    0.89
  -3  -4   6    5.25    0.92
  -3  -4   6    4.82    0.83
  -3  -4   6    3.19    0.88
   2   4  -6   22.48    1.35
   2   4  -6   23.44    1.53
  -2  -4   6   24.04    0.83
  -2  -4   6   22.78    1.52
  -2  -4   6   23.08    1.51
   1   4  -6  413.46   10.55
  -1  -4   6  405.47   10.10
  -1  -4   6  415.03   10.54
  -1  -4   6  408.77   10.58
   0   4  -6    4.61    0.47
   0   4  -6    5.09    0.81
   0  -4   6    5.19    0.81
   0  -4   6    3.94    0.76
   0  -4   6    5.66    0.79
  -1   4  -6   15.72    1.26
  -1   4  -6   15.69    1.31
  -1   4  -6   14.98    0.72
   1  -4   6   13.55    1.35
   1  -4   6   14.08    1.18
   1  -4   6   14.23    1.17
  -2   4  -6    0.01    0.57
  -2   4  -6   -0.51    0.52
  -2   4  -6    0.52    0.37
  -2   4  -6   -0.04    0.58
   2  -4   6    0.31    0.79
   2  -4   6   -0.87    0.51
  -3   4  -6   75.89    2.49
  -3   4  -6   77.21    2.86
  -3   4  -6   77.20    2.97
  -3   4  -6   77.22    1.96
  -3   4  -6   80.08    2.64
   3  -4   6   82.84    3.02
   3  -4   6   83.06    3.49
  -4   4  -6   24.91    1.73
  -4   4  -6   19.89    1.42
  -4   4  -6   24.13    1.05
  -4   4  -6   22.83    1.59
   4  -4   6   22.76    1.67
   4  -4   6   26.18    2.68
  -5   4  -6    1.57    0.87
  -5   4  -6    1.66    0.79
   5  -4   6    1.04    0.67
   5  -4   6   -0.32    0.76
  -6   4  -6    4.25    1.06
  -6   4  -6    3.05    1.09
  -6   4  -6    2.42    0.84
   6  -4   6    2.60    0.99
   6  -4   6    1.00    0.92
   6  -4   6    2.60    0.82
  -7   4  -6    2.22    0.98
  -7   4  -6    1.68    1.10
  -7   4  -6    0.93    1.78
   7  -4   6    0.15    0.82
   7  -4   6    1.99    1.09
   7  -4   6    2.07    1.27
   8   3  -6   24.73    2.19
   8   3  -6   22.56    2.10
   8   3  -6   23.59    1.62
  -8  -3   6   24.84    2.28
   7   3  -6    3.48    1.14
   7   3  -6    2.55    1.04
   7   3  -6    3.70    1.10
  -7  -3   6    1.82    1.04
  -7  -3   6    2.89    1.08
   6   3  -6   -0.56    0.76
   6   3  -6    1.65    0.90
   6   3  -6    0.95    0.85
  -6  -3   6    1.30    0.98
  -6  -3   6    0.20    0.89
   5   3  -6   89.14    3.35
   5   3  -6   86.16    3.32
  -5  -3   6   85.75    3.45
  -5  -3   6   91.20    3.55
  -5  -3   6   82.02    3.33
   4   3  -6   15.40    1.48
   4   3  -6   17.96    1.51
  -4  -3   6   15.19    1.48
  -4  -3   6   15.99    1.51
  -4  -3   6   15.29    1.41
   3   3  -6  190.23    5.47
   3   3  -6  186.56    5.32
  -3  -3   6  183.44    5.25
  -3  -3   6  177.41    5.40
  -3  -3   6  180.78    5.46
   2   3  -6   11.88    1.02
   2   3  -6   11.55    1.13
  -2  -3   6   10.16    1.14
  -2  -3   6   11.57    0.47
  -2  -3   6    8.18    0.98
   1   3  -6   87.82    2.58
   1   3  -6   90.43    3.01
  -1  -3   6   92.32    3.02
  -1  -3   6   92.37    2.71
  -1  -3   6   89.42    3.05
   0   3  -6   57.44    1.52
   0   3  -6   56.25    2.25
   0   3  -6   59.82    2.19
   0   3  -6   59.94    2.41
   0  -3   6   58.36    2.27
   0  -3   6   52.85    2.22
   0  -3   6   59.42    2.18
  -1   3  -6   46.34    1.97
  -1   3  -6   40.71    1.25
  -1   3  -6   42.93    1.80
  -1   3  -6   38.93    1.83
  -1   3  -6   42.28    1.34
   1  -3   6   39.06    1.71
   1  -3   6   43.98    2.20
   1  -3   6   44.89    1.93
  -2   3  -6    0.99    0.57
  -2   3  -6    1.89    0.68
  -2   3  -6    1.33    0.58
  -2   3  -6    1.45    0.42
  -2   3  -6    2.24    0.36
   2  -3   6    1.55    0.91
   2  -3   6    2.03    0.67
  -3   3  -6   77.05    2.91
  -3   3  -6   74.04    2.68
  -3   3  -6   74.89    2.50
  -3   3  -6   76.94    2.58
   3  -3   6   78.78    3.41
   3  -3   6   76.53    2.44
   3  -3   6   72.89    2.91
  -4   3  -6   72.60    2.73
  -4   3  -6   75.74    2.80
  -4   3  -6   71.57    2.16
  -4   3  -6   76.56    3.08
   4  -3   6   74.81    3.07
   4  -3   6   75.35    2.61
   4  -3   6   75.30    3.47
  -5   3  -6    4.08    0.90
  -5   3  -6    4.43    0.97
  -5   3  -6    4.13    1.05
   5  -3   6    1.92    0.76
   5  -3   6    2.77    0.93
  -6   3  -6   -0.14    0.87
  -6   3  -6   -1.29    0.69
   6  -3   6    1.89    0.80
   6  -3   6    1.38    0.94
   6  -3   6    1.18    1.07
  -7   3  -6   -0.95    0.81
   7  -3   6    1.09    0.83
   7  -3   6   -1.84    1.82
   7  -3   6   -0.19    0.92
   8   2  -6    2.40    1.22
   8   2  -6    1.24    0.77
   8   2  -6    1.60    1.11
  -8  -2   6    2.23    1.16
  -8  -2   6    0.33    1.08
   7   2  -6   31.16    2.03
   7   2  -6   29.72    1.76
   7   2  -6   28.82    2.32
   7   2  -6   29.25    1.10
  -7  -2   6   28.81    2.19
  -7  -2   6   29.25    2.14
   6   2  -6    0.01    0.20
   6   2  -6   -0.25    0.73
   6   2  -6    0.13    0.80
   6   2  -6    0.55    0.99
  -6  -2   6   -0.76    0.87
   5   2  -6   38.24    2.12
   5   2  -6   36.08    2.25
   5   2  -6   39.80    2.13
  -5  -2   6   36.88    2.17
  -5  -2   6   36.90    2.23
  -5  -2   6   41.74    2.37
   4   2  -6    9.63    1.13
   4   2  -6    9.98    1.26
  -4  -2   6   10.72    1.26
  -4  -2   6    7.96    1.12
  -4  -2   6    8.39    1.14
   3   2  -6  239.99    6.54
   3   2  -6  227.61    6.64
   3   2  -6  231.76    6.30
  -3  -2   6  223.38    6.32
  -3  -2   6  236.11    6.51
  -3  -2   6  228.21    6.57
   2   2  -6   98.61    3.21
   2   2  -6   92.40    3.18
   2   2  -6   98.07    3.48
  -2  -2   6   98.35    2.60
  -2  -2   6   99.12    2.97
  -2  -2   6  100.90    3.22
  -2  -2   6  101.95    3.41
   1   2  -6  336.06    8.65
   1   2  -6  323.01    7.72
   1   2  -6  321.65    8.25
  -1  -2   6  325.09    8.25
  -1  -2   6  326.07    8.40
  -1  -2   6  306.09    8.16
  -1  -2   6  320.21    7.73
   0   2  -6  627.38   15.57
   0   2  -6  632.72   15.52
   0   2  -6  635.61   15.37
   0   2  -6  648.24   15.73
   0  -2   6  633.57   15.36
   0  -2   6  636.04   15.60
  -1   2  -6  140.25    4.10
  -1   2  -6  139.20    3.91
  -1   2  -6  137.74    3.71
  -1   2  -6  140.16    4.20
   1  -2   6  145.73    3.91
   1  -2   6  136.40    4.16
   1  -2   6  134.85    4.52
  -2   2  -6   33.54    1.55
  -2   2  -6   35.74    1.55
  -2   2  -6   36.37    1.40
  -2   2  -6   36.11    1.85
  -2   2  -6   34.47    1.36
   2  -2   6   36.64    1.83
   2  -2   6   34.88    1.34
   2  -2   6   36.22    2.20
  -3   2  -6    0.07    0.50
  -3   2  -6    1.13    0.57
  -3   2  -6    0.01    0.43
  -3   2  -6    0.44    0.65
   3  -2   6    0.60    0.96
   3  -2   6    0.31    0.66
   3  -2   6    0.44    0.51
  -4   2  -6  142.98    4.31
  -4   2  -6  148.07    4.77
  -4   2  -6  144.58    4.41
   4  -2   6  131.32    5.00
   4  -2   6  147.04    4.81
   4  -2   6  145.32    4.35
  -5   2  -6    6.32    1.19
  -5   2  -6    5.80    0.98
   5  -2   6    7.29    1.02
   5  -2   6    5.96    1.17
   5  -2   6    5.44    1.23
  -6   2  -6   11.14    1.35
  -6   2  -6    7.03    1.34
   6  -2   6   11.75    1.25
   6  -2   6   13.35    1.66
   6  -2   6   12.76    1.64
  -7   2  -6    0.89    0.91
  -7   2  -6    0.84    1.22
   7  -2   6   -0.86    1.18
   7  -2   6    0.07    0.80
   8   1  -6   -0.45    0.92
   8   1  -6   -0.34    0.68
   8   1  -6   -0.70    1.07
   8   1  -6    0.37    0.50
  -8  -1   6   -0.71    1.04
  -8  -1   6    0.79    1.03
  -8  -1   6    0.18    1.00
   7   1  -6   78.26    3.67
   7   1  -6   71.97    2.46
   7   1  -6   86.25    2.93
  -7  -1   6   78.35    3.48
  -7  -1   6   80.69    3.43
   6   1  -6   10.34    1.33
   6   1  -6   11.44    1.61
   6   1  -6   10.14    1.14
   6   1  -6    9.76    0.87
  -6  -1   6   10.04    1.41
  -6  -1   6   11.54    1.43
   5   1  -6    1.13    0.91
   5   1  -6    0.51    0.32
   5   1  -6    0.49    0.74
   5   1  -6    1.58    0.86
  -5  -1   6    1.47    0.90
  -5  -1   6    1.96    0.86
  -5  -1   6    0.09    0.82
   4   1  -6   38.94    2.05
   4   1  -6   37.88    1.93
   4   1  -6   41.75    2.28
  -4  -1   6   40.70    1.29
  -4  -1   6   37.69    2.18
  -4  -1   6   41.77    2.11
  -4  -1   6   41.73    2.15
   3   1  -6   46.39    1.90
   3   1  -6   45.29    2.15
  -3  -1   6   44.19    1.35
  -3  -1   6   43.89    2.15
  -3  -1   6   45.81    1.99
  -3  -1   6   46.30    2.12
   2   1  -6  233.59    5.99
   2   1  -6  231.60    6.33
   2   1  -6  226.71    6.56
  -2  -1   6  240.60    6.35
  -2  -1   6  238.08    6.14
  -2  -1   6  234.94    6.54
  -2  -1   6  229.75    6.27
  -2  -1   6  238.45    5.84
   1   1  -6   14.07    0.99
   1   1  -6   13.40    0.99
   1   1  -6   13.64    1.20
  -1  -1   6   14.03    1.07
  -1  -1   6   14.38    0.71
   0   1  -6   67.70    2.15
   0   1  -6   68.22    2.38
   0   1  -6   68.30    2.53
   0   1  -6   70.18    2.24
   0  -1   6   68.46    1.73
   0  -1   6   69.68    2.42
   0  -1   6   67.49    1.71
   0  -1   6   68.33    2.11
  -1   1  -6    4.82    0.65
  -1   1  -6    1.35    0.57
  -1   1  -6    3.56    0.48
  -1   1  -6    3.99    0.74
   1  -1   6    3.43    0.43
   1  -1   6    3.52    0.66
  -2   1  -6  220.75    5.81
  -2   1  -6  234.54    6.01
  -2   1  -6  228.69    5.79
  -2   1  -6  231.38    6.33
   2  -1   6  225.92    6.33
   2  -1   6  207.37    6.20
  -3   1  -6    4.81    0.75
  -3   1  -6    4.91    0.67
  -3   1  -6    3.64    0.86
   3  -1   6    4.70    0.79
   3  -1   6    3.71    0.89
  -4   1  -6    7.36    1.00
  -4   1  -6    6.42    1.15
   4  -1   6    7.40    1.33
   4  -1   6    7.14    1.16
   4  -1   6    6.74    0.96
  -5   1  -6   27.55    1.80
   5  -1   6   27.35    2.25
   5  -1   6   25.89    2.10
   5  -1   6   25.55    1.77
  -6   1  -6    8.50    1.21
   6  -1   6    7.17    1.10
   6  -1   6    8.58    1.44
   6  -1   6    7.01    1.28
  -7   1  -6    0.25    0.84
  -7   1  -6    1.97    1.24
   7  -1   6    1.41    1.02
   7  -1   6    0.33    1.30
   8   0  -6    2.73    1.27
   8   0  -6    5.08    0.81
   8   0  -6    6.20    0.90
   8   0  -6    6.72    1.27
  -8   0   6    5.18    1.26
  -8   0   6    5.73    1.26
  -8   0   6    6.66    1.35
   7   0  -6    6.47    1.46
   7   0  -6   10.07    0.99
   7   0  -6    9.23    1.11
  -7   0   6    9.36    1.36
  -7   0   6    9.20    1.40
   6   0  -6   26.94    1.67
   6   0  -6   20.48    2.08
   6   0  -6   29.11    1.88
   6   0  -6   26.40    1.42
  -6   0   6   24.82    2.33
  -6   0   6   30.61    2.02
   5   0  -6    1.69    1.02
   5   0  -6    1.64    0.78
   5   0  -6    2.74    0.56
   5   0  -6    1.88    0.78
  -5   0   6    3.28    1.05
  -5   0   6    2.13    0.69
  -5   0   6    2.11    0.87
   4   0  -6   31.25    1.32
   4   0  -6   30.26    1.81
   4   0  -6   30.99    2.07
   4   0  -6   29.04    1.65
  -4   0   6   34.15    2.02
  -4   0   6   33.08    1.32
  -4   0   6   33.38    1.88
  -4   0   6   29.20    1.94
   3   0  -6   23.01    1.55
   3   0  -6   20.44    1.23
   3   0  -6   23.30    1.58
  -3   0   6   22.65    1.05
  -3   0   6   22.48    1.58
  -3   0   6   20.77    1.33
  -3   0   6   21.89    1.53
   2   0  -6  219.28    6.07
   2   0  -6  212.13    5.83
  -2   0   6  205.13    5.54
  -2   0   6  207.05    5.65
  -2   0   6  212.37    5.50
  -2   0   6  211.26    5.71
  -2   0   6  212.83    5.98
   1   0  -6    0.12    0.61
   1   0  -6   -0.02    0.39
   1   0  -6    0.42    0.52
   1   0  -6    0.37    0.39
  -1   0   6    0.21    0.28
  -1   0   6   -0.03    0.35
  -1   0   6    0.71    0.43
   0   0  -6   13.61    0.72
   0   0  -6   15.16    1.06
   0   0  -6   13.54    1.01
   0   0  -6   13.50    1.18
   0   0   6   12.86    0.67
   0   0   6   14.67    1.04
  -1   0  -6   44.22    1.32
  -1   0  -6   41.24    1.85
  -1   0  -6   41.29    1.84
  -1   0  -6   42.42    1.75
   1   0   6   43.33    1.57
   1   0   6   46.00    1.92
  -2   0  -6  111.84    3.63
  -2   0  -6  103.61    2.92
   2   0   6  113.92    3.70
   2   0   6  108.88    3.33
  -3   0  -6   49.77    2.41
  -3   0  -6   48.92    2.07
   3   0   6   50.76    2.44
   3   0   6   46.12    2.13
  -4   0  -6   -0.87    1.12
  -4   0  -6   -0.50    0.60
   4   0   6   -0.37    0.65
   4   0   6    0.11    0.78
  -5   0  -6   34.02    2.03
   5   0   6   34.48    2.04
   5   0   6   33.68    2.30
   5   0   6   35.52    2.47
  -6   0  -6    2.68    0.97
  -6   0  -6    2.64    1.06
   6   0   6    3.61    1.04
   6   0   6    3.59    1.22
  -7   0  -6    2.39    1.10
  -7   0  -6    3.87    0.98
  -7   0  -6    3.79    1.46
   7   0   6    2.55    1.04
   8  -1  -6    0.56    0.64
   8  -1  -6   -1.56    0.89
   8  -1  -6    0.58    0.70
   8  -1  -6   -1.56    0.97
  -8   1   6    1.83    1.08
  -8   1   6   -0.44    0.92
  -8   1   6    0.17    0.98
   7  -1  -6    2.77    1.18
   7  -1  -6    2.00    0.76
   7  -1  -6    1.98    0.75
  -7   1   6    1.62    1.00
  -7   1   6    2.52    1.09
   6  -1  -6  109.15    3.58
   6  -1  -6  112.05    3.64
   6  -1  -6  107.34    4.51
   6  -1  -6  109.68    3.91
  -6   1   6  108.70    4.05
  -6   1   6  111.88    3.50
   5  -1  -6    8.43    1.40
   5  -1  -6    5.91    0.84
   5  -1  -6    7.10    1.03
   5  -1  -6    5.84    1.02
  -5   1   6    5.87    1.18
  -5   1   6    5.74    1.02
  -5   1   6    5.53    0.76
   4  -1  -6    0.27    0.70
   4  -1  -6    0.21    0.78
   4  -1  -6    0.93    0.53
  -4   1   6   -0.21    0.42
  -4   1   6    1.19    0.80
  -4   1   6    1.12    0.69
  -4   1   6    0.61    0.83
   3  -1  -6   40.31    1.93
   3  -1  -6   41.30    2.03
   3  -1  -6   42.07    2.08
  -3   1   6   38.21    1.89
  -3   1   6   38.68    1.77
  -3   1   6   38.29    2.03
  -3   1   6   38.90    1.64
   2  -1  -6  267.74    6.96
   2  -1  -6  256.61    7.12
  -2   1   6  263.86    6.67
  -2   1   6  256.26    6.76
  -2   1   6  240.65    6.89
  -2   1   6  261.07    6.82
  -2   1   6  254.99    7.00
   1  -1  -6  195.01    5.61
   1  -1  -6  195.40    5.39
   1  -1  -6  194.84    5.11
  -1   1   6  193.72    4.92
  -1   1   6  188.43    5.34
  -1   1   6  193.50    5.87
   0  -1  -6    8.78    0.98
   0  -1  -6    5.95    0.68
   0  -1  -6    5.00    0.88
   0   1   6    5.74    0.68
   0   1   6    7.82    0.36
  -1  -1  -6  114.32    3.50
   1   1   6  111.71    3.31
   1   1   6  109.00    3.55
  -2  -1  -6   23.66    1.60
  -2  -1  -6   24.57    0.86
  -2  -1  -6   25.33    0.82
   2   1   6   25.34    1.45
   2   1   6   22.34    1.59
  -3  -1  -6   46.75    1.63
  -3  -1  -6   49.41    2.46
   3   1   6   48.02    2.17
   3   1   6   49.59    2.51
  -4  -1  -6   -0.06    0.85
  -4  -1  -6   -0.14    0.44
  -4  -1  -6    0.77    0.73
   4   1   6   -0.18    0.73
   4   1   6    0.71    0.82
  -5  -1  -6    1.10    0.83
  -5  -1  -6    1.27    0.59
   5   1   6    0.69    0.84
  -6  -1  -6    5.90    0.86
  -6  -1  -6    7.07    1.25
  -6  -1  -6    6.56    1.45
   6   1   6    7.75    1.47
   6   1   6   10.10    1.33
  -7  -1  -6    2.35    0.77
  -7  -1  -6    1.95    1.07
  -7  -1  -6    1.72    1.44
   7   1   6    2.37    1.24
   8  -2  -6    7.47    1.34
   8  -2  -6   11.22    1.73
   8  -2  -6    7.25    1.17
  -8   2   6    6.16    1.27
  -8   2   6    4.91    1.23
  -8   2   6    8.12    1.27
   7  -2  -6    0.05    0.93
   7  -2  -6    2.15    0.75
   7  -2  -6    1.67    0.77
   7  -2  -6    2.64    1.23
  -7   2   6    2.08    1.03
  -7   2   6    1.20    0.73
   6  -2  -6   43.70    2.03
   6  -2  -6   38.95    2.67
   6  -2  -6   42.96    2.15
  -6   2   6   44.22    2.71
  -6   2   6   40.62    1.99
   5  -2  -6   41.15    2.55
   5  -2  -6   40.40    2.01
   5  -2  -6   37.47    1.93
  -5   2   6   37.30    1.84
  -5   2   6   38.11    2.08
   4  -2  -6   38.02    1.89
   4  -2  -6   40.78    2.04
   4  -2  -6   38.30    2.22
   4  -2  -6   40.16    2.06
  -4   2   6   39.65    1.92
  -4   2   6   40.33    1.84
   3  -2  -6    6.07    1.04
   3  -2  -6    7.43    1.02
   3  -2  -6    6.13    0.97
  -3   2   6    7.94    0.92
  -3   2   6    4.67    0.94
  -3   2   6    4.79    0.75
   2  -2  -6   19.72    1.48
   2  -2  -6   20.81    1.37
  -2   2   6   20.23    1.32
  -2   2   6   22.08    1.01
  -2   2   6   20.20    1.37
   1  -2  -6  208.72    5.71
   1  -2  -6  198.26    5.28
  -1   2   6  198.64    5.49
  -1   2   6  203.77    5.73
  -1   2   6  201.38    5.13
  -1   2   6  203.79    5.25
   0  -2  -6    3.82    0.82
   0  -2  -6    4.08    0.58
   0   2   6    2.51    0.55
  -1  -2  -6    6.83    0.81
   1   2   6    7.22    0.86
   1   2   6    5.09    0.76
  -2  -2  -6   20.33    1.49
   2   2   6   17.73    1.56
   2   2   6   18.41    1.34
  -3  -2  -6   79.58    2.19
  -3  -2  -6   80.21    3.29
   3   2   6   74.15    3.28
   3   2   6   80.57    2.98
  -4  -2  -6    7.56    1.39
  -4  -2  -6    6.86    0.67
   4   2   6    3.88    0.99
  -5  -2  -6    0.98    1.15
  -5  -2  -6   -0.15    0.48
   5   2   6    1.04    0.89
  -6  -2  -6    3.92    1.40
  -6  -2  -6    5.63    0.79
   6   2   6    7.07    1.28
   8  -3  -6    7.38    1.62
   8  -3  -6    9.34    1.31
  -8   3   6    9.09    1.25
  -8   3   6    6.30    1.32
  -8   3   6    9.82    2.11
   7  -3  -6    0.78    0.82
   7  -3  -6    0.83    1.15
  -7   3   6    0.08    0.70
  -7   3   6   -0.96    0.84
  -7   3   6   -1.10    0.69
   6  -3  -6   -0.65    0.70
   6  -3  -6    0.67    1.05
  -6   3   6    1.16    0.68
  -6   3   6    1.37    0.89
  -6   3   6    0.89    0.74
   5  -3  -6  138.73    5.05
   5  -3  -6  139.43    4.51
  -5   3   6  138.83    4.38
  -5   3   6  140.14    4.51
   4  -3  -6    2.20    0.87
   4  -3  -6    2.90    0.95
   4  -3  -6    1.78    0.78
  -4   3   6    1.20    0.68
  -4   3   6    2.26    0.77
   3  -3  -6   12.03    1.25
   3  -3  -6   12.05    1.24
  -3   3   6   13.34    1.16
  -3   3   6   12.21    0.73
  -3   3   6    9.13    1.07
   2  -3  -6   -0.18    0.65
  -2   3   6    0.58    0.64
  -2   3   6    0.13    0.26
  -2   3   6   -0.10    0.54
   1  -3  -6  171.66    5.05
   1  -3  -6  172.62    4.43
  -1   3   6  167.80    4.74
  -1   3   6  175.83    4.54
  -1   3   6  170.32    5.16
   0  -3  -6   11.83    1.26
   0  -3  -6   11.09    0.88
   0   3   6   12.05    1.05
   0   3   6   10.36    1.18
  -1  -3  -6    8.73    0.89
   1   3   6   12.98    1.27
   1   3   6    9.36    1.03
  -2  -3  -6   10.52    1.17
   2   3   6    9.77    1.09
   2   3   6    9.09    1.20
  -3  -3  -6   21.75    1.89
  -3  -3  -6   21.47    0.82
   3   3   6   21.14    1.69
  -4  -3  -6   37.67    2.48
   4   3   6   36.21    2.11
  -5  -3  -6   -0.30    1.07
  -5  -3  -6   -0.29    0.43
   5   3   6    0.03    0.89
  -6  -3  -6    0.29    0.54
  -6  -3  -6    0.29    1.23
   6   3   6    0.50    1.05
   8  -4  -6    1.98    1.26
  -8   4   6   -1.44    0.94
  -8   4   6    0.72    0.75
  -8   4   6    0.55    0.89
   7  -4  -6    6.57    1.55
   7  -4  -6    6.15    1.20
  -7   4   6    7.43    1.26
  -7   4   6    6.91    0.99
  -7   4   6    9.38    1.87
   6  -4  -6   -0.26    0.77
   6  -4  -6    0.13    1.01
  -6   4   6   -0.33    0.68
  -6   4   6    0.57    0.58
  -6   4   6    0.26    0.81
   5  -4  -6   38.22    2.38
   5  -4  -6   42.53    2.60
   5  -4  -6   40.72    2.24
  -5   4   6   40.15    2.17
  -5   4   6   43.85    2.19
  -5   4   6   40.61    1.75
   4  -4  -6   15.75    1.38
   4  -4  -6   13.24    1.45
   4  -4  -6   14.65    1.48
  -4   4   6   13.71    0.73
  -4   4   6   13.85    1.41
  -4   4   6   16.66    1.46
  -4   4   6   13.54    0.91
   3  -4  -6   47.71    2.18
   3  -4  -6   45.51    2.12
  -3   4   6   45.89    1.29
  -3   4   6   49.59    2.28
   2  -4  -6    1.61    0.82
  -2   4   6    1.04    0.75
  -2   4   6    1.28    0.27
   1  -4  -6   18.10    0.81
   1  -4  -6   16.91    1.43
  -1   4   6   17.30    1.00
  -1   4   6   16.60    0.86
  -1   4   6   16.77    1.12
  -1   4   6   18.80    1.56
   0  -4  -6  118.60    3.40
   0  -4  -6  123.80    4.06
   0   4   6  120.15    3.30
   0   4   6  120.05    3.01
   0   4   6  123.07    4.16
  -1  -4  -6   14.99    1.17
   1   4   6   16.28    1.46
   1   4   6   14.77    0.74
  -2  -4  -6   -0.71    0.63
   2   4   6    0.41    0.73
  -3  -4  -6    0.49    0.27
  -3  -4  -6    0.39    0.80
   3   4   6    0.64    0.81
  -4  -4  -6   41.53    2.61
   4   4   6   38.67    2.20
  -5  -4  -6    5.63    0.63
  -5  -4  -6    5.22    1.36
   5   4   6    4.15    1.20
   5   4   6    5.86    0.80
   8  -5  -6    2.54    1.34
   8  -5  -6    2.57    1.14
  -8   5   6    2.85    0.76
  -8   5   6    3.60    1.10
   7  -5  -6    4.29    1.39
  -7   5   6    5.46    1.16
  -7   5   6    5.91    1.21
  -7   5   6    7.50    0.86
   6  -5  -6    2.12    0.95
   6  -5  -6    4.55    1.28
  -6   5   6    4.41    1.02
  -6   5   6    2.69    0.97
  -6   5   6    4.87    0.65
   5  -5  -6    2.43    0.93
   5  -5  -6    1.28    0.89
   5  -5  -6    0.25    0.91
  -5   5   6    0.54    0.32
  -5   5   6    0.73    0.77
  -5   5   6    0.92    0.29
  -5   5   6    2.08    0.89
   4  -5  -6   18.07    1.67
   4  -5  -6   21.41    1.70
  -4   5   6   20.53    1.65
  -4   5   6   20.85    1.57
   3  -5  -6    0.38    0.58
   3  -5  -6   -0.90    0.69
  -3   5   6    1.52    0.84
   2  -5  -6    4.58    0.97
  -2   5   6    2.68    0.56
  -2   5   6    3.32    0.93
   1  -5  -6    4.38    0.46
   1  -5  -6    3.63    0.97
  -1   5   6    4.74    1.00
  -1   5   6    5.26    0.56
   0  -5  -6   76.70    2.35
   0   5   6   74.62    3.13
   0   5   6   76.47    2.11
  -1  -5  -6    0.38    0.49
   1   5   6   -0.29    0.76
  -2  -5  -6   16.91    1.55
   2   5   6   16.31    1.61
  -3  -5  -6    0.81    0.89
  -3  -5  -6    0.21    0.28
   3   5   6   -0.55    0.81
   4   5   6   10.83    1.43
   4   5   6   15.17    0.78
  -5  -5  -6    6.35    1.50
  -5  -5  -6    5.97    0.61
   5   5   6    6.90    0.67
   5   5   6    8.29    1.42
   7  -6  -6   12.32    1.73
   7  -6  -6   17.84    1.85
  -7   6   6   17.30    1.78
  -7   6   6   15.37    1.59
  -7   6   6   15.40    0.96
   6  -6  -6    8.49    1.42
   6  -6  -6    5.83    1.36
  -6   6   6    8.24    0.53
  -6   6   6    8.32    1.25
  -6   6   6    9.18    1.38
   5  -6  -6    0.33    0.79
   5  -6  -6    0.13    0.99
   5  -6  -6   -1.04    0.84
  -5   6   6    0.42    0.82
  -5   6   6   -0.70    0.76
   4  -6  -6   14.34    1.56
   4  -6  -6   12.76    1.37
   4  -6  -6   12.87    1.32
  -4   6   6   12.56    1.32
  -4   6   6   16.12    1.69
   3  -6  -6   29.99    1.84
   3  -6  -6   27.52    1.56
  -3   6   6   32.11    1.60
  -3   6   6   33.80    2.38
   2  -6  -6  209.65    6.16
  -2   6   6  211.18    5.57
   1  -6  -6   35.69    2.08
   1  -6  -6   36.15    1.00
  -1   6   6   35.92    1.40
  -1   6   6   34.59    2.54
   0  -6  -6   13.03    1.54
   0  -6  -6   13.46    0.88
   0   6   6   13.51    1.50
   0   6   6   12.22    0.78
  -1  -6  -6   26.89    1.46
   1   6   6   25.66    1.21
   1   6   6   27.79    2.03
   1   6   6   26.08    1.83
  -2  -6  -6    9.09    1.10
   2   6   6    9.89    1.31
   2   6   6    9.26    1.42
  -3  -6  -6   10.48    1.41
   3   6   6   10.81    1.38
   3   6   6   13.89    1.56
  -4  -6  -6    1.51    1.09
  -4  -6  -6    1.83    0.47
   4   6   6    2.33    1.18
   7  -7  -6    3.75    1.91
   7  -7  -6    4.33    1.45
  -7   7   6    2.38    1.11
  -7   7   6    3.49    1.28
   6  -7  -6   12.89    1.70
   6  -7  -6   19.25    1.98
   6  -7  -6   17.09    1.51
  -6   7   6   17.38    1.67
  -6   7   6   18.08    1.91
   5  -7  -6    1.80    0.92
   5  -7  -6    4.06    0.99
   5  -7  -6    2.39    1.09
  -5   7   6    2.68    1.02
  -5   7   6    0.53    0.87
   4  -7  -6    2.74    0.83
   4  -7  -6    3.33    1.00
   4  -7  -6    5.64    1.14
  -4   7   6    3.03    0.90
  -4   7   6    3.06    1.04
   3  -7  -6    1.14    0.89
   3  -7  -6    1.26    0.57
  -3   7   6    1.87    0.95
  -3   7   6    1.82    0.66
   2  -7  -6    5.25    1.10
  -2   7   6    4.01    1.07
  -2   7   6    3.99    0.66
   1  -7  -6    3.54    1.07
  -1   7   6    3.09    1.06
  -1   7   6    3.19    0.57
   0  -7  -6    1.42    0.40
   0  -7  -6    1.03    0.96
   0   7   6    3.12    1.01
   0   7   6    1.63    0.46
  -1  -7  -6   12.88    1.09
   1   7   6   14.86    1.63
   1   7   6   10.02    1.33
   1   7   6   11.94    0.80
  -2  -7  -6    0.23    0.67
   2   7   6   -0.57    0.93
   2   7   6    1.37    0.96
  -3  -7  -6    1.96    0.96
   3   7   6    2.55    1.09
   3   7   6    1.98    1.12
   6  -8  -6    7.50    1.34
   6  -8  -6    9.61    1.52
   6  -8  -6    7.15    1.13
  -6   8   6    8.72    1.28
  -6   8   6   10.73    1.82
  -6   8   6    8.78    1.46
   5  -8  -6    3.32    0.98
   5  -8  -6    4.80    1.50
   5  -8  -6    4.43    1.73
  -5   8   6    5.31    1.21
  -5   8   6    4.36    1.10
  -5   8   6    4.81    1.06
   4  -8  -6    1.06    0.85
   4  -8  -6    0.41    0.61
  -4   8   6   -0.11    0.65
  -4   8   6   -0.40    0.91
   3  -8  -6    4.83    1.07
  -3   8   6    6.24    1.23
  -3   8   6    5.93    0.88
   2  -8  -6    0.64    0.87
  -2   8   6    2.03    0.60
  -2   8   6    1.65    0.97
   1  -8  -6   22.91    1.82
  -1   8   6   19.76    1.90
  -1   8   6   21.86    1.21
   0  -8  -6    5.08    0.49
   0  -8  -6    5.04    1.19
   0   8   6    5.23    0.64
   0   8   6    4.99    1.17
  -1  -8  -6    3.51    0.65
   1   8   6    3.23    0.52
   1   8   6    2.35    1.10
  -2  -8  -6    0.49    0.67
   2   8   6   -0.71    0.99
   2   8   6   -0.12    0.90
   5  -9  -6   10.17    1.39
   5  -9  -6    5.18    1.39
   5  -9  -6    8.91    1.19
  -5   9   6    9.65    1.25
  -5   9   6    7.10    1.40
  -5   9   6    6.97    1.28
   4  -9  -6    1.19    0.61
   4  -9  -6   -0.20    0.77
  -4   9   6    0.27    0.71
  -4   9   6   -0.17    1.07
   3  -9  -6    0.25    0.87
  -3   9   6    0.86    0.67
  -3   9   6    0.71    0.97
   2  -9  -6    0.55    0.92
  -2   9   6   -0.40    0.89
  -2   9   6   -0.39    0.60
   1  -9  -6    4.45    1.14
  -1   9   6    5.08    0.70
  -1   9   6    3.91    1.20
   0  -9  -6   -0.30    0.96
   0  -9  -6    0.16    0.25
   0   9   6    1.74    1.64
   0   9   6   -1.26    0.44
   2  10  -7    0.61    0.90
   2  10  -7   -1.07    0.79
   2  10  -7    0.76    0.77
  -2 -10   7   -0.34    0.69
  -2 -10   7    0.38    0.76
   1  10  -7   27.24    2.09
   1  10  -7   25.73    2.09
  -1 -10   7   29.06    1.98
  -1 -10   7   25.70    2.55
  -1 -10   7   31.62    1.85
   0  10  -7    7.65    1.25
   0  10  -7    4.81    1.25
   0  10  -7    7.20    1.02
   0 -10   7    7.53    1.00
   0 -10   7    7.73    1.19
   0 -10   7    6.82    0.96
  -1  10  -7    1.09    0.91
  -1  10  -7    2.18    1.12
  -1  10  -7    2.26    0.73
   1 -10   7    0.52    0.79
   1 -10   7    1.11    0.64
   1 -10   7   -0.54    0.80
   1 -10   7    1.39    0.29
  -2  10  -7    6.92    1.17
  -2  10  -7    6.96    1.55
   2 -10   7    6.54    1.11
   2 -10   7    8.12    1.01
  -3  10  -7    0.94    0.94
  -3  10  -7    0.61    1.30
  -3  10  -7    2.79    0.75
   3 -10   7    1.31    1.01
   3 -10   7    2.95    0.80
  -4  10  -7    7.17    0.96
  -4  10  -7    5.42    1.73
   4 -10   7    7.23    1.35
   4 -10   7    4.25    0.87
   4   9  -7   -0.09    0.52
   4   9  -7    1.56    1.01
   4   9  -7   -0.94    0.94
  -4  -9   7    1.10    1.02
  -4  -9   7    0.93    0.77
   3   9  -7   -1.17    0.83
   3   9  -7   -0.89    0.74
   3   9  -7    1.11    0.65
  -3  -9   7    0.60    0.73
  -3  -9   7   -0.86    0.73
  -3  -9   7    0.91    0.93
   2   9  -7    4.05    1.06
   2   9  -7    1.47    0.83
   2   9  -7    5.04    0.94
  -2  -9   7    4.08    0.85
  -2  -9   7    5.49    1.01
  -2  -9   7    4.49    1.04
   1   9  -7   18.63    1.53
   1   9  -7   18.66    1.75
   1   9  -7   21.10    1.74
  -1  -9   7   18.69    1.27
  -1  -9   7   21.09    1.60
  -1  -9   7   20.22    1.73
   0   9  -7   18.06    1.89
   0   9  -7   23.75    1.83
   0   9  -7   21.10    1.47
   0  -9   7   24.43    1.60
   0  -9   7   20.07    1.71
   0  -9   7   19.51    1.46
  -1   9  -7   -0.07    0.71
   1  -9   7    0.73    0.23
   1  -9   7    0.43    0.80
   1  -9   7    0.11    0.64
   1  -9   7    1.12    0.69
  -2   9  -7    4.44    0.98
  -2   9  -7    4.78    1.26
   2  -9   7    3.64    0.98
   2  -9   7    5.07    0.87
  -3   9  -7    1.78    0.62
  -3   9  -7    3.27    0.99
  -3   9  -7    2.83    1.27
   3  -9   7    1.84    0.72
   3  -9   7    2.29    0.99
  -4   9  -7   24.00    1.47
  -4   9  -7   18.96    1.62
  -4   9  -7   20.00    1.95
  -4   9  -7   27.20    2.59
   4  -9   7   21.00    1.61
   4  -9   7   20.76    2.08
  -5   9  -7    0.97    0.85
  -5   9  -7   -1.64    2.09
  -5   9  -7   -0.34    1.01
  -5   9  -7   -0.32    0.60
  -5   9  -7   -0.56    0.62
   5  -9   7   -0.10    1.10
   5  -9   7    0.13    0.79
   5   8  -7   16.12    1.64
   5   8  -7   19.44    1.84
  -5  -8   7   14.44    2.16
   4   8  -7   27.25    1.96
  -4  -8   7   26.52    1.74
  -4  -8   7   24.73    1.97
   3   8  -7    4.31    0.69
   3   8  -7    5.75    1.14
   3   8  -7    4.41    0.99
  -3  -8   7    3.14    1.01
  -3  -8   7    4.27    0.93
   2   8  -7   -0.65    0.59
   2   8  -7    1.78    0.76
   2   8  -7    1.07    0.86
  -2  -8   7    0.78    0.82
  -2  -8   7    0.76    0.85
  -2  -8   7    0.73    0.74
   1   8  -7    2.01    0.74
   1   8  -7    1.99    0.82
  -1  -8   7    1.34    0.85
  -1  -8   7    1.09    0.73
  -1  -8   7    2.22    0.60
   0   8  -7   70.51    3.20
   0   8  -7   72.13    2.59
   0  -8   7   76.85    2.71
   0  -8   7   72.49    3.26
   0  -8   7   75.67    3.02
  -1   8  -7    5.23    1.25
   1  -8   7    4.90    0.90
   1  -8   7    5.30    1.02
   1  -8   7    3.66    0.77
  -2   8  -7    0.69    0.53
  -2   8  -7    0.90    1.82
   2  -8   7    0.30    0.74
   2  -8   7    0.55    0.81
  -3   8  -7    1.82    0.85
  -3   8  -7    1.26    1.13
  -3   8  -7    0.14    0.63
  -3   8  -7    0.73    0.53
   3  -8   7   -0.49    0.58
   3  -8   7   -0.07    0.88
  -4   8  -7   21.58    1.39
  -4   8  -7   18.95    1.75
  -4   8  -7   19.38    1.63
  -4   8  -7   26.28    2.43
   4  -8   7   17.40    1.53
   4  -8   7   20.68    2.13
  -5   8  -7   11.97    1.13
  -5   8  -7    9.33    1.16
  -5   8  -7   10.21    0.91
   5  -8   7    8.01    1.11
   5   7  -7    2.59    0.98
  -5  -7   7    2.86    1.05
  -5  -7   7    0.82    0.92
   4   7  -7   50.82    2.57
   4   7  -7   47.89    2.46
  -4  -7   7   54.76    2.44
  -4  -7   7   52.60    2.60
   3   7  -7   -0.43    0.62
   3   7  -7    0.58    0.41
   3   7  -7    0.33    0.78
  -3  -7   7    0.61    0.72
  -3  -7   7    0.09    0.82
   2   7  -7   12.11    1.17
   2   7  -7   12.28    1.17
  -2  -7   7   10.19    1.27
  -2  -7   7   11.52    1.21
  -2  -7   7   11.62    1.29
   1   7  -7   -0.55    0.49
   1   7  -7   -0.37    0.64
  -1  -7   7    0.33    0.51
  -1  -7   7    1.57    0.80
  -1  -7   7    1.18    0.72
   0   7  -7   70.09    2.41
   0   7  -7   66.08    3.01
   0  -7   7   75.33    2.81
   0  -7   7   67.48    2.55
  -1   7  -7   31.35    1.87
  -1   7  -7   26.97    2.17
   1  -7   7   28.64    1.70
   1  -7   7   30.04    1.82
  -2   7  -7    1.51    0.51
  -2   7  -7    0.81    0.79
  -2   7  -7    0.48    0.95
   2  -7   7    0.65    0.83
   2  -7   7   -0.58    0.58
  -3   7  -7    8.86    1.12
  -3   7  -7    7.42    0.82
  -3   7  -7   11.75    1.64
  -3   7  -7    9.87    1.22
   3  -7   7    8.05    1.07
   3  -7   7    6.07    1.25
  -4   7  -7    4.17    0.73
  -4   7  -7    3.77    0.92
  -4   7  -7    5.30    0.79
   4  -7   7    3.83    0.88
   4  -7   7    3.08    1.17
  -5   7  -7   22.36    1.86
  -5   7  -7   22.21    1.52
  -5   7  -7   21.95    1.13
  -5   7  -7   23.32    1.84
   5  -7   7   21.10    1.72
   5  -7   7   22.93    2.17
  -6   7  -7    0.58    0.78
  -6   7  -7    0.14    0.90
   6  -7   7   -0.72    1.11
   6  -7   7   -0.50    0.77
   6   6  -7   12.16    1.49
  -6  -6   7   15.78    1.61
   5   6  -7    0.24    0.86
  -5  -6   7    0.24    0.84
  -5  -6   7   -0.71    0.86
   4   6  -7   34.43    3.41
   4   6  -7   39.96    2.50
  -4  -6   7   37.24    2.45
  -4  -6   7   37.71    2.23
   3   6  -7    2.51    0.83
  -3  -6   7    2.77    0.93
  -3  -6   7    3.41    0.86
   2   6  -7   60.24    2.36
   2   6  -7   57.04    2.51
   2   6  -7   61.15    2.15
  -2  -6   7   62.50    2.56
  -2  -6   7   60.43    1.99
  -2  -6   7   59.84    2.63
  -2  -6   7   60.00    2.59
   1   6  -7    1.87    0.60
   1   6  -7    3.23    0.78
   1   6  -7    3.24    0.91
  -1  -6   7    3.39    0.90
  -1  -6   7    3.24    0.78
  -1  -6   7    2.10    0.54
   0   6  -7   43.84    2.09
   0   6  -7   41.99    2.24
   0   6  -7   40.51    1.61
   0  -6   7   43.15    2.05
   0  -6   7   40.23    2.05
   0  -6   7   39.35    1.87
  -1   6  -7  122.86    4.52
  -1   6  -7  122.92    4.11
   1  -6   7  134.57    4.24
   1  -6   7  135.91    4.20
   1  -6   7  128.32    4.09
  -2   6  -7   42.52    2.03
  -2   6  -7   38.50    1.53
  -2   6  -7   42.63    2.62
  -2   6  -7   43.74    2.14
   2  -6   7   43.03    2.30
   2  -6   7   38.29    1.98
  -3   6  -7   13.06    1.17
  -3   6  -7   12.45    1.47
  -3   6  -7   13.05    1.32
  -3   6  -7   12.36    1.01
   3  -6   7   12.12    1.54
   3  -6   7   11.38    1.20
  -4   6  -7    0.60    0.57
  -4   6  -7    0.97    0.76
  -4   6  -7   -0.17    0.50
  -4   6  -7   -0.11    0.73
   4  -6   7   -0.02    0.65
   4  -6   7    0.07    0.99
  -5   6  -7   28.99    1.68
  -5   6  -7   29.12    2.03
   5  -6   7   27.54    1.92
   5  -6   7   30.65    2.52
  -6   6  -7    3.90    1.57
  -6   6  -7    6.26    1.23
  -6   6  -7    6.79    1.17
   6  -6   7    5.25    1.10
   6  -6   7    7.43    1.84
   7   5  -7    2.90    1.03
   7   5  -7    5.66    1.79
  -7  -5   7    2.38    1.11
   6   5  -7   38.43    2.23
  -6  -5   7   32.13    2.20
  -6  -5   7   37.72    2.38
   5   5  -7    0.73    0.81
   5   5  -7   -0.05    0.90
  -5  -5   7    1.97    0.92
  -5  -5   7    1.20    0.88
   4   5  -7   15.09    1.44
  -4  -5   7   11.66    1.34
  -4  -5   7   14.85    1.38
  -4  -5   7   11.75    1.34
   3   5  -7   50.05    2.26
   3   5  -7   53.99    2.63
  -3  -5   7   50.97    2.37
  -3  -5   7   52.25    2.41
   2   5  -7   18.95    1.27
   2   5  -7   16.79    1.43
  -2  -5   7   17.63    0.81
  -2  -5   7   17.17    1.47
  -2  -5   7   18.64    1.52
  -2  -5   7   16.44    1.46
   1   5  -7  103.43    3.04
   1   5  -7   99.87    3.44
  -1  -5   7  101.75    3.48
  -1  -5   7   99.32    3.01
  -1  -5   7  103.23    3.51
   0   5  -7    1.57    0.72
   0   5  -7    2.04    0.42
   0  -5   7    1.18    0.63
   0  -5   7    1.55    0.66
   0  -5   7    1.33    0.71
  -1   5  -7  142.62    4.48
  -1   5  -7  148.14    3.79
  -1   5  -7  144.29    4.47
   1  -5   7  151.29    4.68
   1  -5   7  144.11    4.47
   1  -5   7  149.01    4.52
  -2   5  -7   39.05    2.01
  -2   5  -7   38.54    1.44
  -2   5  -7   39.92    1.89
  -2   5  -7   40.81    1.99
   2  -5   7   36.45    2.19
   2  -5   7   36.89    1.93
  -3   5  -7    1.01    0.73
  -3   5  -7   -0.14    0.70
  -3   5  -7    0.70    0.60
  -3   5  -7    0.12    0.46
   3  -5   7    0.69    0.92
   3  -5   7    0.09    0.68
  -4   5  -7    2.80    0.69
  -4   5  -7    4.04    0.95
  -4   5  -7    2.09    0.54
  -4   5  -7    1.43    0.96
   4  -5   7    1.56    1.04
  -5   5  -7    8.81    1.05
  -5   5  -7   10.08    1.27
  -5   5  -7    8.76    0.48
  -5   5  -7    7.76    1.17
  -5   5  -7    7.75    0.64
   5  -5   7    8.07    1.21
  -6   5  -7    9.92    1.34
  -6   5  -7    9.92    1.33
  -6   5  -7    8.40    1.10
   6  -5   7    8.25    1.55
   6  -5   7    8.55    1.30
  -7   5  -7    0.12    0.78
  -7   5  -7    1.06    1.09
  -7   5  -7   -0.10    1.01
   7  -5   7    0.09    0.92
   7  -5   7    0.27    1.21
   7   4  -7    1.85    0.99
   7   4  -7    4.33    1.09
  -7  -4   7    5.91    1.22
  -7  -4   7    3.77    1.20
   6   4  -7   14.62    1.53
  -6  -4   7   17.11    1.73
  -6  -4   7   17.20    1.68
   5   4  -7   60.54    3.02
  -5  -4   7   53.84    2.59
  -5  -4   7   57.14    2.73
  -5  -4   7   56.64    2.74
   4   4  -7   49.59    2.38
   4   4  -7   54.54    2.43
  -4  -4   7   50.43    2.48
  -4  -4   7   53.26    2.53
  -4  -4   7   55.42    2.40
   3   4  -7  343.84    9.33
   3   4  -7  358.26    9.22
  -3  -4   7  346.33    9.37
  -3  -4   7  354.99    9.44
  -3  -4   7  351.41    9.07
   2   4  -7   43.86    1.82
   2   4  -7   44.30    2.07
  -2  -4   7   43.90    2.14
  -2  -4   7   43.40    1.31
  -2  -4   7   42.39    2.07
  -2  -4   7   44.72    2.17
   1   4  -7  157.05    4.62
   1   4  -7  151.51    4.11
  -1  -4   7  155.64    4.62
  -1  -4   7  153.00    4.67
  -1  -4   7  152.08    4.23
   0   4  -7    0.55    0.25
   0   4  -7    1.29    0.80
   0   4  -7   -0.10    0.56
   0  -4   7   -0.63    0.54
   0  -4   7    0.25    0.60
   0  -4   7   -0.46    0.53
  -1   4  -7   61.76    2.36
  -1   4  -7   59.51    1.66
  -1   4  -7   61.53    2.46
  -1   4  -7   60.57    2.46
   1  -4   7   60.94    2.43
   1  -4   7   60.78    2.35
   1  -4   7   58.04    2.63
  -2   4  -7  222.95    5.98
  -2   4  -7  214.69    6.02
  -2   4  -7  217.56    5.54
  -2   4  -7  211.45    6.16
   2  -4   7  215.76    6.16
   2  -4   7  220.66    6.64
  -3   4  -7   19.31    1.60
  -3   4  -7   18.35    1.18
  -3   4  -7   17.81    0.69
  -3   4  -7   20.82    1.47
  -3   4  -7   18.51    1.15
   3  -4   7   19.91    1.89
   3  -4   7   17.75    1.53
  -4   4  -7   16.81    1.02
  -4   4  -7   14.80    0.78
  -4   4  -7   16.41    1.27
  -4   4  -7   14.50    1.43
  -4   4  -7   16.17    1.50
   4  -4   7   17.19    1.63
   4  -4   7   16.29    1.83
  -5   4  -7    3.46    1.02
  -5   4  -7    2.93    0.77
  -5   4  -7    2.80    0.87
   5  -4   7    0.99    0.67
   5  -4   7    4.35    1.05
  -6   4  -7   23.61    1.76
  -6   4  -7   24.13    2.14
   6  -4   7   24.78    2.07
   6  -4   7   29.52    2.29
   6  -4   7   22.62    1.62
  -7   4  -7   -0.93    0.85
  -7   4  -7   -0.45    0.97
  -7   4  -7    0.52    1.06
   7  -4   7   -0.72    0.79
   7  -4   7    0.55    0.97
   7  -4   7    0.94    1.21
   8   3  -7    1.11    0.82
   8   3  -7   -1.56    0.92
  -8  -3   7    0.66    1.10
  -8  -3   7    1.74    1.09
   7   3  -7   12.56    1.36
   7   3  -7   13.21    1.52
  -7  -3   7   10.09    1.43
  -7  -3   7   10.29    1.46
   6   3  -7    1.05    0.83
   6   3  -7    0.95    0.89
  -6  -3   7   -0.77    0.89
  -6  -3   7   -0.03    0.90
   5   3  -7  118.05    4.10
   5   3  -7  108.15    3.87
  -5  -3   7  111.95    3.98
  -5  -3   7  115.38    4.11
  -5  -3   7  113.06    4.28
   4   3  -7   -0.32    0.69
   4   3  -7    0.17    0.64
   4   3  -7   -0.16    0.82
  -4  -3   7    0.68    0.69
  -4  -3   7    0.44    0.76
  -4  -3   7    1.08    0.84
   3   3  -7   -0.42    0.82
   3   3  -7    2.05    0.66
   3   3  -7    1.93    0.78
  -3  -3   7    2.90    0.87
  -3  -3   7    1.71    0.76
  -3  -3   7    1.17    0.60
   2   3  -7   46.73    2.07
   2   3  -7   47.47    2.38
   2   3  -7   46.64    1.77
  -2  -3   7   47.05    2.08
  -2  -3   7   48.00    1.73
  -2  -3   7   49.09    2.25
  -2  -3   7   49.49    1.44
  -2  -3   7   45.55    2.13
   1   3  -7   52.50    2.40
   1   3  -7   52.26    1.55
   1   3  -7   51.85    2.12
  -1  -3   7   50.63    2.17
  -1  -3   7   52.03    2.11
   0   3  -7  134.17    4.26
   0   3  -7  135.68    4.14
   0   3  -7  132.77    3.97
   0  -3   7  136.40    4.14
   0  -3   7  129.06    4.17
   0  -3   7  135.05    3.96
  -1   3  -7    0.74    0.37
  -1   3  -7    0.74    0.59
  -1   3  -7    0.86    0.66
  -1   3  -7    1.23    0.59
   1  -3   7    0.72    0.77
   1  -3   7    0.55    0.62
   1  -3   7    0.82    0.54
  -2   3  -7   79.41    2.71
  -2   3  -7   80.57    2.31
  -2   3  -7   81.13    2.35
  -2   3  -7   80.68    2.74
  -2   3  -7   84.98    3.03
   2  -3   7   79.34    3.37
   2  -3   7   80.55    2.97
  -3   3  -7    0.00    0.44
  -3   3  -7   -0.08    0.65
  -3   3  -7    0.30    0.38
  -3   3  -7    0.60    0.60
  -3   3  -7    0.30    0.48
   3  -3   7   -0.08    0.59
   3  -3   7   -0.95    0.84
   3  -3   7   -0.11    0.40
  -4   3  -7   18.40    1.36
  -4   3  -7   19.28    1.44
  -4   3  -7   18.95    1.74
   4  -3   7   20.30    2.03
   4  -3   7   16.54    1.21
   4  -3   7   18.96    1.71
  -5   3  -7    7.91    1.11
  -5   3  -7    7.80    1.04
  -5   3  -7    9.29    1.34
   5  -3   7    7.66    0.98
   5  -3   7    8.89    1.31
  -6   3  -7    3.02    1.15
  -6   3  -7    3.47    0.95
  -6   3  -7    5.33    1.00
   6  -3   7    4.92    0.96
   6  -3   7    4.05    1.12
   6  -3   7    3.87    1.31
  -7   3  -7    5.35    1.43
  -7   3  -7    6.21    1.19
  -7   3  -7    7.66    1.16
   7  -3   7    6.46    1.41
   7  -3   7    5.60    1.48
   7  -3   7    6.98    1.07
   8   2  -7   -0.23    1.03
   8   2  -7    0.86    0.78
   8   2  -7   -0.51    0.95
  -8  -2   7   -0.50    1.06
  -8  -2   7   -1.65    1.25
   7   2  -7    1.68    0.94
   7   2  -7    2.70    0.95
   7   2  -7    2.75    1.17
  -7  -2   7    2.37    1.10
  -7  -2   7    2.22    1.11
   6   2  -7   13.78    1.62
   6   2  -7   15.94    1.51
   6   2  -7   16.02    1.58
  -6  -2   7   13.75    1.56
   5   2  -7   67.48    2.86
   5   2  -7   63.85    2.76
  -5  -2   7   68.10    2.88
  -5  -2   7   62.66    3.94
  -5  -2   7   66.43    2.98
   4   2  -7   71.03    2.77
   4   2  -7   68.07    3.02
  -4  -2   7   78.66    2.93
  -4  -2   7   77.39    3.04
  -4  -2   7   80.44    3.14
   3   2  -7    1.37    0.70
   3   2  -7    1.32    0.91
   3   2  -7    0.81    0.52
  -3  -2   7    0.84    0.70
  -3  -2   7    1.31    0.61
  -3  -2   7    0.43    0.71
   2   2  -7   62.77    2.02
   2   2  -7   62.53    2.69
   2   2  -7   66.00    2.41
  -2  -2   7   62.04    2.43
  -2  -2   7   62.94    2.60
  -2  -2   7   60.06    2.09
  -2  -2   7   66.67    2.44
   1   2  -7    0.38    0.70
   1   2  -7    0.34    0.48
   1   2  -7    0.57    0.53
  -1  -2   7    0.46    0.52
  -1  -2   7    0.24    0.19
  -1  -2   7   -0.11    0.51
   0   2  -7  189.98    5.23
   0   2  -7  202.88    5.67
   0   2  -7  196.74    5.18
   0   2  -7  189.43    5.46
   0  -2   7  195.51    5.22
   0  -2   7  197.20    5.52
  -1   2  -7   14.91    0.90
  -1   2  -7   13.20    0.98
  -1   2  -7   14.12    1.22
  -1   2  -7   13.80    1.26
   1  -2   7   12.52    1.23
   1  -2   7   13.25    0.95
  -2   2  -7   19.06    0.93
  -2   2  -7   18.10    1.01
  -2   2  -7   17.95    1.44
  -2   2  -7   19.85    1.25
  -2   2  -7   18.32    1.14
   2  -2   7   18.52    1.82
   2  -2   7   18.50    0.93
   2  -2   7   18.00    1.44
  -3   2  -7    6.28    1.04
  -3   2  -7    6.53    0.78
  -3   2  -7    6.13    0.76
  -3   2  -7    7.38    0.83
   3  -2   7    6.20    0.75
   3  -2   7    7.20    1.09
   3  -2   7    5.01    1.23
  -4   2  -7   59.40    2.72
  -4   2  -7   63.48    2.37
  -4   2  -7   54.29    2.32
   4  -2   7   57.64    2.78
   4  -2   7   60.57    2.36
   4  -2   7   63.47    3.23
  -5   2  -7   23.42    1.64
  -5   2  -7   23.03    1.58
   5  -2   7   27.43    1.70
   5  -2   7   21.09    1.91
  -6   2  -7    2.89    1.21
   6  -2   7    3.23    1.30
   6  -2   7    1.01    0.91
   6  -2   7    1.93    0.83
  -7   2  -7    7.00    1.46
  -7   2  -7   11.66    1.36
   7  -2   7    8.33    1.24
   7  -2   7   11.24    1.66
   8   1  -7    7.13    1.50
   8   1  -7    8.47    0.88
   8   1  -7    8.69    1.14
   8   1  -7    9.72    1.63
  -8  -1   7    9.00    1.41
  -8  -1   7    8.74    1.39
   7   1  -7   10.08    1.22
   7   1  -7   10.99    0.90
   7   1  -7    7.28    1.34
   7   1  -7   13.27    1.69
  -7  -1   7   10.69    1.51
  -7  -1   7    8.75    1.35
   6   1  -7    6.90    1.14
   6   1  -7    9.65    1.53
   6   1  -7    7.58    1.11
  -6  -1   7    9.64    1.32
  -6  -1   7    5.55    1.21
   5   1  -7    8.07    1.12
   5   1  -7    7.83    1.18
   5   1  -7    8.13    1.30
  -5  -1   7    5.47    1.13
  -5  -1   7    6.54    1.08
  -5  -1   7    9.91    1.69
   4   1  -7  227.66    6.40
   4   1  -7  235.52    6.77
  -4  -1   7  235.00    6.85
  -4  -1   7  231.07    5.68
  -4  -1   7  233.33    6.72
  -4  -1   7  232.29    6.57
   3   1  -7    5.12    1.05
   3   1  -7    5.05    0.69
  -3  -1   7    4.94    0.77
  -3  -1   7    4.55    0.86
  -3  -1   7    3.66    0.88
  -3  -1   7    5.59    0.53
   2   1  -7    1.07    0.68
   2   1  -7    0.52    0.55
   2   1  -7    1.93    0.82
  -2  -1   7    1.93    0.62
  -2  -1   7    1.69    0.63
  -2  -1   7    2.26    0.51
  -2  -1   7    2.25    0.76
   1   1  -7    8.55    0.92
   1   1  -7    8.22    1.11
   1   1  -7    9.28    0.89
  -1  -1   7    9.69    1.00
  -1  -1   7    8.99    0.59
  -1  -1   7    8.34    0.84
   0   1  -7  358.21    8.99
   0   1  -7  371.92    9.39
   0   1  -7  351.26    8.78
   0   1  -7  359.53    9.18
   0  -1   7  360.01    9.19
   0  -1   7  347.49    8.39
   0  -1   7  349.96    8.37
   0  -1   7  352.61    8.76
  -1   1  -7   31.27    1.45
  -1   1  -7   28.60    1.63
  -1   1  -7   30.80    1.64
   1  -1   7   31.46    1.17
   1  -1   7   32.12    1.70
  -2   1  -7    1.28    0.43
  -2   1  -7    1.50    0.70
  -2   1  -7    0.78    0.56
   2  -1   7    1.24    0.51
   2  -1   7    0.47    0.66
  -3   1  -7   34.54    1.49
  -3   1  -7   31.16    1.93
  -3   1  -7   34.63    1.63
   3  -1   7   36.29    1.70
   3  -1   7   35.30    2.06
  -4   1  -7   13.09    1.11
  -4   1  -7   10.87    1.12
  -4   1  -7   14.69    1.52
   4  -1   7   11.27    1.13
   4  -1   7   10.96    1.35
   4  -1   7   10.26    1.51
  -5   1  -7   57.21    2.33
  -5   1  -7   54.08    2.45
   5  -1   7   58.23    2.49
   5  -1   7   54.65    2.88
  -6   1  -7    1.12    0.85
  -6   1  -7    0.63    1.03
   6  -1   7    0.43    0.84
   6  -1   7    0.34    0.93
   6  -1   7   -1.35    1.03
  -7   1  -7    1.00    0.93
  -7   1  -7    1.88    1.29
   7  -1   7    1.49    1.28
   7  -1   7    0.61    0.91
   8   0  -7   47.66    2.11
   8   0  -7   49.24    2.56
   8   0  -7   40.99    1.85
   8   0  -7   44.83    2.87
  -8   0   7   43.47    2.65
  -8   0   7   46.04    2.59
   7   0  -7    0.90    1.07
   7   0  -7   -0.25    0.71
   7   0  -7   -0.88    0.46
  -7   0   7    0.65    0.98
  -7   0   7    0.56    0.91
   6   0  -7   26.26    1.77
   6   0  -7   29.63    1.39
   6   0  -7   27.42    2.22
   6   0  -7   28.88    1.85
  -6   0   7   26.81    1.95
  -6   0   7   23.02    1.97
  -6   0   7   29.56    1.37
   5   0  -7    3.39    1.07
   5   0  -7    3.97    0.91
   5   0  -7    3.07    0.96
  -5   0   7    3.50    1.11
  -5   0   7    3.04    0.92
  -5   0   7    3.94    1.08
  -5   0   7    3.04    0.72
   4   0  -7  145.20    4.80
   4   0  -7  154.39    5.04
   4   0  -7  157.97    4.57
  -4   0   7  153.49    5.00
  -4   0   7  157.73    4.88
  -4   0   7  150.87    4.13
  -4   0   7  155.68    4.72
   3   0  -7   55.19    2.52
  -3   0   7   59.69    2.58
  -3   0   7   62.59    2.26
  -3   0   7   59.58    1.97
  -3   0   7   55.68    2.34
   2   0  -7   19.58    1.36
   2   0  -7   17.93    1.52
  -2   0   7   18.11    1.22
  -2   0   7   21.59    1.48
  -2   0   7   20.28    1.30
  -2   0   7   20.17    1.21
  -2   0   7   18.89    1.13
   1   0  -7   19.82    1.46
   1   0  -7   18.98    1.28
   1   0  -7   19.62    1.21
  -1   0   7   19.15    0.89
  -1   0   7   17.41    0.98
  -1   0   7   18.84    1.20
   0   0  -7   77.41    2.24
   0   0  -7   81.61    2.69
   0   0  -7   78.18    2.67
   0   0  -7   78.40    2.92
   0   0   7   79.03    2.19
   0   0   7   75.39    2.65
  -1   0  -7  217.71    6.03
  -1   0  -7  210.11    5.33
  -1   0  -7  224.85    6.13
  -1   0  -7  221.24    5.94
   1   0   7  216.96    6.07
  -2   0  -7    1.71    0.72
  -2   0  -7    1.64    0.34
   2   0   7    1.80    0.57
   2   0   7    1.89    0.75
  -3   0  -7    1.15    0.44
  -3   0  -7    1.76    0.78
   3   0   7    1.58    0.83
   3   0   7    2.52    0.71
  -4   0  -7   -0.37    0.64
  -4   0  -7    0.25    0.49
  -4   0  -7    0.10    0.86
   4   0   7   -0.40    1.20
   4   0   7    1.31    0.76
  -5   0  -7   12.88    1.36
  -5   0  -7    9.42    1.74
   5   0   7   14.65    1.68
  -6   0  -7    1.84    1.13
  -6   0  -7    1.21    0.87
   6   0   7    1.96    0.92
   6   0   7    1.46    1.14
  -7   0  -7    0.13    0.95
   7   0   7    0.27    0.97
   7   0   7    0.49    1.21
   8  -1  -7    1.33    1.03
   8  -1  -7    3.01    1.30
   8  -1  -7    1.48    0.68
   8  -1  -7    0.54    0.73
  -8   1   7    1.33    1.04
  -8   1   7    0.67    1.06
  -8   1   7    1.35    1.09
   7  -1  -7    0.41    0.59
   7  -1  -7    1.17    1.13
   7  -1  -7    0.50    0.77
  -7   1   7    0.42    0.60
  -7   1   7    1.43    0.99
  -7   1   7    1.39    1.04
   6  -1  -7   29.70    1.80
   6  -1  -7   28.82    1.61
   6  -1  -7   34.37    2.50
   6  -1  -7   29.35    1.91
  -6   1   7   31.24    1.59
  -6   1   7   33.81    2.20
  -6   1   7   31.63    2.30
   5  -1  -7    2.22    1.05
   5  -1  -7    2.30    0.81
   5  -1  -7    3.21    0.70
   5  -1  -7    1.76    0.86
  -5   1   7    1.97    0.81
  -5   1   7    2.80    0.63
  -5   1   7    1.60    0.96
   4  -1  -7   29.49    1.93
   4  -1  -7   23.06    1.70
  -4   1   7   25.60    1.64
  -4   1   7   28.47    1.41
  -4   1   7   25.65    1.82
  -4   1   7   24.47    1.87
   3  -1  -7  149.07    4.59
   3  -1  -7  150.71    4.76
  -3   1   7  157.79    4.61
  -3   1   7  150.13    4.25
  -3   1   7  145.59    4.26
  -3   1   7  146.23    4.72
  -3   1   7  151.64    4.39
   2  -1  -7   62.84    2.65
   2  -1  -7   63.75    2.48
  -2   1   7   63.95    2.55
  -2   1   7   63.29    2.31
  -2   1   7   62.09    2.21
  -2   1   7   63.56    2.18
  -2   1   7   63.86    2.18
   1  -1  -7    5.14    1.03
   1  -1  -7    4.80    0.89
   1  -1  -7    3.40    0.57
  -1   1   7    5.24    0.67
  -1   1   7    4.12    0.47
  -1   1   7    5.23    0.82
   0  -1  -7   -0.06    0.44
   0  -1  -7    0.24    0.67
   0  -1  -7    0.20    0.63
   0   1   7    0.03    0.15
   0   1   7   -0.32    0.46
  -1  -1  -7  256.29    6.85
  -1  -1  -7  253.51    6.91
   1   1   7  248.70    6.61
   1   1   7  258.27    6.95
  -2  -1  -7    6.55    0.29
  -2  -1  -7    5.27    0.91
  -2  -1  -7    6.79    0.30
   2   1   7    5.97    0.83
   2   1   7    6.45    1.03
  -3  -1  -7    0.69    0.35
  -3  -1  -7    1.79    0.88
  -3  -1  -7    1.01    0.34
   3   1   7    1.32    0.82
   3   1   7   -0.03    0.60
  -4  -1  -7    1.42    0.90
  -4  -1  -7    1.00    0.47
   4   1   7   -0.47    0.70
   4   1   7    1.55    0.98
  -5  -1  -7   10.43    1.47
  -5  -1  -7   12.22    1.04
   5   1   7   15.17    1.49
  -6  -1  -7    6.97    1.25
  -6  -1  -7    5.48    0.76
   6   1   7    4.26    1.04
   6   1   7    5.40    1.36
   8  -2  -7    2.59    1.28
   8  -2  -7    0.28    0.66
   8  -2  -7    0.70    0.80
  -8   2   7    0.55    1.01
  -8   2   7    1.80    0.98
  -8   2   7    1.87    0.79
  -8   2   7    0.97    1.05
   7  -2  -7   16.57    1.51
   7  -2  -7   18.54    2.08
   7  -2  -7   16.05    1.41
  -7   2   7   16.36    1.72
  -7   2   7   20.15    1.91
  -7   2   7   18.44    1.47
   6  -2  -7   10.41    1.16
   6  -2  -7   13.50    1.35
   6  -2  -7   12.90    1.72
  -6   2   7   12.13    1.22
  -6   2   7    9.98    1.39
  -6   2   7   10.45    1.49
   5  -2  -7   10.31    1.11
   5  -2  -7   11.06    1.33
   5  -2  -7   10.26    1.49
  -5   2   7   12.13    1.18
  -5   2   7   11.79    1.27
   4  -2  -7   10.21    1.30
   4  -2  -7   10.91    1.29
   4  -2  -7   10.59    1.31
  -4   2   7   10.38    1.09
  -4   2   7   10.71    1.34
  -4   2   7   12.71    1.17
   3  -2  -7  134.67    4.44
   3  -2  -7  146.96    4.50
   3  -2  -7  149.29    4.71
  -3   2   7  147.90    3.98
  -3   2   7  136.38    4.53
  -3   2   7  144.12    4.26
  -3   2   7  146.59    4.33
   2  -2  -7    8.47    1.19
   2  -2  -7    5.81    0.97
  -2   2   7    7.55    0.78
  -2   2   7    6.29    0.90
  -2   2   7    6.45    0.76
  -2   2   7    6.83    0.95
   1  -2  -7  127.87    3.66
   1  -2  -7  137.79    4.15
  -1   2   7  129.59    3.70
  -1   2   7  132.32    3.95
  -1   2   7  129.77    3.42
   0  -2  -7    1.79    0.52
   0  -2  -7    2.78    0.81
   0   2   7    2.07    0.55
  -1  -2  -7   10.76    1.05
   1   2   7   11.55    1.20
   1   2   7   11.80    1.11
  -2  -2  -7   49.75    2.28
   2   2   7   50.97    2.17
   2   2   7   48.81    2.40
  -3  -2  -7    9.57    0.43
  -3  -2  -7    9.98    0.47
  -3  -2  -7    8.21    1.16
   3   2   7   11.52    1.37
   3   2   7    9.82    1.16
  -4  -2  -7    0.16    0.34
  -4  -2  -7    1.08    1.01
   4   2   7   -0.01    0.82
   4   2   7   -1.38    0.66
  -5  -2  -7    1.21    1.18
  -5  -2  -7    1.66    0.49
   5   2   7    1.63    0.88
  -6  -2  -7   14.73    1.09
  -6  -2  -7   11.63    1.81
   6   2   7   16.23    1.69
   8  -3  -7    0.20    0.80
   8  -3  -7   -0.85    1.20
  -8   3   7   -0.35    0.94
  -8   3   7    0.83    0.82
  -8   3   7    1.10    1.49
  -8   3   7    0.51    1.03
   7  -3  -7    9.09    1.20
   7  -3  -7    7.31    1.61
  -7   3   7    8.50    1.14
  -7   3   7    7.19    1.28
  -7   3   7    9.03    1.12
   6  -3  -7    0.47    1.02
   6  -3  -7    0.90    0.75
  -6   3   7    0.71    0.84
  -6   3   7    1.86    0.78
   5  -3  -7   22.64    2.02
   5  -3  -7   23.62    1.68
  -5   3   7   22.63    1.58
  -5   3   7   21.40    1.63
   4  -3  -7   -1.37    0.68
   4  -3  -7    0.84    0.81
  -4   3   7    0.32    0.62
  -4   3   7   -0.01    0.62
  -4   3   7    0.34    0.37
   3  -3  -7    5.95    0.93
   3  -3  -7    9.70    1.19
  -3   3   7    8.17    0.70
  -3   3   7    6.99    0.92
  -3   3   7    8.45    1.06
  -3   3   7    6.39    1.02
   2  -3  -7   36.40    1.95
  -2   3   7   37.50    1.36
  -2   3   7   37.61    1.88
  -2   3   7   36.40    1.96
   1  -3  -7   20.52    1.51
   1  -3  -7   20.32    1.01
  -1   3   7   19.58    1.51
  -1   3   7   18.75    0.89
  -1   3   7   20.95    1.27
  -1   3   7   19.11    1.72
   0  -3  -7   25.73    1.28
   0  -3  -7   25.51    1.68
   0   3   7   23.43    1.25
   0   3   7   28.13    1.47
  -1  -3  -7   13.80    1.17
   1   3   7   11.13    1.10
   1   3   7   12.63    1.31
  -2  -3  -7  107.67    3.65
   2   3   7  106.37    3.60
   2   3   7  106.99    3.91
  -3  -3  -7   -1.55    1.10
   3   3   7    0.86    0.77
  -4  -3  -7    2.15    0.33
  -4  -3  -7    2.42    1.65
   4   3   7    1.40    0.89
  -5  -3  -7    0.26    0.39
  -5  -3  -7    0.31    1.10
   5   3   7    0.92    0.94
   8  -4  -7    1.34    1.32
  -8   4   7   -0.50    0.99
  -8   4   7    1.05    0.82
  -8   4   7    0.55    0.77
   7  -4  -7    1.36    1.17
   7  -4  -7    2.24    0.95
  -7   4   7    1.50    0.84
  -7   4   7    2.07    0.99
  -7   4   7    1.15    0.67
   6  -4  -7    0.11    1.04
   6  -4  -7    2.15    1.39
  -6   4   7    3.46    0.75
  -6   4   7    3.86    1.00
  -6   4   7    2.19    0.90
   5  -4  -7   75.82    3.03
   5  -4  -7   79.39    3.19
   5  -4  -7   75.53    3.40
  -5   4   7   77.63    3.05
  -5   4   7   72.46    2.54
   4  -4  -7   65.64    3.20
   4  -4  -7   69.19    2.92
  -4   4   7   75.30    2.05
  -4   4   7   72.01    2.91
  -4   4   7   69.62    2.76
   3  -4  -7    6.04    0.93
   3  -4  -7    8.31    1.21
  -3   4   7    9.08    1.14
  -3   4   7    7.40    0.52
   2  -4  -7   48.01    2.25
  -2   4   7   47.76    1.53
  -2   4   7   48.99    2.39
  -2   4   7   48.84    2.14
   1  -4  -7   -0.45    0.73
   1  -4  -7    1.08    0.40
  -1   4   7    1.11    0.46
  -1   4   7    0.92    0.53
  -1   4   7    0.42    0.30
  -1   4   7    1.16    0.77
   0  -4  -7   56.71    2.62
   0  -4  -7   59.28    2.01
   0   4   7   55.96    2.66
   0   4   7   57.92    2.29
  -1  -4  -7    8.80    0.92
   1   4   7    8.41    0.70
   1   4   7    8.15    1.04
  -2  -4  -7   22.52    1.59
   2   4   7   14.65    2.35
  -3  -4  -7    2.70    1.00
   3   4   7    2.24    0.95
  -4  -4  -7   12.06    0.53
   4   4   7   15.08    1.52
  -5  -4  -7   -2.99    1.06
   5   4   7   -0.39    0.56
   5   4   7    1.08    1.02
   8  -5  -7    3.55    1.14
  -8   5   7    2.70    1.13
  -8   5   7    3.08    0.74
  -8   5   7    4.92    1.10
   7  -5  -7   -0.85    1.04
  -7   5   7    1.83    1.02
  -7   5   7    0.97    0.89
  -7   5   7    1.70    0.59
   6  -5  -7    3.46    1.09
   6  -5  -7    3.07    1.21
  -6   5   7    5.44    0.64
  -6   5   7    4.65    1.04
  -6   5   7    5.08    1.08
   5  -5  -7    2.27    0.97
   5  -5  -7    0.62    0.93
   5  -5  -7    1.96    0.91
  -5   5   7    2.32    0.36
  -5   5   7    1.46    0.28
  -5   5   7    1.47    1.64
  -5   5   7    0.94    0.82
   4  -5  -7   27.33    1.82
   4  -5  -7   28.87    1.81
  -4   5   7   27.23    2.82
  -4   5   7   27.05    1.88
   3  -5  -7    0.77    0.63
   3  -5  -7    2.47    0.95
  -3   5   7    1.28    0.83
   2  -5  -7   37.36    2.04
  -2   5   7   36.49    1.49
  -2   5   7   37.39    2.13
   1  -5  -7    7.93    0.60
   1  -5  -7    6.87    1.18
  -1   5   7    8.50    1.22
   0  -5  -7   33.55    1.40
   0  -5  -7   34.23    2.01
   0   5   7   34.49    0.98
  -1  -5  -7   10.93    1.08
   1   5   7   11.20    1.42
   1   5   7   10.75    1.22
  -2  -5  -7    3.69    0.84
   2   5   7    2.68    0.91
  -3  -5  -7   54.88    2.70
   3   5   7   55.04    2.66
  -4  -5  -7   12.14    1.59
   4   5   7    9.43    0.67
   4   5   7    9.78    1.38
   7  -6  -7    2.27    1.22
   7  -6  -7   -1.69    0.92
  -7   6   7    0.05    0.92
  -7   6   7    0.35    0.36
  -7   6   7   -1.08    0.88
   6  -6  -7   -0.28    0.94
   6  -6  -7   -0.21    0.91
  -6   6   7    1.00    0.89
  -6   6   7   -0.68    0.84
   5  -6  -7   -0.58    0.78
   5  -6  -7   -0.38    0.76
  -5   6   7   -1.75    0.73
  -5   6   7   -0.59    0.78
   4  -6  -7   41.96    2.11
   4  -6  -7   41.63    2.13
  -4   6   7   42.50    2.21
  -4   6   7   45.59    2.47
   3  -6  -7   21.11    1.70
  -3   6   7   23.29    1.91
  -3   6   7   21.05    1.31
   2  -6  -7    8.28    1.26
  -2   6   7    8.24    0.77
  -2   6   7    7.02    1.21
   1  -6  -7    8.94    0.50
   1  -6  -7    9.29    1.35
  -1   6   7    8.92    0.73
  -1   6   7    8.71    1.30
   0  -6  -7    6.77    1.26
   0  -6  -7    6.29    0.63
   0   6   7    6.87    0.55
   0   6   7    8.26    1.27
  -1  -6  -7   11.49    1.08
   1   6   7   13.32    1.49
   1   6   7   13.37    1.39
  -2  -6  -7    0.02    0.61
   2   6   7   -0.07    0.89
   2   6   7    1.59    1.00
  -3  -6  -7    0.21    0.84
   3   6   7    0.05    0.92
   3   6   7    1.41    1.01
  -4  -6  -7    4.44    1.25
   4   6   7    5.69    1.34
   6  -7  -7    2.27    1.08
   6  -7  -7    0.15    1.10
   6  -7  -7    1.92    0.95
  -6   7   7    1.27    0.91
  -6   7   7    2.47    1.07
   5  -7  -7    0.79    0.87
   5  -7  -7    0.26    0.94
   5  -7  -7   -0.71    1.16
  -5   7   7    1.37    0.92
  -5   7   7    0.59    0.96
   4  -7  -7    7.55    1.21
   4  -7  -7    7.69    0.99
  -4   7   7    6.89    1.23
   3  -7  -7   21.55    1.73
  -3   7   7   17.61    1.27
  -3   7   7   18.52    1.83
   2  -7  -7    7.05    1.22
  -2   7   7    8.28    1.29
  -2   7   7    7.35    0.76
   1  -7  -7    1.09    0.99
  -1   7   7    0.70    0.89
  -1   7   7   -0.05    0.41
   0  -7  -7    0.25    0.34
   0  -7  -7    1.04    1.02
   0   7   7   -0.07    0.85
   0   7   7    0.31    0.34
  -1  -7  -7   19.07    1.21
  -1  -7  -7   20.21    1.94
   1   7   7   17.56    1.88
   1   7   7   18.48    1.82
  -2  -7  -7    0.76    0.66
   2   7   7    1.70    1.03
   2   7   7    0.25    1.11
   3   7   7    0.43    1.05
   5  -8  -7    1.56    0.97
   5  -8  -7    0.76    0.85
  -5   8   7    0.03    0.93
  -5   8   7    2.57    0.87
  -5   8   7   -0.26    0.86
   4  -8  -7    0.14    0.60
   4  -8  -7    1.58    0.91
  -4   8   7    2.27    1.04
  -4   8   7    0.58    0.68
   3  -8  -7   22.39    1.73
  -3   8   7   20.68    1.38
  -3   8   7   19.27    1.87
   2  -8  -7    3.46    1.04
  -2   8   7    3.69    0.64
  -2   8   7    2.29    1.02
   1  -8  -7    1.04    0.98
  -1   8   7    0.77    0.45
  -1   8   7   -0.37    0.90
   0  -8  -7    0.17    0.36
   0  -8  -7    0.34    0.99
   0   8   7    1.06    1.03
   0   8   7   -0.57    0.37
  -1  -8  -7    6.93    1.35
  -1  -8  -7    5.38    0.69
   1   8   7    5.44    1.28
   1   8   7    6.37    1.33
   4  -9  -7   -1.33    0.75
  -4   9   7   -0.29    0.99
  -4   9   7    1.54    0.78
   3  -9  -7    2.08    0.97
  -3   9   7    1.23    0.66
  -3   9   7    1.04    1.08
   2  -9  -7    2.78    1.11
  -2   9   7    2.93    1.12
  -2   9   7    1.17    0.59
   1  -9  -7    1.40    0.99
  -1   9   7    0.50    0.49
  -1   9   7    1.43    1.05
   2  10  -8   13.39    1.54
   2  10  -8   12.29    1.31
  -2 -10   8   12.42    1.33
  -2 -10   8    9.70    1.37
   1  10  -8   -0.95    0.89
   1  10  -8   -0.47    0.72
   1  10  -8   -0.66    0.88
  -1 -10   8    0.58    0.74
  -1 -10   8    0.91    0.70
   0  10  -8    2.40    1.04
   0  10  -8    1.32    0.73
   0  10  -8    2.62    1.14
   0 -10   8    1.99    0.76
   0 -10   8    0.83    0.90
   0 -10   8    2.36    0.79
  -1  10  -8    2.89    1.34
  -1  10  -8    2.92    1.01
  -1  10  -8    1.77    0.82
   1 -10   8    4.72    1.11
   1 -10   8    3.30    0.91
   1 -10   8    5.12    0.95
  -2  10  -8   28.02    1.50
  -2  10  -8   25.95    2.05
  -2  10  -8   29.47    2.60
   2 -10   8   29.13    1.79
   2 -10   8   31.60    2.07
  -3  10  -8    0.32    0.61
  -3  10  -8    0.99    1.32
  -3  10  -8    0.75    0.96
   3 -10   8    0.80    0.78
   3   9  -8    4.05    1.14
   3   9  -8    4.25    0.66
  -3  -9   8    5.93    1.21
  -3  -9   8    4.84    1.03
   2   9  -8   44.21    2.12
   2   9  -8   39.03    2.02
  -2  -9   8   39.49    2.20
  -2  -9   8   40.88    2.11
  -2  -9   8   40.81    2.28
   1   9  -8    0.73    0.86
   1   9  -8    0.13    0.64
   1   9  -8   -0.25    0.84
  -1  -9   8    0.34    0.83
  -1  -9   8    0.66    0.75
  -1  -9   8   -0.06    0.51
   0   9  -8    0.42    0.78
   0   9  -8    0.35    0.62
   0   9  -8   -0.04    0.96
   0  -9   8    1.12    0.89
   0  -9   8    0.83    0.77
   0  -9   8    1.18    0.67
  -1   9  -8   -0.43    0.51
  -1   9  -8   -1.30    0.98
  -1   9  -8    0.96    0.82
   1  -9   8    0.01    0.78
   1  -9   8    0.56    0.64
   1  -9   8   -0.45    0.62
  -2   9  -8   21.99    1.27
  -2   9  -8   23.72    2.27
  -2   9  -8   22.03    1.75
   2  -9   8   23.53    1.82
   2  -9   8   21.48    1.62
  -3   9  -8    5.99    0.76
  -3   9  -8    6.94    1.49
   3  -9   8    7.72    1.00
   3  -9   8    6.26    1.25
  -4   9  -8    1.26    0.97
  -4   9  -8    1.32    0.80
  -4   9  -8   -0.16    0.59
  -4   9  -8    0.84    0.70
   4  -9   8   -1.47    1.66
   4  -9   8    1.14    0.71
   4   8  -8    7.47    1.23
  -4  -8   8    5.12    1.17
   3   8  -8    0.72    0.75
   3   8  -8   -0.17    0.84
  -3  -8   8    0.55    0.77
  -3  -8   8   -0.28    0.81
  -3  -8   8   -0.12    0.77
   2   8  -8   59.06    2.30
   2   8  -8   47.27    2.75
   2   8  -8   58.72    2.40
  -2  -8   8   58.37    2.53
  -2  -8   8   57.57    2.63
  -2  -8   8   59.21    2.72
   1   8  -8    4.48    0.97
   1   8  -8    4.34    0.79
  -1  -8   8    3.33    0.65
  -1  -8   8    3.69    0.88
  -1  -8   8    4.83    1.06
   0   8  -8   42.34    1.80
   0   8  -8   41.67    2.44
   0  -8   8   40.53    2.13
   0  -8   8   43.83    1.95
   0  -8   8   43.74    2.30
  -1   8  -8    2.96    0.61
  -1   8  -8    2.62    0.83
  -1   8  -8    2.85    1.04
   1  -8   8    2.07    0.88
   1  -8   8    1.12    0.86
   1  -8   8    2.79    0.78
  -2   8  -8   25.68    1.82
  -2   8  -8   26.61    1.29
  -2   8  -8   25.23    2.26
   2  -8   8   29.42    1.99
   2  -8   8   24.22    1.70
  -3   8  -8   32.88    2.03
  -3   8  -8   36.19    1.59
  -3   8  -8   36.52    2.02
   3  -8   8   35.08    1.94
   3  -8   8   37.37    2.39
  -4   8  -8    0.09    0.62
  -4   8  -8    0.65    0.53
  -4   8  -8   -0.14    0.85
  -4   8  -8    0.21    0.83
   4  -8   8    0.47    1.00
   4  -8   8    0.70    0.76
  -5   8  -8    0.26    0.89
  -5   8  -8    0.59    0.55
  -5   8  -8    0.73    0.67
  -5   8  -8   -0.41    0.90
   5  -8   8    0.50    0.77
   5  -8   8    0.69    1.13
   5   7  -8    0.72    0.93
   5   7  -8    0.81    0.97
  -5  -7   8   -0.97    0.90
  -5  -7   8    0.16    0.98
   4   7  -8   65.13    2.76
   4   7  -8   60.49    2.85
  -4  -7   8   61.63    2.89
  -4  -7   8   62.01    2.71
   3   7  -8   10.11    1.19
  -3  -7   8   10.67    1.36
  -3  -7   8   10.21    1.24
  -3  -7   8   11.20    1.28
   2   7  -8   10.08    1.05
  -2  -7   8    9.31    1.24
  -2  -7   8    8.41    1.15
  -2  -7   8    8.14    0.73
  -2  -7   8    7.75    1.14
   1   7  -8   61.35    2.62
   1   7  -8   66.08    2.36
  -1  -7   8   65.64    2.78
  -1  -7   8   66.13    2.75
  -1  -7   8   63.92    2.24
   0   7  -8    4.45    1.07
   0   7  -8    3.00    0.60
   0   7  -8    5.09    0.98
   0  -7   8    4.15    0.76
   0  -7   8    2.87    0.89
   0  -7   8    3.10    0.95
  -1   7  -8    4.36    1.17
  -1   7  -8    4.47    0.97
   1  -7   8    4.20    0.88
   1  -7   8    5.86    1.03
   1  -7   8    6.28    0.99
  -2   7  -8    1.88    0.75
  -2   7  -8    0.60    0.77
  -2   7  -8    1.01    0.45
   2  -7   8    1.48    0.84
   2  -7   8    0.66    0.87
  -3   7  -8   60.99    2.14
  -3   7  -8   60.26    2.45
  -3   7  -8   61.35    2.64
   3  -7   8   64.15    3.02
   3  -7   8   61.98    2.64
  -4   7  -8    0.37    0.62
  -4   7  -8    1.61    0.59
  -4   7  -8    1.44    0.82
  -4   7  -8    0.41    0.81
   4  -7   8   -0.35    0.66
   4  -7   8    0.10    1.07
  -5   7  -8    2.27    0.58
  -5   7  -8    3.07    0.76
  -5   7  -8    4.91    1.07
  -5   7  -8    2.05    0.99
   5  -7   8    1.76    1.40
   5  -7   8    2.68    0.89
  -6   7  -8    0.60    0.96
  -6   7  -8    0.44    0.93
  -6   7  -8    1.55    0.76
   6  -7   8    0.32    1.39
   6  -7   8    0.61    0.87
   6   6  -8    3.10    1.05
  -6  -6   8    2.17    1.12
  -6  -6   8    4.18    1.15
   5   6  -8   27.80    2.02
   5   6  -8   30.59    1.95
  -5  -6   8   23.15    1.91
   4   6  -8   15.88    1.49
  -4  -6   8   18.59    1.65
  -4  -6   8   18.67    1.76
   3   6  -8   35.27    1.90
  -3  -6   8   34.92    2.06
  -3  -6   8   37.06    2.13
   2   6  -8    1.91    0.70
   2   6  -8    0.63    0.60
  -2  -6   8    0.63    0.76
  -2  -6   8    2.04    1.35
  -2  -6   8    1.86    1.33
   1   6  -8   57.27    2.53
   1   6  -8   57.89    2.10
  -1  -6   8   60.85    2.56
  -1  -6   8   59.25    2.09
  -1  -6   8   61.70    2.60
   0   6  -8    2.28    0.48
   0  -6   8    2.08    0.79
   0  -6   8    1.69    0.66
   0  -6   8    2.14    0.81
  -1   6  -8   85.08    2.45
   1  -6   8   86.07    3.18
   1  -6   8   91.04    3.22
   1  -6   8   87.71    3.25
  -2   6  -8    8.37    1.05
  -2   6  -8   11.37    1.28
  -2   6  -8    8.35    1.13
   2  -6   8    8.99    1.27
   2  -6   8    8.11    1.07
  -3   6  -8   21.28    1.74
  -3   6  -8   24.18    1.27
  -3   6  -8   24.06    1.69
  -3   6  -8   26.81    1.52
   3  -6   8   25.56    1.77
   3  -6   8   24.71    2.12
  -4   6  -8   17.11    1.61
  -4   6  -8   16.07    1.11
  -4   6  -8   17.11    1.25
  -4   6  -8   15.43    1.49
   4  -6   8   15.03    1.81
   4  -6   8   19.40    1.59
  -5   6  -8    0.95    0.67
  -5   6  -8    3.25    0.95
  -5   6  -8    2.05    0.51
  -5   6  -8    3.20    0.98
   5  -6   8    2.17    0.94
   5  -6   8    2.11    1.24
  -6   6  -8   -1.43    1.55
  -6   6  -8    0.39    0.93
  -6   6  -8   -0.01    0.73
   6  -6   8   -0.02    0.87
   6  -6   8    0.31    1.28
   7   5  -8    7.23    1.23
  -7  -5   8    5.40    1.25
  -7  -5   8    6.64    1.33
   6   5  -8    2.76    0.98
   6   5  -8    5.59    1.28
  -6  -5   8    3.58    1.16
  -6  -5   8    5.05    1.15
  -6  -5   8    3.97    1.18
   5   5  -8   14.06    1.41
  -5  -5   8   13.04    1.40
  -5  -5   8   12.69    1.47
  -5  -5   8   12.22    1.45
   4   5  -8   -0.58    0.70
  -4  -5   8    0.43    0.68
  -4  -5   8    0.36    0.81
  -4  -5   8    1.61    0.84
   3   5  -8   64.24    2.58
   3   5  -8   68.16    2.75
  -3  -5   8   69.09    3.13
  -3  -5   8   66.80    2.84
   2   5  -8    0.48    0.54
   2   5  -8   -0.56    0.66
  -2  -5   8    0.39    0.29
  -2  -5   8   -0.07    0.64
  -2  -5   8    1.10    0.75
   1   5  -8   35.72    1.89
   1   5  -8   30.39    1.97
  -1  -5   8   37.04    1.94
  -1  -5   8   36.60    1.94
  -1  -5   8   33.49    1.50
   0   5  -8   36.31    1.93
   0   5  -8   38.28    1.28
   0  -5   8   39.11    2.00
   0  -5   8   36.16    1.82
   0  -5   8   36.28    1.93
  -1   5  -8   37.57    2.00
  -1   5  -8   34.34    1.85
  -1   5  -8   35.83    1.13
  -1   5  -8   33.22    1.80
  -1   5  -8   33.27    1.10
   1  -5   8   34.07    2.00
   1  -5   8   35.65    1.81
   1  -5   8   36.97    1.95
  -2   5  -8    8.17    1.14
  -2   5  -8    8.63    1.08
  -2   5  -8    9.07    0.73
  -2   5  -8    8.46    1.06
   2  -5   8    8.82    1.10
   2  -5   8    7.80    1.23
  -3   5  -8   34.29    1.90
  -3   5  -8   35.21    2.03
  -3   5  -8   36.27    1.70
  -3   5  -8   35.90    1.52
   3  -5   8   37.68    2.27
   3  -5   8   33.93    2.37
  -4   5  -8   23.21    1.26
  -4   5  -8   26.60    1.49
  -4   5  -8   28.64    1.78
  -4   5  -8   31.62    1.99
   4  -5   8   27.84    1.87
   4  -5   8   29.94    2.33
  -5   5  -8    0.14    0.82
  -5   5  -8    0.60    0.26
  -5   5  -8   -0.20    0.82
  -5   5  -8   -0.32    0.59
   5  -5   8    0.75    0.88
   5  -5   8    1.60    1.10
  -6   5  -8   12.86    1.27
  -6   5  -8   12.97    1.06
  -6   5  -8   14.10    1.54
  -6   5  -8   17.36    2.86
   6  -5   8   12.26    1.51
   6  -5   8   11.26    1.71
   7   4  -8   44.49    2.34
   7   4  -8   42.58    2.42
  -7  -4   8   39.50    2.50
  -7  -4   8   43.56    2.57
   6   4  -8   -0.04    0.91
  -6  -4   8    0.36    0.90
  -6  -4   8   -0.43    0.94
  -6  -4   8    0.18    0.89
   5   4  -8   -1.23    0.85
   5   4  -8    1.02    0.80
  -5  -4   8    0.91    0.81
  -5  -4   8    1.93    0.96
  -5  -4   8    0.43    0.90
   4   4  -8   15.05    1.40
   4   4  -8   12.01    1.20
   4   4  -8   11.96    1.56
  -4  -4   8   11.97    1.20
  -4  -4   8   11.17    1.53
   3   4  -8  102.51    3.58
   3   4  -8  103.24    3.34
   3   4  -8   96.65    3.87
  -3  -4   8  103.88    3.71
  -3  -4   8  103.60    3.25
  -3  -4   8  106.10    3.63
   2   4  -8   37.83    2.27
   2   4  -8   36.76    1.88
   2   4  -8   34.38    1.52
  -2  -4   8   36.73    1.98
  -2  -4   8   35.77    1.92
  -2  -4   8   34.96    1.21
   1   4  -8    1.19    0.92
   1   4  -8    0.25    0.63
   1   4  -8    1.78    0.36
  -1  -4   8    0.62    0.65
  -1  -4   8    1.69    0.70
  -1  -4   8    1.09    0.49
   0   4  -8   33.42    1.98
   0   4  -8   28.07    1.65
   0  -4   8   32.52    1.80
   0  -4   8   27.99    1.68
   0  -4   8   27.65    1.60
  -1   4  -8    7.99    1.10
  -1   4  -8    5.09    0.83
  -1   4  -8    5.63    0.96
   1  -4   8    5.83    0.84
   1  -4   8    5.93    1.05
   1  -4   8    5.53    0.89
  -2   4  -8  167.24    4.85
  -2   4  -8  164.01    4.84
  -2   4  -8  161.01    4.13
  -2   4  -8  163.96    4.21
  -2   4  -8  167.01    5.08
   2  -4   8  174.27    5.56
   2  -4   8  167.32    5.04
  -3   4  -8   42.25    2.23
  -3   4  -8   40.71    1.68
  -3   4  -8   40.70    1.72
  -3   4  -8   37.15    1.24
  -3   4  -8   40.37    1.92
   3  -4   8   41.39    2.17
  -4   4  -8   14.22    1.22
  -4   4  -8   16.66    1.43
  -4   4  -8   16.90    1.65
  -4   4  -8   14.23    1.19
  -4   4  -8   17.04    1.04
   4  -4   8   11.16    1.32
   4  -4   8   13.10    1.76
  -5   4  -8    1.55    0.95
  -5   4  -8    1.30    0.69
  -5   4  -8    0.20    0.76
   5  -4   8    1.48    0.91
   5  -4   8   -0.24    1.30
  -6   4  -8    4.58    1.40
  -6   4  -8    7.55    1.08
   6  -4   8    7.56    1.00
   6  -4   8    7.08    1.31
   7   3  -8   25.19    1.99
   7   3  -8   25.78    1.81
  -7  -3   8   21.07    2.03
  -7  -3   8   24.77    2.11
   6   3  -8   12.02    1.46
   6   3  -8   10.95    1.34
  -6  -3   8   11.22    1.51
  -6  -3   8   11.44    1.39
   5   3  -8    6.45    1.03
   5   3  -8    5.88    1.17
  -5  -3   8    5.28    1.05
  -5  -3   8    5.38    1.11
  -5  -3   8    4.99    1.12
   4   3  -8   41.23    2.39
   4   3  -8   43.96    2.02
  -4  -3   8   39.10    2.17
  -4  -3   8   42.00    2.31
  -4  -3   8   39.98    2.03
   3   3  -8   35.66    1.65
   3   3  -8   35.34    1.92
   3   3  -8   35.19    2.23
  -3  -3   8   35.12    1.98
  -3  -3   8   36.12    1.68
  -3  -3   8   33.60    2.06
   2   3  -8  226.32    6.69
   2   3  -8  220.44    6.22
   2   3  -8  220.64    6.15
  -2  -3   8  220.13    5.69
  -2  -3   8  220.74    6.46
  -2  -3   8  225.28    6.24
  -2  -3   8  221.60    5.62
  -2  -3   8  230.24    6.38
   1   3  -8    4.89    0.81
   1   3  -8    4.29    1.03
  -1  -3   8    3.27    0.67
  -1  -3   8    3.74    0.84
  -1  -3   8    6.04    0.85
   0   3  -8   15.13    1.38
   0   3  -8   12.69    1.25
   0   3  -8   13.89    1.15
   0  -3   8   13.95    1.15
   0  -3   8   13.31    1.30
   0  -3   8   13.35    1.37
  -1   3  -8   -0.08    0.64
  -1   3  -8    0.26    0.40
  -1   3  -8    0.09    0.50
  -1   3  -8    0.17    0.61
   1  -3   8   -0.78    0.53
   1  -3   8    0.80    0.82
   1  -3   8   -0.41    0.51
  -2   3  -8  163.14    4.65
  -2   3  -8  162.61    4.29
  -2   3  -8  160.07    4.11
  -2   3  -8  163.81    4.74
  -2   3  -8  163.29    5.01
   2  -3   8  162.40    5.00
   2  -3   8  172.03    5.57
  -3   3  -8   19.42    1.03
  -3   3  -8   21.49    1.25
  -3   3  -8   20.67    1.93
  -3   3  -8   19.56    1.12
  -3   3  -8   18.64    1.33
   3  -3   8   21.08    2.02
   3  -3   8   20.36    1.04
   3  -3   8   19.31    1.56
  -4   3  -8    1.07    0.51
  -4   3  -8    1.59    0.67
  -4   3  -8    0.51    0.58
  -4   3  -8    1.47    1.39
   4  -3   8    0.47    0.73
   4  -3   8    1.39    1.10
   4  -3   8    1.78    0.55
  -5   3  -8    9.13    1.35
  -5   3  -8   12.26    1.19
  -5   3  -8    9.80    1.14
   5  -3   8    9.60    1.33
   5  -3   8   13.57    1.24
  -6   3  -8    2.82    1.22
  -6   3  -8    3.15    0.86
  -6   3  -8    2.18    0.87
   6  -3   8    3.17    0.86
   6  -3   8    1.59    1.38
   6  -3   8    1.97    1.03
   8   2  -8    0.52    0.77
   8   2  -8   -0.93    0.98
   8   2  -8   -0.33    1.17
  -8  -2   8   -0.28    1.00
  -8  -2   8   -0.81    0.93
   7   2  -8    1.53    0.90
   7   2  -8    0.82    0.83
   7   2  -8    0.57    1.06
  -7  -2   8    1.38    1.07
  -7  -2   8    0.64    1.03
   6   2  -8   59.04    2.70
   6   2  -8   63.74    2.79
  -6  -2   8   56.15    2.80
   5   2  -8    7.49    1.27
   5   2  -8    6.11    1.01
  -5  -2   8    5.17    0.98
  -5  -2   8    6.72    1.23
   4   2  -8   11.17    1.40
   4   2  -8   12.19    1.20
  -4  -2   8   11.01    1.14
  -4  -2   8   10.23    1.24
  -4  -2   8    9.45    1.30
   3   2  -8    2.85    0.82
   3   2  -8    4.26    0.64
   3   2  -8    3.60    1.05
  -3  -2   8    3.54    0.69
  -3  -2   8    3.34    0.37
  -3  -2   8    4.28    0.97
  -3  -2   8    4.90    0.92
  -3  -2   8    3.47    0.35
   2   2  -8  315.66    8.05
   2   2  -8  332.66    9.10
   2   2  -8  340.30    8.69
  -2  -2   8  341.39    8.79
  -2  -2   8  330.21    8.94
  -2  -2   8  323.09    8.59
  -2  -2   8  330.66    8.21
   1   2  -8   31.96    1.92
   1   2  -8   32.23    1.60
   1   2  -8   34.54    1.60
  -1  -2   8   34.70    1.61
  -1  -2   8   35.61    1.80
  -1  -2   8   35.68    0.94
   0   2  -8   16.01    1.11
   0   2  -8   20.15    1.47
   0   2  -8   16.91    1.35
   0   2  -8   17.84    1.11
   0  -2   8   19.52    1.42
   0  -2   8   16.93    1.10
  -1   2  -8   14.39    0.97
  -1   2  -8   12.12    0.98
  -1   2  -8   12.48    1.25
  -1   2  -8   13.25    1.29
   1  -2   8   15.16    1.29
   1  -2   8   14.12    0.97
  -2   2  -8   40.75    2.09
  -2   2  -8   38.85    1.82
  -2   2  -8   41.46    1.63
  -2   2  -8   40.18    1.65
   2  -2   8   43.84    2.13
   2  -2   8   39.90    1.39
  -3   2  -8   55.68    2.13
  -3   2  -8   55.82    2.10
  -3   2  -8   56.66    2.07
  -3   2  -8   59.52    2.06
   3  -2   8   57.36    3.08
   3  -2   8   55.77    2.03
   3  -2   8   58.23    2.59
  -4   2  -8    0.24    0.56
  -4   2  -8    0.01    0.56
   4  -2   8    0.50    0.58
   4  -2   8    0.22    0.73
  -5   2  -8    7.93    1.02
  -5   2  -8    7.50    1.00
   5  -2   8    6.64    1.23
   5  -2   8    8.26    1.02
  -6   2  -8    1.12    1.62
  -6   2  -8   -0.65    0.82
  -6   2  -8   -0.76    0.72
   6  -2   8   -0.31    0.84
   6  -2   8   -0.08    0.71
   6  -2   8    0.52    1.23
   8   1  -8    4.22    1.38
   8   1  -8    6.27    1.05
  -8  -1   8    6.28    1.29
  -8  -1   8    5.64    1.47
   7   1  -8    4.51    1.06
   7   1  -8    1.39    1.14
   7   1  -8    3.47    0.95
  -7  -1   8    1.87    1.07
  -7  -1   8    2.52    1.04
   6   1  -8   42.10    2.21
   6   1  -8   42.68    2.25
   6   1  -8   42.58    2.64
  -6  -1   8   45.84    2.48
  -6  -1   8   39.00    2.50
   5   1  -8    7.03    1.02
   5   1  -8    7.77    1.27
  -5  -1   8    9.40    1.27
  -5  -1   8    8.70    1.16
  -5  -1   8    5.41    1.18
   4   1  -8  106.53    3.36
   4   1  -8   99.90    3.71
  -4  -1   8  102.59    2.75
  -4  -1   8  109.47    3.75
  -4  -1   8  101.35    3.80
  -4  -1   8  101.01    3.52
   3   1  -8    1.18    0.87
   3   1  -8   -0.01    0.44
  -3  -1   8   -0.11    0.30
  -3  -1   8   -1.02    0.55
  -3  -1   8    0.35    0.57
  -3  -1   8   -0.35    0.71
  -3  -1   8    0.43    0.55
   2   1  -8   14.20    1.17
   2   1  -8   12.66    1.16
   2   1  -8   12.27    1.39
  -2  -1   8   12.88    1.19
  -2  -1   8   13.70    0.94
  -2  -1   8   10.60    1.20
  -2  -1   8   10.77    1.08
   1   1  -8  149.90    4.40
   1   1  -8  150.76    4.25
   1   1  -8  147.95    4.75
  -1  -1   8  148.14    3.83
  -1  -1   8  153.14    4.50
  -1  -1   8  155.21    4.20
   0   1  -8    2.45    0.68
   0   1  -8    2.81    0.50
   0   1  -8    3.03    0.71
   0   1  -8    2.87    0.87
   0  -1   8    3.15    0.30
   0  -1   8    2.98    0.27
   0  -1   8    1.98    0.65
  -1   1  -8    0.48    0.37
  -1   1  -8    0.28    0.57
  -1   1  -8    0.06    0.61
  -1   1  -8   -0.05    0.65
   1  -1   8    0.27    0.32
   1  -1   8    0.12    0.62
  -2   1  -8   14.93    1.11
  -2   1  -8   14.83    0.90
  -2   1  -8   12.89    1.21
  -2   1  -8   14.35    1.39
   2  -1   8   14.81    1.41
   2  -1   8   13.12    0.99
  -3   1  -8   86.10    4.94
  -3   1  -8  107.09    3.11
   3  -1   8  109.24    3.84
   3  -1   8  113.79    3.37
  -4   1  -8   -0.11    0.61
  -4   1  -8   -0.66    0.46
  -4   1  -8   -0.91    0.58
   4  -1   8   -0.79    0.73
   4  -1   8   -0.10    0.62
  -5   1  -8    0.51    0.74
  -5   1  -8    0.28    0.60
  -5   1  -8   -1.62    0.64
   5  -1   8   -0.61    0.79
   5  -1   8    0.01    0.71
   5  -1   8   -2.04    0.79
  -6   1  -8    0.97    1.22
  -6   1  -8    0.75    0.71
  -6   1  -8    0.01    0.77
   6  -1   8    2.19    2.32
   6  -1   8    0.45    1.01
   6  -1   8    0.31    0.79
   8   0  -8   13.46    1.86
   8   0  -8   14.02    1.02
   8   0  -8   15.64    1.68
  -8   0   8   13.42    1.58
  -8   0   8    9.36    1.47
   7   0  -8    0.04    1.08
   7   0  -8    1.23    0.87
   7   0  -8    0.13    0.89
  -7   0   8   -0.20    0.93
  -7   0   8    0.30    0.91
   6   0  -8   17.87    1.88
   6   0  -8   13.17    1.38
   6   0  -8   19.75    1.65
  -6   0   8   13.95    1.60
  -6   0   8   18.46    1.73
  -6   0   8   17.81    1.09
   5   0  -8   37.70    2.11
   5   0  -8   29.42    2.21
   5   0  -8   35.52    1.90
  -5   0   8   34.82    2.24
  -5   0   8   34.02    2.16
  -5   0   8   33.11    2.04
   4   0  -8   50.50    2.44
  -4   0   8   49.60    2.21
  -4   0   8   46.79    2.44
  -4   0   8   44.50    2.25
   3   0  -8   66.37    2.89
   3   0  -8   65.18    2.66
  -3   0   8   68.66    2.50
  -3   0   8   69.31    2.44
  -3   0   8   70.86    2.88
  -3   0   8   65.61    2.24
  -3   0   8   68.75    2.60
   2   0  -8   81.27    3.15
   2   0  -8   79.22    2.86
  -2   0   8   78.34    2.62
  -2   0   8   75.75    2.98
  -2   0   8   77.27    2.53
  -2   0   8   83.18    2.76
  -2   0   8   78.63    2.60
   1   0  -8  462.75   11.39
   1   0  -8  456.34   11.50
   1   0  -8  472.09   11.87
  -1   0   8  465.74   10.96
  -1   0   8  455.67   11.40
  -1   0   8  411.70   11.40
   0   0  -8    1.36    0.71
   0   0  -8    1.76    0.85
   0   0  -8    1.51    0.39
   0   0  -8    0.78    0.56
   0   0   8    1.78    0.59
   0   0   8    1.75    0.35
   0   0   8    1.26    0.39
  -1   0  -8   53.21    2.15
  -1   0  -8   51.22    2.30
  -1   0  -8   52.81    2.24
  -1   0  -8   54.61    1.58
   1   0   8   54.87    1.86
   1   0   8   53.96    2.30
  -2   0  -8    5.75    0.53
  -2   0  -8    5.80    0.94
  -2   0  -8    5.76    0.93
   2   0   8    5.17    0.95
   2   0   8    5.74    0.76
  -3   0  -8   67.62    2.67
   3   0   8   70.74    2.64
   3   0   8   76.96    3.14
  -4   0  -8   39.08    2.35
  -4   0  -8   37.71    1.55
   4   0   8   37.82    2.01
   4   0   8   41.74    2.42
  -5   0  -8    5.38    1.28
  -5   0  -8    6.65    1.10
  -5   0  -8    5.89    0.78
   5   0   8    5.09    1.22
   5   0   8    4.38    1.33
   5   0   8    3.59    0.93
  -6   0  -8   -1.63    0.79
  -6   0  -8   -0.04    0.63
  -6   0  -8   -0.33    1.14
  -6   0  -8   -0.83    0.55
   6   0   8    0.38    0.84
   6   0   8    1.66    1.34
   8  -1  -8   25.90    1.55
   8  -1  -8   25.79    1.67
   8  -1  -8   24.77    2.37
   8  -1  -8   26.42    2.37
  -8   1   8   29.23    2.20
  -8   1   8   23.94    2.22
   7  -1  -8   18.62    1.58
   7  -1  -8   20.42    2.14
   7  -1  -8   16.55    1.29
   7  -1  -8   15.21    1.53
  -7   1   8   18.90    1.30
  -7   1   8   18.23    1.86
  -7   1   8   16.84    1.70
   6  -1  -8   -1.24    0.85
   6  -1  -8    0.50    0.80
  -6   1   8    0.98    0.55
  -6   1   8    0.64    0.97
   5  -1  -8   30.06    1.96
   5  -1  -8   25.97    2.02
  -5   1   8   27.30    2.03
  -5   1   8   30.51    1.46
  -5   1   8   27.55    1.85
  -5   1   8   23.93    1.98
   4  -1  -8    0.95    0.87
  -4   1   8   -0.79    0.41
  -4   1   8   -1.09    0.72
  -4   1   8   -0.13    0.71
  -4   1   8    0.13    0.63
   3  -1  -8   85.44    3.16
   3  -1  -8   85.24    3.39
  -3   1   8   90.23    3.06
  -3   1   8   88.05    3.29
  -3   1   8   91.61    2.88
  -3   1   8   87.88    2.90
  -3   1   8   86.56    2.91
   2  -1  -8    1.13    0.85
   2  -1  -8    2.10    0.80
  -2   1   8    0.77    0.47
  -2   1   8    0.26    0.67
  -2   1   8    1.23    0.63
  -2   1   8    1.10    0.51
  -2   1   8   -0.04    0.46
   1  -1  -8   25.50    1.74
   1  -1  -8   26.19    1.35
   1  -1  -8   23.60    1.51
  -1   1   8   23.62    1.53
  -1   1   8   22.87    1.02
  -1   1   8   26.41    1.38
   0  -1  -8   34.46    1.65
   0  -1  -8   37.04    1.81
   0  -1  -8   34.72    1.98
   0   1   8   32.80    0.96
   0   1   8   33.67    1.68
  -1  -1  -8   50.63    2.14
  -1  -1  -8   46.81    2.16
   1   1   8   51.32    2.23
   1   1   8   51.79    1.94
  -2  -1  -8   18.72    1.53
   2   1   8   20.94    1.34
   2   1   8   19.68    1.62
  -3  -1  -8    0.91    0.87
  -3  -1  -8    0.56    0.24
  -3  -1  -8    0.44    0.26
   3   1   8    1.53    0.69
   3   1   8    0.54    0.80
  -4  -1  -8   30.79    1.28
  -4  -1  -8   29.47    1.29
   4   1   8   30.36    2.20
   4   1   8   32.99    1.88
  -5  -1  -8   -0.73    0.94
  -5  -1  -8   -0.32    0.44
  -5  -1  -8    0.06    0.45
   5   1   8   -0.42    0.77
   5   1   8    1.55    0.99
  -6  -1  -8    1.46    0.60
  -6  -1  -8    2.28    1.32
  -6  -1  -8    0.73    0.63
   6   1   8   -0.26    0.88
   6   1   8   -0.67    1.16
   8  -2  -8    0.08    0.71
   8  -2  -8   -1.04    1.11
   8  -2  -8   -0.35    0.67
  -8   2   8   -0.03    1.02
  -8   2   8   -0.17    0.69
  -8   2   8    0.80    1.08
  -8   2   8   -0.13    0.87
   7  -2  -8   17.80    1.56
   7  -2  -8   13.81    1.42
   7  -2  -8   22.17    2.26
  -7   2   8   17.57    1.75
  -7   2   8   18.13    1.41
  -7   2   8   16.15    1.66
   6  -2  -8    0.55    0.85
   6  -2  -8    0.18    0.63
   6  -2  -8    0.67    1.04
  -6   2   8   -0.03    0.90
  -6   2   8    0.97    0.83
  -6   2   8    0.65    0.59
   5  -2  -8   12.24    1.53
   5  -2  -8   12.05    1.42
  -5   2   8   10.61    1.32
  -5   2   8   13.95    1.36
  -5   2   8   13.65    1.20
   4  -2  -8    1.85    1.02
   4  -2  -8    4.46    1.11
   4  -2  -8    2.12    0.90
  -4   2   8    3.44    0.74
  -4   2   8    2.03    0.54
  -4   2   8    3.94    1.04
  -4   2   8    2.68    0.76
  -4   2   8    3.40    0.92
   3  -2  -8   68.57    2.97
   3  -2  -8   65.93    2.74
  -3   2   8   73.10    2.59
  -3   2   8   73.98    2.69
  -3   2   8   67.37    2.62
  -3   2   8   73.04    2.91
  -3   2   8   73.36    2.35
   2  -2  -8    4.95    1.10
   2  -2  -8    6.66    1.06
  -2   2   8    7.50    0.72
  -2   2   8    5.68    0.92
  -2   2   8    6.04    0.92
  -2   2   8    6.41    0.72
   1  -2  -8    2.96    0.89
   1  -2  -8    6.40    0.70
  -1   2   8    6.04    0.54
  -1   2   8    5.83    0.72
  -1   2   8    7.53    0.92
   0  -2  -8   43.31    2.12
   0  -2  -8   45.99    1.87
   0   2   8   46.72    1.96
  -1  -2  -8   10.86    1.30
  -1  -2  -8   10.22    1.01
   1   2   8    6.73    0.93
   1   2   8    8.90    0.94
  -2  -2  -8   37.09    1.99
   2   2   8   36.82    1.85
   2   2   8   36.81    2.13
  -3  -2  -8    1.16    0.81
   3   2   8    0.68    0.71
   3   2   8    1.01    0.82
  -4  -2  -8   14.84    0.61
  -4  -2  -8   15.58    0.66
   4   2   8   14.48    1.70
   4   2   8   15.25    1.51
  -5  -2  -8    0.40    0.42
  -5  -2  -8    0.73    1.12
  -5  -2  -8    0.86    0.43
   5   2   8    1.39    0.88
   8  -3  -8    1.48    1.30
   8  -3  -8    0.39    0.76
  -8   3   8    0.96    1.10
  -8   3   8    0.70    0.82
  -8   3   8    0.58    1.05
   7  -3  -8   32.20    2.65
   7  -3  -8   31.68    2.01
  -7   3   8   31.88    1.99
  -7   3   8   37.40    2.37
  -7   3   8   33.73    1.92
  -7   3   8   34.82    2.21
   6  -3  -8    3.80    1.20
   6  -3  -8    2.74    0.90
  -6   3   8    2.20    0.95
  -6   3   8    2.28    0.80
   5  -3  -8   -0.50    0.79
   5  -3  -8    1.07    0.94
  -5   3   8    0.44    0.76
  -5   3   8   -0.17    0.64
   4  -3  -8   33.96    2.05
   4  -3  -8   32.87    1.93
  -4   3   8   33.74    1.86
  -4   3   8   34.33    1.91
  -4   3   8   35.08    1.41
   3  -3  -8   22.07    1.60
  -3   3   8   23.22    1.69
  -3   3   8   24.84    1.53
  -3   3   8   22.47    1.09
  -3   3   8   21.62    1.63
   2  -3  -8  110.22    3.70
  -2   3   8  107.63    3.08
  -2   3   8  107.89    3.19
  -2   3   8  104.78    3.68
  -2   3   8  106.22    3.55
   1  -3  -8   -1.62    0.61
   1  -3  -8    0.52    0.40
  -1   3   8    0.59    0.26
  -1   3   8    0.04    0.74
  -1   3   8    0.30    0.52
  -1   3   8    0.12    0.43
   0  -3  -8   39.00    1.66
   0  -3  -8   41.64    2.13
   0   3   8   36.69    1.66
   0   3   8   38.69    1.81
  -1  -3  -8   33.88    2.36
  -1  -3  -8   33.81    1.70
   1   3   8   33.33    1.88
   1   3   8   34.17    1.78
  -2  -3  -8    5.68    0.98
   2   3   8    6.22    0.99
   2   3   8    5.22    1.02
  -3  -3  -8    3.61    0.94
   3   3   8    1.96    1.63
   3   3   8    2.04    0.86
  -4  -3  -8    0.18    0.93
   4   3   8    0.08    0.82
  -5  -3  -8    5.76    0.53
  -5  -3  -8    5.15    0.45
  -5  -3  -8    8.13    1.51
   5   3   8    5.46    1.14
  -8   4   8   -0.01    0.82
  -8   4   8    0.79    0.73
   7  -4  -8    2.04    1.00
   7  -4  -8    2.98    1.34
  -7   4   8    1.89    0.70
  -7   4   8    1.82    0.84
  -7   4   8    3.18    1.04
   6  -4  -8   26.35    2.30
   6  -4  -8   27.87    2.01
  -6   4   8   30.97    1.92
  -6   4   8   30.31    1.93
  -6   4   8   28.22    1.61
   5  -4  -8    2.69    1.07
   5  -4  -8    1.25    0.94
  -5   4   8    1.87    0.86
  -5   4   8    1.39    0.87
  -5   4   8    1.24    0.41
   4  -4  -8    1.12    0.91
   4  -4  -8    1.41    0.80
  -4   4   8    1.14    0.35
  -4   4   8    1.24    0.83
  -4   4   8    1.49    0.79
   3  -4  -8    1.74    0.94
  -3   4   8    0.97    0.33
  -3   4   8    1.61    0.81
   2  -4  -8   68.34    2.79
  -2   4   8   64.08    2.79
  -2   4   8   65.23    2.58
  -2   4   8   68.36    2.06
   1  -4  -8   10.07    0.78
   1  -4  -8   12.12    1.36
  -1   4   8   11.43    0.99
  -1   4   8   10.35    1.05
  -1   4   8   11.62    1.34
  -1   4   8    9.60    0.55
  -1   4   8    9.51    0.61
   0  -4  -8    4.98    0.66
   0  -4  -8    6.80    1.19
   0   4   8    5.69    0.86
   0   4   8    4.65    0.64
   0   4   8    4.35    1.04
  -1  -4  -8   -0.43    0.85
  -1  -4  -8    0.90    0.57
   1   4   8   -0.44    0.66
   1   4   8   -0.26    0.38
   1   4   8   -0.20    0.67
  -2  -4  -8   25.41    1.70
   2   4   8   24.28    1.73
  -3  -4  -8    7.76    1.17
   3   4   8    6.86    1.10
  -4  -4  -8    1.21    1.00
   4   4   8    1.05    0.90
   7  -5  -8   -1.53    1.12
   7  -5  -8    0.68    0.96
  -7   5   8   -1.56    0.84
  -7   5   8    0.15    0.82
  -7   5   8   -0.04    0.51
   6  -5  -8   28.16    2.18
  -6   5   8   27.79    1.95
  -6   5   8   28.83    1.27
  -6   5   8   24.12    1.90
  -6   5   8   27.10    1.15
   5  -5  -8    6.30    1.17
  -5   5   8    6.71    0.46
  -5   5   8    4.35    1.06
  -5   5   8    6.22    1.07
  -5   5   8    6.34    0.56
   4  -5  -8    2.63    0.98
   4  -5  -8    3.01    0.86
  -4   5   8    3.59    0.99
  -4   5   8    4.55    0.96
   3  -5  -8    1.85    0.94
  -3   5   8    2.14    1.61
   2  -5  -8   19.81    1.65
  -2   5   8   21.65    1.08
  -2   5   8   20.86    1.99
   1  -5  -8   27.91    1.09
   1  -5  -8   27.16    1.84
  -1   5   8   26.63    0.95
  -1   5   8   25.28    1.86
   0  -5  -8    1.12    0.94
   0  -5  -8    0.69    0.44
   0   5   8    1.40    0.88
  -1  -5  -8    3.95    0.74
  -1  -5  -8    5.37    1.24
   1   5   8    1.35    0.97
   1   5   8    4.00    1.00
   1   5   8    5.05    0.44
  -2  -5  -8   -0.21    0.62
   2   5   8    0.05    0.20
   2   5   8    1.63    0.85
  -3  -5  -8   10.02    1.34
   3   5   8   11.92    1.44
   3   5   8   12.37    0.59
   3   5   8   11.83    0.57
  -4  -5  -8    0.74    1.01
   4   5   8    0.20    0.32
   7  -6  -8    0.75    1.02
   7  -6  -8   -2.04    1.09
  -7   6   8    0.07    0.31
  -7   6   8    0.21    0.91
   6  -6  -8    6.84    1.31
   6  -6  -8    6.87    1.19
   6  -6  -8    4.98    1.27
  -6   6   8    6.85    1.21
  -6   6   8    7.25    1.22
   5  -6  -8   13.81    1.50
   5  -6  -8   13.15    1.71
  -5   6   8   12.13    1.35
  -5   6   8   12.33    1.49
   4  -6  -8    1.45    0.75
   4  -6  -8    1.63    0.88
  -4   6   8    1.92    0.91
  -4   6   8    2.52    1.01
   3  -6  -8    0.19    0.86
  -3   6   8    0.01    0.49
  -3   6   8    0.02    0.85
   2  -6  -8   -0.02    0.88
  -2   6   8    0.21    0.41
  -2   6   8    1.30    0.90
   1  -6  -8   38.13    2.23
  -1   6   8   39.05    2.30
   0  -6  -8    1.62    0.44
   0  -6  -8    1.09    0.98
   0   6   8    0.79    0.93
  -1  -6  -8    0.66    0.51
  -1  -6  -8   -1.66    0.83
   1   6   8   -0.68    0.77
   1   6   8    0.16    0.88
  -2  -6  -8    1.33    1.35
   2   6   8    0.83    1.00
   2   6   8    2.30    1.01
   3   6   8   11.14    1.55
   6  -7  -8    1.11    0.90
   6  -7  -8    0.77    0.96
  -6   7   8   -0.45    0.99
  -6   7   8    1.38    0.98
   5  -7  -8    4.19    1.08
   5  -7  -8    2.23    0.91
  -5   7   8    5.44    1.19
  -5   7   8    2.89    1.03
   4  -7  -8    1.36    0.97
  -4   7   8    1.25    1.00
   3  -7  -8    0.27    0.90
  -3   7   8    0.08    0.53
  -3   7   8    0.64    0.92
   2  -7  -8    0.69    0.95
  -2   7   8    1.23    0.47
  -2   7   8    0.44    0.91
   1  -7  -8   15.81    1.66
  -1   7   8   13.22    1.56
  -1   7   8   15.87    0.84
   0  -7  -8    4.83    0.53
   0  -7  -8    5.05    1.20
   0   7   8    3.15    1.11
  -1  -7  -8    2.31    1.16
  -1  -7  -8    2.27    0.58
   1   7   8    1.29    1.05
   1   7   8    0.27    0.94
  -2  -7  -8   -1.51    0.60
   2   7   8   -0.84    0.95
   5  -8  -8    1.59    0.83
   5  -8  -8    5.69    1.14
  -5   8   8    4.17    0.92
  -5   8   8    3.00    1.23
   4  -8  -8   -0.81    0.86
  -4   8   8    0.88    0.65
  -4   8   8    0.56    0.97
   3  -8  -8   32.20    2.05
  -3   8   8   26.67    2.22
  -3   8   8   29.21    1.51
   2  -8  -8   18.20    1.80
  -2   8   8   17.53    1.08
  -2   8   8   18.16    1.82
   1  -8  -8    3.50    1.11
  -1   8   8    3.14    0.48
  -1   8   8    3.26    1.10
   0  -8  -8    9.25    1.43
   0  -8  -8    7.60    0.68
   0   8   8    8.09    1.39
   0   8   8    7.82    0.52
   1  10  -9    0.63    0.92
   1  10  -9    1.21    0.76
  -1 -10   9    1.23    0.60
  -1 -10   9    0.65    0.78
  -1 -10   9    0.35    0.93
   0  10  -9   25.80    2.00
   0  10  -9   19.30    2.08
   0  10  -9   21.79    1.75
   0 -10   9   25.87    1.62
   0 -10   9   24.78    1.73
   0 -10   9   26.45    2.33
  -1  10  -9    4.17    0.77
  -1  10  -9    2.78    1.31
  -1  10  -9    2.09    1.01
   1 -10   9    2.35    1.14
   1 -10   9    2.58    0.87
   1 -10   9    2.56    0.85
  -2  10  -9   -0.88    1.18
  -2  10  -9    0.28    0.54
  -2  10  -9    0.33    0.98
   2 -10   9   -0.37    0.81
   2 -10   9    0.00    0.74
   3   9  -9    1.27    0.91
   3   9  -9    0.09    0.91
  -3  -9   9    0.71    0.83
  -3  -9   9    0.33    0.87
  -3  -9   9    1.38    0.99
   2   9  -9   21.95    1.81
   2   9  -9   24.40    1.66
  -2  -9   9   26.04    1.89
  -2  -9   9   26.46    2.00
   1   9  -9    1.46    0.69
  -1  -9   9    1.33    0.75
  -1  -9   9    1.00    0.56
  -1  -9   9    0.49    0.90
   0   9  -9   15.81    1.68
   0   9  -9   20.02    1.32
   0   9  -9   21.34    1.91
   0  -9   9   20.60    1.65
   0  -9   9   17.26    1.98
   0  -9   9   18.05    1.73
  -1   9  -9   25.63    1.39
  -1   9  -9   28.95    1.93
  -1   9  -9   27.09    2.30
   1  -9   9   22.74    1.71
   1  -9   9   29.78    1.81
   1  -9   9   27.61    1.88
  -2   9  -9    7.71    0.76
   2  -9   9    6.92    1.17
   2  -9   9    9.09    1.15
  -3   9  -9    2.44    0.61
  -3   9  -9    2.04    0.94
  -3   9  -9    4.38    1.09
   3  -9   9    1.95    0.83
   3  -9   9    3.04    1.11
  -4   9  -9    1.00    0.62
  -4   9  -9    2.31    1.56
  -4   9  -9    1.74    0.93
  -4   9  -9    3.40    1.08
   4  -9   9    1.25    0.79
   4  -9   9    2.13    1.22
   4   8  -9    3.31    1.08
  -4  -8   9    0.66    0.87
  -4  -8   9    5.25    1.72
  -4  -8   9    1.89    0.90
   3   8  -9    9.62    1.19
  -3  -8   9    7.27    1.19
  -3  -8   9    8.69    1.30
   2   8  -9   28.38    1.89
   2   8  -9   28.02    1.62
  -2  -8   9   23.27    1.85
  -2  -8   9   24.67    1.85
  -2  -8   9   24.61    1.14
   1   8  -9   22.52    1.40
   1   8  -9   23.88    1.79
  -1  -8   9   25.33    1.34
  -1  -8   9   22.59    1.78
  -1  -8   9   23.81    1.77
   0   8  -9    1.55    0.57
   0   8  -9    1.86    0.89
   0  -8   9    1.01    0.84
   0  -8   9    2.76    0.83
   0  -8   9    1.60    0.67
  -1   8  -9   26.68    1.88
  -1   8  -9   27.45    1.21
  -1   8  -9   27.89    1.31
   1  -8   9   25.53    1.78
   1  -8   9   25.60    1.87
   1  -8   9   25.68    1.73
  -2   8  -9    0.81    0.45
  -2   8  -9    0.52    0.80
   2  -8   9    2.18    0.92
   2  -8   9    0.17    0.72
  -3   8  -9   13.30    1.45
  -3   8  -9   10.93    1.32
  -3   8  -9   13.38    1.00
  -3   8  -9   11.12    1.27
   3  -8   9   11.91    1.30
   3  -8   9   10.96    1.47
  -4   8  -9    1.18    0.84
  -4   8  -9    2.91    1.00
  -4   8  -9    2.98    0.66
  -4   8  -9    2.44    0.78
   4  -8   9    1.97    0.84
   4  -8   9    1.47    1.11
  -5   8  -9    4.34    0.80
  -5   8  -9    5.02    1.21
  -5   8  -9    3.50    0.70
   5  -8   9    3.18    1.31
   5  -8   9    2.84    0.97
   5   7  -9    5.55    1.23
   5   7  -9    8.60    1.38
  -5  -7   9    4.23    1.08
  -5  -7   9    6.23    1.40
   4   7  -9    0.00    0.76
   4   7  -9   -0.13    0.84
  -4  -7   9   -1.74    0.78
   3   7  -9   24.45    1.63
  -3  -7   9   20.62    1.77
  -3  -7   9   20.64    1.78
  -3  -7   9   23.07    1.88
   2   7  -9    4.86    0.82
  -2  -7   9    4.02    0.98
  -2  -7   9    7.07    1.15
  -2  -7   9    6.73    1.09
  -2  -7   9    5.71    0.55
   1   7  -9   45.86    1.85
  -1  -7   9   46.26    1.82
  -1  -7   9   48.46    2.33
  -1  -7   9   46.73    2.34
   0   7  -9    0.40    0.43
   0  -7   9    0.53    0.70
   0  -7   9   -0.07    0.57
   0  -7   9    0.16    0.78
  -1   7  -9    5.37    1.33
  -1   7  -9    6.85    0.86
  -1   7  -9    6.45    0.62
   1  -7   9    5.79    1.03
   1  -7   9    6.28    1.06
   1  -7   9    4.69    0.94
  -2   7  -9    2.99    0.88
  -2   7  -9    2.04    0.44
  -2   7  -9    2.25    0.93
   2  -7   9    3.18    0.86
   2  -7   9    3.15    1.02
  -3   7  -9   23.52    2.56
  -3   7  -9   31.77    1.72
  -3   7  -9   31.31    1.94
  -3   7  -9   30.91    1.38
   3  -7   9   30.63    2.20
   3  -7   9   27.87    1.91
  -4   7  -9    2.77    1.01
  -4   7  -9    2.54    0.71
  -4   7  -9    1.20    0.91
  -4   7  -9    1.19    0.59
   4  -7   9    2.55    1.22
   4  -7   9    2.46    0.86
  -5   7  -9    0.02    0.91
  -5   7  -9   -0.96    0.48
  -5   7  -9   -1.45    1.37
  -5   7  -9   -0.01    0.60
   5  -7   9   -0.63    0.78
   5  -7   9    0.31    1.19
   6   6  -9    4.12    1.06
   6   6  -9    4.69    1.24
  -6  -6   9    4.38    1.35
  -6  -6   9    4.34    1.26
   5   6  -9   56.92    2.89
   5   6  -9   53.66    2.58
  -5  -6   9   58.38    2.80
  -5  -6   9   55.45    2.68
   4   6  -9    1.82    0.78
   4   6  -9    0.89    1.10
  -4  -6   9    1.19    0.92
   3   6  -9    1.31    0.71
  -3  -6   9    0.72    0.83
  -3  -6   9   -0.26    0.77
  -3  -6   9    0.50    0.78
   2   6  -9    6.53    1.07
   2   6  -9    7.80    0.89
  -2  -6   9    7.49    1.12
  -2  -6   9    5.70    0.99
   1   6  -9   96.59    2.86
   1   6  -9   92.34    3.40
  -1  -6   9   96.03    3.84
  -1  -6   9   92.57    2.91
   0   6  -9   30.42    1.90
   0   6  -9   33.53    2.11
   0   6  -9   30.46    1.18
   0  -6   9   31.52    1.69
   0  -6   9   28.95    1.84
   0  -6   9   34.71    2.96
  -1   6  -9    1.89    0.84
  -1   6  -9    2.13    0.35
  -1   6  -9    2.55    1.01
  -1   6  -9    1.74    0.31
   1  -6   9    0.21    1.28
   1  -6   9    1.04    0.77
   1  -6   9    1.67    0.78
  -2   6  -9    6.57    1.05
  -2   6  -9    6.42    1.05
  -2   6  -9    8.83    1.12
  -2   6  -9    6.92    0.64
   2  -6   9    8.62    1.55
   2  -6   9    5.67    1.02
  -3   6  -9   12.43    1.19
  -3   6  -9   11.47    0.91
  -3   6  -9   12.44    1.37
  -3   6  -9   10.99    1.26
   3  -6   9    9.55    1.19
   3  -6   9   10.71    1.54
  -4   6  -9   20.79    1.76
  -4   6  -9   18.99    1.26
  -4   6  -9   20.50    1.25
   4  -6   9   20.89    1.70
   4  -6   9   23.05    2.23
  -5   6  -9    0.53    0.64
  -5   6  -9    0.29    0.47
  -5   6  -9    2.04    0.93
  -5   6  -9    2.28    0.95
   5  -6   9    0.71    1.38
   5  -6   9    0.79    0.86
  -6   6  -9    3.77    1.16
  -6   6  -9    3.28    1.07
  -6   6  -9    4.10    0.89
   6  -6   9    4.91    2.58
   6   5  -9    9.11    1.44
   6   5  -9   10.72    1.54
  -6  -5   9   12.40    1.55
  -6  -5   9   10.65    1.49
  -6  -5   9   10.99    1.35
   5   5  -9   41.53    2.17
   5   5  -9   41.89    2.48
   5   5  -9   30.16    2.07
  -5  -5   9   41.58    2.15
  -5  -5   9   40.05    2.33
   4   5  -9   18.88    1.53
   4   5  -9   21.92    2.08
  -4  -5   9   20.72    1.74
  -4  -5   9   25.67    1.57
  -4  -5   9   22.00    1.83
   3   5  -9   16.85    1.51
   3   5  -9   13.02    1.72
   3   5  -9   16.84    1.29
  -3  -5   9   16.48    1.59
  -3  -5   9   14.87    1.47
  -3  -5   9   18.23    1.66
   2   5  -9    4.99    0.98
   2   5  -9    5.55    1.28
   2   5  -9    4.13    0.65
  -2  -5   9    4.26    0.97
  -2  -5   9    4.88    0.48
  -2  -5   9    3.24    0.84
   1   5  -9   41.77    2.44
   1   5  -9   41.48    1.43
   1   5  -9   45.64    2.11
  -1  -5   9   42.48    2.16
  -1  -5   9   41.57    2.05
  -1  -5   9   39.61    1.70
   0   5  -9   77.88    2.90
   0   5  -9   81.91    3.27
   0  -5   9   80.85    2.92
   0  -5   9   77.30    3.01
   0  -5   9   73.18    2.82
  -1   5  -9    1.30    0.74
  -1   5  -9    1.35    0.74
  -1   5  -9    2.05    0.89
   1  -5   9    2.59    0.86
   1  -5   9    1.48    0.83
   1  -5   9    1.03    0.69
  -2   5  -9   22.17    1.52
  -2   5  -9   21.53    0.81
  -2   5  -9   22.50    1.54
  -2   5  -9   23.13    1.64
   2  -5   9   21.95    1.96
  -3   5  -9   -0.38    0.76
  -3   5  -9   -0.05    0.48
  -3   5  -9    0.67    0.64
   3  -5   9    1.07    1.02
   3  -5   9    0.20    0.68
  -4   5  -9   34.73    2.16
  -4   5  -9   36.84    1.64
  -4   5  -9   36.16    1.97
  -4   5  -9   33.66    1.52
   4  -5   9   39.35    2.55
   4  -5   9   34.11    2.11
  -5   5  -9    4.14    1.13
  -5   5  -9    4.00    0.76
  -5   5  -9    2.29    0.54
   5  -5   9    2.38    1.30
   5  -5   9    3.19    1.01
  -6   5  -9   -0.12    0.71
  -6   5  -9    1.06    1.10
  -6   5  -9    0.15    0.92
   6  -5   9    0.30    1.16
   6  -5   9   -1.36    0.92
   7   4  -9    9.12    1.33
   7   4  -9   12.02    1.50
  -7  -4   9   10.48    1.45
   6   4  -9   -0.13    0.92
   6   4  -9    0.19    0.97
  -6  -4   9    0.24    1.01
  -6  -4   9    0.44    0.87
  -6  -4   9    1.55    1.03
   5   4  -9   16.68    1.83
   5   4  -9   16.54    1.50
  -5  -4   9   19.77    1.61
  -5  -4   9   19.12    1.77
   4   4  -9   35.50    2.32
   4   4  -9   37.56    2.14
   4   4  -9   33.28    1.79
  -4  -4   9   37.42    2.15
  -4  -4   9   35.65    1.84
  -4  -4   9   36.44    2.16
   3   4  -9   30.33    2.10
   3   4  -9   31.41    1.58
   3   4  -9   34.71    2.24
  -3  -4   9   33.31    1.54
  -3  -4   9   35.64    2.01
  -3  -4   9   33.00    1.92
  -3  -4   9   37.92    2.60
   2   4  -9    0.23    0.68
   2   4  -9    0.09    0.89
   2   4  -9   -0.16    0.39
  -2  -4   9    0.81    0.70
  -2  -4   9   -0.22    0.66
  -2  -4   9   -0.21    0.30
   1   4  -9    0.40    0.62
   1   4  -9    0.06    0.14
   1   4  -9   -0.07    0.84
  -1  -4   9    0.14    0.50
  -1  -4   9   -0.15    0.61
  -1  -4   9    0.22    0.61
   0   4  -9  218.64    6.56
   0   4  -9  227.76    6.25
   0  -4   9  222.68    6.21
   0  -4   9  232.54    6.47
   0  -4   9  222.55    6.40
  -1   4  -9    1.48    0.66
  -1   4  -9    0.18    0.75
  -1   4  -9    0.19    0.63
   1  -4   9   -0.31    0.63
   1  -4   9    1.06    0.85
   1  -4   9    0.44    0.61
  -2   4  -9   20.32    1.45
  -2   4  -9   20.14    1.58
  -2   4  -9   19.06    1.10
  -2   4  -9   21.96    1.45
   2  -4   9   23.45    1.67
   2  -4   9   19.15    1.93
  -3   4  -9    7.60    0.92
  -3   4  -9    7.29    0.66
  -3   4  -9    9.67    1.26
  -3   4  -9   10.30    1.06
   3  -4   9    6.66    1.05
   3  -4   9    5.90    1.36
  -4   4  -9   22.54    1.30
  -4   4  -9   19.77    1.53
  -4   4  -9   21.59    1.85
  -4   4  -9   18.35    0.95
  -4   4  -9   20.45    1.19
   4  -4   9   20.14    2.11
   4  -4   9   24.18    1.87
  -5   4  -9   17.29    1.35
  -5   4  -9   18.54    1.90
  -5   4  -9   19.05    1.58
  -5   4  -9   18.04    1.02
   5  -4   9   18.29    2.06
   5  -4   9   17.93    1.84
  -6   4  -9   -1.28    1.08
  -6   4  -9    0.09    0.69
   6  -4   9    0.10    1.29
   6  -4   9   -0.24    0.91
   7   3  -9   13.70    1.52
   7   3  -9   12.32    1.46
  -7  -3   9    9.20    1.45
  -7  -3   9   13.00    1.52
   6   3  -9    6.09    1.06
   6   3  -9    6.82    1.30
  -6  -3   9    6.62    1.29
  -6  -3   9    7.76    1.34
  -6  -3   9    6.92    1.19
   5   3  -9   17.40    1.81
   5   3  -9   18.59    1.50
  -5  -3   9   15.97    1.62
  -5  -3   9   15.49    1.46
  -5  -3   9   20.70    1.90
   4   3  -9   26.73    1.86
   4   3  -9   26.99    1.57
   4   3  -9   26.22    2.00
  -4  -3   9   28.58    1.91
  -4  -3   9   29.14    1.67
  -4  -3   9   29.92    1.99
   3   3  -9    7.77    0.79
   3   3  -9    5.79    1.01
   3   3  -9    7.18    1.29
  -3  -3   9    6.35    0.79
  -3  -3   9    7.18    1.16
  -3  -3   9    8.72    1.14
  -3  -3   9    8.19    1.07
   2   3  -9   72.88    2.14
   2   3  -9   77.57    2.82
   2   3  -9   72.08    3.16
  -2  -3   9   75.00    2.76
  -2  -3   9   79.28    3.07
  -2  -3   9   73.56    2.89
  -2  -3   9   75.70    2.19
  -2  -3   9   72.50    2.51
   1   3  -9   -0.38    0.78
   1   3  -9    0.22    0.60
  -1  -3   9    0.70    0.60
  -1  -3   9    0.30    0.65
  -1  -3   9    0.86    0.61
   0   3  -9   79.93    2.92
   0   3  -9   75.51    2.48
   0   3  -9   77.00    3.03
   0   3  -9   74.63    2.65
   0  -3   9   78.57    2.67
   0  -3   9   78.01    2.94
   0  -3   9   73.88    3.04
  -1   3  -9  109.11    3.16
  -1   3  -9  103.14    3.68
  -1   3  -9  109.87    3.68
  -1   3  -9  110.59    3.40
   1  -3   9  108.02    3.35
   1  -3   9  107.04    4.09
   1  -3   9  116.96    3.77
  -2   3  -9    0.39    0.65
  -2   3  -9    0.04    1.28
  -2   3  -9    1.54    0.51
  -2   3  -9    0.77    0.56
   2  -3   9    0.69    0.75
   2  -3   9    0.99    0.98
  -3   3  -9    8.34    0.97
  -3   3  -9    8.06    0.90
  -3   3  -9    9.09    0.83
   3  -3   9    6.15    1.42
   3  -3   9    6.03    1.03
  -4   3  -9    1.28    0.55
  -4   3  -9    0.71    0.56
  -4   3  -9   -0.05    0.57
   4  -3   9   -0.10    0.75
   4  -3   9    1.30    1.15
   4  -3   9   -0.70    0.45
  -5   3  -9   20.43    1.43
  -5   3  -9   18.77    1.51
  -5   3  -9   18.62    1.84
   5  -3   9   19.41    1.89
   5  -3   9   18.92    1.32
   5  -3   9   21.72    2.31
  -6   3  -9   -1.39    1.02
  -6   3  -9   -0.52    0.78
  -6   3  -9    0.27    0.71
   6  -3   9   -0.02    1.19
   6  -3   9   -2.09    0.82
   6  -3   9   -1.13    0.66
   8   2  -9    5.54    1.14
   7   2  -9    2.24    0.92
   7   2  -9    1.19    0.88
  -7  -2   9    1.15    1.02
  -7  -2   9    3.97    1.18
   6   2  -9   32.99    1.98
   6   2  -9   35.39    2.18
  -6  -2   9   34.03    2.26
  -6  -2   9   29.62    2.17
   5   2  -9   22.82    1.91
   5   2  -9   22.97    1.60
  -5  -2   9   25.08    1.75
  -5  -2   9   26.57    1.89
   4   2  -9  230.87    7.13
   4   2  -9  238.82    6.48
  -4  -2   9  234.57    6.64
  -4  -2   9  242.94    6.92
  -4  -2   9  256.53    7.19
   3   2  -9  155.66    4.38
   3   2  -9  158.52    5.27
   3   2  -9  163.21    4.93
  -3  -2   9  166.52    4.94
  -3  -2   9  166.69    4.90
  -3  -2   9  162.63    4.59
  -3  -2   9  158.86    4.09
  -3  -2   9  162.90    5.16
   2   2  -9   41.45    2.26
   2   2  -9   43.81    1.99
  -2  -2   9   42.83    1.51
  -2  -2   9   39.37    1.85
  -2  -2   9   42.88    2.21
  -2  -2   9   40.16    2.03
   1   2  -9    3.71    0.73
   1   2  -9    3.92    0.80
   1   2  -9    4.14    1.05
  -1  -2   9    3.91    0.82
  -1  -2   9    4.54    0.77
   0   2  -9    5.27    0.70
   0   2  -9    6.78    1.07
   0   2  -9    5.42    0.89
   0   2  -9    7.08    0.83
   0  -2   9    4.40    0.64
   0  -2   9    6.67    0.94
  -1   2  -9  246.74    6.83
  -1   2  -9  246.51    6.35
  -1   2  -9  243.96    6.81
  -1   2  -9  240.81    6.39
   1  -2   9  247.23    6.84
   1  -2   9  237.18    6.29
  -2   2  -9    6.80    1.03
  -2   2  -9    7.28    0.82
  -2   2  -9    6.53    0.72
  -2   2  -9    8.85    1.04
   2  -2   9    5.52    0.96
   2  -2   9    8.40    0.62
  -3   2  -9   19.80    1.33
  -3   2  -9   18.84    1.23
  -3   2  -9   20.11    1.21
   3  -2   9   21.24    1.17
   3  -2   9   17.99    1.86
   3  -2   9   20.59    2.20
  -4   2  -9    0.60    0.57
  -4   2  -9    0.39    0.54
   4  -2   9    0.29    0.81
   4  -2   9    0.76    0.58
  -5   2  -9   24.31    2.08
  -5   2  -9   23.80    1.59
  -5   2  -9   21.52    1.49
   5  -2   9   24.57    1.56
   5  -2   9   19.11    2.06
   5  -2   9   27.08    2.09
  -6   2  -9    0.87    1.10
  -6   2  -9    1.79    0.83
  -6   2  -9    1.73    0.92
   6  -2   9    1.15    0.76
   6  -2   9    2.14    1.30
   6  -2   9    3.13    1.12
   8   1  -9    1.28    1.41
   8   1  -9    3.95    0.98
   8   1  -9    4.58    1.77
  -8  -1   9    4.09    1.15
  -8  -1   9    3.74    1.28
   7   1  -9   12.12    1.34
   7   1  -9   13.71    1.45
  -7  -1   9   13.67    1.63
  -7  -1   9   13.71    1.54
   6   1  -9   43.30    2.26
  -6  -1   9   48.20    2.90
  -6  -1   9   48.07    2.53
   5   1  -9    6.41    0.96
   5   1  -9    5.41    1.23
  -5  -1   9    5.03    0.47
  -5  -1   9    5.33    1.31
  -5  -1   9    4.15    0.94
   4   1  -9    3.84    0.72
   4   1  -9    3.17    1.07
  -4  -1   9    2.60    0.75
  -4  -1   9    3.27    0.42
  -4  -1   9    1.56    1.56
  -4  -1   9    2.39    0.87
   3   1  -9   43.00    2.40
  -3  -1   9   45.89    2.38
  -3  -1   9   45.63    1.77
  -3  -1   9   45.25    2.10
  -3  -1   9   44.22    1.92
  -3  -1   9   44.69    2.08
   2   1  -9    0.69    0.72
   2   1  -9    1.11    0.64
   2   1  -9    1.55    0.90
  -2  -1   9    0.59    0.44
  -2  -1   9    0.57    0.76
  -2  -1   9    0.67    0.63
  -2  -1   9    0.68    0.55
   1   1  -9   71.00    2.44
   1   1  -9   71.76    2.97
   1   1  -9   73.75    2.61
  -1  -1   9   72.50    2.01
  -1  -1   9   68.21    2.65
  -1  -1   9   70.18    2.35
   0   1  -9    3.78    0.58
   0   1  -9    4.68    0.81
   0   1  -9    2.95    0.74
   0   1  -9    4.74    1.04
   0  -1   9    3.91    0.56
   0  -1   9    3.56    0.33
   0  -1   9    4.92    0.89
   0  -1   9    4.03    0.34
  -1   1  -9   53.49    2.33
  -1   1  -9   49.71    2.22
  -1   1  -9   51.27    1.73
  -1   1  -9   49.49    2.05
   1  -1   9   49.78    1.61
   1  -1   9   52.37    2.31
  -2   1  -9   20.92    1.03
  -2   1  -9   20.62    1.34
  -2   1  -9   21.39    1.46
  -2   1  -9   21.02    1.57
   2  -1   9   21.20    1.16
   2  -1   9   20.53    1.60
  -3   1  -9    6.03    1.07
  -3   1  -9    7.82    0.72
  -3   1  -9    8.70    1.02
   3  -1   9    6.71    1.74
   3  -1   9    7.19    0.83
  -4   1  -9    3.51    0.63
   4  -1   9    4.07    0.78
   4  -1   9    4.64    1.10
  -5   1  -9    1.55    0.99
  -5   1  -9    0.72    0.57
  -5   1  -9   -0.19    0.70
   5  -1   9   -0.06    0.67
   5  -1   9    1.64    1.11
   5  -1   9   -0.14    0.90
  -6   1  -9   13.58    1.32
  -6   1  -9   10.50    1.71
  -6   1  -9   11.81    1.28
   6  -1   9   10.44    1.23
   6  -1   9   13.91    1.93
   8   0  -9    3.56    2.46
   8   0  -9    2.46    0.94
  -8   0   9    4.45    1.16
   7   0  -9   15.07    1.49
   7   0  -9   12.05    1.75
   7   0  -9   12.66    1.43
  -7   0   9   13.46    1.55
  -7   0   9   12.74    1.60
   6   0  -9    3.53    1.10
   6   0  -9    5.60    1.03
   6   0  -9    4.25    1.27
  -6   0   9    6.20    1.23
  -6   0   9    4.48    0.62
  -6   0   9    4.27    1.77
   5   0  -9   66.50    2.94
  -5   0   9   64.58    2.75
  -5   0   9   64.40    3.05
  -5   0   9   63.17    2.83
  -5   0   9   61.76    2.08
   4   0  -9   -0.54    0.82
  -4   0   9   -0.58    0.57
  -4   0   9   -0.12    0.70
  -4   0   9    0.18    0.55
  -4   0   9    0.52    0.42
  -4   0   9   -0.65    0.78
   3   0  -9   45.26    2.39
   3   0  -9   44.61    2.14
  -3   0   9   45.48    2.02
  -3   0   9   46.08    1.89
  -3   0   9   43.24    1.95
  -3   0   9   43.52    1.77
  -3   0   9   45.76    2.30
   2   0  -9   28.77    1.73
   2   0  -9   31.68    1.98
  -2   0   9   30.78    1.36
  -2   0   9   31.17    1.61
  -2   0   9   28.54    1.82
  -2   0   9   29.68    1.45
   1   0  -9   65.70    2.88
   1   0  -9   69.47    2.53
   1   0  -9   66.29    2.57
  -1   0   9   68.97    2.09
  -1   0   9   71.51    2.58
  -1   0   9   69.15    2.16
   0   0  -9   17.83    1.37
   0   0  -9   16.80    0.91
   0   0  -9   15.61    1.47
   0   0  -9   17.65    1.35
   0   0   9   19.32    1.04
   0   0   9   18.85    1.35
   0   0   9   18.13    0.83
  -1   0  -9   18.10    1.39
  -1   0  -9   15.76    0.74
  -1   0  -9   16.37    1.40
  -1   0  -9   14.14    1.41
   1   0   9   15.85    1.00
   1   0   9   14.69    1.36
  -2   0  -9   19.84    1.41
  -2   0  -9   18.68    1.55
  -2   0  -9   17.32    0.73
   2   0   9   15.30    1.56
   2   0   9   17.36    1.19
  -3   0  -9    9.42    0.73
  -3   0  -9    9.42    1.22
   3   0   9   12.82    1.69
   3   0   9   11.26    1.08
  -4   0  -9   22.08    1.08
  -4   0  -9   19.13    2.56
   4   0   9   25.02    1.63
   4   0   9   23.20    1.97
  -5   0  -9    3.89    0.64
  -5   0  -9    3.76    1.14
   5   0   9    3.27    1.09
   5   0   9    2.19    0.85
   5   0   9    2.04    1.24
  -6   0  -9    7.34    1.49
  -6   0  -9   11.12    1.02
  -6   0  -9    9.55    0.92
   6   0   9   10.76    1.67
   6   0   9   10.35    1.25
   6   0   9    9.20    1.68
   8  -1  -9    0.54    0.79
  -8   1   9    2.73    1.20
  -8   1   9    1.77    1.07
   7  -1  -9    0.77    0.99
   7  -1  -9    2.75    1.15
  -7   1   9    0.89    1.01
  -7   1   9    0.31    0.54
  -7   1   9    0.97    0.95
   6  -1  -9    3.43    1.13
   6  -1  -9    4.72    1.16
  -6   1   9    2.81    0.64
  -6   1   9    3.40    1.10
  -6   1   9    3.18    1.05
   5  -1  -9   92.36    3.64
  -5   1   9   97.06    3.45
  -5   1   9   99.11    3.68
  -5   1   9   96.44    3.84
  -5   1   9   96.45    3.04
   4  -1  -9    8.43    1.35
   4  -1  -9    8.03    1.23
  -4   1   9    7.11    1.05
  -4   1   9    6.73    0.82
  -4   1   9    9.01    1.05
  -4   1   9    6.98    0.84
  -4   1   9    8.38    1.26
   3  -1  -9   -0.28    0.85
   3  -1  -9   -0.82    0.68
  -3   1   9    0.08    0.57
  -3   1   9   -0.20    0.53
  -3   1   9   -0.60    0.66
  -3   1   9    0.17    0.50
  -3   1   9    0.21    0.55
   2  -1  -9    9.40    1.32
   2  -1  -9    7.10    1.09
  -2   1   9    8.21    0.78
  -2   1   9    9.07    0.88
  -2   1   9    7.63    0.94
  -2   1   9   10.18    1.17
  -2   1   9    5.96    0.75
   1  -1  -9  107.80    3.35
   1  -1  -9  105.30    3.57
   1  -1  -9  104.47    3.84
  -1   1   9  108.49    3.62
  -1   1   9  107.33    2.92
  -1   1   9  110.87    3.40
   0  -1  -9   55.69    2.35
   0  -1  -9   51.94    2.17
   0  -1  -9   54.66    2.53
   0   1   9   54.02    2.23
  -1  -1  -9    0.77    0.77
  -1  -1  -9    0.33    0.61
   1   1   9   -0.08    0.61
   1   1   9    0.12    0.49
  -2  -1  -9   28.87    1.77
  -2  -1  -9   28.20    1.80
   2   1   9   28.94    1.54
   2   1   9   26.87    1.85
  -3  -1  -9    0.27    0.86
   3   1   9    0.66    0.79
   3   1   9    0.78    0.66
  -4  -1  -9   31.05    1.04
  -4  -1  -9   33.70    2.23
  -4  -1  -9   31.26    1.04
   4   1   9   30.12    2.23
   4   1   9   34.54    1.97
  -5  -1  -9    1.55    0.45
  -5  -1  -9    1.31    0.44
  -5  -1  -9    0.20    1.06
   5   1   9    1.13    0.85
   5   1   9   -0.31    0.93
   8  -2  -9    6.01    1.02
  -8   2   9    5.07    1.07
  -8   2   9    3.17    1.20
  -8   2   9    6.95    1.31
  -8   2   9    6.22    0.92
   7  -2  -9    8.63    1.50
   7  -2  -9    7.66    1.50
  -7   2   9    7.27    1.31
  -7   2   9   10.93    1.05
  -7   2   9    9.12    1.49
   6  -2  -9    1.03    1.05
   6  -2  -9    0.85    0.90
  -6   2   9    0.72    0.62
  -6   2   9    1.45    1.02
  -6   2   9    0.74    0.87
   5  -2  -9   21.25    1.92
   5  -2  -9   19.74    1.84
  -5   2   9   20.35    1.64
  -5   2   9   16.64    1.61
  -5   2   9   21.09    1.41
  -5   2   9   19.59    1.30
  -5   2   9   21.13    1.91
   4  -2  -9   67.61    3.02
   4  -2  -9   70.62    2.89
  -4   2   9   65.27    2.95
  -4   2   9   69.37    2.81
  -4   2   9   72.44    2.42
  -4   2   9   71.74    2.63
  -4   2   9   68.08    2.67
   3  -2  -9    0.58    0.91
  -3   2   9    0.43    0.44
  -3   2   9    0.53    0.59
  -3   2   9    0.63    0.78
  -3   2   9    0.45    0.55
  -3   2   9   -1.00    0.55
   2  -2  -9    7.71    1.27
   2  -2  -9    8.93    1.21
  -2   2   9   12.01    0.98
  -2   2   9    9.50    1.11
  -2   2   9   10.15    0.88
  -2   2   9   11.14    1.20
   1  -2  -9    0.98    0.81
   1  -2  -9    0.03    0.46
  -1   2   9    0.86    0.64
  -1   2   9    0.19    0.25
  -1   2   9    0.15    0.48
   0  -2  -9  114.58    3.57
   0  -2  -9  118.59    3.92
   0   2   9  115.18    3.67
  -1  -2  -9    5.09    1.55
  -1  -2  -9    2.60    0.72
   1   2   9    1.72    0.63
   1   2   9    3.15    0.85
  -2  -2  -9    0.82    0.74
  -2  -2  -9    1.49    0.94
   2   2   9    1.74    0.69
   2   2   9    1.82    0.83
  -3  -2  -9    5.93    1.14
   3   2   9    3.50    0.83
   3   2   9    2.34    0.94
  -4  -2  -9    3.59    1.12
   4   2   9    3.64    0.93
   4   2   9    3.38    1.12
  -5  -2  -9    1.66    1.32
  -5  -2  -9    2.92    0.28
   5   2   9    2.46    0.99
   8  -3  -9    0.01    1.21
   8  -3  -9    2.51    0.88
  -8   3   9    2.73    1.52
  -8   3   9    1.88    0.90
  -8   3   9    1.08    0.90
  -8   3   9    1.41    1.14
   7  -3  -9    4.55    1.36
  -7   3   9    3.85    1.07
  -7   3   9    3.40    0.87
  -7   3   9    2.25    1.16
   6  -3  -9    2.59    1.16
  -6   3   9    1.52    1.03
  -6   3   9    1.87    0.75
  -6   3   9    2.53    0.97
   5  -3  -9    2.02    0.99
   5  -3  -9    0.76    0.89
  -5   3   9    0.74    0.46
  -5   3   9    0.74    0.95
  -5   3   9    2.03    0.77
  -5   3   9    0.94    0.85
   4  -3  -9   49.02    2.44
  -4   3   9   50.89    2.60
  -4   3   9   54.91    2.38
  -4   3   9   49.06    2.35
  -4   3   9   52.77    2.29
  -4   3   9   57.07    1.89
   3  -3  -9   -0.28    0.75
  -3   3   9   -0.23    0.74
  -3   3   9   -0.64    0.54
  -3   3   9   -0.11    0.61
  -3   3   9   -0.20    0.36
  -3   3   9    0.62    0.71
   2  -3  -9    5.11    1.08
  -2   3   9    4.38    0.59
  -2   3   9    3.84    0.84
  -2   3   9    3.98    0.93
  -2   3   9    4.94    0.61
   1  -3  -9    3.81    0.62
   1  -3  -9    4.10    1.05
  -1   3   9    3.24    0.63
  -1   3   9    3.79    0.34
  -1   3   9    3.28    0.73
  -1   3   9    3.97    0.98
  -1   3   9    3.90    0.35
   0  -3  -9   54.16    2.56
   0  -3  -9   56.65    2.12
   0   3   9   55.43    2.27
   0   3   9   56.74    2.16
  -1  -3  -9   24.58    1.81
  -1  -3  -9   23.61    1.47
   1   3   9   26.48    1.57
   1   3   9   23.30    1.66
  -2  -3  -9    0.00    0.70
   2   3   9   -0.08    0.69
   2   3   9    0.30    0.70
  -3  -3  -9    1.11    0.81
   3   3   9    4.49    1.14
   3   3   9    1.56    0.81
  -4  -3  -9    2.81    1.08
   4   3   9    1.05    0.84
   7  -4  -9   -0.48    1.08
  -7   4   9   -0.18    0.62
  -7   4   9    1.67    0.94
  -7   4   9    0.74    0.80
   6  -4  -9    3.60    1.20
  -6   4   9    2.84    0.54
  -6   4   9    3.16    0.71
  -6   4   9    4.54    1.04
  -6   4   9    2.67    1.00
   5  -4  -9    1.51    0.91
   5  -4  -9    1.65    1.00
  -5   4   9    4.04    1.00
  -5   4   9    2.83    0.47
  -5   4   9    3.26    0.93
   4  -4  -9   18.91    1.65
  -4   4   9   18.13    1.54
  -4   4   9   23.59    1.70
   3  -4  -9   21.60    1.70
  -3   4   9   23.46    1.81
  -3   4   9   23.60    1.05
  -3   4   9   21.60    1.70
   2  -4  -9   15.31    1.58
  -2   4   9   16.23    1.61
  -2   4   9   13.32    0.95
  -2   4   9   11.38    1.17
  -2   4   9   14.72    0.95
   1  -4  -9    1.25    0.99
   1  -4  -9    0.13    0.38
  -1   4   9    0.32    0.48
  -1   4   9    0.47    0.58
   0  -4  -9   -0.06    0.86
   0  -4  -9   -0.35    0.44
   0   4   9    0.37    0.49
   0   4   9    0.74    0.63
   0   4   9   -0.17    0.78
  -1  -4  -9   29.10    1.57
  -1  -4  -9   31.84    2.04
   1   4   9   31.52    1.93
   1   4   9   32.27    2.11
   1   4   9   28.98    1.36
  -2  -4  -9   -0.26    1.25
   2   4   9   -1.07    0.65
   3   4   9   -0.11    0.82
  -4  -4  -9   -1.81    0.96
   4   4   9   -0.34    0.82
   7  -5  -9    3.55    1.23
  -7   5   9    3.30    0.64
  -7   5   9    1.95    0.48
  -7   5   9    1.76    1.02
  -7   5   9    2.12    1.02
   6  -5  -9    3.21    1.14
  -6   5   9    1.91    0.48
  -6   5   9    2.41    0.95
  -6   5   9    1.27    0.90
   5  -5  -9   -0.12    0.87
   5  -5  -9    0.07    0.78
  -5   5   9   -0.40    0.83
  -5   5   9   -0.11    0.20
  -5   5   9    0.18    0.30
  -5   5   9   -0.15    0.77
   4  -5  -9    1.14    0.94
  -4   5   9    2.52    0.86
  -4   5   9    1.92    0.93
   3  -5  -9   13.91    1.56
  -3   5   9   15.72    1.64
   2  -5  -9   -0.36    0.86
  -2   5   9    0.29    0.37
  -2   5   9   -2.05    0.72
   1  -5  -9    4.40    0.51
   1  -5  -9    4.11    1.08
  -1   5   9    4.45    1.06
   0  -5  -9    1.23    0.48
   0  -5  -9    1.74    1.08
   0   5   9    1.49    0.50
   0   5   9    2.00    0.98
  -1  -5  -9   27.24    2.02
  -1  -5  -9   26.79    1.49
   1   5   9   26.39    2.05
   1   5   9   27.75    1.12
   1   5   9   26.22    1.83
  -2  -5  -9    4.47    1.27
  -2  -5  -9    7.50    1.02
   2   5   9    6.35    0.56
   2   5   9    6.37    1.13
   3   5   9    0.43    0.93
   3   5   9    0.03    0.29
   6  -6  -9    6.57    1.23
   6  -6  -9    6.92    1.30
  -6   6   9    8.76    1.31
  -6   6   9    7.03    1.22
   5  -6  -9   22.40    1.76
   5  -6  -9   23.79    1.79
  -5   6   9   19.77    1.72
  -5   6   9   25.04    1.98
   4  -6  -9    2.67    1.06
  -4   6   9    4.10    0.99
  -4   6   9    3.45    1.09
   3  -6  -9   11.30    1.45
  -3   6   9   13.07    1.03
  -3   6   9   10.08    1.38
   2  -6  -9    3.32    1.12
  -2   6   9    2.71    1.00
  -2   6   9    2.73    0.47
   1  -6  -9    5.55    1.21
  -1   6   9    6.70    0.37
  -1   6   9    5.71    1.20
  -1   6   9    5.24    0.36
   0  -6  -9    4.94    0.60
   0  -6  -9    7.14    1.32
   0   6   9    3.90    1.12
  -1  -6  -9    5.88    1.32
  -1  -6  -9    5.85    0.75
   1   6   9    4.53    1.22
   1   6   9    7.69    1.19
  -2  -6  -9    2.73    0.79
  -2  -6  -9    2.97    1.17
   2   6   9    1.35    1.08
   2   6   9    1.78    1.03
   5  -7  -9    5.71    1.23
  -5   7   9    4.56    1.20
  -5   7   9    4.64    1.14
  -5   7   9    2.75    0.84
   4  -7  -9    1.20    0.98
  -4   7   9    2.07    1.03
  -4   7   9   -0.59    0.84
   3  -7  -9    6.22    1.22
  -3   7   9    6.23    0.73
  -3   7   9    5.45    1.22
   2  -7  -9    9.87    1.42
  -2   7   9    9.68    0.79
  -2   7   9   11.40    1.52
   1  -7  -9    1.86    1.05
  -1   7   9    2.05    0.28
  -1   7   9    1.05    1.00
   0  -7  -9    3.28    0.49
   0  -7  -9    1.63    1.10
   0   7   9    3.29    1.12
   0   7   9    3.19    1.10
  -1  -7  -9    1.67    0.54
  -1  -7  -9    0.60    1.02
   1   7   9    1.25    1.05
   1   7   9    1.14    1.01
   4  -8  -9    8.40    1.32
   3  -8  -9    5.08    1.21
  -3   8   9    5.06    0.73
  -3   8   9    4.74    1.37
   2  -8  -9    5.31    1.23
  -2   8   9    5.47    0.58
  -2   8   9    3.49    1.21
   1  -8  -9   -0.18    0.95
  -1   8   9   -0.05    0.44
  -1   8   9    0.19    0.98
   2   9 -10    2.18    0.80
   2   9 -10    2.09    1.02
  -2  -9  10    1.11    0.86
  -2  -9  10    0.77    0.85
   1   9 -10    8.36    0.95
   1   9 -10    8.91    1.29
  -1  -9  10    7.42    0.83
  -1  -9  10    8.59    1.23
  -1  -9  10    8.79    1.30
   0   9 -10    6.84    0.81
   0   9 -10    6.82    1.20
   0  -9  10    7.14    1.07
   0  -9  10    9.47    1.27
   0  -9  10    6.69    1.05
  -1   9 -10   14.21    0.96
  -1   9 -10   14.41    1.07
  -1   9 -10   12.36    1.44
   1  -9  10   17.43    1.62
   1  -9  10   17.91    1.52
   1  -9  10   15.26    1.57
  -2   9 -10    2.72    1.05
  -2   9 -10    2.02    0.98
  -2   9 -10    3.16    0.58
  -2   9 -10    3.81    0.57
   2  -9  10    1.24    0.82
   2  -9  10    2.79    1.04
  -3   9 -10   11.19    0.96
  -3   9 -10    8.90    1.33
  -3   9 -10   13.73    1.36
   3  -9  10    7.60    1.11
   3  -9  10   10.66    1.51
   4   8 -10   10.20    1.64
   4   8 -10    5.95    1.13
  -4  -8  10    7.83    1.34
  -4  -8  10    6.61    1.20
  -4  -8  10    5.02    1.31
   3   8 -10   33.09    2.11
   3   8 -10   35.33    1.94
  -3  -8  10   37.46    2.27
  -3  -8  10   35.29    2.14
  -3  -8  10   32.64    2.10
   2   8 -10   -0.64    0.82
   2   8 -10   -0.03    0.62
  -2  -8  10   -1.05    0.81
  -2  -8  10   -0.20    0.71
  -2  -8  10    0.01    0.37
  -2  -8  10    1.00    0.84
   1   8 -10    6.66    0.80
   1   8 -10    7.79    1.21
  -1  -8  10    8.65    1.23
  -1  -8  10    7.15    0.79
  -1  -8  10    8.57    1.18
   0   8 -10    0.22    0.46
   0   8 -10    0.36    0.79
   0  -8  10    0.58    0.76
   0  -8  10    0.78    0.62
   0  -8  10    0.64    0.81
  -1   8 -10   49.00    2.66
  -1   8 -10   48.62    1.69
  -1   8 -10   49.61    2.45
  -1   8 -10   49.36    1.59
   1  -8  10   49.30    2.40
   1  -8  10   49.22    2.34
   1  -8  10   52.20    2.41
  -2   8 -10    5.61    1.18
  -2   8 -10    6.02    0.58
  -2   8 -10    5.87    0.58
  -2   8 -10    7.99    1.18
   2  -8  10    5.53    1.12
   2  -8  10    4.86    0.96
  -3   8 -10    0.91    0.93
  -3   8 -10    0.94    0.77
  -3   8 -10    0.49    0.82
  -3   8 -10   -0.23    0.45
   3  -8  10    0.85    0.85
   3  -8  10   -0.51    0.93
  -4   8 -10    3.06    0.65
  -4   8 -10    3.43    0.82
  -4   8 -10    3.61    1.06
  -4   8 -10    3.70    1.12
   4  -8  10    3.18    1.33
   4  -8  10    3.39    0.97
   5   7 -10    2.50    1.26
   5   7 -10    2.40    1.28
  -5  -7  10    1.22    1.06
  -5  -7  10    2.54    1.02
   4   7 -10   -0.27    0.89
   4   7 -10   -0.82    0.73
  -4  -7  10    0.66    0.92
  -4  -7  10    0.76    0.87
  -4  -7  10    0.10    0.78
   3   7 -10   56.29    2.68
   3   7 -10   59.15    2.37
  -3  -7  10   53.89    2.64
  -3  -7  10   55.65    2.68
   2   7 -10   13.00    1.42
   2   7 -10   13.13    1.20
  -2  -7  10   10.86    1.28
  -2  -7  10   13.38    0.80
  -2  -7  10   12.53    1.38
   1   7 -10    1.21    0.80
   1   7 -10    0.88    0.50
  -1  -7  10    1.48    0.77
  -1  -7  10    1.92    0.56
  -1  -7  10    1.16    0.85
   0   7 -10    9.07    0.88
   0   7 -10    9.25    1.46
   0  -7  10    6.49    1.08
   0  -7  10    9.47    1.22
   0  -7  10    9.23    1.05
  -1   7 -10   19.77    1.78
  -1   7 -10   18.87    0.76
  -1   7 -10   20.34    0.83
   1  -7  10   21.11    1.95
   1  -7  10   17.66    1.53
   1  -7  10   19.99    1.64
  -2   7 -10   27.06    0.97
  -2   7 -10   26.78    2.05
  -2   7 -10   27.72    1.87
  -2   7 -10   19.57    2.31
  -2   7 -10   24.88    1.00
   2  -7  10   28.80    1.89
   2  -7  10   27.73    2.02
  -3   7 -10    1.03    0.75
  -3   7 -10    1.39    0.84
  -3   7 -10    1.11    0.85
   3  -7  10    0.49    0.96
   3  -7  10    1.22    0.85
  -4   7 -10    2.41    0.60
  -4   7 -10    1.72    0.91
  -4   7 -10    1.22    0.65
  -4   7 -10    1.96    1.05
   4  -7  10    2.10    0.88
   4  -7  10    3.18    1.32
  -5   7 -10    0.15    0.99
  -5   7 -10   -0.04    0.54
  -5   7 -10    0.81    0.64
   5  -7  10    0.34    1.15
   5  -7  10   -0.79    1.25
   6   6 -10    0.45    1.07
   5   6 -10    8.02    1.53
   5   6 -10   12.76    1.49
   5   6 -10   11.48    1.25
  -5  -6  10   10.09    1.42
  -5  -6  10   10.03    1.42
   4   6 -10    2.22    0.94
   4   6 -10    0.26    0.68
   4   6 -10   -0.03    1.10
  -4  -6  10    1.25    0.86
  -4  -6  10    3.41    0.96
  -4  -6  10    1.18    0.94
   3   6 -10   42.57    2.68
   3   6 -10   41.28    2.19
   3   6 -10   39.12    1.85
  -3  -6  10   39.62    2.26
  -3  -6  10   43.30    2.28
   2   6 -10   47.85    1.88
   2   6 -10   54.26    2.94
  -2  -6  10   45.10    2.33
  -2  -6  10   50.11    1.61
  -2  -6  10   51.82    2.48
   1   6 -10   27.82    1.14
   1   6 -10   29.03    1.84
   1   6 -10   26.52    2.11
  -1  -6  10   28.63    1.43
  -1  -6  10   32.18    1.86
  -1  -6  10   28.36    1.89
   0   6 -10    2.48    0.85
   0  -6  10    3.02    0.94
   0  -6  10    2.61    0.73
   0  -6  10    4.52    0.93
  -1   6 -10    7.57    1.19
  -1   6 -10    7.51    1.09
   1  -6  10    6.59    1.21
   1  -6  10    7.13    1.09
   1  -6  10    8.81    1.21
  -2   6 -10   73.86    2.90
  -2   6 -10   77.85    2.93
  -2   6 -10   75.11    3.03
   2  -6  10   72.33    2.98
   2  -6  10   75.75    3.24
  -3   6 -10    4.17    0.82
  -3   6 -10    5.76    1.07
  -3   6 -10    2.14    0.93
  -3   6 -10    3.55    0.47
   3  -6  10    2.52    1.16
   3  -6  10    3.93    0.95
  -4   6 -10   -0.25    0.86
  -4   6 -10   -0.49    0.47
  -4   6 -10    0.66    0.61
   4  -6  10    0.07    0.75
   4  -6  10    2.84    1.23
  -5   6 -10    1.11    0.88
  -5   6 -10    1.64    0.66
  -5   6 -10    1.19    1.02
  -5   6 -10    1.19    0.57
   5  -6  10    2.23    0.92
   5  -6  10    2.83    1.38
   6   5 -10   10.39    1.57
  -6  -5  10   10.52    1.59
  -6  -5  10   11.34    1.36
  -6  -5  10    9.50    1.45
   5   5 -10   33.42    2.14
   5   5 -10   33.55    1.94
   5   5 -10   29.84    2.29
  -5  -5  10   32.36    2.19
  -5  -5  10   28.05    2.18
  -5  -5  10   33.48    1.91
   4   5 -10   20.12    1.67
   4   5 -10   15.85    1.88
   4   5 -10   18.23    1.41
  -4  -5  10   19.71    1.68
  -4  -5  10   20.89    1.78
   3   5 -10    2.19    0.62
   3   5 -10    3.40    1.22
   3   5 -10    2.27    0.88
  -3  -5  10    2.93    0.96
  -3  -5  10    2.68    0.99
  -3  -5  10    2.79    0.87
   2   5 -10   84.70    3.14
   2   5 -10   83.37    2.46
   2   5 -10   78.47    3.52
  -2  -5  10   82.06    3.18
   1   5 -10    9.00    1.24
   1   5 -10   11.12    1.59
  -1  -5  10    7.58    1.10
  -1  -5  10   10.26    1.17
  -1  -5  10    6.49    0.81
   0   5 -10    7.43    1.03
   0   5 -10   10.46    1.44
   0  -5  10    9.27    1.11
   0  -5  10   10.24    1.17
   0  -5  10    7.61    1.25
  -1   5 -10    1.57    0.80
  -1   5 -10    0.45    0.68
  -1   5 -10    1.62    0.87
   1  -5  10   -0.61    0.67
   1  -5  10    1.68    0.74
   1  -5  10   -1.68    0.75
  -2   5 -10   62.85    2.77
  -2   5 -10   58.91    2.48
  -2   5 -10   58.27    2.63
   2  -5  10   60.53    2.98
   2  -5  10   58.43    2.61
  -3   5 -10   18.43    0.82
  -3   5 -10   16.78    1.62
  -3   5 -10   20.44    1.38
  -3   5 -10   21.28    1.55
   3  -5  10   21.17    1.71
   3  -5  10   21.01    2.13
  -4   5 -10    4.26    0.76
  -4   5 -10    3.97    0.94
  -4   5 -10    4.00    0.62
  -4   5 -10    2.55    1.01
   4  -5  10    4.24    1.30
   4  -5  10    3.02    0.98
  -5   5 -10    0.94    0.62
  -5   5 -10    3.17    1.12
   5  -5  10    1.36    0.91
   5  -5  10    1.72    1.24
   7   4 -10    2.83    1.10
   7   4 -10    2.19    1.02
  -7  -4  10   -1.00    0.94
  -7  -4  10    1.03    1.12
  -7  -4  10   -0.75    1.11
   6   4 -10   44.70    2.53
   6   4 -10   46.31    2.36
  -6  -4  10   40.72    2.51
  -6  -4  10   38.12    2.61
  -6  -4  10   47.04    2.38
   5   4 -10   -0.27    0.65
   5   4 -10    1.04    1.07
  -5  -4  10   -0.62    0.83
  -5  -4  10    1.05    0.93
  -5  -4  10    0.21    0.71
   4   4 -10   35.48    2.42
   4   4 -10   35.64    1.76
  -4  -4  10   39.00    2.19
  -4  -4  10   34.51    2.10
  -4  -4  10   37.27    1.80
   3   4 -10   -0.06    0.99
   3   4 -10    0.36    0.75
   3   4 -10    0.91    0.49
  -3  -4  10    0.65    0.46
  -3  -4  10    1.01    0.76
  -3  -4  10    0.26    0.79
  -3  -4  10    1.02    0.90
   2   4 -10   48.73    1.47
   2   4 -10   42.73    2.16
   2   4 -10   45.51    2.63
  -2  -4  10   46.07    1.66
  -2  -4  10   49.90    2.35
  -2  -4  10   48.73    2.23
   1   4 -10   45.75    2.06
   1   4 -10   44.34    2.48
  -1  -4  10   43.66    1.93
  -1  -4  10   41.85    2.20
  -1  -4  10   40.60    1.99
   0   4 -10   34.43    2.05
   0   4 -10   37.10    1.84
   0  -4  10   37.17    2.02
   0  -4  10   38.30    2.05
   0  -4  10   34.72    1.78
  -1   4 -10   18.23    1.36
  -1   4 -10   20.90    1.59
   1  -4  10   18.66    1.36
   1  -4  10   22.89    1.85
   1  -4  10   20.45    1.86
  -2   4 -10   17.58    1.35
  -2   4 -10   15.68    0.90
  -2   4 -10   16.77    1.40
   2  -4  10   19.13    2.09
   2  -4  10   17.49    1.62
  -3   4 -10   35.00    1.73
  -3   4 -10   34.18    1.78
  -3   4 -10   33.12    1.27
   3  -4  10   35.46    2.09
   3  -4  10   37.72    2.52
  -4   4 -10    0.78    0.45
  -4   4 -10   -0.24    0.53
  -4   4 -10    0.09    0.47
  -4   4 -10    0.76    0.86
   4  -4  10    0.19    1.14
   4  -4  10   -0.01    0.79
  -5   4 -10    0.11    0.70
  -5   4 -10   -0.78    0.55
  -5   4 -10    0.08    0.49
  -5   4 -10   -0.04    1.26
   5  -4  10    0.23    0.87
   7   3 -10    1.36    0.98
   7   3 -10    2.12    1.02
  -7  -3  10    3.84    1.38
  -7  -3  10    4.22    1.19
   6   3 -10    4.17    1.16
   6   3 -10    5.30    1.05
  -6  -3  10    1.94    1.11
  -6  -3  10    2.64    1.14
  -6  -3  10    3.28    1.04
   5   3 -10    7.79    1.01
   5   3 -10    8.63    1.45
  -5  -3  10    7.35    1.25
  -5  -3  10    7.78    1.09
  -5  -3  10    3.59    1.12
   4   3 -10   40.53    2.42
   4   3 -10   42.03    1.83
  -4  -3  10   38.38    2.47
  -4  -3  10   39.80    2.28
  -4  -3  10   41.98    2.22
  -4  -3  10   41.91    1.91
   3   3 -10    1.19    0.47
   3   3 -10    0.96    0.98
   3   3 -10    0.25    0.74
  -3  -3  10    0.94    0.77
  -3  -3  10    1.05    0.25
  -3  -3  10    0.24    0.69
  -3  -3  10    1.61    0.53
  -3  -3  10    0.94    0.81
  -3  -3  10    0.99    0.27
   2   3 -10   18.52    1.47
   2   3 -10   17.33    1.80
  -2  -3  10   17.57    1.43
  -2  -3  10   18.45    1.18
  -2  -3  10   17.34    1.54
   1   3 -10   83.16    2.95
   1   3 -10   85.80    3.45
  -1  -3  10   84.91    3.11
  -1  -3  10   87.68    3.19
  -1  -3  10   90.36    2.96
   0   3 -10    7.37    1.22
   0   3 -10    5.37    0.94
   0   3 -10    4.05    0.74
   0   3 -10    5.14    0.83
   0  -3  10    6.46    1.14
   0  -3  10    5.44    0.81
   0  -3  10    5.50    0.93
  -1   3 -10    1.99    0.64
  -1   3 -10    1.45    0.76
  -1   3 -10    1.45    0.57
  -1   3 -10    2.62    0.90
   1  -3  10    2.29    1.05
   1  -3  10    1.29    0.76
   1  -3  10    1.04    0.58
  -2   3 -10   56.55    2.16
  -2   3 -10   57.65    1.99
  -2   3 -10   56.94    2.37
   2  -3  10   57.76    2.67
   2  -3  10   50.74    3.45
  -3   3 -10   11.44    1.13
  -3   3 -10   11.15    1.13
  -3   3 -10   10.69    0.93
   3  -3  10    9.74    1.27
   3  -3  10   11.22    1.66
  -4   3 -10    7.12    0.84
  -4   3 -10    6.03    0.88
  -4   3 -10    6.60    0.75
   4  -3  10    5.18    1.10
   4  -3  10    7.61    0.76
   4  -3  10    6.80    1.51
  -5   3 -10   11.31    1.30
  -5   3 -10   12.53    1.15
  -5   3 -10   14.79    1.11
   5  -3  10   12.83    1.52
   5  -3  10   11.44    1.13
   5  -3  10   14.55    3.26
   7   2 -10    8.99    1.34
   7   2 -10    9.01    1.26
  -7  -2  10    6.83    1.38
  -7  -2  10    7.20    1.30
   6   2 -10    0.22    0.71
   6   2 -10    0.53    0.94
  -6  -2  10    2.97    1.17
  -6  -2  10    0.36    1.03
  -6  -2  10    2.16    1.06
   5   2 -10   27.21    2.08
   5   2 -10   30.85    1.69
  -5  -2  10   28.01    1.85
  -5  -2  10   25.33    1.90
   4   2 -10   16.06    1.18
   4   2 -10   14.75    1.93
  -4  -2  10   16.87    1.59
  -4  -2  10   17.31    1.37
  -4  -2  10   14.65    1.49
   3   2 -10   51.80    2.66
   3   2 -10   53.60    2.37
  -3  -2  10   53.53    2.02
  -3  -2  10   52.15    2.38
  -3  -2  10   53.94    1.71
  -3  -2  10   55.91    2.72
  -3  -2  10   53.94    2.35
   2   2 -10   -0.06    0.59
   2   2 -10    0.40    0.92
  -2  -2  10    0.98    0.64
  -2  -2  10    0.38    0.66
  -2  -2  10    0.70    0.35
  -2  -2  10    1.63    0.86
   1   2 -10   31.41    2.02
   1   2 -10   32.14    1.68
   1   2 -10   33.54    1.63
  -1  -2  10   33.12    1.88
  -1  -2  10   31.35    1.55
   0   2 -10    5.55    0.83
   0   2 -10    4.22    0.84
   0   2 -10    6.55    0.77
   0   2 -10    6.88    1.20
   0  -2  10    5.41    0.69
   0  -2  10    4.70    0.88
  -1   2 -10   88.84    2.88
  -1   2 -10   86.33    3.24
  -1   2 -10   89.13    3.70
  -1   2 -10   88.19    2.75
   1  -2  10   90.29    3.27
  -2   2 -10   53.96    1.94
  -2   2 -10   49.25    2.44
  -2   2 -10   55.42    2.06
  -2   2 -10   58.45    2.37
   2  -2  10   54.45    1.55
   2  -2  10   40.56    3.35
  -3   2 -10   29.21    1.39
  -3   2 -10   26.64    1.54
  -3   2 -10   27.53    1.49
   3  -2  10   26.03    1.24
   3  -2  10   27.17    1.97
   3  -2  10   27.36    2.40
  -4   2 -10    8.13    1.02
  -4   2 -10    3.86    0.98
  -4   2 -10    7.46    0.85
   4  -2  10    7.46    1.24
   4  -2  10    7.65    1.61
   4  -2  10    5.89    0.79
  -5   2 -10    1.20    0.67
  -5   2 -10    2.53    1.83
   5  -2  10    1.07    0.66
   5  -2  10    1.19    0.96
   7   1 -10   18.78    1.68
   7   1 -10   17.47    1.62
  -7  -1  10   14.29    1.66
  -7  -1  10   19.41    1.91
   6   1 -10    1.74    1.01
   6   1 -10    1.34    0.79
  -6  -1  10    2.03    1.79
  -6  -1  10   -1.11    0.88
   5   1 -10   15.33    1.92
   5   1 -10   15.25    1.32
  -5  -1  10   14.11    1.48
  -5  -1  10   12.86    1.29
  -5  -1  10   13.72    0.69
   4   1 -10    1.50    1.00
  -4  -1  10    0.51    0.37
  -4  -1  10    1.28    0.93
  -4  -1  10    0.89    0.66
  -4  -1  10    1.11    0.70
  -4  -1  10    0.76    0.82
   3   1 -10  155.09    5.22
  -3  -1  10  155.84    4.49
  -3  -1  10  148.18    5.67
  -3  -1  10  160.90    4.78
  -3  -1  10  158.53    4.28
  -3  -1  10  161.97    4.72
   2   1 -10    4.67    1.15
   2   1 -10    4.40    0.97
  -2  -1  10    3.44    0.69
  -2  -1  10    4.69    0.82
  -2  -1  10    5.31    1.04
  -2  -1  10    5.22    0.61
   1   1 -10    3.74    0.85
   1   1 -10    4.93    1.16
   1   1 -10    3.20    0.64
  -1  -1  10    3.86    0.78
  -1  -1  10    4.63    0.66
  -1  -1  10    4.13    0.41
   0   1 -10   25.95    1.64
   0   1 -10   24.62    1.24
   0   1 -10   23.98    1.50
   0   1 -10   26.48    1.82
   0  -1  10   24.30    1.61
   0  -1  10   25.58    0.84
   0  -1  10   27.10    1.19
   0  -1  10   27.08    0.81
  -1   1 -10   70.00    2.85
  -1   1 -10   72.61    2.60
  -1   1 -10   69.27    2.16
  -1   1 -10   70.28    2.79
   1  -1  10   73.24    2.84
   1  -1  10   67.81    2.03
  -2   1 -10   30.91    1.77
  -2   1 -10   30.54    1.24
  -2   1 -10   30.37    1.62
  -2   1 -10   27.97    1.80
   2  -1  10   30.27    1.32
   2  -1  10   30.01    1.96
  -3   1 -10    1.51    0.72
  -3   1 -10    1.26    0.44
   3  -1  10    0.84    0.79
   3  -1  10    2.03    0.60
  -4   1 -10   10.17    1.40
  -4   1 -10   12.36    0.93
   4  -1  10   11.90    1.10
   4  -1  10   10.05    1.67
   4  -1  10    9.92    1.39
  -5   1 -10   -0.39    0.50
  -5   1 -10    0.02    1.09
   5  -1  10   -0.11    1.25
   5  -1  10    0.55    0.92
   8   0 -10    0.09    1.05
   8   0 -10    0.19    0.85
  -8   0  10    0.93    1.03
  -8   0  10    0.36    1.08
   7   0 -10   24.22    1.84
  -7   0  10   20.83    2.03
  -7   0  10   21.60    1.95
   6   0 -10    3.33    1.13
  -6   0  10    4.12    0.56
  -6   0  10    3.45    1.17
  -6   0  10    2.11    1.06
  -6   0  10    2.66    0.95
  -5   0  10    3.30    0.80
  -5   0  10    3.78    0.56
  -5   0  10    4.74    1.15
  -5   0  10    5.21    1.24
  -5   0  10    3.39    0.91
   4   0 -10   11.33    1.48
  -4   0  10   12.31    1.19
  -4   0  10   12.42    1.25
  -4   0  10   15.03    1.32
  -4   0  10   11.27    1.41
  -4   0  10   12.44    0.97
   3   0 -10   66.86    3.16
   3   0 -10   74.24    3.21
  -3   0  10   72.12    2.62
  -3   0  10   72.51    3.03
  -3   0  10   76.23    2.52
  -3   0  10   73.15    2.51
  -3   0  10   70.57    2.67
   2   0 -10   92.45    3.23
   2   0 -10   85.15    3.44
  -2   0  10   88.36    2.79
  -2   0  10   84.17    3.30
  -2   0  10   87.02    2.68
  -2   0  10   86.53    3.01
   1   0 -10    2.19    0.70
   1   0 -10    3.51    0.87
   1   0 -10    3.56    1.09
  -1   0  10    2.79    0.49
  -1   0  10    1.77    0.64
  -1   0  10    3.54    0.48
   0   0 -10   14.17    1.34
   0   0 -10   12.23    1.38
   0   0 -10   12.65    1.28
   0   0  10   11.73    1.23
   0   0  10   13.92    0.74
   0   0  10   13.83    1.06
  -1   0 -10    0.51    0.66
  -1   0 -10    0.41    0.77
  -1   0 -10   -0.01    0.70
  -1   0 -10    0.82    0.31
   1   0  10    1.32    0.46
   1   0  10    1.39    0.70
  -2   0 -10   46.67    2.17
  -2   0 -10   49.92    1.38
  -2   0 -10   47.53    2.30
   2   0  10   52.73    1.97
   2   0  10   47.64    2.38
  -3   0 -10    3.08    0.36
  -3   0 -10    2.49    1.51
   3   0  10    3.60    0.97
   3   0  10    3.22    0.74
  -4   0 -10    8.36    0.84
  -4   0 -10    9.22    1.35
   4   0  10    8.52    1.05
   4   0  10    9.02    1.35
  -5   0 -10    2.86    0.54
  -5   0 -10    3.30    1.18
  -5   0 -10    3.88    0.58
   5   0  10    2.71    0.85
   5   0  10    2.70    1.07
   5   0  10    3.36    1.40
   8  -1 -10    1.72    0.89
   8  -1 -10    1.55    1.30
  -8   1  10   -0.68    1.05
  -8   1  10    1.68    1.29
   7  -1 -10    8.66    1.28
   7  -1 -10   10.04    1.61
  -7   1  10   10.18    1.44
  -7   1  10    9.38    1.38
  -7   1  10    8.08    0.84
   6  -1 -10   18.53    1.73
  -6   1  10   19.52    1.21
  -6   1  10   18.33    1.65
  -6   1  10   16.65    1.66
   5  -1 -10   18.88    2.88
  -5   1  10   16.95    1.60
  -5   1  10   18.07    1.53
  -5   1  10   16.56    1.33
  -5   1  10   15.52    1.17
  -5   1  10   15.88    1.69
   4  -1 -10    2.61    1.10
   4  -1 -10    2.27    0.96
  -4   1  10    2.03    0.61
  -4   1  10    3.61    0.90
  -4   1  10    1.88    0.65
  -4   1  10    1.51    0.94
  -4   1  10    3.17    0.76
   3  -1 -10   -0.65    0.76
   3  -1 -10   -0.26    0.88
  -3   1  10   -0.56    0.54
  -3   1  10    0.03    0.74
  -3   1  10    0.19    0.51
  -3   1  10    0.10    0.53
  -3   1  10    0.14    0.56
   2  -1 -10   70.72    2.86
   2  -1 -10   73.25    3.16
  -2   1  10   69.12    2.71
  -2   1  10   71.13    2.88
  -2   1  10   72.91    2.39
  -2   1  10   72.14    2.33
  -2   1  10   73.17    2.58
   1  -1 -10   10.22    1.41
   1  -1 -10   10.12    1.26
   1  -1 -10   10.70    1.02
  -1   1  10   11.96    1.14
  -1   1  10    9.42    1.11
  -1   1  10   12.05    0.73
   0  -1 -10   -0.45    0.73
   0  -1 -10    0.85    0.61
   0   1  10    0.49    0.47
   0   1  10   -0.91    0.52
  -1  -1 -10    0.40    0.66
  -1  -1 -10   -0.04    0.78
   1   1  10    0.20    0.50
   1   1  10   -0.11    0.66
  -2  -1 -10   48.38    2.32
  -2  -1 -10   45.39    2.26
   2   1  10   52.30    2.47
   2   1  10   48.54    2.01
  -3  -1 -10    6.04    1.18
   3   1  10    3.99    1.06
   3   1  10    4.21    0.83
  -4  -1 -10   -0.64    0.86
   4   1  10    0.72    0.90
   4   1  10    0.74    0.75
  -5  -1 -10    1.74    0.26
  -5  -1 -10    1.76    0.28
  -5  -1 -10   -0.04    1.11
   5   1  10    0.52    0.88
   5   1  10    0.77    1.06
   7  -2 -10    2.78    1.03
   7  -2 -10    3.69    1.32
  -7   2  10    0.70    1.06
  -7   2  10    3.62    1.15
  -7   2  10    3.14    0.78
   6  -2 -10   24.64    1.95
  -6   2  10   24.02    1.48
  -6   2  10   23.87    1.86
  -6   2  10   22.51    1.47
  -6   2  10   21.35    1.93
   5  -2 -10    1.43    1.03
  -5   2  10    2.06    1.01
  -5   2  10    0.93    0.54
  -5   2  10    0.72    0.82
  -5   2  10    1.19    0.81
  -5   2  10    0.26    0.61
   4  -2 -10   19.61    1.62
  -4   2  10   17.42    1.51
  -4   2  10   19.89    1.79
  -4   2  10   18.36    1.46
  -4   2  10   18.39    1.41
  -4   2  10   17.68    1.22
   3  -2 -10   16.10    1.78
   3  -2 -10   14.40    1.50
  -3   2  10   14.64    1.08
  -3   2  10    9.90    1.00
  -3   2  10   11.55    1.31
  -3   2  10   13.99    1.37
  -3   2  10   13.23    1.13
   2  -2 -10  138.89    4.48
   2  -2 -10  140.80    4.81
  -2   2  10  136.43    4.42
  -2   2  10  135.67    3.75
  -2   2  10  138.17    4.42
  -2   2  10  140.10    4.04
  -2   2  10  139.35    4.02
   1  -2 -10   37.75    2.07
   1  -2 -10   40.65    1.72
  -1   2  10   37.85    1.14
  -1   2  10   35.52    1.90
  -1   2  10   35.43    1.73
   0  -2 -10    8.51    1.24
   0  -2 -10   10.29    1.01
   0   2  10    9.83    0.95
   0   2  10   10.65    1.09
  -1  -2 -10    0.58    0.67
  -1  -2 -10    1.16    0.88
   1   2  10    1.09    0.72
   1   2  10    1.57    0.65
  -2  -2 -10    8.32    1.27
  -2  -2 -10   10.23    1.18
   2   2  10    9.91    1.29
   2   2  10   10.49    1.07
   3   2  10   41.51    2.46
  -4  -2 -10   -0.47    0.93
   4   2  10    1.26    0.97
   4   2  10    1.11    0.85
   7  -3 -10   -0.09    1.11
  -7   3  10    0.16    0.96
  -7   3  10    0.10    0.87
  -7   3  10    0.20    0.68
   6  -3 -10   10.52    1.58
  -6   3  10   10.41    1.45
  -6   3  10    7.07    1.01
  -6   3  10    9.62    1.30
  -6   3  10    9.21    0.88
   5  -3 -10    6.78    1.21
  -5   3  10    4.41    1.04
  -5   3  10    4.44    0.98
  -5   3  10    4.74    0.89
  -5   3  10    4.83    0.65
   4  -3 -10   16.92    1.57
  -4   3  10   16.28    1.07
  -4   3  10   15.65    1.47
  -4   3  10   18.85    1.47
  -4   3  10   17.09    1.49
  -4   3  10   16.47    1.68
   3  -3 -10    1.16    0.88
  -3   3  10    2.22    0.50
  -3   3  10    2.03    0.86
  -3   3  10    1.24    0.59
  -3   3  10    1.76    0.73
  -3   3  10    1.15    0.82
   2  -3 -10    6.68    1.18
  -2   3  10    7.31    0.69
  -2   3  10    6.66    0.74
  -2   3  10    8.28    1.08
  -2   3  10    6.56    1.08
   1  -3 -10   21.72    1.25
   1  -3 -10   22.23    1.75
  -1   3  10   22.38    1.86
  -1   3  10   20.71    1.47
  -1   3  10   22.76    1.36
   0  -3 -10    2.14    0.97
   0  -3 -10    0.55    0.53
   0   3  10    1.12    0.64
   0   3  10    1.17    0.68
  -1  -3 -10    7.56    1.28
  -1  -3 -10    6.89    0.90
   1   3  10    8.12    1.00
   1   3  10    6.86    1.03
  -2  -3 -10   -0.65    0.62
  -2  -3 -10   -0.31    0.88
   2   3  10    1.35    1.50
   2   3  10   -0.24    0.79
  -3  -3 -10   10.59    1.76
   3   3  10   10.72    1.24
   3   3  10   10.07    1.38
  -4  -3 -10    1.95    1.14
   4   3  10    3.29    1.03
   7  -4 -10    1.24    1.18
  -7   4  10    0.79    0.92
  -7   4  10    0.33    0.78
  -7   4  10   -1.30    0.96
  -7   4  10    0.24    0.64
  -7   4  10   -0.16    0.46
   6  -4 -10    0.91    0.99
  -6   4  10    1.93    0.96
  -6   4  10    0.79    0.95
  -6   4  10    1.52    0.46
  -6   4  10    1.32    0.83
   5  -4 -10    6.70    1.23
  -5   4  10    9.06    1.19
  -5   4  10    8.28    1.15
  -5   4  10    7.01    1.20
  -5   4  10    8.50    0.78
   4  -4 -10    6.11    1.17
  -4   4  10    5.49    1.08
  -4   4  10    8.34    1.12
  -4   4  10    5.80    0.96
   3  -4 -10    4.82    1.17
  -3   4  10    4.67    0.74
  -3   4  10    6.86    1.02
  -3   4  10    5.72    0.60
  -3   4  10    5.04    1.00
  -3   4  10    5.57    1.07
   2  -4 -10    0.59    0.87
  -2   4  10    1.15    0.87
  -2   4  10   -0.03    0.65
  -2   4  10    1.48    0.51
  -2   4  10    0.96    0.36
   1  -4 -10   24.42    1.84
   1  -4 -10   21.72    1.16
  -1   4  10   22.40    1.37
  -1   4  10   20.10    1.83
  -1   4  10   22.65    1.45
   0  -4 -10   -0.42    0.47
   0  -4 -10    0.78    0.96
   0   4  10    0.70    0.65
   0   4  10    0.70    0.91
   0   4  10    1.00    0.58
  -1  -4 -10    9.72    1.42
  -1  -4 -10    7.78    0.93
   1   4  10    6.91    0.78
   1   4  10    8.42    1.12
   1   4  10    8.21    1.07
  -2  -4 -10    0.56    0.73
  -2  -4 -10    1.04    1.01
   2   4  10    0.64    0.74
  -3  -4 -10    2.38    0.95
   3   4  10    2.85    1.00
   6  -5 -10    1.50    1.06
   6  -5 -10    1.49    0.99
  -6   5  10   -0.01    0.78
  -6   5  10   -0.07    0.85
  -6   5  10   -0.42    0.40
   5  -5 -10    6.92    1.26
  -5   5  10    8.91    1.17
  -5   5  10    8.05    0.51
  -5   5  10    7.26    1.21
  -5   5  10    7.93    0.63
   4  -5 -10    1.23    0.93
  -4   5  10    0.90    0.82
  -4   5  10    0.94    0.88
   3  -5 -10   25.49    1.94
  -3   5  10   26.18    1.44
  -3   5  10   28.60    2.06
  -3   5  10   26.26    1.00
   2  -5 -10    1.34    1.00
  -2   5  10    1.04    0.36
  -2   5  10    0.99    0.94
   1  -5 -10    7.26    0.76
   1  -5 -10    5.51    1.19
  -1   5  10    8.15    1.28
  -1   5  10    7.01    0.88
  -1   5  10    7.75    0.87
   0  -5 -10   18.23    1.76
   0  -5 -10   20.43    1.20
   0   5  10   19.62    1.95
   0   5  10   20.21    1.21
   0   5  10   23.30    1.66
  -1  -5 -10    0.48    0.58
  -1  -5 -10   -0.05    0.96
   1   5  10    0.90    0.97
   1   5  10    0.74    0.43
   1   5  10    0.39    0.77
  -2  -5 -10    1.09    1.08
  -2  -5 -10   -0.01    0.67
   2   5  10    0.56    0.84
   6  -6 -10    1.65    1.00
  -6   6  10    0.45    0.93
  -6   6  10    2.01    1.00
   5  -6 -10    1.01    0.95
  -5   6  10    0.00    0.88
  -5   6  10    0.16    0.85
   4  -6 -10    4.06    1.13
  -4   6  10    2.66    1.03
  -4   6  10    2.54    0.96
   3  -6 -10    6.59    1.24
  -3   6  10    5.68    1.20
  -3   6  10    5.30    0.65
   2  -6 -10    6.85    1.27
  -2   6  10    6.70    1.26
  -2   6  10    6.75    0.60
   1  -6 -10    0.78    1.02
  -1   6  10    1.79    0.99
   0  -6 -10    2.63    0.52
   0  -6 -10    2.56    1.10
   0   6  10    3.12    1.11
   0   6  10    1.50    0.92
  -1  -6 -10    2.20    1.16
  -1  -6 -10    1.26    0.61
   1   6  10    2.63    0.96
   1   6  10    2.43    1.24
   4  -7 -10   -0.76    0.88
  -4   7  10    0.62    0.63
  -4   7  10    1.21    0.91
  -4   7  10   -0.41    0.92
   3  -7 -10   -0.22    0.92
  -3   7  10    0.38    0.95
  -3   7  10    0.44    0.48
   2  -7 -10    7.05    1.37
  -2   7  10    6.66    1.31
  -2   7  10    7.78    0.61
   1  -7 -10   -0.18    0.96
   0  -7 -10    1.26    1.09
   0  -7 -10    0.99    0.42
   0   7  10    2.59    1.14
   0   7  10    1.05    1.04
   1   9 -11   26.74    1.51
   1   9 -11   29.30    2.04
  -1  -9  11   27.79    1.42
  -1  -9  11   26.78    1.92
  -1  -9  11   25.32    2.92
   0   9 -11    3.54    1.05
   0   9 -11    3.43    0.63
   0  -9  11    4.44    1.17
   0  -9  11    4.03    1.00
   0  -9  11    2.95    0.74
  -1   9 -11   -0.03    0.44
  -1   9 -11   -0.30    0.44
  -1   9 -11   -0.84    0.88
  -1   9 -11    0.13    1.00
   1  -9  11   -0.40    0.69
   1  -9  11    0.38    0.87
   1  -9  11   -1.16    0.74
  -2   9 -11    1.06    0.99
  -2   9 -11    2.54    0.47
  -2   9 -11    3.01    1.06
   2  -9  11    3.35    0.97
   2  -9  11    3.74    1.11
   3   8 -11    0.39    0.92
   3   8 -11    0.05    0.70
  -3  -8  11   -0.42    0.83
  -3  -8  11    0.00    0.93
   2   8 -11    0.10    0.61
   2   8 -11    0.05    0.91
  -2  -8  11   -1.12    0.90
  -2  -8  11    0.43    0.86
  -2  -8  11   -0.07    0.36
  -2  -8  11   -0.99    0.74
   1   8 -11   24.79    2.32
   1   8 -11   22.16    1.88
   1   8 -11   28.02    1.33
  -1  -8  11   25.77    1.34
  -1  -8  11   27.11    1.95
  -1  -8  11   21.01    1.86
   0   8 -11   23.48    1.89
   0   8 -11   23.57    2.17
   0   8 -11   22.64    0.85
   0  -8  11   19.33    1.78
   0  -8  11   22.34    1.81
   0  -8  11   23.03    1.49
  -1   8 -11    0.14    0.23
  -1   8 -11    0.17    0.87
  -1   8 -11   -0.37    0.97
   1  -8  11    0.06    0.78
   1  -8  11   -0.66    0.69
   1  -8  11    1.10    0.84
  -2   8 -11    5.00    1.14
  -2   8 -11    4.95    1.08
   2  -8  11    4.63    1.10
   2  -8  11    4.85    1.07
  -3   8 -11    1.09    0.38
  -3   8 -11    1.72    0.94
  -3   8 -11    0.67    0.76
   3  -8  11    2.20    1.21
   3  -8  11    3.04    0.97
   4   7 -11    7.66    1.05
   4   7 -11    5.23    1.19
   4   7 -11    9.86    1.69
  -4  -7  11    9.45    1.38
  -4  -7  11    8.91    1.36
  -4  -7  11    7.01    1.25
   3   7 -11   18.92    2.17
   3   7 -11   17.53    1.68
   3   7 -11   21.60    1.41
  -3  -7  11   20.85    1.78
  -3  -7  11   19.30    1.80
  -3  -7  11   21.80    1.88
   2   7 -11    2.50    0.60
   2   7 -11    2.59    1.27
   2   7 -11   -0.66    0.84
  -2  -7  11    3.57    1.02
  -2  -7  11    2.13    0.89
  -2  -7  11    3.66    1.12
  -2  -7  11    2.35    0.43
   1   7 -11   10.43    1.25
   1   7 -11    9.86    0.72
   1   7 -11    9.16    1.58
  -1  -7  11    8.44    1.18
  -1  -7  11   11.50    1.32
  -1  -7  11   10.72    0.97
   0   7 -11   67.91    2.83
   0   7 -11   70.34    3.20
   0  -7  11   67.41    2.86
   0  -7  11   69.30    2.63
   0  -7  11   73.06    2.98
  -1   7 -11    0.26    0.89
  -1   7 -11    1.47    0.84
   1  -7  11   -0.32    0.74
   1  -7  11   -0.10    0.72
   1  -7  11   -1.29    0.66
  -2   7 -11    6.99    1.10
  -2   7 -11    6.91    1.11
   2  -7  11    6.41    1.09
   2  -7  11    6.91    1.26
  -3   7 -11   -0.14    0.76
  -3   7 -11    0.78    1.08
   3  -7  11   -0.31    0.77
   3  -7  11    0.27    1.13
  -4   7 -11   19.80    1.87
  -4   7 -11   17.70    1.27
  -4   7 -11   15.00    1.58
   4  -7  11   17.08    2.05
   4  -7  11   16.62    1.69
   5   6 -11    0.00    1.09
   5   6 -11    1.03    0.77
   5   6 -11    0.51    0.96
  -5  -6  11    1.70    1.11
  -5  -6  11    2.22    1.44
  -5  -6  11   -0.59    0.99
   4   6 -11   23.88    1.57
   4   6 -11   27.65    2.28
   4   6 -11   27.97    1.96
  -4  -6  11   25.11    2.01
  -4  -6  11   22.14    1.96
  -4  -6  11   23.90    1.98
   3   6 -11    5.47    0.75
   3   6 -11    5.45    1.39
   3   6 -11    5.36    1.06
  -3  -6  11    5.43    1.08
  -3  -6  11    3.53    1.04
  -3  -6  11    6.44    1.17
   2   6 -11   31.36    1.21
   2   6 -11   23.23    2.13
   2   6 -11   27.95    2.24
  -2  -6  11   26.88    1.86
  -2  -6  11   30.13    1.98
  -2  -6  11   27.07    1.13
   1   6 -11   -0.43    0.99
  -1  -6  11    1.03    0.57
  -1  -6  11    1.83    0.87
  -1  -6  11    2.07    0.88
   0   6 -11   31.27    1.91
   0   6 -11   30.47    2.16
   0  -6  11   30.52    1.78
   0  -6  11   30.25    1.82
   0  -6  11   34.90    2.06
  -1   6 -11   18.66    1.69
  -1   6 -11   22.04    1.66
   1  -6  11   22.24    1.75
   1  -6  11   21.84    1.62
  -2   6 -11    7.47    1.14
  -2   6 -11    3.85    0.91
  -2   6 -11    5.77    1.12
   2  -6  11    5.92    1.28
   2  -6  11    7.06    1.14
  -3   6 -11    3.25    1.02
  -3   6 -11    3.33    0.84
   3  -6  11    0.59    0.83
   3  -6  11    1.13    1.07
  -4   6 -11    5.37    1.02
  -4   6 -11    4.41    1.14
  -4   6 -11    6.24    0.87
   4  -6  11    5.36    1.09
   4  -6  11    3.60    1.61
   6   5 -11   16.89    1.86
  -6  -5  11   14.19    1.40
  -6  -5  11   16.56    1.84
  -6  -5  11   15.05    1.74
   5   5 -11    0.24    1.34
   5   5 -11    1.73    1.20
  -5  -5  11    0.24    0.67
  -5  -5  11   -1.01    0.78
  -5  -5  11    0.76    1.00
  -5  -5  11    0.14    0.91
   4   5 -11   30.39    2.36
   4   5 -11   28.36    1.96
   4   5 -11   29.72    1.60
  -4  -5  11   29.76    1.94
  -4  -5  11   32.94    2.23
  -4  -5  11   28.74    2.02
   3   5 -11    4.14    0.62
   3   5 -11    3.30    1.30
  -3  -5  11    4.61    1.05
  -3  -5  11    2.34    0.87
   2   5 -11   42.53    2.70
   2   5 -11   44.81    1.37
   2   5 -11   47.50    2.25
  -2  -5  11   44.88    1.60
  -2  -5  11   48.83    2.23
  -2  -5  11   47.83    2.39
   1   5 -11    0.96    0.74
   1   5 -11   -1.14    0.94
  -1  -5  11   -0.01    0.53
  -1  -5  11   -0.44    0.72
  -1  -5  11    0.82    0.84
   0   5 -11    3.43    0.84
   0  -5  11    3.35    0.83
   0  -5  11    3.82    0.87
   0  -5  11    4.27    0.93
  -1   5 -11   19.65    1.73
  -1   5 -11   19.03    1.64
   1  -5  11   21.87    1.72
   1  -5  11   19.11    1.46
   1  -5  11   24.38    1.92
  -2   5 -11   11.67    1.18
  -2   5 -11   14.56    1.40
  -2   5 -11   13.58    1.60
   2  -5  11   12.89    1.38
   2  -5  11   14.51    1.68
  -3   5 -11    6.99    0.96
  -3   5 -11    7.83    1.22
  -3   5 -11    5.07    0.94
   3  -5  11    6.38    1.39
   3  -5  11    6.05    1.10
  -4   5 -11   -0.67    0.58
  -4   5 -11    1.05    0.74
   4  -5  11   -0.38    1.11
   4  -5  11    0.46    0.87
  -5   5 -11   10.73    1.51
  -5   5 -11    6.91    0.79
  -5   5 -11    6.60    1.06
   5  -5  11    7.98    1.64
   5  -5  11    4.09    1.12
   6   4 -11   45.88    2.62
   6   4 -11   41.85    2.18
  -6  -4  11   46.46    2.65
  -6  -4  11   45.09    2.31
  -6  -4  11   44.65    3.11
   5   4 -11    3.47    1.22
   5   4 -11    3.44    0.83
  -5  -4  11    3.60    0.86
  -5  -4  11    2.15    1.01
  -5  -4  11    2.34    1.08
  -5  -4  11    1.65    0.91
   4   4 -11    0.53    0.55
   4   4 -11   -0.73    1.01
  -4  -4  11    0.18    0.82
  -4  -4  11    0.20    0.56
  -4  -4  11    0.89    0.78
  -4  -4  11    0.06    0.78
   3   4 -11   35.53    1.38
   3   4 -11   35.99    2.07
   3   4 -11   31.41    2.35
  -3  -4  11   34.62    2.07
  -3  -4  11   36.52    2.04
   2   4 -11   36.95    1.97
   2   4 -11   36.53    2.37
  -2  -4  11   34.15    1.46
  -2  -4  11   34.44    1.92
  -2  -4  11   32.89    2.00
   1   4 -11   57.34    2.41
  -1  -4  11   58.08    2.59
  -1  -4  11   59.59    2.37
  -1  -4  11   58.22    2.38
   0   4 -11    3.82    0.83
   0   4 -11    4.30    1.10
   0  -4  11    3.48    0.95
   0  -4  11    4.08    0.92
   0  -4  11    2.90    0.76
  -1   4 -11   22.92    1.74
  -1   4 -11   18.60    1.40
   1  -4  11   21.40    1.62
   1  -4  11   23.04    1.43
   1  -4  11   23.34    1.96
  -2   4 -11   -0.26    0.72
  -2   4 -11    0.41    0.44
  -2   4 -11    1.25    0.63
   2  -4  11    0.29    0.80
   2  -4  11    0.20    1.02
  -3   4 -11   18.66    1.41
  -3   4 -11   18.40    1.39
  -3   4 -11   17.93    0.99
   3  -4  11   20.90    1.75
   3  -4  11   20.70    2.09
  -4   4 -11    1.94    0.96
  -4   4 -11    3.15    0.74
  -4   4 -11    1.58    0.53
  -4   4 -11    1.87    0.75
   4  -4  11    3.95    1.42
   4  -4  11    1.48    0.90
  -5   4 -11    5.42    0.79
  -5   4 -11    5.48    0.69
  -5   4 -11    3.76    0.94
  -5   4 -11    6.01    1.29
   5  -4  11    9.53    1.76
   7   3 -11    9.62    1.29
   7   3 -11   10.89    1.44
  -7  -3  11   11.78    1.68
  -7  -3  11   11.96    1.57
  -7  -3  11   13.20    1.51
   6   3 -11    8.23    1.07
   6   3 -11    5.92    1.30
  -6  -3  11    7.21    1.32
  -6  -3  11    6.11    1.15
  -6  -3  11    6.04    1.36
   5   3 -11   45.49    2.59
   5   3 -11   45.68    2.00
  -5  -3  11   49.83    2.64
  -5  -3  11   43.40    2.16
  -5  -3  11   40.34    2.34
  -5  -3  11   40.82    2.39
   4   3 -11    2.82    0.63
   4   3 -11    2.93    1.17
  -4  -3  11    3.27    0.72
  -4  -3  11    3.23    0.97
  -4  -3  11    2.03    0.82
   3   3 -11    4.06    1.23
   3   3 -11    2.18    0.84
  -3  -3  11    4.48    0.96
  -3  -3  11    2.94    0.86
  -3  -3  11    4.63    0.60
  -3  -3  11    3.50    0.41
  -3  -3  11    3.47    0.48
   2   3 -11    1.16    0.71
  -2  -3  11    0.43    0.71
  -2  -3  11    0.84    0.58
  -2  -3  11   -0.38    0.97
   1   3 -11   74.11    2.76
   1   3 -11   80.06    3.33
  -1  -3  11   80.37    3.11
  -1  -3  11   81.14    3.04
  -1  -3  11   76.80    2.74
   0   3 -11    5.26    0.83
   0   3 -11    6.57    1.05
   0   3 -11    5.23    0.82
   0   3 -11    5.35    1.16
   0  -3  11    6.88    1.19
   0  -3  11    4.00    1.52
   0  -3  11    5.13    0.78
  -1   3 -11   16.90    1.48
  -1   3 -11   16.08    1.46
  -1   3 -11   16.42    1.14
  -1   3 -11   16.05    1.21
   1  -3  11   15.77    1.17
   1  -3  11   15.85    1.75
   1  -3  11   17.56    1.48
  -2   3 -11   13.21    1.02
  -2   3 -11   12.28    1.10
  -2   3 -11   12.38    1.28
   2  -3  11   11.13    1.25
   2  -3  11   14.94    1.83
  -3   3 -11   21.36    1.25
  -3   3 -11   27.86    1.58
  -3   3 -11   25.44    1.42
   3  -3  11   22.56    2.33
   3  -3  11   23.79    1.86
  -4   3 -11    5.66    0.85
  -4   3 -11    6.25    1.20
  -4   3 -11    6.63    0.84
   4  -3  11    5.67    1.14
   4  -3  11    6.07    0.65
   4  -3  11    3.68    1.34
  -5   3 -11    2.17    1.10
  -5   3 -11    1.80    0.68
   5  -3  11    0.19    0.55
   5  -3  11    1.81    1.39
   7   2 -11    1.02    0.98
   7   2 -11   -0.39    0.80
  -7  -2  11   -0.08    0.94
  -7  -2  11    0.06    1.02
  -7  -2  11   -0.22    1.12
   6   2 -11    1.73    0.77
   6   2 -11    2.75    1.17
  -6  -2  11    2.03    1.03
  -6  -2  11    1.13    0.94
  -6  -2  11    1.23    1.10
   5   2 -11   28.54    2.20
   5   2 -11   31.01    1.67
  -5  -2  11   30.26    2.10
  -5  -2  11   37.45    1.97
  -5  -2  11   31.14    1.97
   4   2 -11    2.21    1.14
  -4  -2  11    2.58    0.31
  -4  -2  11    2.00    0.95
  -4  -2  11    2.36    0.38
  -4  -2  11    1.53    0.66
  -4  -2  11    2.50    0.87
   3   2 -11    0.63    1.05
  -3  -2  11    1.71    1.00
  -3  -2  11    1.29    0.71
  -3  -2  11    0.36    0.68
  -3  -2  11    1.24    0.52
  -3  -2  11    0.80    0.41
   2   2 -11   10.13    1.08
   2   2 -11   11.96    1.57
  -2  -2  11    9.57    1.00
  -2  -2  11   10.71    0.63
  -2  -2  11   13.53    1.41
  -2  -2  11   11.73    1.40
   1   2 -11   97.04    3.83
   1   2 -11  105.52    3.29
   1   2 -11  105.39    3.42
  -1  -2  11  102.29    3.56
  -1  -2  11  102.05    3.19
   0   2 -11   24.15    1.34
   0   2 -11   24.30    1.65
   0   2 -11   27.80    1.84
   0   2 -11   23.35    1.45
   0  -2  11   25.29    1.31
   0  -2  11   25.38    1.76
  -1   2 -11   13.79    1.16
  -1   2 -11   15.50    1.48
  -1   2 -11   13.82    1.03
  -1   2 -11   15.63    1.50
   1  -2  11   12.03    1.74
  -2   2 -11   13.09    0.99
  -2   2 -11   14.21    1.17
  -2   2 -11   11.65    1.24
   2  -2  11   10.86    1.27
  -3   2 -11    0.90    0.50
  -3   2 -11    0.51    0.62
  -3   2 -11    0.84    0.80
   3  -2  11    0.90    0.85
   3  -2  11    2.19    1.31
   3  -2  11    1.71    0.46
  -4   2 -11   23.10    2.02
  -4   2 -11   19.95    1.24
  -4   2 -11   19.32    1.40
   4  -2  11   20.75    2.19
   4  -2  11   19.84    1.21
   4  -2  11   21.37    1.97
  -5   2 -11    1.15    0.63
  -5   2 -11    0.84    0.71
  -5   2 -11    1.96    1.10
   5  -2  11    0.58    0.61
   5  -2  11    1.21    1.37
   7   1 -11    7.74    1.19
   7   1 -11    6.84    1.31
  -7  -1  11    7.31    1.23
  -7  -1  11    7.21    1.38
   6   1 -11    6.99    1.31
  -6  -1  11    8.17    1.28
  -6  -1  11    7.55    1.43
  -6  -1  11    9.76    1.40
   5   1 -11    2.36    1.13
  -5  -1  11    2.68    0.85
  -5  -1  11    2.49    0.37
  -5  -1  11    2.31    0.84
  -5  -1  11    1.44    0.91
   4   1 -11   19.99    1.93
  -4  -1  11   22.18    1.46
  -4  -1  11   21.49    1.59
  -4  -1  11   21.91    1.65
  -4  -1  11   20.90    1.05
  -4  -1  11   20.22    1.86
  -3  -1  11    9.36    1.06
  -3  -1  11   11.61    1.40
  -3  -1  11   12.16    1.06
  -3  -1  11   10.62    1.12
  -3  -1  11   10.69    0.95
   2   1 -11    0.85    0.96
   2   1 -11    1.53    0.83
  -2  -1  11    0.77    0.58
  -2  -1  11    0.37    0.67
  -2  -1  11    0.68    0.42
  -2  -1  11    0.42    0.87
   1   1 -11   15.54    1.14
   1   1 -11   12.48    1.50
   1   1 -11   15.68    1.38
  -1  -1  11   13.66    1.37
  -1  -1  11   12.30    0.58
  -1  -1  11   13.12    0.99
  -1  -1  11   11.85    0.63
   0   1 -11   83.52    2.56
   0   1 -11   84.69    3.54
   0   1 -11   81.37    3.23
   0   1 -11   84.63    2.93
   0  -1  11   82.55    3.05
   0  -1  11   74.67    2.00
   0  -1  11   79.24    2.00
   0  -1  11   83.73    2.46
  -1   1 -11    8.26    1.09
  -1   1 -11    6.83    0.95
  -1   1 -11    7.84    0.76
  -1   1 -11    8.97    1.24
   1  -1  11    7.21    0.58
   1  -1  11    7.70    1.13
  -2   1 -11    4.72    0.53
  -2   1 -11    4.86    0.95
  -2   1 -11    4.31    0.97
  -2   1 -11    3.98    0.87
   2  -1  11    4.85    0.59
   2  -1  11    5.86    1.05
  -3   1 -11    4.27    0.95
  -3   1 -11    2.89    0.92
  -3   1 -11    3.18    0.49
   3  -1  11    3.33    0.62
   3  -1  11    1.73    0.92
  -4   1 -11   11.93    1.28
  -4   1 -11   10.55    1.41
  -4   1 -11   11.18    0.86
   4  -1  11   13.43    1.58
   4  -1  11   11.90    1.06
   4  -1  11    9.89    1.73
  -5   1 -11    0.61    0.52
  -5   1 -11    2.88    1.22
  -5   1 -11    2.13    0.95
   5  -1  11    2.09    1.65
   5  -1  11    2.55    0.83
   5  -1  11    2.19    1.43
   7   0 -11   12.10    1.47
  -7   0  11   11.57    1.56
  -7   0  11   10.02    1.37
   6   0 -11    5.35    1.29
  -6   0  11    6.47    0.65
  -6   0  11    5.80    1.21
  -6   0  11    6.32    1.11
  -6   0  11    5.36    1.40
  -6   0  11    5.33    0.94
   5   0 -11   83.88    3.49
  -5   0  11   88.76    3.64
  -5   0  11   82.48    3.15
  -5   0  11   82.59    3.27
  -5   0  11   82.47    2.57
  -5   0  11   80.67    3.03
   4   0 -11  148.67    5.13
  -4   0  11  149.80    4.56
  -4   0  11  156.67    4.56
  -4   0  11  143.92    4.99
  -4   0  11  153.50    4.23
  -4   0  11  147.69    4.61
   3   0 -11   -0.60    1.07
   3   0 -11    1.17    0.89
  -3   0  11    0.17    0.87
  -3   0  11    0.00    0.56
  -3   0  11   -0.41    0.48
  -3   0  11    0.22    0.62
  -3   0  11   -0.16    0.51
   2   0 -11    3.82    1.20
  -2   0  11    5.01    1.25
  -2   0  11    3.81    0.80
  -2   0  11    4.04    0.60
  -2   0  11    3.85    0.63
   1   0 -11   -0.67    0.82
   1   0 -11    0.60    0.76
  -1   0  11    0.26    0.60
  -1   0  11    0.40    0.39
   0   0 -11   99.43    3.38
   0   0 -11   97.10    3.39
   0   0 -11   97.65    3.67
   0   0  11   99.76    3.42
   0   0  11   95.24    2.61
   0   0  11   95.29    2.74
  -1   0 -11   45.73    2.17
  -1   0 -11   47.71    2.25
  -1   0 -11   45.15    2.34
   1   0  11   46.88    2.28
   1   0  11   46.15    1.70
  -2   0 -11    3.93    0.93
  -2   0 -11    4.92    1.01
   2   0  11    3.65    0.68
   2   0  11    3.17    0.97
  -3   0 -11    0.59    0.80
  -3   0 -11    0.55    0.83
   3   0  11   -1.08    0.76
   3   0  11    0.60    0.61
  -4   0 -11    7.86    1.25
  -4   0 -11    5.71    1.24
  -4   0 -11    6.58    0.46
  -4   0 -11    7.95    0.46
   4   0  11    6.34    1.23
   4   0  11    7.40    0.96
   5   0  11    6.04    0.95
   7  -1 -11    4.20    1.14
  -7   1  11    4.70    0.70
  -7   1  11    4.39    1.11
  -7   1  11    3.87    1.19
   6  -1 -11    8.03    1.39
  -6   1  11    5.85    1.26
  -6   1  11    8.72    1.73
  -6   1  11    7.48    1.44
  -6   1  11    7.19    0.81
  -6   1  11    7.39    1.22
   5  -1 -11    0.77    1.02
  -5   1  11    2.32    0.83
  -5   1  11    1.92    0.67
  -5   1  11    2.04    0.62
  -5   1  11    1.72    1.07
   4  -1 -11   19.78    1.69
   4  -1 -11   15.67    1.78
  -4   1  11   17.87    1.78
  -4   1  11   15.59    1.35
  -4   1  11   15.48    1.22
  -4   1  11   15.82    1.29
  -4   1  11   14.00    1.38
   3  -1 -11    4.61    1.26
   3  -1 -11    6.77    1.17
  -3   1  11    6.25    0.88
  -3   1  11    4.95    1.09
  -3   1  11    5.84    0.82
  -3   1  11    6.10    0.90
  -3   1  11    5.27    0.78
   2  -1 -11   12.06    1.82
   2  -1 -11   10.88    1.32
  -2   1  11   15.88    1.44
  -2   1  11   14.96    1.06
  -2   1  11   15.94    1.51
  -2   1  11   14.44    1.24
  -2   1  11   14.51    0.98
   1  -1 -11    1.02    0.83
   1  -1 -11    0.66    0.58
  -1   1  11    2.09    0.84
  -1   1  11    1.08    0.34
  -1   1  11   -0.13    0.55
   0  -1 -11   17.57    1.41
   0  -1 -11   18.81    1.51
   0   1  11   18.39    1.13
   0   1  11   21.79    1.52
  -1  -1 -11   26.62    1.69
  -1  -1 -11   24.95    1.71
   1   1  11   25.06    1.35
   1   1  11   22.88    1.73
  -2  -1 -11    0.15    0.83
  -2  -1 -11    1.80    0.76
   2   1  11   -0.02    0.78
   2   1  11    0.10    0.55
  -3  -1 -11    0.39    0.89
  -3  -1 -11    1.78    0.89
   3   1  11    1.68    0.69
   3   1  11    1.26    0.94
  -4  -1 -11    1.08    1.17
  -4  -1 -11    1.57    0.99
   4   1  11    0.23    0.75
   4   1  11    0.44    1.01
   7  -2 -11    1.69    1.05
  -7   2  11   -0.38    0.95
  -7   2  11    1.25    0.68
  -7   2  11    1.64    0.70
  -7   2  11    1.77    1.01
   6  -2 -11   21.69    1.97
  -6   2  11   19.84    1.71
  -6   2  11   19.04    1.40
  -6   2  11   20.17    1.39
  -6   2  11   21.06    1.92
   5  -2 -11    0.06    1.01
  -5   2  11    0.73    0.65
  -5   2  11    1.46    0.80
  -5   2  11    0.40    0.54
  -5   2  11    1.74    1.06
  -5   2  11    2.01    0.96
   4  -2 -11    8.25    1.31
   4  -2 -11    7.97    1.40
  -4   2  11    7.62    1.04
  -4   2  11    9.06    1.03
  -4   2  11    9.16    0.91
  -4   2  11    7.30    1.24
  -4   2  11    8.71    1.09
   3  -2 -11   43.37    2.24
   3  -2 -11   41.70    2.43
  -3   2  11   39.80    1.85
  -3   2  11   41.37    2.57
  -3   2  11   42.06    2.09
  -3   2  11   41.33    1.74
  -3   2  11   40.45    1.78
   2  -2 -11    4.65    1.07
  -2   2  11    4.85    0.75
  -2   2  11    6.25    1.06
  -2   2  11    4.07    0.91
  -2   2  11    4.99    0.72
  -2   2  11    5.51    0.58
   1  -2 -11    8.93    0.93
   1  -2 -11    6.02    1.15
  -1   2  11    8.65    0.41
  -1   2  11    8.86    0.97
  -1   2  11   10.70    1.18
   0  -2 -11    5.80    0.84
   0  -2 -11    6.11    1.12
   0   2  11    5.17    0.89
   0   2  11    5.75    0.81
   0   2  11    4.84    0.88
  -1  -2 -11   12.23    1.44
  -1  -2 -11   11.45    1.20
   1   2  11   12.37    1.27
   1   2  11   15.25    1.22
  -2  -2 -11    0.19    0.88
  -2  -2 -11    0.11    0.73
   2   2  11    0.17    0.77
   2   2  11    0.44    0.65
  -3  -2 -11    9.25    1.40
  -3  -2 -11    4.43    1.07
   3   2  11    8.36    1.01
   3   2  11    5.13    1.15
  -4  -2 -11    2.87    1.43
   4   2  11    3.62    1.09
   4   2  11    2.01    0.90
  -7   3  11    3.61    1.57
  -7   3  11    3.59    0.72
  -7   3  11    4.10    1.26
  -7   3  11    5.45    1.17
  -6   3  11   10.15    1.14
  -6   3  11    9.07    1.34
  -6   3  11   12.51    1.08
  -6   3  11   13.12    1.39
   5  -3 -11   12.64    1.53
  -5   3  11   13.59    1.34
  -5   3  11   13.06    1.04
  -5   3  11   13.09    1.32
  -5   3  11   14.26    1.39
   4  -3 -11   -0.45    0.84
  -4   3  11    1.50    0.79
  -4   3  11    0.25    0.67
  -4   3  11    0.01    0.42
  -4   3  11    0.43    0.65
  -4   3  11    0.45    0.87
   3  -3 -11    5.38    1.15
  -3   3  11    7.83    2.06
  -3   3  11    6.06    0.70
  -3   3  11    5.35    0.89
  -3   3  11    5.96    1.15
  -3   3  11    6.48    0.77
   2  -3 -11    8.75    1.30
  -2   3  11    7.31    1.18
  -2   3  11    6.76    0.79
  -2   3  11    6.81    1.04
   1  -3 -11   32.34    2.05
   1  -3 -11   30.75    1.52
  -1   3  11   29.96    1.75
  -1   3  11   32.34    1.64
  -1   3  11   30.91    2.09
   0  -3 -11    0.44    0.91
   0  -3 -11    1.35    0.61
   0   3  11    0.25    0.63
   0   3  11   -0.33    0.57
   0   3  11   -0.41    0.59
  -1  -3 -11    9.95    1.09
  -1  -3 -11   11.81    1.50
   1   3  11    9.74    1.18
   1   3  11   11.98    1.18
   1   3  11   11.40    1.05
  -2  -3 -11    2.72    1.16
  -2  -3 -11    3.23    1.15
   2   3  11    1.94    0.87
   2   3  11    4.38    0.92
  -3  -3 -11    7.53    1.25
  -3  -3 -11    5.08    1.30
   3   3  11    8.62    1.44
   3   3  11    7.01    1.08
  -6   4  11    0.27    0.92
  -6   4  11    0.29    0.77
  -6   4  11    0.25    0.85
  -6   4  11    1.14    0.48
   5  -4 -11   21.06    1.86
  -5   4  11   19.19    1.82
  -5   4  11   21.15    1.07
  -5   4  11   17.15    1.63
  -5   4  11   20.17    1.72
   4  -4 -11    1.77    1.03
  -4   4  11    3.24    0.87
  -4   4  11    2.75    0.92
  -4   4  11    1.98    0.75
  -4   4  11    3.05    0.49
   3  -4 -11    1.23    0.98
  -3   4  11    2.79    0.51
  -3   4  11    3.02    1.52
  -3   4  11    2.45    0.58
  -3   4  11    1.34    0.88
  -3   4  11    2.06    0.96
   2  -4 -11    6.00    1.21
  -2   4  11    5.42    0.69
  -2   4  11    5.30    1.11
  -2   4  11    5.64    0.93
  -2   4  11    4.59    0.44
  -2   4  11    6.26    0.72
   1  -4 -11   18.76    1.15
   1  -4 -11   22.03    1.84
  -1   4  11   18.10    1.42
  -1   4  11   19.05    1.34
  -1   4  11   17.47    1.81
   0  -4 -11    6.14    1.23
   0  -4 -11    5.53    0.76
   0   4  11    4.20    1.15
   0   4  11    4.97    0.94
   0   4  11    4.11    0.84
   0   4  11    5.65    0.83
  -1  -4 -11    0.11    0.60
  -1  -4 -11    1.14    1.05
   1   4  11   -0.26    0.72
   1   4  11   -0.18    0.70
   1   4  11    0.75    0.57
  -2  -4 -11    3.34    1.20
   2   4  11    4.13    0.96
   2   4  11    4.80    0.70
   6  -5 -11   -0.20    0.93
  -6   5  11   -0.54    0.46
  -6   5  11   -0.15    0.88
  -6   5  11    2.35    0.99
  -6   5  11   -0.61    0.82
   5  -5 -11    6.07    1.20
  -5   5  11    7.32    0.53
  -5   5  11    7.11    1.14
  -5   5  11    6.91    1.29
  -5   5  11    7.30    1.16
   4  -5 -11    4.36    1.14
  -4   5  11    3.44    0.85
  -4   5  11    2.70    0.99
  -4   5  11    2.48    0.91
  -4   5  11    2.94    0.36
   3  -5 -11    0.78    0.97
  -3   5  11    0.35    0.43
  -3   5  11   -0.21    0.48
  -3   5  11    0.30    0.37
  -3   5  11    0.12    0.92
   2  -5 -11    2.34    1.07
  -2   5  11    1.27    0.28
  -2   5  11    1.30    0.28
  -2   5  11    1.63    0.51
  -2   5  11    0.51    0.89
   1  -5 -11    2.89    1.09
  -1   5  11    2.65    0.75
  -1   5  11    2.96    0.67
  -1   5  11    3.31    1.05
   0  -5 -11   13.06    1.62
   0  -5 -11   11.79    1.07
   0   5  11   13.60    1.59
   0   5  11   10.32    0.93
   0   5  11    9.81    1.23
  -1  -5 -11   -0.10    0.58
  -1  -5 -11   -0.37    1.01
   1   5  11    1.27    1.05
   1   5  11    0.44    0.82
   1   5  11    0.99    0.49
  -2  -5 -11    0.05    1.09
   5  -6 -11    1.73    1.01
  -5   6  11    0.72    0.82
  -5   6  11    1.03    0.98
  -5   6  11    0.87    0.92
   4  -6 -11    5.91    1.23
  -4   6  11    8.95    1.20
  -4   6  11    6.88    1.26
  -4   6  11    7.81    1.00
  -4   6  11    5.30    0.75
   3  -6 -11   -0.50    0.91
  -3   6  11   -0.26    0.41
  -3   6  11    0.81    0.93
  -3   6  11    0.60    0.49
   2  -6 -11   -0.24    0.94
  -2   6  11   -0.63    0.94
  -2   6  11    0.18    0.16
   1  -6 -11   -0.22    0.96
  -1   6  11    0.90    0.95
   0  -6 -11    3.95    1.17
   0  -6 -11    4.21    0.61
   0   6  11    4.41    1.10
   0   6  11    5.40    1.51
   2   8 -12   19.10    2.18
   2   8 -12   19.57    1.16
   2   8 -12   20.22    1.92
  -2  -8  12   26.48    2.37
  -2  -8  12   21.77    2.53
  -2  -8  12   19.71    0.94
  -2  -8  12   20.76    2.00
   1   8 -12    1.38    0.32
   1   8 -12    0.83    1.23
   1   8 -12    1.70    1.02
  -1  -8  12    0.29    0.51
  -1  -8  12    2.61    0.88
  -1  -8  12    1.15    0.91
   0   8 -12    6.26    1.41
   0  -8  12    9.22    1.23
   0  -8  12    9.87    1.26
   0  -8  12   10.25    1.32
  -1   8 -12    1.75    1.03
   1  -8  12    0.99    0.90
   1  -8  12    0.93    0.83
   1  -8  12    2.19    0.91
  -2   8 -12   20.75    2.00
  -2   8 -12   21.56    1.76
   2  -8  12   22.76    2.05
   2  -8  12   25.56    2.21
   4   7 -12   14.82    1.93
   4   7 -12   11.69    1.12
   4   7 -12   10.71    1.46
  -4  -7  12   13.38    1.58
  -4  -7  12   11.43    1.42
  -4  -7  12    9.90    1.42
   3   7 -12    1.07    0.95
   3   7 -12    1.49    0.57
   3   7 -12    1.06    1.28
  -3  -7  12    1.23    0.92
  -3  -7  12    2.15    1.01
  -3  -7  12   -1.42    0.93
   2   7 -12   21.46    1.85
   2   7 -12   19.12    2.10
  -2  -7  12   22.63    1.99
  -2  -7  12   20.99    1.73
  -2  -7  12   19.80    0.95
  -2  -7  12   18.02    1.75
   1   7 -12    1.58    1.17
   1   7 -12   -1.60    0.76
  -1  -7  12   -0.31    0.49
  -1  -7  12   -2.01    0.78
  -1  -7  12   -1.31    0.68
   0   7 -12   20.38    1.74
   0   7 -12   20.29    1.99
   0  -7  12   18.56    1.71
   0  -7  12   18.71    1.45
   0  -7  12   19.37    1.60
  -1   7 -12    5.32    1.08
  -1   7 -12    3.74    1.09
   1  -7  12    2.77    0.90
   1  -7  12    1.85    0.89
   1  -7  12    3.02    0.91
  -2   7 -12   16.32    1.56
  -2   7 -12   15.81    1.49
   2  -7  12   14.39    1.50
   2  -7  12   14.97    1.65
  -3   7 -12   11.30    1.24
  -3   7 -12   13.56    1.54
  -3   7 -12   12.16    1.37
   3  -7  12   11.35    1.52
   3  -7  12    9.72    1.55
   5   6 -12    0.20    0.72
   5   6 -12    0.88    1.14
   5   6 -12   -0.91    1.13
  -5  -6  12    0.48    0.91
  -5  -6  12   -0.27    1.07
  -5  -6  12    0.42    1.07
   4   6 -12   39.06    2.68
   4   6 -12   38.60    1.79
   4   6 -12   43.27    2.66
  -4  -6  12   38.87    2.56
  -4  -6  12   39.64    2.33
  -4  -6  12   37.01    2.24
   3   6 -12    0.41    0.45
   3   6 -12    1.15    1.18
   3   6 -12    1.98    0.95
  -3  -6  12    0.16    0.91
  -3  -6  12    1.55    0.91
  -3  -6  12    1.69    0.88
   2   6 -12    5.18    1.02
   2   6 -12    7.60    1.50
  -2  -6  12    6.34    1.09
  -2  -6  12    5.86    1.12
  -2  -6  12    6.55    1.22
  -2  -6  12    5.44    0.57
   1   6 -12   17.44    1.76
   1   6 -12   21.68    2.00
  -1  -6  12   22.56    1.81
  -1  -6  12   21.54    1.33
  -1  -6  12   22.30    1.71
   0   6 -12   36.92    2.25
   0  -6  12   32.91    2.01
   0  -6  12   35.18    1.97
   0  -6  12   29.53    1.82
  -1   6 -12   18.47    1.68
   1  -6  12   15.09    1.40
   1  -6  12   17.53    1.71
   1  -6  12   12.10    1.33
  -2   6 -12    2.66    0.95
  -2   6 -12    0.77    0.83
   2  -6  12    0.20    0.91
   2  -6  12   -0.23    0.75
  -3   6 -12    6.76    1.05
  -3   6 -12   10.53    1.39
  -3   6 -12    9.38    1.35
   3  -6  12    9.00    1.23
   3  -6  12   10.41    1.57
  -4   6 -12    0.80    1.16
  -4   6 -12    0.24    0.63
  -4   6 -12    0.16    0.83
   4  -6  12    0.74    0.91
   4  -6  12    1.72    1.29
   5   5 -12    0.40    1.16
   5   5 -12    2.02    0.74
  -5  -5  12    2.63    1.07
  -5  -5  12    2.62    1.01
  -5  -5  12    0.38    1.07
   4   5 -12   26.55    1.38
   4   5 -12   25.51    2.32
   4   5 -12   29.12    2.04
  -4  -5  12   24.49    1.86
  -4  -5  12   22.86    1.98
  -4  -5  12   24.10    1.86
   3   5 -12   37.26    1.36
   3   5 -12   36.98    2.09
   3   5 -12   37.79    2.58
  -3  -5  12   37.60    2.15
  -3  -5  12   41.54    2.28
  -3  -5  12   37.63    2.32
   2   5 -12   -0.63    0.99
  -2  -5  12   -0.19    0.73
  -2  -5  12    0.06    0.72
  -2  -5  12    4.64    1.05
  -2  -5  12    0.43    0.43
   1   5 -12   16.14    1.78
   1   5 -12   16.77    1.47
  -1  -5  12   15.67    1.31
  -1  -5  12   16.09    1.53
  -1  -5  12   18.25    1.52
   0   5 -12    0.60    0.94
   0   5 -12    1.35    0.73
   0  -5  12    1.30    0.89
   0  -5  12    1.99    0.82
  -1   5 -12   40.80    2.24
  -1   5 -12   36.42    1.95
   1  -5  12   44.26    2.29
   1  -5  12   41.04    2.42
   1  -5  12   39.85    2.23
  -2   5 -12    2.42    0.94
  -2   5 -12    3.83    1.22
  -2   5 -12    3.38    0.84
   2  -5  12    3.99    0.99
   2  -5  12    5.02    1.29
  -3   5 -12    4.54    0.89
  -3   5 -12    4.00    0.90
   3  -5  12    3.65    1.34
   3  -5  12    2.27    0.90
  -4   5 -12    0.76    0.64
  -4   5 -12    0.26    0.95
   4  -5  12    1.79    1.32
   6   4 -12    6.30    0.99
   6   4 -12    6.96    1.42
  -6  -4  12    7.42    1.10
  -6  -4  12    7.20    1.50
  -6  -4  12    6.42    1.83
   5   4 -12    1.89    1.19
   5   4 -12    2.76    0.72
  -5  -4  12    1.83    1.11
  -5  -4  12    1.83    0.96
  -5  -4  12    0.33    0.87
  -5  -4  12    1.95    0.74
   4   4 -12    6.72    1.39
   4   4 -12   10.91    1.35
   4   4 -12    8.24    0.79
  -4  -4  12    8.54    0.83
  -4  -4  12    9.60    1.30
  -4  -4  12    9.33    1.26
  -4  -4  12    8.08    1.37
   3   4 -12   73.30    3.42
   3   4 -12   55.12    3.36
  -3  -4  12   73.49    3.03
  -3  -4  12   70.27    1.90
  -3  -4  12   73.69    2.89
  -3  -4  12   73.77    1.89
   2   4 -12    1.06    0.76
   2   4 -12    2.94    1.18
  -2  -4  12    0.38    0.51
  -2  -4  12    2.51    0.90
   1   4 -12    2.82    1.08
  -1  -4  12    5.36    1.06
  -1  -4  12    3.36    0.86
  -1  -4  12    5.11    0.93
   0   4 -12   -0.37    0.86
   0   4 -12    0.15    0.62
   0  -4  12   -0.28    0.85
   0  -4  12    0.97    0.67
   0  -4  12    0.35    0.76
  -1   4 -12   52.50    2.97
  -1   4 -12   52.88    2.19
   1  -4  12   51.53    2.13
   1  -4  12   53.20    2.49
   1  -4  12   51.70    2.80
  -2   4 -12   17.50    1.07
  -2   4 -12   19.38    1.39
  -2   4 -12   17.49    1.51
   2  -4  12   20.57    1.74
   2  -4  12   20.22    2.11
  -3   4 -12    0.69    0.72
  -3   4 -12   -0.71    0.79
  -3   4 -12   -0.37    0.60
  -3   4 -12    0.38    0.48
   3  -4  12    0.21    0.77
   3  -4  12   -0.68    1.12
  -4   4 -12    6.47    0.88
  -4   4 -12    5.78    0.91
  -4   4 -12    5.69    1.29
  -4   4 -12    6.62    0.72
   4  -4  12    5.66    1.15
   4  -4  12    4.23    1.55
   6   3 -12    5.81    1.33
   6   3 -12    5.48    0.99
  -6  -3  12    4.05    1.16
  -6  -3  12    6.30    1.37
  -6  -3  12    3.07    1.02
  -6  -3  12    6.22    1.08
   5   3 -12   16.14    1.25
   5   3 -12   15.18    1.73
  -5  -3  12   16.55    1.45
  -5  -3  12   13.02    1.63
  -5  -3  12   11.95    1.33
  -5  -3  12   10.92    1.41
   4   3 -12    0.26    1.00
  -4  -3  12    0.49    0.79
  -4  -3  12    0.40    0.56
  -4  -3  12   -0.81    0.72
   3   3 -12   44.61    2.21
   3   3 -12   43.96    2.56
  -3  -3  12   41.72    1.57
  -3  -3  12   42.43    2.22
   2   3 -12   29.48    1.76
   2   3 -12   31.15    2.26
  -2  -3  12   32.18    1.78
  -2  -3  12   30.48    1.68
  -2  -3  12   31.94    1.99
   1   3 -12    0.50    0.61
   1   3 -12   -0.12    0.94
  -1  -3  12    0.39    0.60
  -1  -3  12    0.72    0.77
  -1  -3  12    1.35    0.77
   0   3 -12    1.06    1.11
   0   3 -12    2.08    1.02
   0   3 -12    4.05    0.77
   0   3 -12    2.80    0.75
   0  -3  12    3.29    1.11
   0  -3  12    2.07    0.63
   0  -3  12    3.25    0.93
  -1   3 -12   19.24    2.48
  -1   3 -12   18.81    1.27
  -1   3 -12   15.29    1.19
   1  -3  12   16.99    1.54
   1  -3  12   16.07    1.74
  -2   3 -12   43.17    2.30
  -2   3 -12   39.05    2.06
  -2   3 -12   37.00    1.68
  -2   3 -12   40.92    1.77
   2  -3  12   42.96    2.81
   2  -3  12   44.66    2.34
  -3   3 -12    0.81    0.59
  -3   3 -12   -0.34    0.70
  -3   3 -12   -0.07    0.51
  -3   3 -12    1.65    0.86
   3  -3  12    0.82    0.85
   3  -3  12   -1.13    1.10
  -4   3 -12    0.95    0.63
  -4   3 -12   -0.32    0.94
  -4   3 -12    0.15    0.60
   4  -3  12    0.54    1.26
   4  -3  12    1.27    0.99
   6   2 -12    5.82    1.36
  -6  -2  12    8.66    1.19
  -6  -2  12   10.31    1.44
  -6  -2  12    7.38    1.17
  -6  -2  12    8.44    1.51
   5   2 -12   15.86    1.81
  -5  -2  12   16.65    1.61
  -5  -2  12   15.28    1.69
  -5  -2  12   16.49    1.50
  -5  -2  12   18.46    1.65
   4   2 -12   -0.39    0.95
  -4  -2  12    0.75    0.75
  -4  -2  12   -0.07    0.56
  -4  -2  12    0.29    0.29
  -4  -2  12    0.33    0.78
   3   2 -12   14.08    1.68
  -3  -2  12   17.43    1.54
  -3  -2  12   14.37    1.39
  -3  -2  12   14.36    0.99
  -3  -2  12   16.75    1.69
  -3  -2  12   13.87    0.97
   2   2 -12   63.41    2.49
   2   2 -12   58.87    2.93
  -2  -2  12   61.13    1.58
  -2  -2  12   64.72    2.89
  -2  -2  12   60.11    2.73
  -2  -2  12   63.45    2.38
   1   2 -12    0.45    0.71
   1   2 -12    0.94    0.61
   1   2 -12    1.05    0.98
  -1  -2  12    1.36    0.80
  -1  -2  12    0.89    0.54
   0   2 -12   13.16    1.22
   0   2 -12   10.44    1.05
   0   2 -12    9.97    1.69
   0   2 -12   13.91    1.42
   0  -2  12   10.20    1.19
   0  -2  12   10.04    0.94
  -1   2 -12   10.12    1.11
  -1   2 -12    9.12    1.49
  -1   2 -12    8.97    0.83
   1  -2  12    7.72    1.16
  -2   2 -12   23.76    1.23
  -2   2 -12   26.10    1.88
  -2   2 -12   25.50    1.49
  -2   2 -12   25.52    1.74
   2  -2  12   21.95    1.77
   2  -2  12   25.98    2.25
  -3   2 -12    5.34    0.88
  -3   2 -12    5.32    1.09
  -3   2 -12    6.15    0.70
   3  -2  12    5.61    1.51
   3  -2  12    5.94    1.12
   3  -2  12    6.97    0.80
  -4   2 -12   -1.16    0.90
  -4   2 -12    0.02    0.66
  -4   2 -12   -0.10    0.48
   4  -2  12   -0.88    1.18
   4  -2  12    0.35    0.48
   4  -2  12    0.90    0.94
   7   1 -12    0.86    1.01
  -7  -1  12    1.43    1.45
  -7  -1  12   -0.69    0.91
  -7  -1  12    0.78    1.04
   6   1 -12   14.96    1.70
  -6  -1  12   15.93    1.64
  -6  -1  12   13.15    2.61
  -6  -1  12   14.74    1.43
  -6  -1  12   15.62    1.57
   5   1 -12    6.32    1.36
  -5  -1  12    7.60    1.11
  -5  -1  12    4.21    1.06
  -5  -1  12    7.73    0.62
  -5  -1  12    6.69    1.02
  -5  -1  12    4.59    1.21
   4   1 -12    2.81    1.14
  -4  -1  12    2.62    0.82
  -4  -1  12    2.82    1.03
  -4  -1  12    1.81    0.69
  -4  -1  12    0.82    0.70
  -4  -1  12    1.26    0.46
   3   1 -12    2.64    1.12
  -3  -1  12    1.94    0.56
  -3  -1  12    1.09    0.73
  -3  -1  12    1.74    0.70
  -3  -1  12    1.59    0.58
  -3  -1  12    1.92    0.99
   2   1 -12   60.90    3.01
   2   1 -12   68.29    2.69
  -2  -1  12   64.28    2.90
  -2  -1  12   65.33    2.66
  -2  -1  12   66.16    2.34
  -2  -1  12   60.69    1.97
   1   1 -12    2.41    1.06
   1   1 -12    1.84    1.05
  -1  -1  12    1.09    0.76
  -1  -1  12    2.21    0.24
  -1  -1  12    2.24    0.54
  -1  -1  12    2.13    0.26
   0   1 -12    0.22    0.45
   0   1 -12    0.74    0.75
   0   1 -12    0.06    0.92
   0   1 -12   -0.95    0.60
   0  -1  12    0.56    0.41
   0  -1  12    1.15    0.89
  -1   1 -12   36.20    2.14
  -1   1 -12   43.04    2.01
  -1   1 -12   44.60    1.54
   1  -1  12   42.34    2.24
   1  -1  12   43.12    1.21
  -2   1 -12    0.59    0.36
  -2   1 -12    0.83    0.78
   2  -1  12    1.02    0.56
   2  -1  12    0.85    0.83
  -3   1 -12   11.98    0.77
  -3   1 -12   13.61    1.35
  -3   1 -12   13.54    1.47
   3  -1  12   13.73    1.01
   3  -1  12   11.08    1.40
  -4   1 -12    4.31    1.15
  -4   1 -12    4.20    0.95
  -4   1 -12    2.63    0.46
   4  -1  12    2.66    1.10
   4  -1  12    1.31    1.36
   4  -1  12    3.24    0.70
   7   0 -12    2.00    1.08
  -7   0  12   -0.61    0.98
  -7   0  12    2.55    1.02
  -7   0  12   -0.42    0.71
   6   0 -12   13.57    1.70
  -6   0  12   10.70    1.23
  -6   0  12   12.62    1.50
  -6   0  12   12.23    0.86
  -6   0  12   11.84    2.08
  -6   0  12   10.45    1.27
   5   0 -12    2.55    1.13
  -5   0  12    2.73    1.15
  -5   0  12    1.77    0.53
  -5   0  12    0.93    0.78
  -5   0  12    2.30    0.79
  -5   0  12    0.91    0.80
   4   0 -12   27.12    2.13
  -4   0  12   23.46    2.08
  -4   0  12   26.37    1.36
  -4   0  12   27.10    1.69
  -4   0  12   21.70    1.58
  -4   0  12   24.34    1.56
   3   0 -12   -0.34    0.94
   3   0 -12   -0.28    0.83
  -3   0  12    0.24    0.51
  -3   0  12   -0.70    0.52
  -3   0  12   -0.14    0.60
  -3   0  12    0.81    0.58
  -3   0  12    2.25    0.98
   2   0 -12    6.62    1.13
   2   0 -12    6.69    1.35
  -2   0  12    9.05    0.86
  -2   0  12   10.65    1.12
  -2   0  12    7.91    0.81
  -2   0  12    9.59    1.28
   1   0 -12   24.63    1.68
   1   0 -12   22.15    1.86
  -1   0  12   24.47    1.83
  -1   0  12   22.18    1.07
  -1   0  12   21.12    1.53
   0   0 -12   16.13    1.66
   0   0 -12   18.07    1.54
   0   0 -12   16.88    1.46
   0   0  12   18.25    0.94
   0   0  12   17.66    1.57
  -1   0 -12   28.85    1.79
  -1   0 -12   26.21    1.74
   1   0  12   28.36    1.26
   1   0  12   24.69    1.83
  -2   0 -12   20.21    1.74
  -2   0 -12   22.02    1.60
   2   0  12   19.62    1.79
   2   0  12   20.15    1.21
  -3   0 -12   10.37    1.27
  -3   0 -12   10.32    1.38
   3   0  12    9.64    1.39
   3   0  12    9.59    0.97
  -4   0 -12    0.71    0.89
  -4   0 -12   -1.06    0.96
   4   0  12   -0.61    0.62
   4   0  12   -0.12    0.92
   7  -1 -12    0.31    0.93
  -7   1  12   -0.31    0.66
  -7   1  12   -0.01    1.00
  -7   1  12    1.04    0.55
  -7   1  12   -0.83    0.95
   6  -1 -12    0.83    1.04
  -6   1  12    1.03    0.67
  -6   1  12    0.17    0.97
  -6   1  12    0.49    1.11
  -6   1  12    1.85    0.96
  -6   1  12    1.08    0.54
   5  -1 -12    7.66    1.44
  -5   1  12    8.64    1.45
  -5   1  12    5.44    0.87
  -5   1  12    6.88    1.10
  -5   1  12    9.07    1.13
  -5   1  12    6.17    0.84
   4  -1 -12   35.62    2.08
   4  -1 -12   27.61    2.25
  -4   1  12   35.05    1.72
  -4   1  12   34.60    1.75
  -4   1  12   33.93    1.80
  -4   1  12   30.30    1.73
  -4   1  12   30.58    2.14
   3  -1 -12   19.10    1.66
   3  -1 -12   15.57    1.76
  -3   1  12   14.54    1.51
  -3   1  12   15.26    1.32
  -3   1  12   16.45    1.40
  -3   1  12   15.91    1.19
  -3   1  12   17.13    1.24
   2  -1 -12    0.10    0.95
   2  -1 -12    1.35    0.89
  -2   1  12    0.22    0.57
  -2   1  12    0.50    0.75
  -2   1  12    0.90    0.83
  -2   1  12   -0.19    0.41
  -2   1  12    0.75    0.50
   1  -1 -12   24.51    1.80
   1  -1 -12   25.84    1.97
  -1   1  12   25.91    0.98
  -1   1  12   25.63    1.23
  -1   1  12   24.62    2.09
  -1   1  12   27.18    1.65
   0  -1 -12    5.22    0.87
   0  -1 -12    5.53    1.15
   0   1  12    6.50    1.02
   0   1  12    5.35    0.66
  -1  -1 -12   19.61    1.59
  -1  -1 -12   22.41    1.69
   1   1  12   20.53    1.25
   1   1  12   25.15    1.78
  -2  -1 -12    0.49    0.77
  -2  -1 -12    1.23    0.88
   2   1  12    0.85    0.82
   2   1  12    0.13    0.56
  -3  -1 -12    4.57    1.07
  -3  -1 -12    5.23    1.17
   3   1  12    6.08    1.19
   3   1  12    5.32    0.87
   6  -2 -12   -0.76    0.99
  -6   2  12    1.73    1.00
  -6   2  12   -0.28    0.59
  -6   2  12   -0.04    0.56
  -6   2  12    0.13    0.83
   5  -2 -12    6.15    1.39
  -5   2  12    6.28    0.89
  -5   2  12    6.00    1.00
  -5   2  12    6.82    1.36
  -5   2  12    5.66    0.80
  -5   2  12    5.52    1.18
   4  -2 -12    1.81    1.08
   4  -2 -12    2.91    1.07
  -4   2  12    2.86    1.01
  -4   2  12    3.71    0.83
  -4   2  12    2.75    0.81
  -4   2  12    1.51    0.77
  -4   2  12    2.73    0.65
   3  -2 -12   35.35    2.37
   3  -2 -12   36.83    2.21
  -3   2  12   39.08    2.09
  -3   2  12   38.00    2.23
  -3   2  12   38.73    1.81
  -3   2  12   38.01    1.77
  -3   2  12   39.55    1.65
   2  -2 -12    0.28    0.89
  -2   2  12    1.51    0.60
  -2   2  12    1.42    0.86
  -2   2  12    1.93    1.49
  -2   2  12    1.13    0.40
  -2   2  12    0.95    0.56
   1  -2 -12    4.26    0.76
   1  -2 -12    4.63    1.08
  -1   2  12    3.24    0.87
  -1   2  12    4.48    0.79
   0  -2 -12    3.20    1.08
   0  -2 -12    5.90    1.17
   0   2  12    3.87    0.87
   0   2  12    4.59    0.74
   0   2  12    5.16    0.90
  -1  -2 -12   15.01    1.56
  -1  -2 -12   13.85    1.40
   1   2  12   13.93    1.43
   1   2  12   16.06    1.26
  -2  -2 -12    4.82    1.01
  -2  -2 -12    5.55    1.20
   2   2  12    6.78    0.91
   2   2  12    5.42    1.07
  -3  -2 -12    2.72    1.09
  -3  -2 -12    4.85    1.18
   3   2  12    3.57    0.86
   3   2  12    3.83    1.12
  -6   3  12    1.35    0.57
  -6   3  12   -0.40    0.66
  -6   3  12   -0.70    0.83
  -6   3  12    0.74    0.91
   5  -3 -12    1.01    1.02
  -5   3  12    1.33    0.52
  -5   3  12    1.82    0.82
  -5   3  12    0.93    1.14
  -5   3  12    0.72    0.75
   4  -3 -12   -0.26    0.86
  -4   3  12   -0.05    0.46
  -4   3  12    0.48    1.26
  -4   3  12    1.60    0.80
  -4   3  12    0.48    0.66
  -4   3  12    0.45    0.91
   3  -3 -12   10.30    1.43
  -3   3  12   13.30    1.19
  -3   3  12    9.34    1.24
  -3   3  12   13.61    1.40
  -3   3  12   13.65    0.99
  -3   3  12   12.89    1.06
   2  -3 -12   12.35    1.47
  -2   3  12   14.86    1.48
  -2   3  12   15.84    1.20
  -2   3  12   12.66    0.68
   1  -3 -12   -0.11    0.90
  -1   3  12    1.32    0.63
  -1   3  12    1.29    0.72
  -1   3  12    1.68    0.92
   0  -3 -12    2.77    1.05
   0  -3 -12    1.48    0.81
   0   3  12    0.73    0.68
   0   3  12    0.30    0.63
   0   3  12    2.28    0.82
  -1  -3 -12    7.53    0.97
  -1  -3 -12    8.56    1.34
   1   3  12    7.10    0.92
   1   3  12    7.66    1.10
   1   3  12    6.11    0.97
  -2  -3 -12    6.45    1.29
  -2  -3 -12    5.71    1.04
   2   3  12    7.52    1.16
   2   3  12    4.59    0.94
  -6   4  12   -0.23    0.83
  -6   4  12    1.44    0.85
  -6   4  12    0.16    0.88
  -6   4  12    1.57    0.49
   5  -4 -12    0.99    1.03
  -5   4  12    2.94    0.93
  -5   4  12    2.60    1.01
  -5   4  12    2.11    0.49
  -5   4  12    2.20    0.92
   4  -4 -12    2.00    1.06
  -4   4  12    2.32    0.83
  -4   4  12    1.14    0.46
  -4   4  12    0.46    0.62
  -4   4  12    0.78    0.92
  -4   4  12    1.13    0.86
   3  -4 -12   26.55    2.00
  -3   4  12   24.45    1.62
  -3   4  12   25.49    1.20
  -3   4  12   28.05    1.99
  -3   4  12   22.51    1.23
  -3   4  12   25.46    1.93
   2  -4 -12   24.02    1.89
  -2   4  12   23.15    0.70
  -2   4  12   25.87    1.72
  -2   4  12   22.76    0.70
  -2   4  12   26.28    1.91
  -2   4  12   22.51    1.33
   1  -4 -12    1.30    1.01
  -1   4  12    0.63    0.91
  -1   4  12   -0.20    0.57
  -1   4  12   -0.01    0.67
   0  -4 -12   -0.20    0.51
   0  -4 -12    0.90    0.97
   0   4  12    0.66    0.73
   0   4  12    0.90    0.72
   0   4  12   -0.41    0.96
   0   4  12    0.53    0.63
  -1  -4 -12   -0.29    0.98
  -1  -4 -12    0.36    0.63
   1   4  12   -0.25    0.77
   1   4  12    0.08    0.56
   1   4  12    0.77    0.77
   5  -5 -12    2.57    1.07
  -5   5  12    1.76    0.97
  -5   5  12    0.34    0.82
  -5   5  12    0.63    0.30
  -5   5  12   -0.07    0.84
   4  -5 -12    0.42    0.94
  -4   5  12   -0.13    0.90
  -4   5  12    0.24    0.83
  -4   5  12    0.32    0.34
  -4   5  12    0.48    0.62
   3  -5 -12    1.66    1.09
  -3   5  12    0.66    0.51
  -3   5  12    1.24    0.43
  -3   5  12   -0.51    0.72
  -3   5  12    0.92    0.43
  -3   5  12    0.83    0.93
   2  -5 -12    4.81    1.21
  -2   5  12    6.75    1.00
  -2   5  12    4.93    1.19
  -2   5  12    6.61    0.76
   1  -5 -12    0.38    1.00
  -1   5  12    0.47    0.68
  -1   5  12    1.39    1.01
  -1   5  12    0.70    0.63
   0  -5 -12    0.55    0.55
   0  -5 -12   -0.81    0.90
   0   5  12    0.77    0.84
   0   5  12    2.36    0.66
   0   5  12   -0.39    1.66
   3  -6 -12    0.21    0.99
  -3   6  12    0.36    0.40
  -3   6  12    1.51    1.57
  -3   6  12    0.12    0.37
   2  -6 -12    4.36    1.20
  -2   6  12    2.95    1.50
   1   8 -13    2.69    1.03
   1   8 -13    0.06    1.15
  -1  -8  13    0.38    0.53
  -1  -8  13    1.07    0.90
   0   8 -13    5.86    1.13
   0   8 -13    4.93    1.42
   0  -8  13    6.34    1.14
   0  -8  13    3.82    1.04
   0  -8  13    2.66    0.83
   3   7 -13    6.58    1.22
   3   7 -13    4.95    0.57
   3   7 -13    3.96    1.41
  -3  -7  13    4.34    1.26
  -3  -7  13    3.55    1.03
   2   7 -13   16.10    1.70
   2   7 -13   14.71    1.90
  -2  -7  13   15.78    1.58
  -2  -7  13   14.52    1.65
  -2  -7  13   18.52    1.78
  -2  -7  13   14.91    0.84
   1   7 -13   22.32    1.83
   1   7 -13   19.97    2.13
  -1  -7  13   17.54    1.73
  -1  -7  13   17.35    1.58
  -1  -7  13   17.35    1.25
   0   7 -13    0.14    0.82
   0   7 -13   -0.77    0.92
   0  -7  13   -0.54    0.76
   0  -7  13   -0.02    0.68
   0  -7  13    0.13    0.82
  -1   7 -13    8.12    1.37
  -1   7 -13    6.86    1.19
   1  -7  13    8.12    1.23
   1  -7  13    7.76    1.13
   1  -7  13    7.95    1.28
  -2   7 -13    0.75    0.86
  -2   7 -13    0.81    0.89
   2  -7  13    0.91    1.09
   2  -7  13    0.62    0.99
   4   6 -13    0.87    1.02
   4   6 -13    1.27    1.26
   4   6 -13    0.59    0.55
  -4  -6  13    2.25    1.01
  -4  -6  13    0.62    1.09
  -4  -6  13    1.73    1.03
   3   6 -13    2.18    1.29
   3   6 -13    2.41    1.01
  -3  -6  13    3.18    1.00
  -3  -6  13    3.26    1.31
  -3  -6  13    1.24    0.87
   2   6 -13    8.53    1.63
   2   6 -13   10.29    1.23
  -2  -6  13    8.65    1.25
  -2  -6  13   10.80    1.28
  -2  -6  13    9.76    1.49
  -2  -6  13    8.94    0.79
   1   6 -13   41.22    2.22
   1   6 -13   41.83    2.59
  -1  -6  13   42.10    2.36
  -1  -6  13   40.66    1.83
  -1  -6  13   41.61    2.16
   0   6 -13    0.99    1.05
   0   6 -13    2.47    0.88
   0  -6  13    0.04    1.41
   0  -6  13    1.95    0.85
   0  -6  13    1.49    0.89
  -1   6 -13    5.18    1.12
  -1   6 -13    6.91    1.07
   1  -6  13    6.53    1.05
   1  -6  13    6.36    1.11
   1  -6  13    4.76    1.10
  -2   6 -13    0.93    0.81
  -2   6 -13    0.24    0.92
  -2   6 -13   -0.59    0.76
   2  -6  13    1.39    1.05
   2  -6  13   -0.95    0.84
  -3   6 -13   15.27    1.38
  -3   6 -13   14.22    1.37
  -3   6 -13   13.67    1.80
   3  -6  13   16.35    2.94
   3  -6  13   10.88    1.36
   5   5 -13   19.70    2.09
   5   5 -13   19.68    1.37
  -5  -5  13   18.66    1.88
  -5  -5  13   18.36    1.75
   4   5 -13    4.54    1.37
   4   5 -13    5.28    0.66
   4   5 -13    4.51    1.15
  -4  -5  13    3.18    0.99
  -4  -5  13    4.35    1.14
  -4  -5  13    5.90    1.28
   3   5 -13    1.27    1.13
   3   5 -13    2.98    1.00
  -3  -5  13    3.66    0.95
  -3  -5  13    0.74    1.01
  -3  -5  13    2.62    0.94
   2   5 -13    1.81    1.20
   2   5 -13    1.69    0.94
  -2  -5  13    1.43    0.90
  -2  -5  13    0.82    0.82
  -2  -5  13    1.39    0.50
  -2  -5  13    0.75    1.02
   1   5 -13   69.51    3.13
  -1  -5  13   63.33    2.63
  -1  -5  13   63.57    2.87
  -1  -5  13   61.11    2.45
   0   5 -13   12.56    1.26
   0   5 -13    9.33    1.41
   0  -5  13    8.79    1.23
   0  -5  13   10.26    1.11
   0  -5  13   10.70    1.30
  -1   5 -13    3.30    1.07
  -1   5 -13    2.36    0.81
  -1   5 -13    2.83    0.93
   1  -5  13    4.56    1.18
   1  -5  13    2.54    0.83
   1  -5  13    3.26    0.98
  -2   5 -13    0.94    0.92
  -2   5 -13    2.30    0.95
  -2   5 -13   -0.01    0.71
   2  -5  13    1.01    0.93
   2  -5  13    1.98    1.12
  -3   5 -13    6.55    1.01
  -3   5 -13    6.62    1.12
  -3   5 -13    6.10    1.24
   3  -5  13    5.20    1.66
   5   4 -13   19.97    1.34
   5   4 -13   27.10    2.23
  -5  -4  13   20.86    1.88
  -5  -4  13   23.91    1.97
  -5  -4  13   21.08    2.17
  -5  -4  13   19.93    1.42
   4   4 -13    1.18    0.89
   4   4 -13    1.73    1.21
  -4  -4  13    2.00    0.94
  -4  -4  13    1.02    1.07
  -4  -4  13    2.79    0.96
   3   4 -13   14.39    1.77
  -3  -4  13   17.23    1.57
  -3  -4  13   15.72    1.68
  -3  -4  13   16.50    0.76
  -3  -4  13   15.94    1.53
   2   4 -13    1.17    1.09
   2   4 -13    1.21    0.74
  -2  -4  13    0.54    0.71
  -2  -4  13    0.93    0.58
  -2  -4  13    0.23    0.77
   1   4 -13   15.03    1.43
   1   4 -13   14.73    1.70
  -1  -4  13   20.88    1.45
  -1  -4  13   14.61    1.48
  -1  -4  13   22.30    1.76
   0   4 -13   42.23    2.36
   0  -4  13   36.95    1.83
   0  -4  13   37.28    2.17
   0  -4  13   34.67    2.62
  -1   4 -13   -0.15    0.61
  -1   4 -13    0.61    0.80
  -1   4 -13    0.69    0.93
   1  -4  13   -0.55    0.72
   1  -4  13   -0.72    0.94
  -2   4 -13    0.90    0.90
  -2   4 -13    0.81    0.64
  -2   4 -13    0.89    0.54
  -2   4 -13    0.61    0.82
   2  -4  13    0.39    1.15
   2  -4  13    0.43    0.83
  -3   4 -13    3.76    0.91
  -3   4 -13    3.03    1.00
  -3   4 -13    2.76    0.82
  -3   4 -13    2.07    0.61
   3  -4  13    3.10    0.97
   3  -4  13   -0.07    1.27
   6   3 -13    0.99    1.11
  -6  -3  13   -0.53    1.07
  -6  -3  13    0.91    1.17
  -6  -3  13   -0.14    0.81
  -6  -3  13   -0.86    0.74
   5   3 -13    9.50    1.55
  -5  -3  13    9.08    1.04
  -5  -3  13   10.65    1.52
  -5  -3  13   11.28    1.38
  -5  -3  13    9.74    1.34
   4   3 -13   22.32    2.15
  -4  -3  13   24.30    1.30
  -4  -3  13   25.92    2.02
  -4  -3  13   25.86    1.81
  -4  -3  13   23.94    1.81
   3   3 -13   15.56    1.52
   3   3 -13   11.66    1.66
  -3  -3  13   14.80    1.53
  -3  -3  13   14.05    1.05
  -3  -3  13   15.12    0.90
  -3  -3  13   14.94    1.48
  -3  -3  13   14.04    1.68
   2   3 -13   -0.10    0.99
   2   3 -13    1.69    0.76
  -2  -3  13    0.37    0.70
  -2  -3  13    1.00    0.70
  -2  -3  13    0.46    0.75
  -2  -3  13    1.27    0.97
   1   3 -13   -0.10    0.92
   1   3 -13    0.13    0.63
  -1  -3  13    0.73    0.80
  -1  -3  13    0.21    0.60
  -1  -3  13   -0.31    0.71
   0   3 -13   25.61    1.99
   0   3 -13   25.39    1.50
   0   3 -13   29.03    1.56
   0  -3  13   27.54    1.84
   0  -3  13   28.26    2.50
   0  -3  13   28.56    1.51
  -1   3 -13    0.42    0.64
  -1   3 -13   -0.36    0.84
  -1   3 -13   -0.16    0.80
  -1   3 -13    0.82    0.57
   1  -3  13    0.98    1.09
   1  -3  13   -0.40    0.74
  -2   3 -13    5.32    0.84
  -2   3 -13    5.48    0.78
  -2   3 -13    5.67    1.07
  -2   3 -13    5.77    1.13
   2  -3  13    5.66    1.41
   2  -3  13    4.42    1.03
  -3   3 -13   -0.84    0.50
  -3   3 -13   -0.55    0.55
  -3   3 -13    1.10    0.75
  -3   3 -13   -0.26    0.87
   3  -3  13   -0.92    0.84
   3  -3  13    0.66    1.33
   6   2 -13    8.75    1.53
  -6  -2  13    8.45    1.15
  -6  -2  13    8.88    1.36
  -6  -2  13    8.80    1.21
  -6  -2  13   10.47    1.64
   5   2 -13    0.15    1.11
  -5  -2  13    0.49    0.73
  -5  -2  13    0.37    0.75
  -5  -2  13    1.98    0.95
   4   2 -13   25.06    2.11
  -4  -2  13   29.13    2.23
  -4  -2  13   23.05    1.38
  -4  -2  13   22.23    1.17
  -4  -2  13   20.04    1.68
  -4  -2  13   25.57    1.77
   3   2 -13    0.95    1.12
  -3  -2  13   -0.64    0.63
  -3  -2  13    0.63    0.97
  -3  -2  13    0.06    0.77
  -3  -2  13    0.80    0.48
   2   2 -13   41.48    2.49
   2   2 -13   37.20    1.91
  -2  -2  13   43.29    2.49
  -2  -2  13   43.05    2.20
  -2  -2  13   39.78    1.84
   1   2 -13    3.95    0.92
   1   2 -13    2.59    1.09
   1   2 -13    4.02    0.77
  -1  -2  13    3.66    0.68
  -1  -2  13    4.51    0.95
   0   2 -13   16.69    1.38
   0   2 -13   16.59    1.68
   0   2 -13   17.98    1.20
   0  -2  13   15.17    1.07
   0  -2  13   20.55    1.66
  -1   2 -13    4.54    0.88
  -1   2 -13    5.84    1.04
  -1   2 -13    4.77    0.66
  -1   2 -13    4.11    1.13
   1  -2  13    3.32    0.98
  -2   2 -13    9.01    1.22
  -2   2 -13    7.93    0.74
  -2   2 -13    7.38    1.16
  -2   2 -13    9.08    1.19
   2  -2  13    9.52    1.66
   2  -2  13    8.16    1.23
  -3   2 -13    0.12    0.66
  -3   2 -13    1.45    0.52
  -3   2 -13    3.78    1.02
   3  -2  13    1.46    0.89
   6   1 -13   22.60    2.07
  -6  -1  13   22.48    1.73
  -6  -1  13   15.97    1.88
  -6  -1  13   22.82    1.75
  -6  -1  13   22.17    1.96
   5   1 -13    1.35    1.09
  -5  -1  13    0.57    0.44
  -5  -1  13    0.82    1.06
  -5  -1  13    0.40    0.75
  -5  -1  13    1.15    0.86
  -5  -1  13   -0.22    0.68
   4   1 -13    1.04    1.12
  -4  -1  13    0.35    0.61
  -4  -1  13    0.34    0.73
  -4  -1  13    0.35    0.45
  -4  -1  13    2.33    1.08
  -4  -1  13    0.51    0.70
   3   1 -13    4.93    1.29
  -3  -1  13    5.14    0.90
  -3  -1  13    4.57    1.19
  -3  -1  13    3.42    0.61
  -3  -1  13    3.13    0.66
  -3  -1  13    4.66    0.83
   2   1 -13   22.03    1.69
   2   1 -13   22.39    2.00
  -2  -1  13   22.54    1.34
  -2  -1  13   21.19    0.95
  -2  -1  13   23.14    1.88
  -2  -1  13   23.63    1.67
   1   1 -13   10.70    1.52
   1   1 -13    8.22    1.17
  -1  -1  13   10.71    1.23
  -1  -1  13   11.06    0.93
   0   1 -13    3.34    0.90
   0   1 -13    3.18    1.08
   0  -1  13    3.51    0.92
   0  -1  13    4.14    0.54
  -1   1 -13   20.55    1.01
  -1   1 -13   21.42    1.71
  -1   1 -13   20.17    1.49
  -1   1 -13   19.59    1.72
   1  -1  13   18.31    1.65
  -2   1 -13    3.85    1.04
  -2   1 -13    3.66    0.91
   2  -1  13    1.87    0.95
   2  -1  13    3.33    0.57
  -3   1 -13    6.12    1.25
  -3   1 -13    6.19    0.51
  -3   1 -13    6.84    1.10
   3  -1  13    6.18    1.19
   3  -1  13    6.63    0.69
   6   0 -13   11.71    1.65
  -6   0  13   10.55    1.33
  -6   0  13    8.43    1.16
  -6   0  13   10.21    0.84
  -6   0  13    8.06    1.10
  -6   0  13    7.30    1.50
   5   0 -13    2.96    1.26
  -5   0  13   -0.42    1.04
  -5   0  13    1.10    0.73
  -5   0  13    0.46    0.73
  -5   0  13   -0.50    0.74
  -5   0  13    0.59    0.49
   4   0 -13   -0.20    1.03
  -4   0  13    1.14    0.71
  -4   0  13    0.96    0.73
  -4   0  13    0.44    0.56
  -4   0  13    0.93    0.99
  -4   0  13    0.33    0.66
   3   0 -13   13.08    1.77
   3   0 -13    9.47    1.32
  -3   0  13   10.44    1.40
  -3   0  13    8.90    1.63
  -3   0  13   10.81    1.04
  -3   0  13    7.83    0.95
  -3   0  13    7.77    0.90
   2   0 -13   12.68    1.43
   2   0 -13    7.88    1.42
  -2   0  13   11.94    0.98
  -2   0  13   10.78    1.18
  -2   0  13    8.55    1.26
  -2   0  13   10.91    0.89
   1   0 -13   31.35    2.13
   1   0 -13   28.19    1.87
  -1   0  13   34.03    1.88
  -1   0  13   29.91    1.17
  -1   0  13   30.34    1.24
  -1   0  13   30.74    1.97
   0   0 -13    1.28    0.84
   0   0 -13    1.04    0.67
   0   0 -13    0.65    0.95
   0   0  13    0.59    0.44
   0   0  13    0.97    0.72
   0   0  13    1.78    0.46
  -1   0 -13    5.52    1.11
  -1   0 -13    6.47    1.16
   1   0  13    6.22    0.64
   1   0  13    4.34    0.96
  -2   0 -13    3.01    0.92
  -2   0 -13    1.84    0.94
   2   0  13    2.44    0.60
   2   0  13    3.69    1.05
  -3   0 -13    8.32    1.35
  -3   0 -13    8.04    1.23
   3   0  13    9.28    1.35
   3   0  13    7.33    0.84
   6  -1 -13    0.82    1.06
  -6   1  13    1.27    0.93
  -6   1  13    0.49    1.17
  -6   1  13    0.28    0.54
  -6   1  13    1.83    0.98
  -6   1  13    0.50    0.67
   5  -1 -13    7.54    1.48
  -5   1  13    8.48    1.16
  -5   1  13    9.77    1.50
  -5   1  13    8.27    0.98
  -5   1  13    7.39    0.88
  -5   1  13    7.41    1.04
   4  -1 -13   -0.29    1.03
   4  -1 -13   -0.63    0.85
  -4   1  13   -0.62    0.96
  -4   1  13    0.40    0.60
  -4   1  13    0.90    0.66
  -4   1  13    0.06    0.64
  -4   1  13    0.11    0.65
   3  -1 -13    0.98    0.87
   3  -1 -13    0.20    1.05
  -3   1  13    0.24    0.61
  -3   1  13    1.01    0.72
  -3   1  13    1.10    0.95
  -3   1  13    0.08    0.52
  -3   1  13    0.27    0.54
   2  -1 -13    0.11    0.83
   2  -1 -13    0.24    1.04
  -2   1  13    0.37    0.43
  -2   1  13    0.92    0.50
  -2   1  13    1.73    1.45
  -2   1  13   -0.04    0.78
  -2   1  13    0.53    0.61
   1  -1 -13   22.08    1.75
   1  -1 -13   17.78    1.84
  -1   1  13   20.88    1.74
  -1   1  13   21.81    0.82
  -1   1  13   21.79    1.15
  -1   1  13   24.97    1.97
  -1   1  13   22.28    1.19
   0  -1 -13   11.77    1.21
   0  -1 -13   10.20    1.32
   0   1  13    8.08    1.09
   0   1  13   10.21    0.96
  -1  -1 -13    1.19    0.90
   1   1  13    1.77    0.84
   1   1  13    2.47    0.60
  -2  -1 -13    6.38    1.17
  -2  -1 -13    4.59    1.01
   2   1  13    4.09    0.73
   2   1  13    3.57    1.03
  -3  -1 -13    1.12    0.97
  -3  -1 -13   -1.11    0.89
   3   1  13    1.03    0.72
   3   1  13   -0.20    0.93
   6  -2 -13   15.12    1.78
  -6   2  13   13.45    1.41
  -6   2  13   13.90    1.26
  -6   2  13   13.61    1.47
  -6   2  13   13.78    1.28
  -6   2  13   12.86    1.77
   5  -2 -13   69.76    3.27
  -5   2  13   64.34    2.44
  -5   2  13   66.34    2.57
  -5   2  13   69.58    3.35
  -5   2  13   62.88    2.66
  -5   2  13   68.14    2.72
   4  -2 -13    7.57    1.47
   4  -2 -13    5.61    1.21
  -4   2  13    7.13    0.97
  -4   2  13    5.29    1.69
  -4   2  13    7.70    0.94
  -4   2  13    5.95    0.83
  -4   2  13    6.13    1.28
   3  -2 -13    1.34    1.00
  -3   2  13    0.20    0.88
  -3   2  13    0.84    0.77
  -3   2  13    0.44    0.56
  -3   2  13    0.34    0.48
  -3   2  13    0.61    0.62
   2  -2 -13    1.11    0.98
  -2   2  13    1.10    0.63
  -2   2  13    0.56    0.82
  -2   2  13    0.29    0.42
  -2   2  13    0.99    0.82
  -2   2  13    0.43    0.55
   1  -2 -13   15.99    1.61
  -1   2  13   18.25    1.75
  -1   2  13   17.52    1.58
  -1   2  13   15.77    1.38
   0  -2 -13   31.96    2.07
   0  -2 -13   33.16    1.83
   0   2  13   34.04    1.94
   0   2  13   35.56    1.61
   0   2  13   34.65    1.97
  -1  -2 -13    1.40    0.99
   1   2  13   -0.15    0.80
   1   2  13    0.02    0.57
  -2  -2 -13    0.83    0.95
  -2  -2 -13    0.47    0.79
   2   2  13    0.01    1.06
   2   2  13   -0.44    0.81
   5  -3 -13    2.32    1.15
  -5   3  13    0.40    0.77
  -5   3  13    1.75    0.82
  -5   3  13    3.34    1.20
  -5   3  13    1.81    0.79
  -5   3  13    1.30    0.53
   4  -3 -13    5.84    1.20
  -4   3  13    5.70    0.81
  -4   3  13    7.52    1.35
  -4   3  13    8.06    1.15
  -4   3  13    4.85    0.69
  -4   3  13    5.09    0.92
   3  -3 -13    0.13    0.94
  -3   3  13    0.80    0.88
  -3   3  13    0.42    0.85
  -3   3  13    0.57    0.55
  -3   3  13    0.64    0.44
  -3   3  13    1.40    0.70
   2  -3 -13    0.78    0.99
  -2   3  13    0.19    0.55
  -2   3  13    1.02    0.80
  -2   3  13   -0.18    0.19
  -2   3  13   -0.57    0.78
  -2   3  13   -0.06    0.59
   1  -3 -13    1.03    0.99
  -1   3  13    2.19    1.07
  -1   3  13    2.22    0.73
  -1   3  13    2.94    0.85
   0  -3 -13   10.89    1.11
   0  -3 -13   10.21    1.47
   0   3  13   11.00    1.27
   0   3  13   13.10    1.93
   0   3  13   11.82    1.74
  -1  -3 -13    2.20    1.05
   1   3  13    1.08    0.84
   1   3  13    0.14    0.70
   5  -4 -13   -0.62    0.89
  -5   4  13    0.35    0.79
  -5   4  13    0.87    0.45
  -5   4  13    0.07    0.83
  -5   4  13    2.22    0.87
   4  -4 -13   16.77    1.78
  -4   4  13   15.85    1.18
  -4   4  13   14.32    1.05
  -4   4  13   19.81    1.92
  -4   4  13   19.57    1.70
  -4   4  13   15.25    1.51
   3  -4 -13    0.81    0.94
  -3   4  13    0.49    0.89
  -3   4  13    0.28    0.85
  -3   4  13    2.61    0.82
  -3   4  13    1.47    0.56
  -3   4  13    0.80    0.40
   2  -4 -13    3.00    1.12
  -2   4  13    1.94    0.86
  -2   4  13   -0.33    0.88
  -2   4  13    1.64    0.61
   1  -4 -13    0.07    0.98
  -1   4  13    1.96    0.71
  -1   4  13    0.04    0.85
  -1   4  13   -0.45    0.94
   0  -4 -13    4.56    0.77
   0  -4 -13    3.96    1.20
   0   4  13    2.92    0.84
   0   4  13    2.43    1.50
   0   4  13    3.25    1.38
   0   4  13    3.35    0.81
   3  -5 -13    0.64    1.02
  -3   5  13    0.54    0.35
  -3   5  13   -0.35    0.45
  -3   5  13    1.64    1.01
  -3   5  13    1.17    0.80
   2  -5 -13    7.17    1.29
  -2   5  13    6.23    1.47
  -2   5  13    5.10    1.62
  -2   5  13    5.89    0.77
   1   7 -14   -1.89    0.87
   1   7 -14    0.01    1.06
  -1  -7  14   -0.93    0.79
  -1  -7  14   -0.07    0.58
  -1  -7  14   -0.58    0.83
   0   7 -14   -1.95    0.89
   0  -7  14    0.76    0.74
   0  -7  14   -0.36    0.82
   0  -7  14    0.10    0.81
   3   6 -14   27.35    2.37
   3   6 -14   21.93    1.87
  -3  -6  14   23.42    1.82
  -3  -6  14   22.41    1.91
  -3  -6  14   24.19    2.25
   2   6 -14    1.99    0.94
   2   6 -14    2.96    1.30
  -2  -6  14    0.97    1.27
  -2  -6  14    2.06    0.50
  -2  -6  14    1.46    1.12
  -2  -6  14    0.35    0.85
   1   6 -14    6.71    1.12
   1   6 -14    6.33    1.44
  -1  -6  14    5.91    1.06
  -1  -6  14    5.62    0.88
  -1  -6  14    6.39    1.17
   0   6 -14    0.72    1.01
   0   6 -14    1.58    0.89
   0  -6  14   -0.20    0.77
   0  -6  14    0.82    0.82
   0  -6  14    0.75    0.82
  -1   6 -14   16.31    1.71
  -1   6 -14   16.58    1.55
   1  -6  14   17.48    2.38
   1  -6  14   14.37    1.33
   1  -6  14   15.39    1.60
   4   5 -14    1.02    0.99
   4   5 -14    1.82    1.22
  -4  -5  14    0.47    1.10
  -4  -5  14    0.29    0.98
  -4  -5  14    0.34    0.92
   3   5 -14   14.22    1.50
   3   5 -14   14.66    1.90
  -3  -5  14   13.27    0.49
  -3  -5  14   13.89    0.50
  -3  -5  14   12.63    1.42
  -3  -5  14   15.53    1.73
  -3  -5  14   10.15    1.27
   2   5 -14    9.42    1.18
   2   5 -14    8.85    1.55
  -2  -5  14    9.99    0.97
  -2  -5  14    8.54    1.13
  -2  -5  14   10.97    1.60
  -2  -5  14    8.04    1.18
   1   5 -14    7.80    1.42
  -1  -5  14    8.30    1.09
  -1  -5  14   10.97    1.39
  -1  -5  14    8.78    1.03
   0   5 -14    1.37    1.03
   0  -5  14    1.18    0.89
   0  -5  14    2.08    0.98
   0  -5  14    2.21    0.82
  -1   5 -14   10.17    1.40
   1  -5  14    7.19    1.20
   1  -5  14    9.12    1.40
  -2   5 -14   20.50    2.01
  -2   5 -14   22.18    1.70
   2  -5  14   21.93    2.33
   2  -5  14   24.32    2.14
   4   4 -14    5.47    1.36
  -4  -4  14    5.34    1.29
  -4  -4  14    5.62    1.14
  -4  -4  14    5.62    1.09
   3   4 -14    0.55    0.80
   3   4 -14    2.20    1.22
  -3  -4  14    1.24    0.41
  -3  -4  14    1.24    0.57
  -3  -4  14    0.46    0.81
  -3  -4  14    1.17    1.77
  -3  -4  14    1.85    0.89
   2   4 -14   31.62    2.33
  -2  -4  14   28.27    1.60
  -2  -4  14   34.52    2.27
  -2  -4  14   29.40    1.76
  -2  -4  14   31.02    2.05
   1   4 -14    2.99    1.18
   1   4 -14    2.89    0.84
  -1  -4  14    3.21    0.82
  -1  -4  14    0.71    0.77
  -1  -4  14    2.72    0.97
   0   4 -14   17.36    1.42
   0   4 -14   18.77    1.82
   0  -4  14   17.86    1.75
   0  -4  14   18.26    1.83
   0  -4  14   19.62    1.42
  -1   4 -14   -0.18    0.83
  -1   4 -14    0.24    1.15
  -1   4 -14   -0.16    0.61
   1  -4  14   -0.43    0.80
   1  -4  14    1.23    1.06
  -2   4 -14    5.74    1.06
  -2   4 -14   10.52    1.42
  -2   4 -14    7.67    1.10
  -2   4 -14    8.73    0.90
   2  -4  14    9.48    1.43
   2  -4  14   11.04    1.70
   5   3 -14    1.97    1.18
  -5  -3  14    3.45    0.73
  -5  -3  14    4.20    1.06
  -5  -3  14    2.81    1.24
  -5  -3  14    3.29    1.07
   4   3 -14   33.19    2.43
  -4  -3  14   26.99    0.83
  -4  -3  14   30.03    1.95
  -4  -3  14   28.03    0.82
  -4  -3  14   28.89    1.89
  -4  -3  14   31.08    1.27
  -4  -3  14   27.97    2.22
   3   3 -14    0.95    1.17
  -3  -3  14   -0.02    0.77
  -3  -3  14    1.06    0.46
  -3  -3  14    1.05    0.79
  -3  -3  14    0.38    1.06
  -3  -3  14    0.31    0.55
   2   3 -14   10.15    1.18
   2   3 -14    8.17    1.50
  -2  -3  14    6.71    1.35
  -2  -3  14    8.58    1.18
  -2  -3  14    9.83    1.16
   1   3 -14    3.36    0.94
   1   3 -14    4.28    1.27
  -1  -3  14    4.95    1.00
  -1  -3  14    7.48    1.23
  -1  -3  14    4.74    0.82
   0   3 -14   21.03    1.80
   0   3 -14   19.85    1.36
   0  -3  14   18.79    1.76
   0  -3  14   18.42    1.28
   0  -3  14   19.52    2.04
  -1   3 -14    6.75    0.81
  -1   3 -14    5.41    0.89
  -1   3 -14    7.52    1.18
  -1   3 -14    6.74    1.24
   1  -3  14    4.24    1.04
   1  -3  14    5.58    1.39
  -2   3 -14    0.93    0.85
  -2   3 -14    2.15    1.00
  -2   3 -14    2.93    0.65
  -2   3 -14    1.54    0.69
   2  -3  14    1.10    1.19
   2  -3  14    4.25    1.09
   5   2 -14   -0.56    1.04
  -5  -2  14    1.09    0.87
  -5  -2  14   -0.62    0.75
  -5  -2  14   -0.16    0.66
  -5  -2  14   -2.75    1.04
   4   2 -14   39.44    2.56
  -4  -2  14   30.53    1.97
  -4  -2  14   34.35    1.51
  -4  -2  14   32.27    1.91
  -4  -2  14   33.61    1.52
  -4  -2  14   32.98    1.29
   3   2 -14    1.47    1.19
  -3  -2  14    2.48    0.90
  -3  -2  14    3.59    1.18
  -3  -2  14    2.68    0.37
  -3  -2  14    2.54    0.61
  -3  -2  14    3.71    0.96
   2   2 -14    1.98    1.18
  -2  -2  14    2.45    0.71
  -2  -2  14    2.05    0.87
  -2  -2  14    1.74    1.11
   1   2 -14    2.41    0.71
   1   2 -14    1.24    1.05
   1   2 -14    0.95    0.76
  -1  -2  14    3.55    0.95
  -1  -2  14    2.59    0.64
   0   2 -14   12.53    1.38
   0   2 -14   10.39    0.95
   0   2 -14    8.45    1.11
   0   2 -14    8.09    1.34
   0  -2  14    9.11    1.18
   0  -2  14   10.80    0.94
  -1   2 -14   21.37    1.48
  -1   2 -14   21.80    1.19
  -1   2 -14   18.23    1.72
  -1   2 -14   18.96    1.71
   1  -2  14   20.38    1.81
  -2   2 -14    0.77    0.70
  -2   2 -14    0.72    0.85
  -2   2 -14    1.13    0.51
  -2   2 -14    0.15    0.88
   2  -2  14    0.22    1.27
   2  -2  14    0.73    0.86
   5   1 -14   -0.02    1.09
  -5  -1  14    0.02    0.39
  -5  -1  14   -0.47    1.05
  -5  -1  14    1.02    0.88
  -5  -1  14    0.04    0.69
  -5  -1  14   -0.58    0.66
   4   1 -14    8.51    1.51
  -4  -1  14   11.00    1.16
  -4  -1  14    9.79    0.93
  -4  -1  14    9.22    1.12
  -4  -1  14   10.26    1.55
  -4  -1  14   12.21    1.00
   3   1 -14   22.43    2.11
  -3  -1  14   27.19    1.48
  -3  -1  14   24.86    1.75
  -3  -1  14   24.01    2.06
  -3  -1  14   24.07    1.51
  -3  -1  14   23.09    1.17
   2   1 -14    1.14    1.12
   2   1 -14    0.01    0.82
  -2  -1  14    0.79    0.74
  -2  -1  14    0.22    0.23
  -2  -1  14    0.83    0.97
  -2  -1  14    1.21    0.57
  -2  -1  14    0.69    0.22
   1   1 -14    2.79    1.17
   1   1 -14    3.86    0.98
  -1  -1  14    2.94    1.08
  -1  -1  14    4.40    0.97
  -1  -1  14    4.82    0.63
   0   1 -14    1.39    0.85
   0   1 -14    0.73    0.99
   0   1 -14    1.27    0.81
   0  -1  14    1.07    0.83
  -1   1 -14   20.26    1.76
  -1   1 -14   21.53    1.56
  -1   1 -14   21.71    1.79
   1  -1  14   18.25    1.75
  -2   1 -14    1.44    0.81
  -2   1 -14    2.18    1.04
   2  -1  14    1.62    0.92
   5   0 -14    0.04    1.07
  -5   0  14   -0.13    0.71
  -5   0  14   -1.56    1.05
  -5   0  14    0.87    0.52
  -5   0  14   -0.19    0.70
  -5   0  14   -0.52    0.78
   4   0 -14    0.96    1.10
  -4   0  14    1.16    0.70
  -4   0  14    2.15    0.69
  -4   0  14    2.19    1.08
  -4   0  14    0.66    0.59
   3   0 -14   34.38    2.07
   3   0 -14   27.97    2.29
  -3   0  14   32.20    1.59
  -3   0  14   31.80    1.75
  -3   0  14   32.69    2.26
  -3   0  14   35.24    1.89
  -3   0  14   29.94    1.49
   2   0 -14    3.11    1.19
   2   0 -14    2.57    0.99
  -2   0  14    4.42    0.93
  -2   0  14    4.00    0.63
  -2   0  14    3.77    0.55
  -2   0  14    3.85    1.08
   1   0 -14    0.64    1.03
   1   0 -14    1.55    0.89
  -1   0  14    0.89    0.93
  -1   0  14    1.45    0.40
  -1   0  14    1.46    0.38
  -1   0  14    0.77    0.78
   0   0 -14    2.70    0.80
   0   0 -14    3.14    0.97
   0   0 -14    4.33    1.16
   0   0  14    2.52    0.38
   0   0  14    3.03    0.86
  -1   0 -14   10.14    1.19
  -1   0 -14    8.72    1.21
   1   0  14    9.83    1.30
   1   0  14    9.29    0.77
  -2   0 -14    4.83    1.05
   2   0  14    6.56    0.68
   2   0  14    5.72    1.20
   5  -1 -14    0.34    1.09
  -5   1  14    0.43    0.68
  -5   1  14    0.30    1.20
  -5   1  14    2.51    0.87
  -5   1  14    1.00    0.65
   4  -1 -14    0.20    1.07
   4  -1 -14   -0.20    0.93
  -4   1  14    0.50    0.69
  -4   1  14    0.15    0.62
  -4   1  14    0.17    0.62
  -4   1  14    0.80    0.67
  -4   1  14    0.91    1.06
   3  -1 -14   16.32    1.87
   3  -1 -14   24.30    1.80
  -3   1  14   16.55    1.67
  -3   1  14   19.35    1.48
  -3   1  14   15.34    1.20
  -3   1  14   19.68    1.16
  -3   1  14   17.12    1.53
   2  -1 -14    8.00    1.27
   2  -1 -14    3.47    1.25
  -2   1  14    8.50    0.78
  -2   1  14    6.68    1.09
  -2   1  14    7.57    0.65
  -2   1  14    9.47    1.08
  -2   1  14    8.64    1.28
   1  -1 -14    0.95    0.90
  -1   1  14    0.77    0.47
  -1   1  14   -0.61    0.66
  -1   1  14   -1.59    0.83
  -1   1  14    0.42    0.43
   0  -1 -14   23.31    1.74
   0  -1 -14   25.70    1.82
   0   1  14   21.00    1.70
   0   1  14   18.48    1.74
   0   1  14   22.84    1.21
  -1  -1 -14    1.71    0.87
  -1  -1 -14    3.09    1.05
   1   1  14    2.85    0.95
   1   1  14    2.67    0.61
   5  -2 -14    1.34    1.12
  -5   2  14   -0.64    1.10
  -5   2  14    2.97    0.82
  -5   2  14    0.52    0.75
  -5   2  14    0.93    0.78
  -5   2  14    2.34    0.70
   4  -2 -14   -1.21    0.90
   4  -2 -14    1.22    1.11
  -4   2  14    0.57    0.67
  -4   2  14   -0.16    0.66
  -4   2  14    1.20    1.06
  -4   2  14    0.63    0.60
  -4   2  14    0.23    0.71
   3  -2 -14    0.63    0.95
  -3   2  14    0.98    0.61
  -3   2  14    0.03    0.46
  -3   2  14    1.23    0.61
  -3   2  14    1.35    0.99
  -3   2  14    0.27    0.80
   2  -2 -14   13.17    1.55
  -2   2  14   13.80    0.79
  -2   2  14   13.22    1.39
  -2   2  14   11.58    1.09
  -2   2  14   16.49    1.60
   1  -2 -14    0.40    0.93
  -1   2  14   -0.26    0.67
  -1   2  14    0.76    0.88
  -1   2  14   -0.08    0.47
  -1   2  14    0.23    0.92
  -1   2  14    0.17    0.55
   0  -2 -14    9.65    1.39
   0   2  14    7.86    1.08
   0   2  14    5.98    1.06
   0   2  14    5.69    0.81
  -1  -2 -14    8.46    1.11
  -1  -2 -14    9.37    1.37
   1   2  14    8.74    1.25
   1   2  14    7.26    0.92
   1   2  14    8.96    1.14
   4  -3 -14    6.12    1.30
  -4   3  14    6.87    0.97
  -4   3  14    7.52    1.15
  -4   3  14    9.22    0.90
  -4   3  14    5.64    1.27
  -4   3  14    9.13    0.88
   3  -3 -14   -0.76    0.88
  -3   3  14    0.13    0.67
  -3   3  14    0.08    0.87
  -3   3  14    1.54    0.61
  -3   3  14    0.16    0.40
  -3   3  14    0.17    0.92
   2  -3 -14    4.57    1.17
  -2   3  14    7.29    1.17
  -2   3  14    6.26    0.84
  -2   3  14    6.34    1.24
  -2   3  14    6.68    0.84
   1  -3 -14    1.16    1.04
  -1   3  14    0.03    0.64
  -1   3  14    0.41    0.97
  -1   3  14    0.50    0.67
  -1   3  14    0.81    0.84
   0  -3 -14    4.56    1.20
   0   3  14    5.71    1.02
   0   3  14    6.24    1.95
   0   3  14    3.86    0.90
   0   3  14    4.75    0.83
   2   5 -15   17.90    1.75
   2   5 -15   19.36    2.03
  -2  -5  15   18.53    1.23
  -2  -5  15   17.77    1.92
  -2  -5  15   15.81    1.81
  -2  -5  15   16.12    1.56
   1   5 -15    1.83    1.16
   1   5 -15    0.96    0.79
  -1  -5  15    0.46    1.47
  -1  -5  15    0.44    0.76
   0   5 -15    6.47    1.34
   0   5 -15    5.94    1.00
   0  -5  15    7.79    1.27
   0  -5  15    3.99    1.09
   0  -5  15    6.22    0.94
   3   4 -15   -0.71    1.05
   3   4 -15   -0.82    0.83
  -3  -4  15   -0.96    0.79
  -3  -4  15    1.73    0.86
  -3  -4  15    0.47    0.39
  -3  -4  15    0.18    1.14
  -3  -4  15    0.82    0.46
   2   4 -15   24.60    2.22
   2   4 -15   26.35    1.79
  -2  -4  15   23.14    1.66
  -2  -4  15   23.02    1.87
  -2  -4  15   22.47    1.53
  -2  -4  15   24.95    2.13
   1   4 -15    5.99    1.35
   1   4 -15    4.43    1.19
  -1  -4  15    7.86    1.13
  -1  -4  15    5.82    1.13
  -1  -4  15    6.01    0.91
   0   4 -15    4.75    1.23
   0   4 -15    5.45    0.93
   0  -4  15    5.18    1.21
   0  -4  15    3.91    1.07
   0  -4  15    4.31    0.80
  -1   4 -15    4.60    1.14
  -1   4 -15    7.02    1.29
  -1   4 -15    5.98    0.89
   1  -4  15    3.87    1.28
   1  -4  15    6.13    1.49
   4   3 -15    0.90    1.16
  -4  -3  15    1.12    0.53
  -4  -3  15    1.00    0.28
  -4  -3  15    1.59    1.21
  -4  -3  15    0.56    0.89
  -4  -3  15    0.15    0.83
   3   3 -15    0.29    1.11
  -3  -3  15    1.30    0.78
  -3  -3  15    1.17    0.85
  -3  -3  15    0.07    0.57
  -3  -3  15   -0.97    1.05
  -3  -3  15   -0.22    0.45
   2   3 -15   29.76    2.29
   2   3 -15   24.23    1.67
  -2  -3  15   26.70    1.90
  -2  -3  15   25.46    1.59
  -2  -3  15   27.27    2.16
  -2  -3  15   25.22    1.78
   1   3 -15   19.62    1.95
   1   3 -15   16.31    1.43
  -1  -3  15   15.98    1.65
  -1  -3  15   19.24    1.93
  -1  -3  15   18.47    1.29
   0   3 -15    0.56    0.98
   0   3 -15    0.34    0.69
   0   3 -15   -0.24    0.61
   0  -3  15   -0.17    1.05
   0  -3  15   -0.12    0.53
   0  -3  15   -0.42    0.81
  -1   3 -15    2.09    0.75
  -1   3 -15    2.09    0.66
  -1   3 -15    0.93    0.96
  -1   3 -15    1.10    0.90
   1  -3  15    2.82    1.03
   1  -3  15    2.24    1.31
   4   2 -15    4.07    1.36
  -4  -2  15    2.46    0.86
  -4  -2  15    3.98    0.55
  -4  -2  15    3.74    0.56
  -4  -2  15    2.29    0.66
  -4  -2  15    1.96    1.21
  -4  -2  15    3.93    0.95
   3   2 -15    0.69    1.07
  -3  -2  15   -0.27    0.74
  -3  -2  15    0.55    0.55
  -3  -2  15    0.10    1.09
  -3  -2  15    1.36    0.73
   2   2 -15    3.34    1.25
  -2  -2  15    2.38    0.69
  -2  -2  15    1.59    1.75
  -2  -2  15    3.07    0.88
   1   2 -15   26.91    1.71
   1   2 -15   24.17    2.11
  -1  -2  15   25.25    1.36
  -1  -2  15   25.13    1.85
   0   2 -15    3.08    1.14
   0   2 -15    2.71    0.68
   0   2 -15    2.83    0.84
   0  -2  15    1.41    0.95
  -1   2 -15    0.90    0.75
  -1   2 -15    0.82    0.82
  -1   2 -15   -0.61    0.90
  -1   2 -15   -0.07    0.50
   1  -2  15    0.42    0.87
   1  -2  15    1.60    1.27
   4   1 -15    0.42    1.05
  -4  -1  15    1.08    1.13
  -4  -1  15    0.04    0.69
  -4  -1  15    0.41    0.72
  -4  -1  15   -0.34    0.53
  -4  -1  15   -0.25    0.51
   3   1 -15    1.24    1.18
  -3  -1  15    0.38    0.62
  -3  -1  15    0.95    0.76
  -3  -1  15    0.59    0.63
   2   1 -15    1.87    0.95
   2   1 -15    1.77    1.20
  -2  -1  15    0.51    0.97
  -2  -1  15    1.65    0.82
  -2  -1  15    0.97    0.57
   1   1 -15    9.42    1.23
   1   1 -15    9.95    1.56
  -1  -1  15    8.77    0.88
  -1  -1  15    8.85    1.38
  -1  -1  15    7.47    1.10
   0   1 -15    1.08    0.81
   0   1 -15    2.13    0.90
   0   1 -15    1.57    1.07
   0  -1  15    2.13    0.96
  -1   1 -15    1.93    0.91
  -1   1 -15    1.10    0.89
   1  -1  15    0.52    0.89
   4   0 -15    1.26    1.13
  -4   0  15    4.87    0.97
  -4   0  15    2.93    0.79
  -4   0  15    1.79    1.21
  -4   0  15    4.11    0.78
  -4   0  15    4.37    0.80
   3   0 -15    6.79    1.37
   3   0 -15    9.45    1.33
  -3   0  15    8.83    1.29
  -3   0  15    8.41    0.83
  -3   0  15    8.97    1.55
  -3   0  15   11.01    1.22
  -3   0  15    8.79    0.91
   2   0 -15    2.74    1.20
   2   0 -15    4.42    1.10
  -2   0  15    2.94    0.43
  -2   0  15    5.43    1.00
  -2   0  15    3.50    0.59
  -2   0  15    4.95    1.20
  -2   0  15    3.37    0.85
   1   0 -15    4.92    1.26
   1   0 -15    4.68    1.09
  -1   0  15    5.77    1.00
  -1   0  15    4.41    0.40
  -1   0  15    5.22    0.49
  -1   0  15    6.05    1.18
  -1   0  15    4.70    0.40
   0   0 -15    6.21    1.08
   0   0 -15    8.80    1.24
   0   0  15    7.41    1.14
   0   0  15    6.85    0.44
   0   0  15    7.24    0.41
  -1   0 -15    0.35    1.06
  -1   0 -15    0.91    0.87
   1   0  15    1.38    0.96
   1   0  15    0.97    0.27
   1   0  15    1.02    0.41
   4  -1 -15    3.46    1.16
   4  -1 -15    2.91    1.28
  -4   1  15    2.39    0.71
  -4   1  15    4.70    1.32
  -4   1  15    1.71    0.74
  -4   1  15    2.85    0.76
  -4   1  15    3.80    0.82
   3  -1 -15    0.15    0.89
   3  -1 -15    0.28    1.04
  -3   1  15    1.38    0.56
  -3   1  15    0.76    0.61
  -3   1  15    1.33    1.02
  -3   1  15    0.42    0.64
  -3   1  15    0.94    0.83
   2  -1 -15    6.28    1.20
   2  -1 -15    5.93    1.32
  -2   1  15    3.28    0.62
  -2   1  15    3.98    1.15
  -2   1  15    5.68    1.05
  -2   1  15    5.24    0.53
  -2   1  15    5.77    1.00
   1  -1 -15    0.05    0.90
  -1   1  15    0.33    0.44
  -1   1  15    0.42    0.47
  -1   1  15   -0.76    0.85
  -1   1  15    0.11    0.66
   0  -1 -15    7.32    1.26
   0  -1 -15    7.93    1.10
   0   1  15    6.32    0.67
   0   1  15    6.39    0.61
   0   1  15    4.63    1.14
   0   1  15    3.79    0.95
   3  -2 -15   -0.55    0.86
  -3   2  15   -0.11    0.45
  -3   2  15   -0.40    0.84
  -3   2  15   -0.35    0.60
  -3   2  15   -0.65    0.97
  -3   2  15    1.15    0.66
   2  -2 -15   10.66    1.48
  -2   2  15    6.32    0.77
  -2   2  15    7.88    1.33
  -2   2  15    8.20    1.17
  -2   2  15    7.54    0.96
   1  -2 -15    0.10    0.90
  -1   2  15    0.85    0.97
  -1   2  15   -0.01    0.54
  -1   2  15    1.11    0.90
  -1   2  15    0.39    0.56
  -1   2  15   -0.42    0.72
   2   2 -16    1.61    1.14
  -2  -2  16    2.08    0.76
  -2  -2  16    2.26    1.20
  -2  -2  16    2.45    0.94
   1   2 -16    7.06    1.09
   1   2 -16    8.20    1.52
  -1  -2  16    7.25    1.14
  -1  -2  16    5.92    0.78
  -1  -2  16    6.69    1.42
   2   1 -16    7.79    1.46
   2   1 -16    6.28    1.18
  -2  -1  16    7.09    1.10
  -2  -1  16    6.14    1.40
  -2  -1  16    6.63    0.78
  -2  -1  16    7.05    1.06
   0   0   0    0.00    0.00
;
loop_
_space_group_symop_operation_xyz
'x, y, z'
'-x, -y, -z'
loop_
_atom_site_label
_atom_site_type_symbol
_atom_site_fract_x
_atom_site_fract_y
_atom_site_fract_z
_atom_site_U_iso_or_equiv
_atom_site_adp_type
_atom_site_occupancy
_atom_site_site_symmetry_order
_atom_site_calc_flag
_atom_site_refinement_flags_posn
_atom_site_refinement_flags_adp
_atom_site_refinement_flags_occupancy
_atom_site_disorder_assembly
_atom_site_disorder_group
Br1 Br 0.10184(4) 0.49086(3) 0.77333(2) 0.04662(10) Uani 1 1 d . . . . .
Br2 Br 0.34294(4) 1.34147(3) 0.03626(2) 0.05154(10) Uani 1 1 d . . . . .
C1 C 0.1306(3) 0.7890(3) 0.51219(19) 0.0344(5) Uani 1 1 d . . . . .
C2 C 0.2973(4) 0.7758(3) 0.5805(2) 0.0381(5) Uani 1 1 d . . . . .
H2B H 0.4176 0.8273 0.5733 0.046 Uiso 1 1 calc R . . . .
C3AA C 0.4688(5) 0.6853(4) 0.2888(3) 0.0709(10) Uani 1 1 d . . . . .
H3AA H 0.5272 0.6428 0.2307 0.106 Uiso 1 1 calc GR . . . .
H3AB H 0.3538 0.7194 0.2576 0.106 Uiso 1 1 calc GR . . . .
H3AC H 0.4345 0.6070 0.3299 0.106 Uiso 1 1 calc GR . . . .
C3 C 0.2883(4) 0.6879(3) 0.6589(2) 0.0397(6) Uani 1 1 d . . . . .
H3 H 0.4016 0.6791 0.7055 0.048 Uiso 1 1 calc R . . . .
C4 C 0.1129(4) 0.6138(3) 0.66817(19) 0.0365(5) Uani 1 1 d . . . . .
C5 C -0.0543(4) 0.6275(3) 0.6030(2) 0.0385(5) Uani 1 1 d . . . . .
H5 H -0.1742 0.5770 0.6116 0.046 Uiso 1 1 calc R . . . .
C6 C -0.0449(4) 0.7156(3) 0.52495(19) 0.0354(5) Uani 1 1 d . . . . .
H6 H -0.1590 0.7259 0.4800 0.043 Uiso 1 1 calc R . . . .
C7 C 0.1553(4) 0.8851(3) 0.42971(19) 0.0342(5) Uani 1 1 d . . . . .
C8 C -0.1239(3) 1.0016(3) 0.22009(18) 0.0340(5) Uani 1 1 d . . . . .
H8 H -0.2486 0.9570 0.2254 0.041 Uiso 1 1 calc R . . . .
C9 C -0.0972(4) 1.0896(3) 0.13783(19) 0.0343(5) Uani 1 1 d . . . . .
C10 C 0.0854(3) 1.1611(3) 0.12888(19) 0.0355(5) Uani 1 1 d . . . . .
C11 C 0.0982(4) 1.2425(3) 0.0477(2) 0.0377(5) Uani 1 1 d . . . . .
C12 C -0.0614(4) 1.2551(3) -0.0248(2) 0.0434(6) Uani 1 1 d . . . . .
H12 H -0.0481 1.3104 -0.0805 0.052 Uiso 1 1 calc R . . . .
C13 C -0.2398(4) 1.1867(3) -0.0154(2) 0.0446(6) Uani 1 1 d . . . . .
H13 H -0.3503 1.1949 -0.0644 0.054 Uiso 1 1 calc R . . . .
C14 C -0.2570(4) 1.1065(3) 0.0655(2) 0.0393(6) Uani 1 1 d . . . . .
H14 H -0.3806 1.0614 0.0723 0.047 Uiso 1 1 calc R . . . .
N1 N 0.0224(3) 0.9845(2) 0.28554(15) 0.0335(4) Uani 1 1 d . . . . .
N2 N -0.0056(3) 0.9018(2) 0.36357(15) 0.0332(4) Uani 1 1 d . . . . .
H2A H -0.1204 0.8620 0.3705 0.040 Uiso 1 1 calc R . . . .
O1 O 0.3128(3) 0.9463(2) 0.42131(15) 0.0433(4) Uani 1 1 d . . . . .
O2 O 0.2476(2) 1.1526(2) 0.19744(14) 0.0404(4) Uani 1 1 d . . . . .
H2 H 0.2191 1.1033 0.2441 0.061 Uiso 1 1 calc GR . . . .
O3 O 0.5985(3) 0.8092(2) 0.35738(16) 0.0491(5) Uani 1 1 d . . . . .
H3A H 0.5388 0.8665 0.3902 0.074 Uiso 1 1 calc GR . . . .
loop_
_atom_site_aniso_label
_atom_site_aniso_U_11
_atom_site_aniso_U_22
_atom_site_aniso_U_33
_atom_site_aniso_U_23
_atom_site_aniso_U_13
_atom_site_aniso_U_12
Br1 0.05852(19) 0.04220(15) 0.04228(15) 0.01647(11) 0.01352(13) 0.00791(13)
Br2 0.04231(17) 0.05841(19) 0.05990(18) 0.02465(14) 0.01959(13) 0.00478(13)
O1 0.0294(9) 0.0521(11) 0.0511(10) 0.0232(9) 0.0068(8) 0.0050(8)
O2 0.0298(9) 0.0505(11) 0.0411(9) 0.0157(8) 0.0049(7) 0.0049(8)
O3 0.0307(10) 0.0550(12) 0.0599(12) 0.0090(10) 0.0112(9) 0.0049(9)
C13 0.0393(15) 0.0580(17) 0.0375(13) 0.0151(12) 0.0021(11) 0.0137(13)
N2 0.0293(10) 0.0359(10) 0.0351(10) 0.0106(8) 0.0075(8) 0.0043(8)
C7 0.0334(13) 0.0336(12) 0.0346(12) 0.0052(10) 0.0061(10) 0.0072(10)
C9 0.0329(13) 0.0352(12) 0.0340(12) 0.0064(10) 0.0069(10) 0.0053(10)
C3AA 0.050(2) 0.074(2) 0.079(2) 0.0050(19) 0.0062(18) 0.0036(18)
C8 0.0307(13) 0.0350(12) 0.0342(12) 0.0056(10) 0.0061(10) 0.0032(10)
N1 0.0355(11) 0.0353(10) 0.0306(10) 0.0081(8) 0.0079(9) 0.0073(9)
C10 0.0328(13) 0.0374(13) 0.0350(12) 0.0053(10) 0.0063(10) 0.0067(10)
C2 0.0349(13) 0.0409(13) 0.0406(13) 0.0129(11) 0.0097(11) 0.0074(11)
C5 0.0389(14) 0.0363(13) 0.0398(13) 0.0072(10) 0.0111(11) 0.0037(11)
C1 0.0337(13) 0.0322(12) 0.0363(12) 0.0058(10) 0.0072(10) 0.0054(10)
C11 0.0352(13) 0.0402(13) 0.0397(13) 0.0093(11) 0.0136(11) 0.0053(11)
C14 0.0312(13) 0.0444(14) 0.0396(13) 0.0094(11) 0.0044(10) 0.0021(11)
C4 0.0471(15) 0.0307(12) 0.0338(12) 0.0096(10) 0.0118(11) 0.0071(11)
C3 0.0396(14) 0.0411(14) 0.0385(13) 0.0108(11) 0.0062(11) 0.0080(11)
C6 0.0333(13) 0.0353(12) 0.0372(12) 0.0071(10) 0.0059(10) 0.0070(10)
C12 0.0479(16) 0.0517(15) 0.0374(13) 0.0181(12) 0.0142(12) 0.0148(13)
loop_
_atom_type_symbol
_atom_type_description
_atom_type_scat_dispersion_real
_atom_type_scat_dispersion_imag
_atom_type_scat_source
C C 0.0033 0.0016 'International Tables Vol C Tables 4.2.6.8 and 6.1.1.4'
H H 0.0000 0.0000 'International Tables Vol C Tables 4.2.6.8 and 6.1.1.4'
Br Br -0.2901 2.4595 'International Tables Vol C Tables 4.2.6.8 and 6.1.1.4'
N N 0.0061 0.0033 'International Tables Vol C Tables 4.2.6.8 and 6.1.1.4'
O O 0.0106 0.0060 'International Tables Vol C Tables 4.2.6.8 and 6.1.1.4'
loop_
_geom_angle_atom_site_label_1
_geom_angle_atom_site_label_2
_geom_angle_atom_site_label_3
_geom_angle
_geom_angle_site_symmetry_1
_geom_angle_site_symmetry_3
C14 C13 C12 119.7(2) . .
C7 N2 N1 116.0(2) . .
O1 C7 N2 120.9(2) . .
O1 C7 C1 121.7(2) . .
N2 C7 C1 117.5(2) . .
C10 C9 C8 122.1(2) . .
C14 C9 C8 119.3(2) . .
C14 C9 C10 118.6(2) . .
N1 C8 C9 119.3(2) . .
C8 N1 N2 118.5(2) . .
O2 C10 C9 122.2(2) . .
O2 C10 C11 119.4(2) . .
C11 C10 C9 118.4(2) . .
C3 C2 C1 120.5(2) . .
C4 C5 C6 119.2(2) . .
C2 C1 C7 116.5(2) . .
C6 C1 C7 124.2(2) . .
C6 C1 C2 119.2(2) . .
C10 C11 Br2 118.72(19) . .
C10 C11 C12 122.1(2) . .
C12 C11 Br2 119.15(19) . .
C13 C14 C9 121.7(2) . .
C5 C4 Br1 119.57(19) . .
C3 C4 Br1 118.77(19) . .
C3 C4 C5 121.7(2) . .
C4 C3 C2 118.9(2) . .
C5 C6 C1 120.4(2) . .
C13 C12 C11 119.5(2) . .
loop_
_geom_bond_atom_site_label_1
_geom_bond_atom_site_label_2
_geom_bond_distance
_geom_bond_site_symmetry_2
Br1 C4 1.894(2) .
Br2 C11 1.899(3) .
O1 C7 1.220(3) .
O2 C10 1.361(3) .
O3 C3AA 1.399(4) .
C13 C14 1.376(4) .
C13 C12 1.378(4) .
N2 C7 1.363(3) .
N2 N1 1.372(3) .
C7 C1 1.496(3) .
C9 C8 1.448(3) .
C9 C10 1.412(3) .
C9 C14 1.399(4) .
C8 N1 1.280(3) .
C10 C11 1.383(3) .
C2 C1 1.398(3) .
C2 C3 1.389(3) .
C5 C4 1.383(4) .
C5 C6 1.387(3) .
C1 C6 1.390(3) .
C11 C12 1.385(4) .
C4 C3 1.376(4) .
