#------------------------------------------------------------------------------
#$Date: 2022-03-25 11:47:17 +0200 (Fri, 25 Mar 2022) $
#$Revision: 273985 $
#$URL: file:///home/coder/svn-repositories/cod/cif/8/10/48/8104871.cif $
#------------------------------------------------------------------------------
#
# This file is available in the Crystallography Open Database (COD),
# http://www.crystallography.net/
#
# All data on this site have been placed in the public domain by the
# contributors.
#
data_8104871
loop_
_publ_author_name
'Jing, Nie'
'Jian-Hua, Wei'
'Zhong-Hai, Ni'
_publ_section_title
;
 Synthesis, crystal structure and optical property of
 1,6-bis(p-tolylthio)pyrene, C30H22S2
;
_journal_issue                   1
_journal_name_full
'Zeitschrift f\"ur Kristallographie - New Crystal Structures'
_journal_page_first              21
_journal_page_last               23
_journal_paper_doi               10.1515/ncrs-2020-0466
_journal_volume                  236
_journal_year                    2021
_chemical_formula_moiety         'C30 H22 S2'
_chemical_formula_sum            'C30 H22 S2'
_chemical_formula_weight         446.59
_space_group_crystal_system      triclinic
_space_group_IT_number           2
_space_group_name_Hall           '-P 1'
_space_group_name_H-M_alt        'P -1'
_atom_sites_solution_hydrogens   geom
_cell_angle_alpha                110.4180(10)
_cell_angle_beta                 97.6810(10)
_cell_angle_gamma                108.8430(10)
_cell_formula_units_Z            1
_cell_length_a                   7.5621(2)
_cell_length_b                   8.6787(3)
_cell_length_c                   9.8951(3)
_cell_measurement_reflns_used    4565
_cell_measurement_temperature    200(2)
_cell_measurement_theta_max      27.23
_cell_measurement_theta_min      3.01
_cell_volume                     553.33(3)
_computing_cell_refinement       'SAINT-Plus (Bruker, 2001)'
_computing_data_collection       'APEX2 (Bruker, 2004)'
_computing_data_reduction        SAINT-Plus
_computing_structure_refinement  'SHELXL-2014/7 (Sheldrick, 2014)'
_computing_structure_solution    'SHELXL-2014/7 (Sheldrick, 2008)'
_diffrn_ambient_temperature      200(2)
_diffrn_measured_fraction_theta_full 0.998
_diffrn_measured_fraction_theta_max 0.998
_diffrn_measurement_device_type  'Bruker APEX II CCD area-detector'
_diffrn_measurement_method       '\f and \w scans'
_diffrn_radiation_type           MoK\a
_diffrn_radiation_wavelength     0.71073
_diffrn_reflns_av_R_equivalents  0.0918
_diffrn_reflns_av_unetI/netI     0.0349
_diffrn_reflns_Laue_measured_fraction_full 0.998
_diffrn_reflns_Laue_measured_fraction_max 0.998
_diffrn_reflns_limit_h_max       9
_diffrn_reflns_limit_h_min       -9
_diffrn_reflns_limit_k_max       11
_diffrn_reflns_limit_k_min       -11
_diffrn_reflns_limit_l_max       12
_diffrn_reflns_limit_l_min       -12
_diffrn_reflns_number            23062
_diffrn_reflns_point_group_measured_fraction_full 0.998
_diffrn_reflns_point_group_measured_fraction_max 0.998
_diffrn_reflns_theta_full        25.242
_diffrn_reflns_theta_max         27.494
_diffrn_reflns_theta_min         2.286
_diffrn_source                   'fine-focus sealed tube'
_exptl_absorpt_coefficient_mu    0.257
_exptl_absorpt_correction_T_max  0.982
_exptl_absorpt_correction_T_min  0.959
_exptl_absorpt_correction_type   multi-scan
_exptl_absorpt_process_details   '(SADABS; Sheldrick, 2014)'
_exptl_crystal_colour            Yellow
_exptl_crystal_density_diffrn    1.340
_exptl_crystal_description       Needle
_exptl_crystal_F_000             234
_exptl_crystal_size_max          0.18
_exptl_crystal_size_mid          0.08
_exptl_crystal_size_min          0.06
_refine_diff_density_max         0.397
_refine_diff_density_min         -0.314
_refine_diff_density_rms         0.070
_refine_ls_extinction_coef       0.105(16)
_refine_ls_extinction_expression Fc^*^=kFc[1+0.001xFc^2^\l^3^/sin(2\q)]^-1/4^
_refine_ls_extinction_method     'SHELXL-2014/7 (Sheldrick 2014'
_refine_ls_goodness_of_fit_ref   1.032
_refine_ls_hydrogen_treatment    constr
_refine_ls_matrix_type           full
_refine_ls_number_parameters     147
_refine_ls_number_reflns         2535
_refine_ls_number_restraints     0
_refine_ls_restrained_S_all      1.032
_refine_ls_R_factor_all          0.0477
_refine_ls_R_factor_gt           0.0413
_refine_ls_shift/su_max          0.000
_refine_ls_shift/su_mean         0.000
_refine_ls_structure_factor_coef Fsqd
_refine_ls_weighting_details
'w=1/[\s^2^(Fo^2^)+(0.0599P)^2^+0.1733P] where P=(Fo^2^+2Fc^2^)/3'
_refine_ls_weighting_scheme      calc
_refine_ls_wR_factor_gt          0.1115
_refine_ls_wR_factor_ref         0.1160
_reflns_Friedel_coverage         0.000
_reflns_Friedel_fraction_full    .
_reflns_Friedel_fraction_max     .
_reflns_number_gt                2191
_reflns_number_total             2535
_reflns_threshold_expression     'I > 2\s(I)'
_cod_data_source_file            suppl_j_ncrs-2020-0466_suppl.cif
_cod_data_source_block           02
_cod_database_code               8104871
_shelx_space_group_comment
;
The symmetry employed for this shelxl refinement is uniquely defined
by the following loop, which should always be used as a source of
symmetry information in preference to the above space-group names.
They are only intended as comments.
;
_shelx_res_file
;

    02.res created by SHELXL-2014/7

TITL 20180825Ni1_0m_a.res in P-1
CELL 0.71073 7.5621 8.6787 9.8951 110.418 97.681 108.843
ZERR 1.00 0.0002 0.0003 0.0003 0.001 0.001 0.001
LATT 1
SFAC C  H  S
UNIT 30  22  2
L.S. 20
ACTA
BOND $H
FMAP 2
PLAN 10
Htab
TEMP -73.160
WGHT    0.059900    0.173300
EXTI    0.104873
FVAR       1.62363
S1    3    0.593297    0.462314    0.780167    11.00000    0.03449    0.03397 =
         0.06075    0.02123    0.00287    0.01025
C1    1    0.341035    0.365981    0.688119    11.00000    0.03257    0.03358 =
         0.03093    0.01624    0.01027    0.01210
C2    1    0.233837    0.469281    0.684796    11.00000    0.03962    0.02967 =
         0.03727    0.01485    0.01246    0.01373
AFIX  43
H2    2    0.296376    0.596251    0.734064    11.00000   -1.20000
AFIX   0
C3    1    0.037509    0.388928    0.610576    11.00000    0.03897    0.03389 =
         0.03825    0.01815    0.01478    0.01903
AFIX  43
H3    2   -0.033476    0.461682    0.611731    11.00000   -1.20000
AFIX   0
C4    1   -0.058338    0.203036    0.534019    11.00000    0.03407    0.03306 =
         0.03028    0.01728    0.01424    0.01653
C5    1    0.047919    0.095144    0.537992    11.00000    0.03192    0.03221 =
         0.02671    0.01670    0.01416    0.01514
C6    1    0.248962    0.177216    0.617385    11.00000    0.03301    0.03243 =
         0.02697    0.01597    0.01276    0.01467
C7    1   -0.259564    0.116744    0.451736    11.00000    0.03473    0.03755 =
         0.03786    0.01968    0.01277    0.01963
AFIX  43
H7    2   -0.331089    0.187924    0.447848    11.00000   -1.20000
AFIX   0
C8    1   -0.350157   -0.063236    0.379552    11.00000    0.03128    0.03684 =
         0.03408    0.01744    0.00977    0.01541
AFIX  43
H8    2   -0.483762   -0.115896    0.325488    11.00000   -1.20000
AFIX   0
C9    1    0.658598    0.695078    0.833910    11.00000    0.03141    0.03310 =
         0.03831    0.01619    0.00735    0.01000
C10   1    0.700321    0.769042    0.732447    11.00000    0.04792    0.03800 =
         0.03076    0.01253    0.01285    0.01419
AFIX  43
H10   2    0.685601    0.693998    0.631591    11.00000   -1.20000
AFIX   0
C11   1    0.763464    0.952501    0.778564    11.00000    0.04766    0.04014 =
         0.03661    0.02115    0.01819    0.01660
AFIX  43
H11   2    0.789508    1.001885    0.707916    11.00000   -1.20000
AFIX   0
C12   1    0.789591    1.065965    0.925753    11.00000    0.03229    0.03517 =
         0.03809    0.01479    0.00906    0.01375
C13   1    0.745980    0.989492    1.025459    11.00000    0.05554    0.04402 =
         0.02992    0.01305    0.01390    0.02121
AFIX  43
H13   2    0.761022    1.064559    1.126383    11.00000   -1.20000
AFIX   0
C14   1    0.681070    0.806273    0.981011    11.00000    0.04851    0.04674 =
         0.03510    0.02312    0.01478    0.01770
AFIX  43
H14   2    0.651912    0.756610    1.051046    11.00000   -1.20000
AFIX   0
C15   1    0.863585    1.265096    0.974113    11.00000    0.05542    0.03645 =
         0.05352    0.01544    0.01155    0.01852
AFIX 137
H15A  2    0.937022    1.297888    0.906902    11.00000   -1.50000
H15B  2    0.948604    1.326340    1.077091    11.00000   -1.50000
H15C  2    0.753414    1.301000    0.969904    11.00000   -1.50000
AFIX   0
HKLF 4 1 1 0 0 0 1 0 0 0 1

REM  20180825Ni1_0m_a.res in P-1
REM R1 =  0.0413 for    2191 Fo > 4sig(Fo)  and  0.0477 for all    2535 data
REM    147 parameters refined using      0 restraints

END

WGHT      0.0633      0.1521

REM No hydrogen bonds found for HTAB generation

REM Highest difference peak  0.397,  deepest hole -0.314,  1-sigma level  0.070
Q1    1   0.2956  0.1259  0.6216  11.00000  0.05    0.40
Q2    1  -0.1585  0.1603  0.4965  11.00000  0.05    0.35
Q3    1   0.2986  0.4219  0.6981  11.00000  0.05    0.33
Q4    1   0.3006  0.2744  0.6670  11.00000  0.05    0.31
Q5    1  -0.0077  0.1528  0.5378  11.00000  0.05    0.31
Q6    1   0.4430  0.4160  0.7255  11.00000  0.05    0.29
Q7    1   0.1584  0.1379  0.5843  11.00000  0.05    0.28
Q8    1  -0.3034  0.0243  0.4449  11.00000  0.05    0.25
Q9    1  -0.0004  0.2902  0.5495  11.00000  0.05    0.23
Q10   1   0.0000  0.0000  0.5000  10.50000  0.05    0.21
;
_shelx_hkl_file
;
   0   0  -1    0.11    0.25
   0   0   1  161.44    3.87
   0   0   1  148.13    4.09
   0   0   1   -0.51    0.51
   0   0  -2   17.00    1.59
   0   0  -2   12.77    1.45
   0   0  -2   16.35    1.48
   0   0  -2   15.62    1.56
   0   0  -2   12.15    1.30
   0   0  -2   11.61    3.76
   0   0   2   16.82    1.59
   0   0   2   16.06    1.59
   0   0   2   17.11    1.56
   0   0   2   17.21    1.63
   0   0   2   14.29    1.41
   0   0   2   13.06    3.69
   0   0  -3  616.83   10.89
   0   0  -3  586.96   10.56
   0   0  -3  611.66   10.52
   0   0  -3  707.46   11.97
   0   0  -3  609.67   10.96
   0   0  -3  576.32   10.34
   0   0  -3  698.85   28.46
   0   0   3  585.65   10.60
   0   0   3  601.78   10.81
   0   0   3  701.92   11.36
   0   0   3  663.26   11.50
   0   0   3  590.75   10.42
   0   0   3  693.50   36.02
   0   0  -4 1324.14   18.55
   0   0  -4 1129.57   17.00
   0   0  -4 1218.43   17.21
   0   0  -4 1279.37   18.41
   0   0  -4 1173.95   17.18
   0   0  -4 1444.24   47.67
   0   0   4 1190.04   17.54
   0   0   4 1180.89   17.65
   0   0   4 1372.60   18.44
   0   0   4 1316.65   18.84
   0   0   4 1184.58   17.11
   0   0   4 1148.74   42.82
   0   0  -5  883.47   17.07
   0   0  -5  794.65   16.06
   0   0  -5  869.44   16.38
   0   0  -5  964.23   18.41
   0   0  -5  882.60   17.25
   0   0  -5  780.40   15.80
   0   0  -5  963.68   43.87
   0   0   5  854.94   16.78
   0   0   5  814.90   16.56
   0   0   5  907.20   16.89
   0   0   5  931.28   17.90
   0   0   5  807.13   15.91
   0   0   5  879.96   42.17
   0   0  -6    2.97    1.66
   0   0  -6   -1.16    0.51
   0   0  -6    3.07    1.30
   0   0  -6    0.61    0.87
   0   0  -6   -1.37    0.72
   0   0  -6    0.80    0.76
   0   0  -6    2.31    4.77
   0   0   6   -0.33    0.69
   0   0   6    0.14    0.72
   0   0   6   -0.47    0.61
   0   0   6   -0.94    0.90
   0   0   6    0.04    0.54
   0   0   6    4.41    4.34
   0   0  -7   80.11    6.44
   0   0  -7   66.76    5.75
   0   0  -7   76.05    5.82
   0   0  -7   79.02    6.44
   0   0  -7   80.97    6.47
   0   0  -7   68.46    5.75
   0   0  -7   63.69   15.98
   0   0   7   78.44    6.29
   0   0   7   70.16    5.93
   0   0   7   83.87    6.26
   0   0   7   68.32    6.00
   0   0   7   65.86    5.61
   0   0   7   79.71   18.62
   0   0  -8    0.14    1.30
   0   0  -8    4.20    1.99
   0   0  -8   -1.05    1.08
   0   0  -8    0.69    2.64
   0   0  -8    1.88    1.16
   0   0  -8   17.54    9.37
   0   0   8    3.07    1.74
   0   0   8   -0.25    1.30
   0   0   8    3.47    1.77
   0   0   8    0.29    1.16
   0   0   8    1.52    1.48
   0   0  -9   28.61    5.57
   0   0  -9   20.18    4.38
   0   0  -9   24.05    6.33
   0   0  -9    7.63   13.09
   0   0   9   19.24    3.80
   0   0   9   18.95    4.23
   0   0   9   32.58    5.82
   0   0   9   21.88    4.12
   0   0   9   21.74    4.48
   0   0   9   30.41   14.14
   0   0 -10    3.65    2.46
   0   0 -10    5.53    2.53
   0   0 -10   10.20   10.92
   0   0  10    1.81    2.24
   0   0  10    3.83    2.06
   0   0  10    0.33    2.03
   0   0  10    4.30    1.77
   0   0 -11    4.27    2.35
   0   0 -11    6.40    3.54
   0   0 -11  -21.84   13.38
   0   0  11    1.01    2.42
   0   0  11   -2.17    1.84
   0   0  11  -22.82   15.73
   0  -1  12   12.59    4.05
   0  -1  12   26.18    5.57
   0  -1  12   -8.06   22.13
   0   1 -12   38.23    7.49
   0   1 -12   22.57    5.39
   0   1 -12   60.43   28.46
   0  -1  11    2.86    3.11
   0  -1  11    1.92    1.95
   0  -1  11    2.31    1.66
   0  -1  11    2.35   11.17
   0   1 -11    4.70    2.42
   0   1 -11   -0.18    1.84
   0   1 -11   44.52   19.53
   0  -1  10   16.96    4.23
   0  -1  10   47.09    7.81
   0  -1  10   33.85    5.75
   0   1 -10   34.18    6.11
   0   1 -10   26.29    5.10
   0   1 -10   35.88    5.64
   0   1 -10   68.32   21.41
   0  -1   9    7.92    3.18
   0  -1   9    9.66    3.04
   0  -1   9   12.87    3.18
   0  -1   9    9.69    3.54
   0  -1   9    5.24    2.35
   0  -1   9   17.00   12.66
   0   1  -9    7.67    3.04
   0   1  -9   13.34    3.54
   0   1  -9   19.71    4.81
   0   1  -9   11.36    3.98
   0   1  -9   42.17   13.89
   0  -1   8  192.29   10.02
   0  -1   8  197.39   10.31
   0  -1   8  231.64   10.38
   0  -1   8  230.91   11.57
   0  -1   8  185.49    9.80
   0  -1   8  192.04   29.11
   0   1  -8  231.78   13.63
   0   1  -8  188.74    9.73
   0   1  -8  213.48    9.69
   0   1  -8  247.30   11.83
   0   1  -8  201.98   10.67
   0   1  -8  261.07   28.35
   0  -1   7   11.79    2.89
   0  -1   7   13.13    3.04
   0  -1   7   16.46    3.51
   0  -1   7   10.78    2.57
   0  -1   7   17.00    9.19
   0   1  -7   11.17    2.53
   0   1  -7   11.28    2.60
   0   1  -7   18.77    3.58
   0   1  -7   12.12    2.64
   0   1  -7   16.96    3.80
   0   1  -7   24.34   10.05
   0  -1   6  160.21    7.63
   0  -1   6  155.87    7.56
   0  -1   6  196.41    7.81
   0  -1   6  169.87    8.35
   0  -1   6  153.19    7.52
   0  -1   6  167.37   18.62
   0   1  -6  171.35    7.85
   0   1  -6  156.23    7.41
   0   1  -6  154.17    6.87
   0   1  -6  187.12    8.57
   0   1  -6  176.95    8.35
   0   1  -6  220.57   21.74
   0  -1   5   14.25    2.68
   0  -1   5   14.65    2.68
   0  -1   5   11.10    2.21
   0  -1   5   10.38    2.17
   0  -1   5   10.20    2.10
   0  -1   5    9.66    4.88
   0   1  -5   13.38    2.53
   0   1  -5    8.64    3.65
   0   1  -5   11.90    1.01
   0   1  -5   11.17    2.03
   0   1  -5   12.26    2.50
   0   1  -5    7.12    3.40
   0   1  -5   10.85    5.82
   0  -1   4   65.49    3.87
   0  -1   4   55.59    3.58
   0  -1   4   66.72    3.51
   0  -1   4   59.27    3.80
   0  -1   4   66.04    4.16
   0  -1   4   58.62    3.76
   0  -1   4   65.10   10.85
   0   1  -4   59.96    3.69
   0   1  -4   62.85    3.76
   0   1  -4   61.81    2.24
   0   1  -4   61.99    3.36
   0   1  -4   81.37    4.48
   0   1  -4   55.87    3.80
   0   1  -4   74.93   12.04
   0  -1   3 1384.21   14.86
   0  -1   3 1260.45   14.29
   0  -1   3 1406.99   12.87
   0  -1   3 1439.72   15.84
   0  -1   3 1380.74   16.09
   0  -1   3 1189.46   14.50
   0  -1   3 1355.86   48.75
   0   1  -3 1404.93   14.94
   0   1  -3 1197.56   13.74
   0   1  -3 1415.02   10.56
   0   1  -3 1312.02   12.37
   0   1  -3 1532.92   16.46
   0   1  -3 1311.30   15.59
   0   1  -3 1525.58   38.44
   0  -1   1  338.43    4.70
   0  -1   1  283.32    4.34
   0  -1   1  337.35    4.99
   0  -1   1  390.47    4.99
   0  -1   1  334.56   11.54
   0   1  -1  272.90    4.23
   0   1  -1  393.80    5.39
   0   1  -1  261.65    4.09
   0  -1   0  272.32    4.59
   0  -1   0  277.13    4.63
   0  -1   0  326.82    2.86
   0  -1   0  300.10    4.41
   0  -1   0  262.34    4.38
   0  -1   0  289.14   11.72
   0   1   0  254.13    4.41
   0   1   0  172.14    3.65
   0   1   0  223.06    3.83
   0   1   0  301.80    4.70
   0   1   0   15.30    3.04
   0  -1  -1  198.44    5.03
   0  -1  -1  193.55    4.95
   0  -1  -1  200.17    4.99
   0  -1  -1  209.39    4.77
   0  -1  -1  232.90   13.38
   0   1   1  182.74    4.81
   0   1   1  197.35    5.03
   0   1   1  214.13    3.62
   0   1   1  217.39    4.45
   0   1   1  206.94    4.74
   0   1   1  219.30   13.02
   0  -1  -2 1716.78   17.83
   0  -1  -2 2568.17   27.12
   0  -1  -2 1786.04   18.15
   0  -1  -2 1764.88   16.35
   0  -1  -2 1717.94   16.64
   0  -1  -2 1831.57   45.39
   0   1   2 1611.58   17.18
   0   1   2 1700.58   17.76
   0   1   2 1951.92   19.10
   0   1   2 1821.84   16.71
   0   1   2 1754.25   16.71
   0   1   2 1821.91   45.35
   0  -1  -3  977.14   15.62
   0  -1  -3  920.21   15.01
   0  -1  -3  952.36   15.33
   0  -1  -3  974.24   14.54
   0  -1  -3  920.83   14.25
   0  -1  -3  970.05   39.60
   0   1   3  869.84   14.65
   0   1   3  918.01   15.19
   0   1   3 1028.17   16.06
   0   1   3  980.21   14.72
   0   1   3  913.67   14.10
   0   1   3 1006.18   38.99
   0  -1  -4   55.33    4.27
   0  -1  -4   50.74    4.27
   0  -1  -4   52.55    4.05
   0  -1  -4   51.21    3.87
   0  -1  -4   57.79    4.09
   0  -1  -4   57.79   12.44
   0   1   4   53.49    4.16
   0   1   4   48.57    4.01
   0   1   4   60.40    4.41
   0   1   4   56.56    4.16
   0   1   4   55.01    3.98
   0   1   4   45.35   11.39
   0  -1  -5    0.07    0.80
   0  -1  -5    2.24    1.23
   0  -1  -5    4.63    1.63
   0  -1  -5    4.34    1.48
   0  -1  -5    3.62    1.59
   0  -1  -5    5.68    5.57
   0   1   5    2.39    1.37
   0   1   5    1.23    1.16
   0   1   5    5.50    1.63
   0   1   5    2.93    1.48
   0   1   5    2.71    1.19
   0   1   5    5.35    5.39
   0  -1  -6   20.72    4.59
   0  -1  -6   22.13    3.58
   0  -1  -6   34.32    5.14
   0  -1  -6   32.91    5.03
   0  -1  -6   30.67    4.92
   0  -1  -6   32.44    4.81
   0  -1  -6   30.85   10.27
   0   1   6   24.66    4.41
   0   1   6   31.07    4.81
   0   1   6   23.80    3.94
   0   1   6   24.77    3.87
   0   1   6   21.77    3.54
   0   1   6   24.38   10.85
   0  -1  -7   26.40    4.67
   0  -1  -7   18.70    3.58
   0  -1  -7   19.75    4.23
   0  -1  -7   31.17    5.28
   0  -1  -7   22.49    3.80
   0  -1  -7   33.56    5.32
   0  -1  -7   30.56   13.27
   0   1   7   26.65    4.88
   0   1   7   24.70    4.56
   0   1   7   32.73    5.53
   0   1   7   33.74    5.57
   0   1   7   26.83    4.67
   0   1   7   36.60   13.34
   0  -1  -8    4.16    2.42
   0  -1  -8    7.12    2.75
   0  -1  -8    9.58    2.97
   0  -1  -8    4.34    2.03
   0  -1  -8    7.59    7.05
   0   1   8    1.81    2.21
   0   1   8    6.62    3.00
   0   1   8    4.56    1.81
   0   1   8    8.28    2.97
   0   1   8    5.35    2.28
   0   1   8   16.24   12.12
   0  -1  -9    9.73    3.00
   0  -1  -9   22.02    5.32
   0  -1  -9    6.80    2.89
   0  -1  -9  -18.95   10.63
   0   1   9   15.77    4.27
   0   1   9    1.12    1.84
   0   1   9   15.62    3.62
   0   1   9   12.08    6.44
   0   1   9   -4.41   12.22
   0  -1 -10   66.40    7.56
   0  -1 -10   73.45    8.25
   0  -1 -10   62.96    6.69
   0  -1 -10   12.51   15.95
   0   1  10   44.81    7.02
   0   1  10   62.38    7.41
   0   1  10   52.33    8.46
   0   1  10   35.88   19.02
   0  -1 -11  215.51   14.47
   0  -1 -11  215.29   14.97
   0  -1 -11  107.55   36.20
   0   1  11  180.68   13.42
   0   1  11  215.25   14.47
   0   1  11   60.43   25.57
   0  -2  12    6.08    3.62
   0  -2  12   12.69    4.38
   0  -2  12   23.07   17.72
   0   2 -12   20.40    4.92
   0   2 -12   11.14    4.30
   0   2 -12   31.03   20.11
   0  -2  11   33.52    6.69
   0  -2  11   31.25    5.32
   0  -2  11   40.40    6.62
   0  -2  11   16.13   16.17
   0   2 -11   55.33    6.80
   0   2 -11   36.92    6.11
   0   2 -11   55.30    6.69
   0   2 -11   20.14   15.41
   0  -2  10  440.74   16.89
   0  -2  10  462.37   17.61
   0  -2  10  553.21   20.36
   0   2 -10  547.93   18.73
   0   2 -10  430.72   14.94
   0   2 -10  514.66   22.78
   0   2 -10  500.96   43.90
   0  -2   9   53.96    5.86
   0  -2   9   52.95    5.64
   0  -2   9   62.93    6.58
   0  -2   9   45.86    5.64
   0  -2   9   63.22   18.37
   0   2  -9   57.54    5.86
   0   2  -9   57.07    5.10
   0   2  -9   67.99    6.58
   0   2  -9   83.36   20.79
   0  -2   8   35.91    4.30
   0  -2   8   43.76    4.74
   0  -2   8   49.00    5.42
   0  -2   8   37.00    4.41
   0  -2   8   47.59   14.50
   0   2  -8   52.48    5.21
   0   2  -8   40.40    4.56
   0   2  -8   42.10    4.01
   0   2  -8   45.42    5.03
   0   2  -8   43.83    6.47
   0   2  -8   29.73   12.40
   0  -2   7  507.36   14.36
   0  -2   7  460.16   13.78
   0  -2   7  465.59   14.25
   0  -2   7  561.17   36.45
   0   2  -7  547.68   14.76
   0   2  -7  477.45   13.63
   0   2  -7  559.36    8.75
   0   2  -7  494.34   12.19
   0   2  -7  579.87   16.09
   0   2  -7  500.52   15.23
   0   2  -7  567.35   36.63
   0  -2   6   97.14    5.71
   0  -2   6   83.94    5.39
   0  -2   6  101.88    4.95
   0  -2   6   93.34    5.86
   0  -2   6   92.11    6.04
   0  -2   6   81.80    5.50
   0  -2   6   80.76   15.37
   0   2  -6   99.74    5.75
   0   2  -6   77.79    5.03
   0   2  -6   94.14    3.80
   0   2  -6   82.85    4.48
   0   2  -6   99.85    6.15
   0   2  -6   86.47    5.79
   0   2  -6   64.55   13.53
   0  -2   5  568.58   12.37
   0  -2   5  491.62   11.61
   0  -2   5  627.39   13.63
   0  -2   5  601.78   13.89
   0  -2   5  504.50   12.40
   0  -2   5  614.26   31.39
   0   2  -5  575.42   12.37
   0   2  -5  515.02   11.61
   0   2  -5  557.81    9.26
   0   2  -5  530.03    9.58
   0   2  -5  637.15   13.85
   0   2  -5  533.87   12.95
   0   2  -5  606.70   31.35
   0  -2   4   73.20    3.98
   0  -2   4   61.59    3.69
   0  -2   4   70.16    4.09
   0  -2   4   69.87    4.23
   0  -2   4   72.33   11.50
   0   2  -4   74.64    3.98
   0   2  -4   67.12    3.76
   0   2  -4   62.85    2.68
   0   2  -4   74.32    4.23
   0   2  -4   67.48    4.12
   0   2  -4   83.07   10.23
   0  -2   3 2250.57   19.17
   0  -2   3 1869.25   17.58
   0  -2   3 2354.76   20.79
   0  -2   3 2341.09   20.87
   0  -2   3 2573.38   50.49
   0   2  -3 2160.34   18.70
   0   2  -3 1826.00   17.07
   0   2  -3 2140.38   10.92
   0   2  -3 2384.46   21.05
   0   2  -3 2154.01   19.89
   0  -2   2 2728.38   19.10
   0  -2   2 3407.45   52.19
   0  -2   2 3010.51   49.04
   0   2  -2 2670.23   18.62
   0  -2   1  461.39    7.78
   0  -2   1  513.65    8.14
   0  -2   1  528.77    6.18
   0  -2   1  629.09    7.41
   0  -2   1  512.49   20.07
   0   2  -1  447.29    7.56
   0   2  -1  485.73    7.92
   0   2  -1  535.46    6.22
   0   2  -1  611.55    7.31
   0  -2   0  716.39   10.60
   0  -2   0  726.88   10.63
   0  -2   0  799.75    6.22
   0  -2   0  779.50   10.09
   0  -2   0  773.31   10.67
   0  -2   0  843.18   28.46
   0   2   0  670.06   10.16
   0   2   0  707.53   10.49
   0   2   0  793.53   10.20
   0   2   0  741.63   10.42
   0   2   0  736.89   26.44
   0  -2  -1  671.22   11.65
   0  -2  -1  667.35   11.54
   0  -2  -1  701.74   11.57
   0  -2  -1  709.99   11.17
   0  -2  -1  680.41   28.79
   0   2   1  617.01   11.07
   0   2   1  657.55   11.50
   0   2   1  706.55    6.94
   0   2   1  711.00   11.72
   0   2   1  677.77   10.85
   0   2   1  661.78   28.35
   0  -2  -2  932.80   15.51
   0  -2  -2  957.17   15.59
   0  -2  -2 1025.16   16.06
   0  -2  -2 1005.96   14.90
   0  -2  -2 1017.71   39.71
   0   2   2  909.33   15.19
   0   2   2  924.88   15.44
   0   2   2 1025.06   11.03
   0   2   2 1110.33   16.89
   0   2   2 1069.25   14.03
   0   2   2 1019.05   14.86
   0   2   2  906.04   37.76
   0  -2  -3  395.79   11.28
   0  -2  -3  380.06   10.92
   0  -2  -3  396.08   11.32
   0  -2  -3  402.48   10.52
   0  -2  -3  385.77   27.12
   0   2   3  359.73   10.63
   0   2   3  423.67    8.64
   0   2   3  410.72   11.54
   0   2   3  406.75   10.09
   0   2   3  404.07   10.45
   0   2   3  394.34   27.41
   0  -2  -4   12.33    2.93
   0  -2  -4   11.03    2.64
   0  -2  -4    8.79    2.31
   0  -2  -4    9.04    2.13
   0  -2  -4    5.86    4.48
   0   2   4    6.33    1.95
   0   2   4   11.17    2.06
   0   2   4    9.22    2.28
   0   2   4    8.50    1.92
   0   2   4    7.92    2.21
   0   2   4   22.78    8.21
   0  -2  -5    3.83    1.84
   0  -2  -5    7.67    2.31
   0  -2  -5    5.35    1.95
   0  -2  -5    5.03    1.84
   0  -2  -5   12.51    8.61
   0   2   5    6.18    2.28
   0   2   5    4.99    1.84
   0   2   5    7.09    1.77
   0   2   5   10.49    2.93
   0   2   5    4.74    1.84
   0   2   5    2.64    1.27
   0   2   5   -4.16    4.77
   0  -2  -6  101.41    7.52
   0  -2  -6   94.21    7.20
   0  -2  -6  102.53    7.52
   0  -2  -6   98.01    6.91
   0  -2  -6  103.54   22.21
   0   2   6   96.23    7.23
   0   2   6   89.15    7.12
   0   2   6  104.05    6.15
   0   2   6  103.54    7.63
   0   2   6  102.31    7.05
   0   2   6  103.94    6.94
   0   2   6  111.71   22.49
   0  -2  -7  246.25   12.44
   0  -2  -7  228.27   12.01
   0  -2  -7  222.56   11.72
   0  -2  -7  224.73   11.14
   0  -2  -7  219.20   37.58
   0   2   7  223.35   11.75
   0   2   7  260.10   12.95
   0   2   7  267.62   10.81
   0   2   7  283.86   13.38
   0   2   7  284.65   12.73
   0   2   7  245.45   11.54
   0   2   7  185.74   31.35
   0  -2  -8   10.96    3.62
   0  -2  -8    8.90    3.29
   0  -2  -8   10.31    3.07
   0  -2  -8   20.69   10.78
   0   2   8   12.87    4.01
   0   2   8    7.85    2.93
   0   2   8   11.21    3.29
   0   2   8   10.42    4.56
   0   2   8   18.88    4.48
   0   2   8    8.28    3.25
   0   2   8   45.68   17.21
   0  -2  -9  181.33   12.15
   0  -2  -9  177.21   12.40
   0  -2  -9  157.17   10.52
   0  -2  -9  135.58   31.97
   0   2   9  153.95   11.21
   0   2   9  158.40    9.62
   0   2   9  179.92   12.22
   0   2   9  172.87   11.46
   0  -2 -10   52.01    8.90
   0  -2 -10   47.56    7.70
   0  -2 -10   43.47    7.70
   0  -2 -10    0.07   21.95
   0   2  10   32.44    6.29
   0   2  10   57.97    9.19
   0   2  10   57.79    6.80
   0   2  10   35.51   24.74
   0  -3  12   56.56    7.88
   0  -3  12   27.27    5.03
   0  -3  12   61.19    9.73
   0  -3  12   95.29   25.53
   0   3 -12   80.83    8.14
   0   3 -12   60.68    7.81
   0   3 -12   79.60    8.25
   0   3 -12   70.70   22.21
   0  -3  11   29.87    5.50
   0  -3  11   18.55    4.45
   0  -3  11   29.40    6.08
   0  -3  11   34.28   17.36
   0   3 -11   31.75    5.75
   0   3 -11   28.43    4.52
   0   3 -11   28.82    5.21
   0   3 -11    9.98   15.84
   0  -3  10   27.74    5.24
   0  -3  10   26.54    9.08
   0   3 -10   39.67    6.44
   0   3 -10   27.92    4.23
   0   3 -10   35.44    6.29
   0   3 -10   11.39   11.79
   0  -3   9   52.80    5.35
   0  -3   9   47.95    5.32
   0  -3   9   46.72    5.68
   0  -3   9   45.53    6.55
   0  -3   9   46.80   12.51
   0   3  -9   58.01    5.57
   0   3  -9   44.01    6.26
   0   3  -9   51.90    3.25
   0   3  -9   41.95    4.01
   0   3  -9   52.37    5.61
   0   3  -9   72.66   17.76
   0  -3   8   12.44    3.18
   0  -3   8    5.64    1.88
   0  -3   8   16.71    3.51
   0  -3   8   11.86    3.62
   0  -3   8   11.32    2.78
   0  -3   8   13.89    8.21
   0   3  -8   17.07    3.72
   0   3  -8   10.70    2.68
   0   3  -8   12.80    2.21
   0   3  -8   11.54    2.35
   0   3  -8    9.62    2.71
   0   3  -8   15.73    4.01
   0   3  -8   -2.82    6.15
   0  -3   7  202.52    8.90
   0  -3   7  171.75    8.25
   0  -3   7  220.17    9.76
   0  -3   7  224.44   10.27
   0  -3   7  186.14    9.11
   0  -3   7  242.74   23.65
   0   3  -7  211.38    9.01
   0   3  -7  196.19    8.57
   0   3  -7  214.10    6.98
   0   3  -7  186.61    6.51
   0   3  -7  225.45    9.98
   0   3  -7  198.29    9.51
   0   3  -7  221.08   22.35
   0  -3   6   29.55    3.25
   0  -3   6   33.74    3.36
   0  -3   6   38.88    3.83
   0  -3   6   37.03    3.87
   0  -3   6   21.41    8.75
   0   3  -6   43.04    3.87
   0   3  -6   33.09    3.29
   0   3  -6   46.04    3.33
   0   3  -6   46.15    2.78
   0   3  -6   41.95    4.12
   0   3  -6   30.99    8.97
   0  -3   5    9.44    1.74
   0  -3   5    7.67    1.84
   0  -3   5   15.04    2.71
   0  -3   5    8.90    2.13
   0  -3   5   39.85    9.51
   0   3  -5    7.59    1.81
   0   3  -5    5.24    2.24
   0   3  -5    8.57    1.01
   0   3  -5    8.46    1.99
   0   3  -5   12.01    2.46
   0   3  -5   17.76    6.55
   0  -3   4  979.13   15.01
   0  -3   4  828.75   13.92
   0  -3   4 1088.96   16.74
   0  -3   4 1079.63   16.56
   0  -3   4 1042.52   37.94
   0   3  -4 1009.65   15.12
   0   3  -4  855.30   13.81
   0   3  -4 1092.40   16.93
   0   3  -4  951.03   15.41
   0  -3   3  482.87    9.87
   0  -3   3  391.95    8.93
   0  -3   3  516.90   10.74
   0  -3   3  537.01   10.27
   0  -3   3  408.95   22.39
   0   3  -3  407.79    8.93
   0   3  -3  435.89    9.33
   0   3  -3  483.56    9.66
   0  -3   2  437.38    9.22
   0  -3   2  450.40    9.29
   0  -3   2  495.53    6.26
   0  -3   2  568.95    9.19
   0  -3   2  458.57   23.07
   0   3  -2  412.39    8.82
   0   3  -2  455.21    9.33
   0   3  -2  493.04    6.26
   0   3  -2  555.27    9.04
   0   3  -2  463.13   24.95
   0  -3   1  356.37    8.61
   0  -3   1  382.88    8.86
   0  -3   1  396.62    7.38
   0  -3   1  388.74    9.15
   0  -3   1  397.09   22.13
   0   3  -1  360.20    8.53
   0   3  -1  369.21    8.72
   0   3  -1  424.86    7.67
   0   3  -1  448.91    7.38
   0   3  -1  370.47   21.55
   0  -3   0  309.86    8.61
   0  -3   0  334.71    8.90
   0  -3   0  359.37    4.99
   0  -3   0  362.01    8.46
   0  -3   0  354.49    8.93
   0  -3   0  362.84   22.86
   0   3   0  293.01    8.28
   0   3   0  333.95    8.90
   0   3   0  363.35    8.53
   0   3   0  349.50   22.10
   0  -3  -1 4755.97   36.74
   0  -3  -1 6933.20   53.49
   0  -3  -1 5044.34   36.09
   0  -3  -1 5045.43   35.62
   0  -3  -1 5487.07   96.60
   0   3   1 4535.72   35.44
   0   3   1 4931.40   37.32
   0   3   1 5390.55   37.65
   0   3   1 5058.48   35.33
   0   3   1 5182.53   94.39
   0  -3  -2   14.47    2.78
   0  -3  -2   11.21    2.17
   0  -3  -2   21.55    2.60
   0  -3  -2   19.49    8.32
   0   3   2   18.12    3.33
   0   3   2   13.67    2.42
   0   3   2   15.84    1.41
   0   3   2   18.62    3.25
   0   3   2   18.95    2.10
   0   3   2   16.53    2.57
   0   3   2   21.01    9.11
   0  -3  -3   28.10    3.47
   0  -3  -3   29.55    3.51
   0  -3  -3   27.52    3.44
   0  -3  -3   23.94    2.89
   0  -3  -3   31.39   11.03
   0   3   3   44.88    5.28
   0   3   3   27.34    4.23
   0   3   3   26.51    2.21
   0   3   3   25.35    4.12
   0   3   3   31.86    3.04
   0   3   3   28.82    3.25
   0   3   3    9.15    5.97
   0  -3  -4   90.41    6.62
   0  -3  -4   84.23    6.29
   0  -3  -4   78.69    6.08
   0  -3  -4   80.90    5.75
   0  -3  -4   95.22   19.78
   0   3   4   71.21    5.89
   0   3   4   81.55    6.29
   0   3   4   84.41    4.45
   0   3   4   99.45    6.91
   0   3   4   90.59    5.71
   0   3   4   84.48    5.79
   0   3   4   71.97   16.74
   0  -3  -5   10.09    3.33
   0  -3  -5    6.80    2.53
   0  -3  -5   11.03    2.82
   0  -3  -5   13.31    3.22
   0  -3  -5    5.10    6.18
   0   3   5   15.19    3.54
   0   3   5    9.11    2.68
   0   3   5   14.32    2.75
   0   3   5   11.25    3.40
   0   3   5   10.42    2.46
   0   3   5   12.26    3.00
   0   3   5    3.87    7.45
   0  -3  -6  125.96    9.04
   0  -3  -6  146.11   11.90
   0  -3  -6   96.45    7.23
   0  -3  -6  103.07   23.54
   0   3   6   95.01    7.85
   0   3   6  100.43    8.10
   0   3   6  104.62    6.29
   0   3   6  123.11    8.93
   0   3   6  115.98    7.85
   0   3   6   98.04    7.23
   0   3   6  122.82   26.00
   0  -3  -7    1.34    1.34
   0  -3  -7    0.72    1.19
   0  -3  -7    7.23    9.26
   0   3   7    2.46    2.10
   0   3   7   -2.17    0.94
   0   3   7    1.37    1.45
   0   3   7   -1.08    1.37
   0   3   7    0.47    1.30
   0   3   7    2.39    1.81
   0   3   7   -6.58    6.37
   0  -3  -8    1.66    2.03
   0  -3  -8   -0.43    0.98
   0  -3  -8  -25.17   11.75
   0   3   8    3.18    2.13
   0   3   8   -0.43    1.92
   0   3   8    2.24    2.21
   0   3   8    2.75    1.92
   0   3   8   11.83   16.13
   0  -3  -9   48.46    8.17
   0  -3  -9   50.16    8.79
   0  -3  -9   42.10    6.62
   0  -3  -9   67.85   24.59
   0   3   9   47.70    7.85
   0   3   9   47.23    6.47
   0   3   9   30.02    5.82
   0   3   9   39.17    6.91
   0   3   9   13.56   21.84
   0  -4  12   47.52    7.96
   0  -4  12   51.06    7.96
   0  -4  12   48.71    7.74
   0  -4  12   36.63   20.58
   0   4 -12   50.70    7.41
   0   4 -12   52.80    5.39
   0   4 -12   55.91    8.46
   0   4 -12   57.65   21.52
   0  -4  11   -3.80    1.81
   0  -4  11   -0.87    1.27
   0  -4  11   -0.18    1.84
   0  -4  11    6.33   10.74
   0   4 -11    4.74    2.10
   0   4 -11    1.45    1.88
   0   4 -11    9.95    3.11
   0   4 -11  -17.61   11.54
   0  -4  10   19.85    4.12
   0  -4  10   20.51    4.88
   0  -4  10   51.14    9.91
   0   4 -10   21.88    6.69
   0   4 -10   32.01    3.15
   0   4 -10   25.03    3.07
   0   4 -10   34.36    6.18
   0   4 -10   35.26   12.51
   0  -4   9    0.65    1.37
   0  -4   9   -0.22    1.12
   0  -4   9    2.86    1.56
   0  -4   9    0.94    1.23
   0  -4   9    3.15    1.77
   0  -4   9    5.21    7.88
   0   4  -9   -1.45    0.80
   0   4  -9    2.31    1.34
   0   4  -9    2.24    1.27
   0   4  -9    0.61    0.80
   0   4  -9   -0.47    0.90
   0   4  -9    3.00    1.45
   0   4  -9    7.67    7.88
   0  -4   8   99.31    6.76
   0  -4   8   89.76    6.47
   0  -4   8   98.59    7.12
   0  -4   8  107.92    7.74
   0  -4   8   79.60    6.69
   0  -4   8   72.29   21.05
   0   4  -8   93.99    6.51
   0   4  -8   90.01    6.29
   0   4  -8   93.09    5.46
   0   4  -8   91.75    4.34
   0   4  -8  103.90    7.38
   0   4  -8   90.41    7.05
   0   4  -8   96.45   19.20
   0  -4   7   73.16    5.42
   0  -4   7   70.92    5.39
   0  -4   7   73.88    5.71
   0  -4   7   83.03    6.33
   0  -4   7   94.03   17.40
   0   4  -7   79.63    5.53
   0   4  -7   67.23    5.14
   0   4  -7   71.79    4.85
   0   4  -7   72.76    3.25
   0   4  -7   91.32    6.40
   0   4  -7   79.49    6.08
   0   4  -7   94.79   18.23
   0  -4   6  164.55    7.56
   0  -4   6  129.00    6.76
   0  -4   6  157.35    7.81
   0  -4   6  168.93    8.17
   0  -4   6  167.70   18.70
   0   4  -6  152.40    7.16
   0   4  -6  138.22    6.73
   0   4  -6  173.16    8.28
   0   4  -6  158.04    7.81
   0   4  -6  161.33   18.19
   0  -4   5   56.74    4.16
   0  -4   5   41.52    3.87
   0  -4   5   58.77    4.48
   0  -4   5   50.67   11.25
   0  -4   5   53.34   12.01
   0   4  -5   44.88    3.69
   0   4  -5   55.80    4.41
   0   4  -5   52.62    5.14
   0  -4   4   49.18    3.65
   0  -4   4   37.50    3.29
   0  -4   4   51.75    3.98
   0  -4   4   44.48    3.47
   0  -4   4   39.53    9.29
   0  -4   4   32.98    8.79
   0   4  -4   42.42    3.36
   0   4  -4   49.11    3.62
   0  -4   3  612.89   12.62
   0  -4   3  492.78   11.43
   0  -4   3  611.98    7.02
   0  -4   3  663.05   13.67
   0  -4   3  686.19   12.12
   0  -4   3  562.98   29.73
   0   4  -3  492.89   11.17
   0   4  -3  533.32   11.72
   0   4  -3  584.71    6.84
   0   4  -3  633.82   11.57
   0  -4   2  260.42    8.39
   0  -4   2  287.47    8.75
   0  -4   2  293.80    6.47
   0  -4   2  261.40   20.40
   0   4  -2  279.41    8.50
   0   4  -2  282.48    8.64
   0   4  -2  302.74    6.62
   0   4  -2  357.74    7.92
   0  -4   1 4793.97   37.32
   0  -4   1 5138.73   38.30
   0  -4   1 5434.24   33.27
   0  -4   1 5178.44   94.46
   0   4  -1 4687.61   36.24
   0   4  -1 4957.73   37.65
   0   4  -1 5757.12   34.50
   0   4  -1 6252.72   31.50
   0   4  -1 5531.34   98.33
   0  -4   0  345.74   10.52
   0  -4   0  377.42    5.64
   0  -4   0  386.42   10.13
   0  -4   0  373.44   10.70
   0  -4   0  419.33   28.64
   0   4   0  327.36   10.23
   0   4   0  333.30   10.38
   0   4   0  389.17   10.27
   0   4   0  350.08   26.07
   0  -4  -1   10.56    2.50
   0  -4  -1   11.07    2.24
   0  -4  -1    5.17    1.52
   0  -4  -1    9.84    2.24
   0  -4  -1   10.67    5.35
   0   4   1    5.97    1.66
   0   4   1   10.67    2.57
   0   4   1   12.87    2.75
   0   4   1    6.55    2.60
   0   4   1   13.74    6.18
   0  -4  -2  166.18    8.46
   0  -4  -2  166.97    8.39
   0  -4  -2  169.25    8.21
   0  -4  -2  189.03   10.20
   0  -4  -2  184.66   21.63
   0   4   2  153.05    7.99
   0   4   2  180.06    8.86
   0   4   2  174.39    4.52
   0   4   2  204.33    9.11
   0   4   2  187.95    6.94
   0   4   2  168.31    7.78
   0   4   2  186.18   22.10
   0  -4  -3  344.07   13.02
   0  -4  -3  323.89   12.48
   0  -4  -3  378.75   13.34
   0  -4  -3  381.97   12.66
   0  -4  -3  408.88   34.83
   0   4   3  324.72   12.48
   0   4   3  347.47   13.09
   0   4   3  371.38    7.81
   0   4   3  401.32   13.96
   0   4   3  386.86   11.10
   0   4   3  360.60   12.15
   0   4   3  336.15   31.50
   0  -4  -4 1355.60   27.63
   0  -4  -4 1243.46   26.11
   0  -4  -4 1415.17   27.74
   0  -4  -4 1318.14   24.95
   0  -4  -4 1439.61   68.89
   0   4   4 1157.02   25.17
   0   4   4 1290.11   26.98
   0   4   4 1372.49   17.40
   0   4   4 1483.08   28.79
   0   4   4 1442.90   23.58
   0   4   4 1298.57   24.56
   0   4   4 1427.43   69.40
   0  -4  -5   87.30    7.67
   0  -4  -5   83.14    7.31
   0  -4  -5   92.15    7.12
   0  -4  -5   93.92   22.06
   0   4   5   96.23   10.13
   0   4   5   86.98    7.63
   0   4   5  101.91    5.32
   0   4   5   99.74    8.06
   0   4   5   95.87    6.69
   0   4   5   84.08    6.58
   0   4   5   69.83   18.05
   0  -4  -6   12.15    3.54
   0  -4  -6   12.84    3.62
   0  -4  -6   25.13   15.98
   0   4   6    4.67    3.00
   0   4   6   17.18    4.34
   0   4   6   16.46    3.04
   0   4   6   21.66    4.52
   0   4   6   24.77    4.77
   0   4   6    1.95    8.17
   0  -4  -7   -0.22    1.66
   0  -4  -7   -0.43    0.98
   0  -4  -7   10.85   14.32
   0   4   7    5.97    2.28
   0   4   7    1.05    1.01
   0   4   7    3.91    2.06
   0   4   7   -0.40    1.84
   0   4   7    0.87    1.63
   0   4   7  -12.15    6.73
   0  -4  -8   75.11    8.14
   0  -4  -8   81.77    7.74
   0  -4  -8    7.20   23.29
   0   4   8   70.81    8.03
   0   4   8   60.18    6.04
   0   4   8   64.12    7.96
   0   4   8   64.92    7.16
   0  -5  12    1.19    1.88
   0  -5  12   -0.61    1.63
   0  -5  12  -14.76   14.54
   0   5 -12    1.16    1.95
   0   5 -12    1.48    1.48
   0   5 -12    3.07    1.66
   0   5 -12   -1.99    1.23
   0   5 -12   20.98   17.03
   0  -5  11    9.55    2.93
   0  -5  11    2.10    2.03
   0  -5  11    3.98    2.57
   0  -5  11  -11.90   11.50
   0   5 -11    8.79    3.11
   0   5 -11    3.18    2.03
   0   5 -11    3.44    1.63
   0   5 -11   10.05    3.54
   0   5 -11   20.32    9.62
   0  -5  10    5.61    2.64
   0  -5  10    1.27    2.13
   0  -5  10    7.56    3.69
   0  -5  10  -15.04    6.98
   0   5 -10    1.95    1.52
   0   5 -10    5.46    1.92
   0   5 -10    5.42    1.41
   0   5 -10    1.45    1.48
   0   5 -10   -0.54    9.26
   0  -5   9   89.33    6.94
   0  -5   9   78.77    6.58
   0  -5   9  101.41    8.14
   0  -5   9   90.92    7.78
   0  -5   9   89.18   19.82
   0   5  -9   94.82    6.98
   0   5  -9    3.91    2.13
   0   5  -9   88.31    6.00
   0   5  -9   80.76    3.62
   0   5  -9   96.23    7.67
   0   5  -9   83.36    7.27
   0   5  -9   87.05   19.89
   0  -5   8  612.45   16.96
   0  -5   8  494.41   15.41
   0  -5   8  650.24   18.52
   0  -5   8  648.58   18.88
   0  -5   8  650.21   42.39
   0   5  -8  603.74   16.49
   0   5  -8  503.74   14.97
   0   5  -8  617.48   15.77
   0   5  -8  654.84   18.77
   0   5  -8  550.72   17.11
   0  -5   7    4.09    1.63
   0  -5   7    3.25    1.41
   0  -5   7    2.75    1.59
   0  -5   7    6.76    2.42
   0  -5   7    8.68    7.27
   0  -5   7   -3.58    5.24
   0   5  -7    1.74    0.87
   0   5  -7    1.48    1.12
   0   5  -7    2.75    1.59
   0   5  -7    4.12    1.95
   0  -5   6  264.29   10.02
   0  -5   6  205.45    8.93
   0  -5   6  286.28   10.99
   0  -5   6  305.45   11.07
   0  -5   6  298.76   26.29
   0  -5   6  224.19   22.64
   0   5  -6  236.77    9.22
   0   5  -6  237.49    9.37
   0   5  -6  260.78   10.09
   0  -5   5  142.34    7.09
   0  -5   5  121.69    6.62
   0  -5   5  162.31    7.96
   0  -5   5  140.86    6.91
   0  -5   5  147.23   17.61
   0  -5   5   93.63   16.24
   0   5  -5  109.58    6.08
   0   5  -5  111.10    6.18
   0   5  -5  147.26    7.02
   0  -5   4   82.42    5.28
   0  -5   4   65.60    4.74
   0  -5   4   87.27    5.61
   0  -5   4   84.81    4.92
   0  -5   4   84.66   15.59
   0  -5   4   44.66   11.43
   0   5  -4   62.75    4.52
   0   5  -4   66.69    4.70
   0   5  -4   74.68    4.59
   0  -5   3  323.31   10.49
   0  -5   3  339.70   10.63
   0  -5   3  384.43    7.41
   0  -5   3  389.97   27.88
   0   5  -3  323.13   10.20
   0   5  -3  341.22   10.60
   0   5  -3  397.99    7.56
   0   5  -3  404.36    9.73
   0   5  -3  293.51   24.19
   0  -5   2    7.05    2.13
   0  -5   2    8.46    1.92
   0  -5   2    6.44    1.48
   0  -5   2    6.62    2.46
   0  -5   2   13.06    5.86
   0   5  -2    6.94    1.92
   0   5  -2    8.53    1.99
   0   5  -2    8.90    1.74
   0   5  -2    9.40    1.77
   0   5  -2   11.07    6.84
   0  -5   1  278.47   10.27
   0  -5   1  286.32   10.34
   0  -5   1  289.17    6.15
   0  -5   1  294.82    8.97
   0  -5   1  350.15   28.10
   0   5  -1  239.63    9.37
   0   5  -1  272.14   10.05
   0   5  -1  316.23    9.37
   0   5  -1  348.88    8.28
   0   5  -1  281.72   24.95
   0  -5   0   11.61    2.68
   0  -5   0    9.15    2.35
   0  -5   0   15.37    2.82
   0  -5   0   20.76    3.62
   0  -5   0   22.06    9.48
   0   5   0   15.88    3.00
   0   5   0   16.38    3.33
   0   5   0   18.55    3.04
   0   5   0   10.96    6.80
   0  -5  -1  122.78    7.67
   0  -5  -1  115.40    7.31
   0  -5  -1  118.69    6.94
   0  -5  -1  133.63    7.52
   0  -5  -1  164.01   32.87
   0   5   1  113.59    7.20
   0   5   1   92.62    8.17
   0   5   1  138.98    7.63
   0   5   1  116.67    6.94
   0   5   1  105.89   20.32
   0  -5  -2  190.70   10.05
   0  -5  -2  199.30   10.16
   0  -5  -2  233.77   10.56
   0  -5  -2  229.76   10.27
   0  -5  -2  206.10   24.95
   0   5   2  195.98    9.98
   0   5   2  197.03   10.16
   0   5   2  228.78   10.60
   0   5   2  222.31    8.14
   0   5   2  212.97    9.69
   0   5   2  211.82   31.10
   0  -5  -3  227.62   11.65
   0  -5  -3  218.04   11.28
   0  -5  -3  239.59   11.57
   0  -5  -3  254.38   11.32
   0  -5  -3  248.89   29.44
   0   5   3  212.72   11.03
   0   5   3  233.19   11.72
   0   5   3  274.24   12.51
   0   5   3  263.17    9.62
   0   5   3  240.79   10.89
   0   5   3  240.93   29.58
   0  -5  -4    6.62    2.24
   0  -5  -4   14.00    4.56
   0  -5  -4    4.45    2.13
   0  -5  -4    6.04    2.21
   0  -5  -4   12.80    9.51
   0   5   4    7.49    2.89
   0   5   4    3.58    2.28
   0   5   4    4.01    1.23
   0   5   4    5.06    2.57
   0   5   4    5.68    2.13
   0   5   4    6.76    2.31
   0   5   4  -10.85   11.17
   0  -5  -5   60.11    6.76
   0  -5  -5   58.70    6.08
   0  -5  -5   67.12   19.96
   0   5   5   58.80    6.84
   0   5   5   66.54    4.16
   0   5   5   67.12    7.45
   0   5   5   65.02    5.89
   0   5   5   73.85    6.84
   0   5   5   39.42   14.79
   0  -5  -6   38.66    6.58
   0  -5  -6   31.57    5.35
   0  -5  -6   41.55   20.04
   0   5   6   40.03    7.31
   0   5   6   44.52    4.12
   0   5   6   38.91    4.01
   0   5   6   38.08    6.80
   0   5   6   41.70    6.18
   0   5   6  -23.90   13.49
   0  -5  -7   45.97    7.88
   0  -5  -7   36.13    6.44
   0  -5  -7   92.98   24.74
   0   5   7   31.75    6.44
   0   5   7   37.43    3.58
   0   5   7   45.03    4.48
   0   5   7   43.00    7.85
   0   5   7   47.38    5.79
   0   5   7   15.62   18.30
   0  -6  12    9.04    3.44
   0  -6  12    9.33    3.04
   0  -6  12    0.58    2.35
   0  -6  12   24.66   19.93
   0   6 -12    2.39    2.39
   0   6 -12    7.23    2.68
   0   6 -12   12.87    4.20
   0  -6  11   14.43    4.34
   0  -6  11    7.41    2.57
   0  -6  11   12.15    3.87
   0  -6  11   28.24   18.15
   0   6 -11   11.07    3.25
   0   6 -11    8.39    2.82
   0   6 -11   18.19    4.59
   0  -6  10  527.28   18.05
   0  -6  10  457.20   16.93
   0  -6  10  599.65   27.16
   0  -6  10  640.12   48.50
   0  -6  10  509.89   43.25
   0   6 -10  564.64   18.12
   0   6 -10  541.03   16.31
   0   6 -10  546.13   24.23
   0  -6   9    6.15    2.17
   0  -6   9    0.98    1.27
   0  -6   9   -0.40    1.66
   0  -6   9    4.85    1.12
   0  -6   9    3.87    1.92
   0  -6   9    2.75    8.53
   0   6  -9    0.98    1.52
   0   6  -9    3.87    2.39
   0   6  -9    2.21    2.10
   0  -6   8  117.46    7.74
   0  -6   8  135.08    8.90
   0  -6   8  141.66    8.97
   0  -6   8  162.38   25.71
   0  -6   8  160.54   25.82
   0   6  -8  114.68    7.45
   0   6  -8  131.82    7.96
   0   6  -8  136.78    8.32
   0   6  -8  132.00    8.46
   0  -6   7    4.85    1.92
   0  -6   7    2.82    1.52
   0  -6   7    2.39    1.63
   0  -6   7    2.60    1.45
   0  -6   7   11.61    7.85
   0  -6   7    5.64    6.22
   0   6  -7    4.95    1.74
   0   6  -7    4.38    1.84
   0   6  -7    1.66    1.70
   0  -6   6  861.05   19.24
   0  -6   6  688.58   17.40
   0  -6   6  881.45   20.47
   0  -6   6  909.84   19.42
   0  -6   6  819.93   46.36
   0  -6   6  791.50   44.81
   0   6  -6  663.66   16.49
   0   6  -6  728.87   17.43
   0   6  -6  811.29   18.19
   0  -6   5  526.70   14.76
   0  -6   5  404.36   13.06
   0  -6   5  545.55   15.70
   0  -6   5  540.38   13.89
   0  -6   5  555.49   37.11
   0  -6   5  499.36   34.65
   0   6  -5  434.63   13.09
   0   6  -5  465.51   13.67
   0   6  -5  518.31   13.45
   0  -6   4   14.29    3.15
   0  -6   4   18.19    3.62
   0  -6   4   15.91    3.11
   0  -6   4   17.14    3.04
   0  -6   4    3.69    4.92
   0   6  -4   16.17    3.18
   0   6  -4   15.88    3.22
   0   6  -4   14.36    1.48
   0   6  -4   16.27    2.78
   0   6  -4   15.44    7.59
   0  -6   3  864.67   19.13
   0  -6   3  952.00   19.89
   0  -6   3  992.25   14.32
   0  -6   3  967.55   49.00
   0   6  -3  856.82   18.52
   0   6  -3  886.69   19.06
   0   6  -3 1058.58   14.90
   0   6  -3 1127.40   17.18
   0   6  -3  869.19   46.76
   0  -6   2   84.12    6.26
   0  -6   2   90.92    5.06
   0  -6   2   89.76    6.47
   0  -6   2   75.91   16.78
   0   6  -2   78.15    5.79
   0   6  -2   88.89    6.26
   0   6  -2  102.64    5.42
   0   6  -2  116.16    5.28
   0   6  -2   94.75   17.83
   0  -6   1  266.39   11.28
   0  -6   1  301.47   11.86
   0  -6   1  332.28    6.58
   0  -6   1  316.95   10.49
   0  -6   1  331.96   12.48
   0  -6   1  380.78   32.66
   0   6  -1  270.84   11.10
   0   6  -1  313.08   12.12
   0   6  -1  358.65   11.25
   0   6  -1  385.92    9.51
   0   6  -1  285.74   28.10
   0  -6   0   13.96    3.33
   0  -6   0    5.42    1.77
   0  -6   0    5.24    1.99
   0  -6   0    9.11    2.39
   0  -6   0    0.90    5.93
   0   6   0    5.21    2.03
   0   6   0   13.20    2.82
   0   6   0    6.22    2.13
   0   6   0   10.60    2.13
   0   6   0   20.54    8.82
   0  -6  -1   54.25    5.82
   0  -6  -1   68.32    6.15
   0  -6  -1   72.76    6.00
   0  -6  -1   61.19    5.79
   0  -6  -1   57.68   17.25
   0   6   1   56.16    5.61
   0   6   1   49.40    5.39
   0   6   1   71.61    6.04
   0   6   1   64.08    4.30
   0   6   1   79.20   20.79
   0  -6  -2  164.08   10.16
   0  -6  -2  150.30    9.69
   0  -6  -2  144.04    9.37
   0  -6  -2  170.08    9.73
   0  -6  -2  187.33   30.56
   0   6   2  141.87    9.33
   0   6   2  161.26   10.13
   0   6   2  189.25   10.49
   0   6   2  175.83    7.67
   0   6   2  155.44    9.11
   0   6   2  114.64   23.54
   0  -6  -3  414.23   17.00
   0  -6  -3  413.22   16.78
   0  -6  -3  387.72   15.88
   0  -6  -3  442.01   16.24
   0  -6  -3  499.18   45.31
   0   6   3  361.43   17.90
   0   6   3  442.77   17.54
   0   6   3  474.48   17.76
   0   6   3  460.67   13.45
   0   6   3  427.50   15.73
   0   6   3  498.21   45.31
   0  -6  -4   -1.74    1.05
   0  -6  -4    1.05    1.66
   0  -6  -4   23.90   12.98
   0   6   4   -0.94    1.19
   0   6   4    1.23    1.56
   0   6   4   -1.12    1.30
   0   6   4    1.92    1.70
   0   6   4   -7.02   12.95
   0  -6  -5   12.01    3.58
   0  -6  -5   22.89    4.95
   0  -6  -5   10.38   13.13
   0   6   5   16.46    5.03
   0   6   5   14.90    4.16
   0   6   5   21.12    4.09
   0   6   5  -12.98   13.71
   0  -6  -6    1.52    2.03
   0  -6  -6    0.18    2.06
   0  -6  -6  -19.64   17.54
   0   6   6    4.63    2.71
   0   6   6   -0.58    1.16
   0   6   6    1.27    2.50
   0   6   6    2.53    1.74
   0   6   6  -28.32   16.02
   0  -7  12    3.36    4.01
   0  -7  12   15.84    4.59
   0  -7  12   13.13    3.83
   0  -7  12   14.86   17.25
   0   7 -12   19.38    4.23
   0   7 -12   17.00    4.52
   0  -7  11   15.70    3.94
   0  -7  11    9.48    3.04
   0  -7  11   14.50    4.23
   0  -7  11   27.70   14.32
   0  -7  11   41.12   15.62
   0   7 -11   11.57    3.29
   0   7 -11   11.36    3.25
   0   7 -11   14.43    3.80
   0  -7  10   18.99    4.52
   0  -7  10   12.73    3.40
   0  -7  10   10.67    3.72
   0  -7  10   10.92   11.75
   0  -7  10   16.78   13.71
   0   7 -10   13.78    3.87
   0   7 -10   11.72    3.18
   0  -7   9    4.01    2.10
   0  -7   9   11.10    3.22
   0  -7   9   10.13    3.11
   0  -7   9   12.77   12.91
   0  -7   9    7.59    9.66
   0   7  -9    2.53    1.95
   0   7  -9   12.19    3.11
   0   7  -9    1.12    1.56
   0  -7   8  171.82    9.73
   0  -7   8  129.69    8.64
   0  -7   8  148.89    9.62
   0  -7   8  177.68   10.13
   0  -7   8  128.67   23.90
   0   7  -8  165.24    9.33
   0   7  -8  157.53    9.37
   0  -7   7  122.71    8.03
   0  -7   7  101.12    7.38
   0  -7   7  130.74    8.68
   0  -7   7  137.64    8.32
   0  -7   7  133.01   24.30
   0  -7   7  105.28   21.23
   0   7  -7  114.43    7.38
   0   7  -7  110.59    7.45
   0   7  -7  132.58    8.03
   0  -7   6    0.58    1.12
   0  -7   6    2.78    1.59
   0  -7   6    3.11    1.59
   0  -7   6   -2.10    0.83
   0  -7   6   -2.31    6.47
   0   7  -6    1.05    1.16
   0   7  -6   -1.84    0.83
   0   7  -6   -0.04    0.90
   0  -7   5    1.16    1.23
   0  -7   5    0.83    0.90
   0  -7   5    4.59    1.92
   0  -7   5    3.33    5.79
   0  -7   5   -4.23    4.48
   0   7  -5    5.17    1.77
   0   7  -5   -0.22    0.98
   0   7  -5    0.51    0.98
   0  -7   4   41.84    4.63
   0  -7   4   27.67    4.52
   0  -7   4   35.33    2.60
   0  -7   4   40.11    5.75
   0  -7   4   26.65   11.54
   0   7  -4   29.08    4.48
   0   7  -4   30.13    5.10
   0   7  -4   33.81    2.68
   0   7  -4   31.90    3.36
   0   7  -4    8.21    6.98
   0  -7   3   60.32    5.68
   0  -7   3   64.95    5.75
   0  -7   3   76.13    4.56
   0  -7   3   75.69    6.47
   0  -7   3   96.99   20.22
   0   7  -3   60.61    5.50
   0   7  -3   65.82    5.79
   0   7  -3   85.10    4.92
   0   7  -3   73.67    3.33
   0   7  -3   85.75    4.99
   0   7  -3   43.36   13.60
   0  -7   2    8.21    2.46
   0  -7   2    8.93    2.71
   0  -7   2    9.66    1.77
   0  -7   2    9.95    2.31
   0  -7   2   12.37    3.00
   0  -7   2    2.57    8.57
   0   7  -2    4.85    2.10
   0   7  -2   11.83    2.46
   0   7  -2   11.39    2.31
   0   7  -2    4.77    8.28
   0  -7   1   27.85    5.10
   0  -7   1   41.48    4.99
   0  -7   1   41.55    4.27
   0  -7   1   46.65    5.24
   0  -7   1   34.65   13.63
   0   7  -1   40.58    5.03
   0   7  -1   46.58    4.52
   0   7  -1   43.43    3.44
   0   7  -1   42.64   14.72
   0  -7   0   67.09    6.62
   0  -7   0   64.59    6.40
   0  -7   0   72.58    6.15
   0  -7   0   57.54    5.97
   0  -7   0   78.15   20.90
   0   7   0   72.84    6.65
   0   7   0   80.65    6.47
   0   7   0   91.57    5.06
   0   7   0   23.15   14.29
   0  -7  -1  325.52   14.94
   0  -7  -1  315.90   14.50
   0  -7  -1  323.71   14.18
   0  -7  -1  356.30   14.76
   0  -7  -1  402.70   41.37
   0   7   1  323.46   14.76
   0   7   1  390.80   15.12
   0   7   1  359.91   10.70
   0   7   1  331.52   35.44
   0  -7  -2    0.40    1.48
   0  -7  -2    1.37    1.59
   0  -7  -2   -4.12    1.45
   0  -7  -2    0.47    1.30
   0  -7  -2    4.01   11.10
   0   7   2   -1.59    1.19
   0   7   2    1.45    1.81
   0   7   2    1.19    1.08
   0   7   2  -16.96   12.55
   0  -7  -3   86.69    8.28
   0  -7  -3   85.67    8.03
   0  -7  -3   88.10   22.35
   0   7   3   84.73    8.03
   0   7   3   76.42    7.99
   0   7   3   88.50    6.29
   0   7   3   53.20   21.08
   0  -7  -4    0.51    2.35
   0  -7  -4    1.70    1.66
   0  -7  -4   -5.82   13.63
   0   7   4    3.22    2.28
   0   7   4    7.34    2.82
   0   7   4    1.59    1.92
   0   7   4   14.25   16.42
   0  -7  -5   57.03    9.08
   0  -7  -5   53.23    6.62
   0  -7  -5   68.57   31.21
   0   7   5   33.74    6.44
   0   7   5   55.55    6.04
   0   7   5   46.33    7.56
   0   7   5   49.94    6.58
   0   7   5   48.57   28.64
   0  -8  11    4.45    2.50
   0  -8  11   -2.64    1.19
   0  -8  11   -2.13    1.27
   0  -8  11   -4.41   17.14
   0   8 -11   -1.63    2.06
   0   8 -11   -3.98    1.81
   0  -8  10   23.36    4.77
   0  -8  10   10.78    3.07
   0  -8  10   19.31    4.23
   0  -8  10    0.22   12.91
   0   8 -10   21.37    5.79
   0   8 -10   16.93    4.12
   0  -8   9    7.81    2.89
   0  -8   9    3.29    1.56
   0  -8   9    5.79    2.39
   0  -8   9   -6.37    9.62
   0  -8   9    9.95   11.65
   0   8  -9    0.43    1.88
   0   8  -9    9.15    3.04
   0  -8   8  678.96   20.47
   0  -8   8  517.45   18.05
   0  -8   8  780.44   21.37
   0  -8   8  810.06   54.28
   0  -8   8  569.20   46.98
   0   8  -8  619.14   19.06
   0   8  -8  642.36   19.17
   0  -8   7  453.58   16.42
   0  -8   7  333.22   21.74
   0  -8   7  494.26   15.91
   0  -8   7    9.91   10.52
   0  -8   7  375.61   37.18
   0   8  -7  370.51   14.43
   0   8  -7  395.43   14.14
   0  -8   6    6.84    2.68
   0  -8   6    6.22    2.71
   0  -8   6    0.72    1.59
   0  -8   6    5.21    9.80
   0   8  -6    5.57    2.46
   0   8  -6    5.75    2.10
   0  -8   5    6.37    2.31
   0  -8   5    1.66    1.23
   0  -8   5    7.45    2.93
   0  -8   5    8.35    8.46
   0   8  -5    5.82    2.78
   0   8  -5   12.12    2.68
   0  -8   4   51.06    5.71
   0  -8   4   64.34    4.09
   0  -8   4   44.34    6.55
   0  -8   4   49.65    5.82
   0  -8   4   29.80   10.23
   0   8  -4   54.21    5.86
   0   8  -4   74.57    4.41
   0   8  -4   62.17    4.77
   0   8  -4   75.48   20.94
   0  -8   3   33.52    6.04
   0  -8   3   25.13    4.59
   0  -8   3   33.20    3.00
   0  -8   3   36.78    3.58
   0  -8   3   35.62    5.75
   0  -8   3   -2.78    9.98
   0   8  -3   28.46    5.28
   0   8  -3   44.27    4.12
   0   8  -3   38.95    2.75
   0   8  -3   46.11    4.05
   0   8  -3   23.87   13.09
   0  -8   2   46.72    5.53
   0  -8   2   63.40    6.18
   0  -8   2   45.21    2.75
   0  -8   2   47.27    4.45
   0  -8   2   52.69    5.71
   0  -8   2   45.10   15.01
   0   8  -2   53.96    5.93
   0   8  -2   57.65    5.10
   0   8  -2   52.84    4.20
   0   8  -2   16.17   12.51
   0  -8   1  106.25   10.31
   0  -8   1  115.87    9.01
   0  -8   1  113.45    7.52
   0  -8   1  131.53    9.37
   0  -8   1  146.21   37.14
   0   8  -1  121.77    8.97
   0   8  -1  142.49    8.50
   0   8  -1  136.49    6.58
   0   8  -1  148.28   30.49
   0  -8   0   28.86    5.61
   0  -8   0   31.32    5.46
   0  -8   0   25.28    4.45
   0  -8   0   32.87    5.35
   0  -8   0   28.46   17.72
   0   8   0   25.24    4.70
   0   8   0   33.42    5.39
   0   8   0   38.48    3.69
   0   8   0   36.67    3.87
   0   8   0    5.71    9.62
   0  -8  -1  161.08   11.36
   0  -8  -1  168.60   12.08
   0  -8  -1  133.12   31.10
   0   8   1  150.99   10.74
   0   8   1  183.32   11.14
   0   8   1  139.67    9.98
   0   8   1  186.39    8.03
   0   8   1  180.50   34.83
   0  -8  -2    1.88    1.41
   0  -8  -2    3.65    2.24
   0  -8  -2    7.56   11.79
   0   8   2    2.75    3.76
   0   8   2   -1.12    1.92
   0   8   2   -1.08    1.37
   0   8   2  -16.64   11.28
   0  -8  -3  113.05   10.63
   0  -8  -3  118.77    9.76
   0  -8  -3  109.94   34.50
   0   8   3  108.78   10.27
   0   8   3  123.58   10.52
   0   8   3  132.22    7.88
   0   8   3   22.42   23.58
   0  -9  10  456.51   18.62
   0  -9  10  367.47   16.78
   0  -9  10  490.61   19.24
   0  -9  10  311.89   46.29
   0   9 -10  413.04   17.03
   0   9 -10  432.17   18.59
   0  -9   9  237.57   13.09
   0  -9   9  188.09   11.72
   0  -9   9  265.74   14.07
   0  -9   9  209.07   37.29
   0  -9   9  176.74   35.51
   0   9  -9  184.98   11.21
   0   9  -9  224.29   13.60
   0  -9   8   80.47    7.74
   0  -9   8   67.59    6.94
   0  -9   8   82.28    7.09
   0  -9   8   41.30   18.77
   0  -9   8   56.60   18.84
   0   9  -8   72.80    7.27
   0   9  -8   70.92    6.80
   0  -9   7    7.70    2.78
   0  -9   7    3.40    2.06
   0  -9   7   25.46   12.73
   0  -9   7   12.59   10.67
   0   9  -7    9.69    2.93
   0   9  -7    8.57    2.82
   0  -9   6   66.18    6.91
   0  -9   6   59.82    6.40
   0  -9   6   55.22    6.62
   0  -9   6   70.99   21.48
   0  -9   6   58.48   20.18
   0   9  -6   61.81    6.62
   0   9  -6   61.66    5.50
   0  -9   5    2.60    1.99
   0  -9   5    3.47    2.50
   0  -9   5    2.39    2.10
   0  -9   5   -9.04    5.68
   0   9  -5    2.53    1.92
   0   9  -5    2.13    1.81
   0  -9   4  100.00    8.43
   0  -9   4  123.14    6.29
   0  -9   4   98.87    8.75
   0  -9   4   85.57   25.03
   0   9  -4  102.06    8.46
   0   9  -4  130.45    6.47
   0   9  -4  140.90    7.16
   0   9  -4  142.78   28.39
   0  -9   3    7.05    2.75
   0  -9   3    7.88    3.98
   0  -9   3    9.40    1.81
   0  -9   3    8.32    2.46
   0  -9   3    6.69    2.97
   0  -9   3    2.28    9.84
   0   9  -3   10.81    3.44
   0   9  -3   16.64    3.47
   0   9  -3   13.02    2.06
   0   9  -3   10.23    2.39
   0   9  -3   -1.88   11.57
   0  -9   2   70.74    7.31
   0  -9   2   69.73    7.67
   0  -9   2   79.45    6.55
   0  -9   2   73.81    7.49
   0  -9   2   24.34   20.87
   0   9  -2   76.20    7.56
   0   9  -2   85.46    6.80
   0   9  -2   72.55    5.21
   0   9  -2   83.14    5.35
   0   9  -2   80.03   25.35
   0  -9   1   88.17    8.64
   0  -9   1   89.00    9.15
   0  -9   1  100.14    7.81
   0  -9   1  110.38    9.40
   0  -9   1  106.25   26.69
   0   9  -1   97.79    8.64
   0   9  -1  124.12    8.53
   0   9  -1  118.01    6.22
   0   9  -1  103.79   27.12
   0  -9   0    1.88    1.99
   0  -9   0    2.39    1.56
   0  -9   0   60.03   20.51
   0   9   0   -3.98    1.41
   0   9   0   -1.77    1.23
   0   9   0    2.10    1.52
   0   9   0   12.40   16.17
   0  -9  -1   29.98    6.37
   0  -9  -1   37.11    6.55
   0  -9  -1   -3.51   20.90
   0   9   1   13.31    5.10
   0   9   1   44.70    7.74
   0   9   1   43.33    4.20
   0   9   1   32.15    3.98
   0   9   1   52.11   27.16
   0 -10   9   47.63    7.88
   0 -10   9   36.53    6.65
   0 -10   9   41.41   25.39
   0  10  -9   38.44    7.05
   0 -10   8    8.50    3.33
   0 -10   8    8.32    3.04
   0 -10   8   15.04   15.15
   0  10  -8   18.73    4.67
   0 -10   7   76.71    8.28
   0 -10   7   44.95    7.12
   0 -10   7   61.05    9.11
   0 -10   7   53.96   21.88
   0 -10   7   16.06   17.18
   0  10  -7   66.83    7.34
   0  10  -7   61.08   10.74
   0 -10   6  142.38   13.06
   0 -10   6  138.48   10.56
   0 -10   6  138.95   10.85
   0 -10   6  189.36   33.56
   0 -10   6   77.57   23.94
   0  10  -6  123.32    9.80
   0  10  -6  129.33    8.14
   0 -10   5   -2.31    2.17
   0 -10   5    1.19    1.81
   0 -10   5    1.84    2.10
   0 -10   5    8.50   14.54
   0  10  -5    2.13    2.82
   0  10  -5    0.36    1.92
   0 -10   4   16.13    4.20
   0 -10   4   19.24    2.75
   0 -10   4   31.46    3.65
   0 -10   4   22.53    5.50
   0 -10   4   18.37   17.03
   0  10  -4   13.45    3.69
   0  10  -4   17.50    3.18
   0  10  -4   31.97   16.46
   0 -10   3    7.23    3.47
   0 -10   3    7.16    2.71
   0 -10   3    6.33    3.07
   0 -10   3   12.84   18.44
   0  10  -3    9.22    3.87
   0  10  -3    3.04    2.31
   0  10  -3    6.44    1.95
   0  10  -3    2.68    2.06
   0  10  -3  -13.49   16.64
   0 -10   2   58.95    9.76
   0 -10   2   66.72    6.65
   0 -10   2   42.49    7.02
   0 -10   2   34.79   28.24
   0  10  -2   62.71    7.27
   0  10  -2   61.30    6.37
   0  10  -2   59.13    5.10
   0  10  -2   81.77    5.17
   0  10  -2   69.15   28.82
   0 -10   1   92.47    9.37
   0 -10   1   99.27    9.55
   0 -10   1   44.59   32.77
   0  10  -1  114.50    8.57
   0  10  -1   91.75    6.80
   0  10  -1   87.99    5.32
   0  10  -1  119.42    7.05
   0  10  -1  121.91   33.78
  -1  10   0   36.24    6.44
  -1  10   0   38.33    7.02
  -1  10   0   46.11    5.50
  -1  10   0    4.48   19.57
   1 -10   0   42.89    7.85
   1 -10   0   51.43    8.82
   1 -10   0   35.73   27.41
  -1  10  -1   -0.72    1.59
  -1  10  -1   -2.53    1.56
  -1  10  -1    3.40    1.88
  -1  10  -1   21.23   19.75
   1 -10   1    2.24    1.63
   1 -10   1    2.78    2.50
   1 -10   1   -2.28    1.37
   1 -10   1  -13.49   19.93
  -1  10  -2    5.50    2.93
  -1  10  -2    4.16    2.57
  -1  10  -2    8.93    2.68
  -1  10  -2    6.58   16.56
   1 -10   2    9.62    3.51
   1 -10   2   11.57    4.45
   1 -10   2   10.45    2.89
   1 -10   2    6.26    2.42
   1 -10   2    3.33   11.90
  -1  10  -3   28.57    5.06
  -1  10  -3   26.00    5.68
  -1  10  -3   23.62    2.78
  -1  10  -3   39.06   19.67
   1 -10   3   16.46    3.98
   1 -10   3   35.01    5.82
   1 -10   3   21.99    3.80
   1 -10   3   31.14    6.33
   1 -10   3   27.27   17.29
  -1  10  -4  114.61    9.11
  -1  10  -4  143.25   11.28
  -1  10  -4  148.53    6.04
  -1  10  -4    0.98   11.17
   1 -10   4  107.34    9.08
   1 -10   4  129.94    5.39
   1 -10   4  135.91    5.61
   1 -10   4  154.39    7.23
   1 -10   4  139.85   10.92
   1 -10   4  146.65   29.80
  -1  10  -5  139.02    9.73
  -1  10  -5  153.85   11.75
  -1  10  -5  139.92    6.76
   1 -10   5  171.35   11.14
   1 -10   5  139.89    9.91
   1 -10   5  144.23   11.14
   1 -10   5  142.53   30.45
  -1  10  -6   22.57    4.20
  -1  10  -6   20.61    5.06
  -1  10  -6   33.45    4.74
   1 -10   6   22.42    4.70
   1 -10   6   21.37    4.70
   1 -10   6   17.54    4.70
   1 -10   6   26.80   16.96
   1 -10   6   45.24   20.54
  -1  10  -7  122.85    8.79
  -1  10  -7  131.39   10.81
  -1  10  -7  125.42    7.88
   1 -10   7  139.78   10.05
   1 -10   7   95.51    8.14
   1 -10   7  142.89   11.32
   1 -10   7  151.21   29.26
   1 -10   7   82.85   24.56
  -1  10  -8   -1.37    2.06
  -1  10  -8    0.18    2.17
  -1  10  -8   -4.20    2.21
   1 -10   8    2.71    2.39
   1 -10   8    1.99    1.84
   1 -10   8  -24.99   12.22
  -1  10  -9   35.15    5.89
  -1  10  -9   27.23    6.11
   1 -10   9   40.11    6.08
   1 -10   9   32.19    5.71
   1 -10   9   48.14    5.82
   1 -10   9   76.60   21.74
  -1   9   2   17.36    3.91
  -1   9   2   19.31    4.38
  -1   9   2   10.38    3.36
  -1   9   2   24.48   21.48
   1  -9  -2    8.86    3.65
   1  -9  -2    4.74    2.89
   1  -9  -2   39.42   24.27
  -1   9   1   74.17    8.10
  -1   9   1   80.94    7.81
  -1   9   1   88.53    7.85
  -1   9   1   41.59   25.64
   1  -9  -1   81.19    8.21
   1  -9  -1   82.06    8.39
   1  -9  -1   73.09   28.71
  -1   9   0   43.00    7.09
  -1   9   0   60.94    5.71
   1  -9   0   48.61    7.96
   1  -9   0   60.32    7.20
   1  -9   0   58.70    5.93
   1  -9   0   40.03    6.69
   1  -9   0   66.04   22.93
  -1   9  -1   -0.07    1.52
  -1   9  -1   -1.01    1.27
  -1   9  -1  -21.88    9.73
   1  -9   1   -2.53    1.48
   1  -9   1   -2.46    2.03
   1  -9   1    0.47    1.63
   1  -9   1   -1.12    0.94
   1  -9   1  -18.70   11.97
  -1   9  -2  122.16    8.93
  -1   9  -2  144.26    9.15
  -1   9  -2  100.29   21.08
   1  -9   2  111.89    8.82
   1  -9   2   98.80    8.57
   1  -9   2  125.78    7.49
   1  -9   2  134.61   10.02
   1  -9   2  135.62   28.79
  -1   9  -3   28.86    4.95
  -1   9  -3   31.10    2.82
  -1   9  -3   29.08    2.68
   1  -9   3   29.47    5.28
   1  -9   3   32.91    5.68
   1  -9   3   33.34    3.62
   1  -9   3   21.01    4.77
   1  -9   3   25.42   13.89
  -1   9  -4   73.45    6.87
  -1   9  -4   94.06    5.06
  -1   9  -4   98.26   23.00
   1  -9   4   67.27    6.55
   1  -9   4   95.62    4.95
   1  -9   4   86.07    8.10
   1  -9   4   88.42   21.48
  -1   9  -5   46.87    5.46
  -1   9  -5   61.01    4.52
   1  -9   5   65.68    6.33
   1  -9   5   41.55    6.29
   1  -9   5   52.44    6.51
   1  -9   5   39.89   16.85
  -1   9  -6    5.21    1.99
  -1   9  -6    3.98    2.60
  -1   9  -6    5.86    1.92
   1  -9   6    6.51    2.64
   1  -9   6    0.33    1.52
   1  -9   6    1.12    1.52
   1  -9   6   20.47   10.49
   1  -9   6   23.90   13.31
  -1   9  -7  447.00   15.41
  -1   9  -7  488.98   19.53
  -1   9  -7  452.60   14.50
   1  -9   7  494.59   17.07
   1  -9   7  409.68   15.62
   1  -9   7  514.12   15.62
   1  -9   7  586.02   46.00
   1  -9   7  427.94   38.88
  -1   9  -8  378.65   14.36
  -1   9  -8  433.40   18.37
   1  -9   8  373.55   14.90
   1  -9   8  321.14   14.07
   1  -9   8  441.90   15.62
   1  -9   8  434.09   41.81
   1  -9   8  361.07   42.31
  -1   9  -9    2.57    1.99
  -1   9  -9    8.90    3.15
   1  -9   9   -0.18    1.92
   1  -9   9    2.50    1.56
   1  -9   9    1.92    1.63
   1  -9   9   -7.41   11.72
  -1   9 -10   17.36    4.20
  -1   9 -10   21.74    4.74
   1  -9  10   14.68    4.16
   1  -9  10   19.85    4.30
   1  -9  10   23.25    4.63
   1  -9  10   35.08   19.85
  -1   8   4   -3.69    1.92
  -1   8   4    4.52    2.39
  -1   8   4   -0.11    2.17
  -1   8   4    1.66    1.95
  -1   8   4   43.83   22.75
   1  -8  -4    3.25    2.42
   1  -8  -4    1.01    2.31
   1  -8  -4  -10.56   22.46
  -1   8   3  112.00   10.16
  -1   8   3  107.12    8.35
  -1   8   3  137.10   10.60
  -1   8   3  123.47    6.18
  -1   8   3   70.02   25.71
   1  -8  -3  129.22   10.56
   1  -8  -3  108.93    9.44
   1  -8  -3   62.89   23.54
  -1   8   2   28.39    5.42
  -1   8   2   34.43    5.97
  -1   8   2   22.49    5.50
  -1   8   2   30.34    2.97
  -1   8   2   31.86    3.11
  -1   8   2    3.44   16.31
   1  -8  -2   18.26    4.20
   1  -8  -2   32.33    6.40
   1  -8  -2   25.24    5.21
   1  -8  -2   48.64   21.41
  -1   8   1   22.42    4.52
  -1   8   1   45.75    6.98
  -1   8   1   32.62    2.71
  -1   8   1   33.24    2.64
  -1   8   1   30.88   12.12
   1  -8  -1   27.41    5.61
   1  -8  -1   16.53    6.51
   1  -8  -1   23.98    4.81
   1  -8  -1   21.34   12.22
  -1   8   0   80.18    7.38
  -1   8   0  108.82    7.67
  -1   8   0   95.48    3.98
  -1   8   0   96.92   23.69
   1  -8   0   71.28    7.23
   1  -8   0   92.94    7.09
   1  -8   0  103.14    8.35
   1  -8   0   90.38   22.31
  -1   8  -1    2.86    1.74
  -1   8  -1    1.56    1.45
  -1   8  -1    3.58    1.52
  -1   8  -1    3.51    1.05
  -1   8  -1    7.59    8.25
   1  -8   1    3.80    1.74
   1  -8   1    4.09    1.88
   1  -8   1    0.61    1.27
   1  -8   1   -0.04    1.37
  -1   8  -2    0.04    1.16
  -1   8  -2    7.16    2.82
  -1   8  -2    9.44    2.10
  -1   8  -2   10.96    1.77
  -1   8  -2   16.46    9.37
   1  -8   2    3.91    1.95
   1  -8   2    9.26    2.64
   1  -8   2   12.15    2.86
   1  -8   2    7.02    2.31
   1  -8   2   22.21   10.49
  -1   8  -3    2.17    1.63
  -1   8  -3    0.04    1.37
  -1   8  -3    1.23    1.01
  -1   8  -3    2.42    1.23
   1  -8   3    0.54    1.19
   1  -8   3    2.64    1.23
   1  -8   3    4.70    1.41
   1  -8   3    3.94    2.03
   1  -8   3  -15.88    6.91
  -1   8  -4    4.63    1.81
  -1   8  -4   -0.90    0.87
  -1   8  -4    0.07    1.16
  -1   8  -4    2.13    7.56
   1  -8   4    0.14    0.90
   1  -8   4    0.54    0.76
   1  -8   4   -0.87    1.23
   1  -8   4    4.27    2.13
   1  -8   4   10.45    9.95
  -1   8  -5 1070.70   22.13
  -1   8  -5 1174.96   23.40
  -1   8  -5 1324.65   20.79
   1  -8   5 1369.09   26.04
   1  -8   5 1120.50   23.80
   1  -8   5  285.59   13.31
   1  -8   5 1211.41   59.64
  -1   8  -6  442.26   14.18
  -1   8  -6  581.49   16.35
  -1   8  -6  632.67   20.58
  -1   8  -6  651.47   16.02
   1  -8   6  668.18   18.23
   1  -8   6  531.55   16.42
   1  -8   6    0.69    1.77
   1  -8   6  706.99   16.82
   1  -8   6  649.52   42.93
  -1   8  -7   -0.65    1.12
  -1   8  -7   52.37    5.06
  -1   8  -7   55.33    7.74
  -1   8  -7   62.64    5.50
   1  -8   7   64.81    5.86
   1  -8   7   43.87    4.85
   1  -8   7   71.82    5.86
   1  -8   7  -10.85    9.44
   1  -8   7   66.22   17.25
  -1   8  -8   12.91    2.97
  -1   8  -8   15.55    3.69
  -1   8  -8   17.25    3.40
   1  -8   8   13.85    3.29
   1  -8   8   13.89    4.05
   1  -8   8   14.68    3.72
   1  -8   8   18.52   10.89
   1  -8   8   -1.92   10.31
  -1   8  -9   14.39    3.54
  -1   8  -9   17.83    5.71
  -1   8  -9   -1.45    1.52
   1  -8   9   24.95    5.53
   1  -8   9    9.19    2.57
   1  -8   9   23.43    4.92
   1  -8   9   23.69   12.04
   1  -8   9   -8.61   10.05
  -1   8 -10    5.46    1.84
  -1   8 -10    7.05    2.24
   1  -8  10   -2.46    2.10
   1  -8  10    3.80    2.68
   1  -8  10    3.11    2.31
   1  -8  10   11.83   12.84
   1  -8  10   16.96   14.36
  -1   8 -11   13.71    3.54
  -1   8 -11   21.23    4.92
   1  -8  11   22.39    5.06
   1  -8  11   18.01    3.91
   1  -8  11   24.30    5.86
   1  -8  11   45.31   20.72
  -1   7   5   66.69    7.88
  -1   7   5   61.77    5.68
  -1   7   5   74.54    8.06
  -1   7   5   51.72    5.21
  -1   7   5   36.20   21.37
   1  -7  -5   53.67    8.14
   1  -7  -5   58.73    7.05
   1  -7  -5   69.04   21.74
  -1   7   4    0.54    1.95
  -1   7   4    0.00    1.30
  -1   7   4    2.50    2.13
  -1   7   4   11.03   15.80
   1  -7  -4    2.21    1.52
   1  -7  -4  -20.79   11.75
  -1   7   3  183.43   11.65
  -1   7   3  208.13   10.63
  -1   7   3  211.17   12.69
  -1   7   3  218.83    8.21
  -1   7   3  191.02   35.41
   1  -7  -3  188.82   11.90
   1  -7  -3  173.88   11.50
   1  -7  -3  203.90   11.97
   1  -7  -3  200.79   34.39
  -1   7   2    6.62    2.68
  -1   7   2    3.62    1.95
  -1   7   2    3.11    1.30
  -1   7   2   -4.30    4.41
   1  -7  -2   -0.94    1.23
   1  -7  -2    3.29    2.57
   1  -7  -2    4.16    2.31
   1  -7  -2    1.63    1.30
   1  -7  -2   12.77   11.28
  -1   7   1   53.78    5.75
  -1   7   1   70.81    6.18
  -1   7   1   66.87    3.62
  -1   7   1   67.92    3.69
  -1   7   1   48.68   15.48
   1  -7  -1   51.57    5.71
   1  -7  -1   52.58    5.71
   1  -7  -1   48.71    5.28
   1  -7  -1   65.96    6.22
   1  -7  -1    9.15   12.22
  -1   7   0    9.11    2.42
  -1   7   0   20.87    4.12
  -1   7   0   12.51    1.56
  -1   7   0   17.68    1.70
  -1   7   0   26.51   11.72
   1  -7   0    9.40    2.71
   1  -7   0   13.02    3.65
   1  -7   0   17.72    3.54
   1  -7   0   12.95    3.29
   1  -7   0   16.60    9.11
  -1   7  -1  175.80    9.22
  -1   7  -1  208.31   10.05
  -1   7  -1  270.26   10.16
  -1   7  -1  236.95    8.72
  -1   7  -1  247.87    6.00
  -1   7  -1  221.40   25.93
   1  -7   1  205.09   10.23
   1  -7   1  215.11   10.31
   1  -7   1  220.68    9.08
   1  -7   1  231.02   11.43
   1  -7   1  227.55   25.79
  -1   7  -2  135.58    7.67
  -1   7  -2  155.22    8.39
  -1   7  -2  183.79    7.49
  -1   7  -2  167.70    6.44
  -1   7  -2  181.40    5.50
   1  -7   2  144.70    8.28
   1  -7   2  156.99    8.53
   1  -7   2  165.85    7.09
   1  -7   2  168.89    9.73
   1  -7   2  173.08   26.15
  -1   7  -3  233.15    9.73
  -1   7  -3  264.11   10.49
  -1   7  -3  285.02    6.94
  -1   7  -3  306.10    7.96
  -1   7  -3   30.09   10.96
   1  -7   3  239.16   10.34
   1  -7   3  281.43   11.03
   1  -7   3  273.30    7.74
   1  -7   3  288.38   12.59
   1  -7   3  288.27   27.92
  -1   7  -4  321.14   11.17
  -1   7  -4  368.05   12.01
  -1   7  -4  398.36   10.16
  -1   7  -4  356.69   29.51
   1  -7   4  349.39   12.19
   1  -7   4  375.54    6.73
   1  -7   4  431.81   15.04
   1  -7   4  410.98   32.26
  -1   7  -5  892.44   18.44
  -1   7  -5  996.45   19.64
  -1   7  -5 1126.21   19.67
   1  -7   5 1112.58   21.45
   1  -7   5  908.79   19.57
   1  -7   5 1210.91   25.53
   1  -7   5 1195.65   19.75
   1  -7   5 1190.18   54.28
   1  -7   5  955.22   48.14
  -1   7  -6  554.91   14.65
  -1   7  -6  572.49   14.97
  -1   7  -6  638.78   19.02
  -1   7  -6  624.13   15.55
   1  -7   6  666.84   16.78
   1  -7   6  544.21   15.33
   1  -7   6  732.27   20.32
   1  -7   6  738.85   17.11
   1  -7   6  672.09   40.50
   1  -7   6  578.13   37.97
  -1   7  -7    5.35    1.88
  -1   7  -7    4.92    1.84
  -1   7  -7    1.88    1.52
  -1   7  -7    2.35    1.74
   1  -7   7    3.87    1.81
   1  -7   7    6.37    2.03
   1  -7   7    3.76    3.00
   1  -7   7    1.59    1.37
   1  -7   7   -7.78    5.64
  -1   7  -8   42.24    4.41
  -1   7  -8   42.71    4.48
  -1   7  -8   49.94    5.42
  -1   7  -8   43.98    5.06
   1  -7   8   39.60    4.63
   1  -7   8   36.67    4.38
   1  -7   8   -1.77    1.37
   1  -7   8   54.21    5.57
   1  -7   8   47.99   14.90
  -1   7  -9    2.78    1.63
  -1   7  -9    2.86    1.77
  -1   7  -9    1.63    1.56
   1  -7   9    2.93    1.66
   1  -7   9    5.21    2.06
   1  -7   9    4.45    2.39
   1  -7   9    1.95    8.14
  -1   7 -10   42.49    5.86
  -1   7 -10   50.05    5.28
  -1   7 -10   43.61    6.87
   1  -7  10   43.98    6.94
   1  -7  10   35.69    5.89
   1  -7  10   32.62    2.89
   1  -7  10   57.79    6.37
   1  -7  10   62.20   19.20
   1  -7  10   55.19   17.21
  -1   7 -11    8.21    3.25
  -1   7 -11    7.67    2.57
  -1   7 -11   12.80    4.12
   1  -7  11    7.67    3.07
   1  -7  11    9.08    2.93
   1  -7  11    9.15    2.71
   1  -7  11    6.22    3.18
   1  -7  11   10.38   14.86
   1  -7  11   25.39   15.41
  -1   7 -12    5.39    2.21
  -1   7 -12    0.40    2.24
   1  -7  12   -2.13    2.64
   1  -7  12   -1.48    1.63
   1  -7  12    0.29    1.66
   1  -7  12   -3.22   18.12
  -1   6   7   11.17    4.01
  -1   6   7   15.55    3.25
  -1   6   7    7.63    3.33
  -1   6   7   16.67    4.12
  -1   6   7   11.36   25.13
   1  -6  -7   11.83    4.56
   1  -6  -7    6.40    2.86
   1  -6  -7   42.13   21.95
  -1   6   6    3.11    2.42
  -1   6   6    1.37    1.63
  -1   6   6    7.88    2.93
  -1   6   6    5.89    2.10
  -1   6   6   32.73   18.66
   1  -6  -6    4.34    2.57
   1  -6  -6    9.91    3.44
   1  -6  -6   18.41   20.76
  -1   6   5   80.94    8.21
  -1   6   5   89.07    6.18
  -1   6   5  111.06    9.37
  -1   6   5  109.22    7.05
  -1   6   5   71.32   22.13
   1  -6  -5  116.05    9.69
   1  -6  -5   97.43    8.39
   1  -6  -5   77.90   23.94
  -1   6   4   64.74    6.84
  -1   6   4   66.25    5.57
  -1   6   4   62.42    6.62
  -1   6   4   64.08    6.91
  -1   6   4   55.77    6.29
  -1   6   4   25.13   13.34
   1  -6  -4   73.27    7.27
   1  -6  -4   55.87    6.40
   1  -6  -4   64.59    6.55
   1  -6  -4   42.10   14.72
  -1   6   3    7.88    2.89
  -1   6   3    4.45    2.42
  -1   6   3    5.28    1.88
  -1   6   3    9.80    2.24
  -1   6   3    4.41    2.06
  -1   6   3    9.84    8.28
   1  -6  -3   11.28    2.89
   1  -6  -3    8.28    2.82
   1  -6  -3   11.61    3.58
   1  -6  -3    6.29    2.46
   1  -6  -3    9.69    8.28
  -1   6   2   38.15    9.01
  -1   6   2   43.94    5.14
  -1   6   2   59.53    5.64
  -1   6   2   50.16    3.40
  -1   6   2   39.28    4.77
  -1   6   2   49.40   16.31
   1  -6  -2   38.73    4.67
   1  -6  -2   41.70    4.85
   1  -6  -2   38.80    4.67
   1  -6  -2   49.33    5.24
   1  -6  -2   52.73   21.30
  -1   6   1   26.47    4.45
  -1   6   1   27.12    7.99
  -1   6   1   25.68    4.01
  -1   6   1   30.45    2.35
  -1   6   1   21.34    3.94
  -1   6   1   26.00    9.69
   1  -6  -1   26.26    4.85
   1  -6  -1   28.61    4.67
   1  -6  -1   34.14    3.94
   1  -6  -1   31.86    5.46
   1  -6  -1   33.71   11.57
  -1   6   0  146.76    7.96
  -1   6   0  163.14    8.46
  -1   6   0  168.96    8.46
  -1   6   0  165.13    4.74
  -1   6   0  187.44    5.03
  -1   6   0  149.29   24.05
   1  -6   0  149.72    8.25
   1  -6   0  151.21   10.20
   1  -6   0  165.09    7.85
   1  -6   0  161.91    8.90
   1  -6   0  163.68   20.43
  -1   6  -1   67.41    5.17
  -1   6  -1   72.44    5.39
  -1   6  -1   90.70    5.32
  -1   6  -1   77.50    4.56
  -1   6  -1   95.73    3.47
  -1   6  -1   36.31   11.39
   1  -6   1   70.05    5.42
   1  -6   1   81.62    5.75
   1  -6   1   73.96    4.74
   1  -6   1   89.07    6.51
   1  -6   1   81.80   16.71
  -1   6  -2  168.20    7.74
  -1   6  -2  220.10    8.86
  -1   6  -2  249.47    7.67
  -1   6  -2  204.95    6.40
  -1   6  -2  237.02    5.97
   1  -6   2  204.48    8.79
   1  -6   2  201.08    8.61
   1  -6   2  210.05    6.98
   1  -6   2  207.80    9.76
   1  -6   2  209.39   21.41
  -1   6  -3  282.23    9.55
  -1   6  -3  309.79   10.09
  -1   6  -3  328.77    6.65
  -1   6  -3  332.46    8.10
  -1   6  -3  276.41   23.25
   1  -6   3  271.42    9.76
   1  -6   3  305.63   10.27
   1  -6   3  310.73    6.94
   1  -6   3  326.57   12.26
   1  -6   3  319.62   25.79
  -1   6  -4 1443.56   21.26
  -1   6  -4 1582.86   22.46
  -1   6  -4 1806.11   21.34
   1  -6   4 1783.79   24.45
   1  -6   4 1502.29   22.68
   1  -6   4 1876.30   28.93
   1  -6   4 1887.23   21.99
   1  -6   4 1630.24   57.00
  -1   6  -5   60.50    4.45
  -1   6  -5   56.02    4.27
  -1   6  -5   66.36    5.75
  -1   6  -5   52.98    5.10
   1  -6   5   64.23    4.70
   1  -6   5   60.61    4.67
   1  -6   5   75.33    6.00
   1  -6   5   74.90    4.95
   1  -6   5   74.61   14.25
   1  -6   5   49.80   12.26
  -1   6  -6  272.94    9.51
  -1   6  -6  267.19    9.44
  -1   6  -6  311.96   12.19
  -1   6  -6  299.59   10.74
   1  -6   6  325.30   10.85
   1  -6   6  268.16    9.98
   1  -6   6  338.83   13.02
   1  -6   6  355.50   11.83
   1  -6   6  342.41   55.15
   1  -6   6  278.83   24.41
  -1   6  -7    0.94    0.94
  -1   6  -7   -0.29    0.76
  -1   6  -7    2.03    1.48
  -1   6  -7   -1.08    0.87
   1  -6   7    1.77    1.12
   1  -6   7    1.41    1.19
   1  -6   7    1.99    1.48
   1  -6   7   -0.87    0.54
   1  -6   7    0.83    1.41
   1  -6   7    8.17    4.88
   1  -6   7    4.74    5.06
  -1   6  -8  524.17   14.47
  -1   6  -8  546.52   14.83
  -1   6  -8  651.40   17.76
  -1   6  -8  654.08   20.04
  -1   6  -8  563.95   17.32
   1  -6   8  609.70   16.38
   1  -6   8  559.43   15.80
   1  -6   8  592.67   23.11
   1  -6   8  573.47   10.81
   1  -6   8  669.52   19.17
   1  -6   8  590.79   39.02
  -1   6  -9    0.98    1.37
  -1   6  -9    9.19    2.57
  -1   6  -9    9.87    3.36
  -1   6  -9    5.71    2.39
   1  -6   9    5.79    2.28
   1  -6   9    4.74    2.13
   1  -6   9   12.19    2.24
   1  -6   9    2.53    2.10
   1  -6   9  -10.89    7.85
  -1   6 -10    3.54    1.92
  -1   6 -10    0.61    1.63
  -1   6 -10    1.48    2.53
   1  -6  10    2.93    1.70
   1  -6  10    0.98    1.34
   1  -6  10    2.39    1.99
   1  -6  10    2.86   10.05
  -1   6 -11   30.81    4.77
  -1   6 -11   35.41    4.34
  -1   6 -11   38.62    7.23
   1  -6  11   36.02    6.11
   1  -6  11   29.11    5.50
   1  -6  11   32.11    6.44
   1  -6  11   -6.76   10.96
  -1   6 -12   10.56    3.44
  -1   6 -12   13.85    3.25
  -1   6 -12    8.25    3.58
   1  -6  12   18.77    4.85
   1  -6  12   12.15    3.47
   1  -6  12   13.89    4.16
  -1   5   8    9.15    3.58
  -1   5   8    5.39    2.42
  -1   5   8    5.93    2.86
  -1   5   8    4.12   22.49
   1  -5  -8    4.56    3.29
   1  -5  -8    4.38    2.86
   1  -5  -8  -27.12   20.43
  -1   5   7   18.26    4.99
  -1   5   7   35.55    2.97
  -1   5   7   30.34    6.22
  -1   5   7   28.68    5.10
  -1   5   7   -3.36   16.46
   1  -5  -7   36.27    6.69
   1  -5  -7   26.07    5.46
   1  -5  -7   37.83   23.80
  -1   5   6  304.91   15.41
  -1   5   6  306.64    9.44
  -1   5   6  297.96    8.64
  -1   5   6  358.43   16.74
  -1   5   6  329.82   12.84
  -1   5   6  253.77   40.50
   1  -5  -6  315.36   16.71
   1  -5  -6  277.93   14.57
   1  -5  -6  346.06   39.06
  -1   5   5   26.65    5.06
  -1   5   5   24.56    5.53
  -1   5   5   29.84    3.33
  -1   5   5   33.27    2.53
  -1   5   5   30.49    5.86
  -1   5   5   33.56    4.85
  -1   5   5   39.09    6.44
  -1   5   5   24.48   10.34
   1  -5  -5   40.18    6.76
   1  -5  -5   35.22    6.22
   1  -5  -5   34.07    5.86
   1  -5  -5   56.45   17.61
  -1   5   4   31.25    5.06
  -1   5   4   42.35    5.24
  -1   5   4   50.99    5.64
  -1   5   4   42.93    3.87
  -1   5   4   24.74    4.20
  -1   5   4   68.06   17.18
   1  -5  -4   39.28    6.00
   1  -5  -4   42.31    5.06
   1  -5  -4   40.43    6.18
   1  -5  -4   21.37    3.72
   1  -5  -4   29.44   14.50
  -1   5   3    5.06    2.10
  -1   5   3    1.23    1.19
  -1   5   3    0.76    1.05
  -1   5   3    2.93    1.23
  -1   5   3   -0.43    1.05
  -1   5   3    0.80    4.45
   1  -5  -3    0.87    1.34
   1  -5  -3    3.25    2.03
   1  -5  -3    1.99    1.56
   1  -5  -3   -1.81    0.90
   1  -5  -3   -9.55    6.62
  -1   5   2  320.71   12.08
  -1   5   2  365.81   13.16
  -1   5   2  450.04   14.25
  -1   5   2  394.34    8.97
  -1   5   2  369.82   12.95
  -1   5   2  351.09   32.08
   1  -5  -2  344.87   12.73
   1  -5  -2  353.44   12.80
   1  -5  -2  391.70   13.13
   1  -5  -2  379.73   13.31
   1  -5  -2  408.48   33.89
  -1   5   1 1113.59   20.90
  -1   5   1 1223.93   22.17
  -1   5   1 1307.36   13.81
  -1   5   1 1284.58   23.04
  -1   5   1 1237.13   54.83
   1  -5  -1 1183.96   22.06
   1  -5  -1 1239.98   22.31
   1  -5  -1 1339.44   22.17
   1  -5  -1 1319.98   23.62
   1  -5  -1 1323.49   56.85
  -1   5   0    5.21    1.59
  -1   5   0    4.09    1.45
  -1   5   0    5.75    1.95
  -1   5   0    8.75    1.01
  -1   5   0    4.45    3.00
   1  -5   0    5.42    1.84
   1  -5   0    4.92    1.59
   1  -5   0    4.27    1.52
   1  -5   0    6.08    2.03
   1  -5   0   -5.42    3.00
  -1   5  -1    1.95    1.19
  -1   5  -1    0.61    0.87
  -1   5  -1    2.97    1.08
  -1   5  -1    1.77    0.80
  -1   5  -1    3.69    0.76
   1  -5   1    0.76    1.23
   1  -5   1    1.23    0.83
   1  -5   1    3.51    1.12
   1  -5   1   -4.81    2.31
  -1   5  -2    1.12    0.76
  -1   5  -2    0.90    0.90
  -1   5  -2    4.38    1.12
  -1   5  -2    3.18    0.90
  -1   5  -2    2.39    3.76
   1  -5   2    3.47    1.48
   1  -5   2    1.56    1.01
   1  -5   2    2.57    0.83
   1  -5   2   -0.29    0.54
   1  -5   2    4.01    3.98
  -1   5  -3  336.33    9.15
  -1   5  -3  342.44    9.33
  -1   5  -3  400.63    6.58
  -1   5  -3  413.15    8.75
  -1   5  -3  352.64   23.43
   1  -5   3  347.29    9.69
   1  -5   3  353.08    9.69
   1  -5   3  381.61    5.86
   1  -5   3  437.74   12.55
   1  -5   3  464.86    9.37
   1  -5   3  373.62   23.80
  -1   5  -4  490.76   11.03
  -1   5  -4  528.62   11.50
  -1   5  -4  599.36   12.15
   1  -5   4  629.92   12.91
   1  -5   4  519.80   11.86
   1  -5   4  654.26   15.73
   1  -5   4  674.44   12.98
   1  -5   4  608.62   30.96
   1  -5   4  525.66   28.61
  -1   5  -5    0.80    0.76
  -1   5  -5   -0.07    0.65
  -1   5  -5   -0.87    0.58
  -1   5  -5   -1.66    0.61
   1  -5   5   -0.22    0.43
   1  -5   5    1.05    0.76
   1  -5   5    0.36    0.87
   1  -5   5   -0.07    0.40
   1  -5   5    0.11    0.54
   1  -5   5    1.16    3.83
   1  -5   5   -1.08    3.76
  -1   5  -6 1151.52   18.34
  -1   5  -6 1151.02   18.44
  -1   5  -6 1275.86   22.31
  -1   5  -6 1376.47   25.24
  -1   5  -6 1200.82   21.37
   1  -5   6 1259.55   20.00
   1  -5   6 1050.30   18.44
   1  -5   6 1408.66   25.21
   1  -5   6 1219.08   14.07
   1  -5   6 1368.01   23.07
   1  -5   6 1372.09   50.74
   1  -5   6 1205.34   47.34
  -1   5  -7  221.36    8.64
  -1   5  -7  199.20    8.14
  -1   5  -7  231.89    9.62
  -1   5  -7  230.95   10.99
  -1   5  -7  204.04    9.69
   1  -5   7  224.55    9.08
   1  -5   7  192.04    8.46
   1  -5   7  232.87   10.85
   1  -5   7  217.10    6.91
   1  -5   7  248.31   10.78
  -1   5  -8    6.40    1.81
  -1   5  -8    4.23    1.63
  -1   5  -8    5.61    1.95
  -1   5  -8    0.87    1.63
  -1   5  -8    1.48    1.30
  -1   5  -8    6.94    6.15
   1  -5   8    9.66    2.68
   1  -5   8    5.93    1.99
   1  -5   8    7.92    2.78
   1  -5   8    7.09    2.64
   1  -5   8   11.72    7.23
  -1   5  -9   50.81    4.81
  -1   5  -9   41.44    4.56
  -1   5  -9   45.82    4.38
  -1   5  -9   47.45    3.00
  -1   5  -9   46.69    5.61
  -1   5  -9   12.77    3.62
  -1   5  -9   39.60   12.15
   1  -5   9   50.70    4.99
   1  -5   9   36.35    4.41
   1  -5   9   -2.86    1.16
   1  -5   9   56.53    5.93
   1  -5   9   38.37    6.26
  -1   5 -10    2.31    1.81
  -1   5 -10    2.86    1.52
  -1   5 -10    0.98    1.01
  -1   5 -10    1.88    1.59
  -1   5 -10   15.51   11.07
   1  -5  10   -1.05    1.48
   1  -5  10   -0.14    2.03
   1  -5  10   -1.95    1.16
   1  -5  10    6.04    9.98
  -1   5 -11   18.84    4.27
  -1   5 -11   17.29    3.18
  -1   5 -11   20.11    3.11
  -1   5 -11   15.98    4.30
  -1   5 -11  -11.50   10.31
   1  -5  11   10.38    3.72
   1  -5  11   11.93    3.65
   1  -5  11   19.17    4.88
   1  -5  11   -9.69   14.07
  -1   5 -12   49.11    4.77
  -1   5 -12   55.15    9.04
   1  -5  12   27.12    5.42
   1  -5  12   32.22    5.46
   1  -5  12   50.74    7.92
  -1   4   9    2.93    2.60
  -1   4   9    8.86    3.00
  -1   4   9    9.04    2.93
  -1   4   9   70.45   25.35
   1  -4  -9   13.85    4.41
   1  -4  -9    2.10    2.35
  -1   4   8   63.79    7.56
  -1   4   8   49.26    5.39
  -1   4   8   64.92    7.92
  -1   4   8   58.73    6.51
  -1   4   8   29.33   21.77
   1  -4  -8   73.20    8.06
   1  -4  -8   69.87    7.45
   1  -4  -8   17.36   20.04
  -1   4   7   -2.06    1.27
  -1   4   7    1.34    1.41
  -1   4   7    0.76    1.41
  -1   4   7   -0.07    1.37
  -1   4   7   24.34   14.90
   1  -4  -7    2.82    1.81
   1  -4  -7   -1.88    1.05
   1  -4  -7  -12.73   11.61
  -1   4   6   61.52    6.73
  -1   4   6   64.12    6.58
  -1   4   6   69.76    3.80
  -1   4   6   70.70    4.70
  -1   4   6   76.45    7.34
  -1   4   6   76.16    6.11
  -1   4   6   65.53    6.69
  -1   4   6   59.64   19.60
   1  -4  -6   76.74    7.34
   1  -4  -6   68.03    7.05
   1  -4  -6   75.15    6.80
   1  -4  -6   96.27   23.54
  -1   4   5  148.10    9.33
  -1   4   5  175.69   10.31
  -1   4   5  186.21    6.73
  -1   4   5  165.45    6.29
  -1   4   5  197.71   10.89
  -1   4   5  195.76    8.79
  -1   4   5  169.22    9.55
  -1   4   5  180.50   30.38
   1  -4  -5  171.78   10.31
   1  -4  -5  171.20   10.13
   1  -4  -5  161.15   11.32
   1  -4  -5  164.55    9.58
   1  -4  -5  137.35   26.40
  -1   4   4  110.19    7.67
  -1   4   4  142.06    8.68
  -1   4   4  157.14    6.47
  -1   4   4  149.32    5.03
  -1   4   4  157.93    9.19
  -1   4   4  150.19    6.91
  -1   4   4  148.42    8.39
  -1   4   4  120.10   23.51
   1  -4  -4  134.61    8.57
   1  -4  -4  126.58    8.14
   1  -4  -4  145.49    8.57
   1  -4  -4  129.14    7.92
   1  -4  -4  176.12   27.81
  -1   4   3  684.56   17.21
  -1   4   3  789.33    9.08
  -1   4   3  886.54   19.82
  -1   4   3  836.93   14.29
  -1   4   3  754.72   17.76
  -1   4   3  682.47   42.82
   1  -4  -3  761.49   18.52
   1  -4  -3  701.45   17.50
   1  -4  -3  774.18   18.30
   1  -4  -3  800.07   18.52
   1  -4  -3  619.68   45.50
  -1   4   2    0.25    1.08
  -1   4   2    1.27    1.05
  -1   4   2    0.54    0.90
  -1   4   2    1.45    0.72
  -1   4   2   -0.69    0.36
  -1   4   2   -4.12    2.31
   1  -4  -2    1.77    1.05
   1  -4  -2    0.40    0.87
   1  -4  -2    0.65    0.94
   1  -4  -2   -0.69    3.87
  -1   4   1  922.82   16.89
  -1   4   1 1071.35   18.37
  -1   4   1 1258.14   19.49
  -1   4   1 1134.85   11.46
  -1   4   1 1077.28   19.67
  -1   4   1 1046.86   45.13
   1  -4  -1 1033.23   18.23
   1  -4  -1 1055.25   18.23
   1  -4  -1 1117.17   18.19
   1  -4  -1 1116.19   19.38
   1  -4  -1 1209.21   48.28
  -1   4   0  115.37    5.46
  -1   4   0  123.03    5.79
  -1   4   0  156.74    6.11
  -1   4   0  157.93    3.36
  -1   4   0  140.83    6.58
  -1   4   0  154.35   15.77
   1  -4   0  121.51    5.75
   1  -4   0  125.85    5.79
   1  -4   0  142.09    5.79
   1  -4   0  132.80    6.44
   1  -4   0  139.49   15.01
  -1   4  -1 2091.88   21.30
  -1   4  -1 2327.14   22.64
  -1   4  -1 2898.14   22.28
  -1   4  -1 2548.07   20.40
  -1   4  -1 2815.69   14.47
  -1   4  -1   -1.88    1.95
   1  -4   1 2240.77   22.60
   1  -4   1 2297.08   22.71
   1  -4   1 2564.96   20.83
   1  -4   1 2450.31   26.73
   1  -4   1 2525.43   58.30
  -1   4  -2  981.95   13.67
  -1   4  -2 1064.44   14.32
  -1   4  -2 1201.07   11.90
  -1   4  -2 1245.23   12.26
  -1   4  -2 1087.33   35.95
   1  -4   2  989.69   14.14
   1  -4   2 1127.33   15.01
   1  -4   2 1193.30   11.21
   1  -4   2 1405.29   13.09
   1  -4   2 1203.96   37.86
  -1   4  -3   54.90    3.18
  -1   4  -3   60.43    3.36
  -1   4  -3   61.44    3.36
   1  -4   3   70.59    3.76
   1  -4   3   58.04    3.40
   1  -4   3   72.47    4.70
   1  -4   3   66.15    2.60
   1  -4   3   79.56    3.83
   1  -4   3   59.74    9.69
  -1   4  -4 1057.89   14.39
  -1   4  -4 1090.73   14.72
  -1   4  -4 1242.77   19.31
  -1   4  -4 1256.58   20.40
  -1   4  -4 1202.08   17.14
   1  -4   4 1277.85   16.42
   1  -4   4 1023.65   14.79
   1  -4   4 1315.24   20.69
   1  -4   4 1167.58   11.79
   1  -4   4 1332.24   18.19
   1  -4   4 1245.73   39.49
   1  -4   4 1132.68   37.54
  -1   4  -5  482.55   10.56
  -1   4  -5  388.70    9.80
  -1   4  -5  473.36   12.08
  -1   4  -5  505.58   13.78
  -1   4  -5  452.93   11.97
   1  -4   5  463.42   10.67
   1  -4   5  396.33    9.95
   1  -4   5  516.04   13.74
   1  -4   5  440.34    8.53
   1  -4   5  490.32   12.51
   1  -4   5  505.19   27.16
  -1   4  -6   81.30    4.70
  -1   4  -6   73.60    4.56
  -1   4  -6   85.71    5.21
  -1   4  -6   76.05    2.82
  -1   4  -6   89.65    6.26
  -1   4  -6   77.75    5.57
  -1   4  -6   92.26   14.65
   1  -4   6   79.78    4.92
   1  -4   6   71.82    4.67
   1  -4   6   93.23    6.26
   1  -4   6   80.11    5.68
   1  -4   6   73.60   14.00
  -1   4  -7    5.71    1.84
  -1   4  -7    2.89    1.34
  -1   4  -7    3.54    1.34
  -1   4  -7    2.42    0.83
  -1   4  -7    2.82    1.41
  -1   4  -7    1.84    1.34
  -1   4  -7    3.25    7.81
   1  -4   7    2.60    1.27
   1  -4   7    2.10    1.30
   1  -4   7    3.04    1.59
   1  -4   7    3.15    1.74
   1  -4   7   -0.11    4.85
  -1   4  -8   92.84    6.04
  -1   4  -8   92.84    6.08
  -1   4  -8   80.50    5.06
  -1   4  -8   76.52    4.23
  -1   4  -8   89.07    7.16
  -1   4  -8   76.78    6.55
  -1   4  -8   95.29   17.40
   1  -4   8   72.04    5.68
   1  -4   8   69.91    5.50
   1  -4   8   96.42    7.31
   1  -4   8   96.27    7.34
   1  -4   8   76.74    6.47
   1  -4   8   70.63   15.33
  -1   4  -9   51.50    5.06
  -1   4  -9   57.47    5.17
  -1   4  -9   59.67    4.41
  -1   4  -9   49.00    3.91
  -1   4  -9   51.43    5.89
  -1   4  -9    3.15    1.70
  -1   4  -9   55.44   14.61
   1  -4   9   48.50    4.85
   1  -4   9   46.87    5.03
   1  -4   9   -0.83    1.19
   1  -4   9   53.60    6.11
   1  -4   9   53.99    7.49
   1  -4   9   -1.27    7.05
  -1   4 -10   23.51    4.23
  -1   4 -10   26.58    3.87
  -1   4 -10   31.43    6.04
  -1   4 -10   23.83   11.10
   1  -4  10   19.35    4.12
   1  -4  10   22.93    4.70
   1  -4  10    9.91   12.22
  -1   4 -11    6.00    2.93
  -1   4 -11   11.21    2.86
  -1   4 -11    9.08    3.33
  -1   4 -11   -0.04   13.56
   1  -4  11    3.72    2.75
   1  -4  11    4.27    1.84
   1  -4  11    6.91    3.18
  -1   4 -12   -3.87    2.10
  -1   4 -12    4.09    2.46
  -1   4 -12    6.76    3.11
   1  -4  12    0.65    2.60
   1  -4  12    0.80    1.84
   1  -4  12    3.51    2.78
  -1   3  10    5.75    3.69
  -1   3  10    5.61    3.36
  -1   3  10  -40.18   21.08
   1  -3 -10    1.74    2.71
   1  -3 -10    5.06    3.29
   1  -3 -10    0.11    2.42
   1  -3 -10   20.22   22.13
  -1   3   9    4.12    2.46
  -1   3   9    0.33    1.92
  -1   3   9    3.54    1.34
  -1   3   9   17.43   15.77
   1  -3  -9   -2.10    2.17
   1  -3  -9   -1.01    1.52
   1  -3  -9    2.10    2.03
   1  -3  -9   -3.47   12.73
  -1   3   8   12.15    3.47
  -1   3   8    4.52    2.31
  -1   3   8    9.58    3.51
  -1   3   8    5.06    2.35
  -1   3   8    1.63   12.80
   1  -3  -8    8.14    2.86
   1  -3  -8    5.14    3.94
   1  -3  -8   32.26   14.36
  -1   3   7   51.53    6.29
  -1   3   7   65.31    6.76
  -1   3   7   59.42    4.92
  -1   3   7   70.09    7.05
  -1   3   7   71.97    6.26
  -1   3   7   55.08    5.93
  -1   3   7   20.11   11.68
   1  -3  -7   66.51    6.65
   1  -3  -7   63.54    6.47
   1  -3  -7   50.88    5.79
   1  -3  -7   70.81   21.37
  -1   3   6   77.72    6.65
  -1   3   6   72.08    6.76
  -1   3   6   75.08    6.22
  -1   3   6   97.93    7.70
  -1   3   6   87.34    6.40
  -1   3   6   79.92    6.62
  -1   3   6   79.42   18.84
   1  -3  -6   80.58    7.02
   1  -3  -6   70.45    6.73
   1  -3  -6   50.56    9.01
   1  -3  -6   80.39    6.73
   1  -3  -6  107.01   23.11
  -1   3   5    1.52    1.16
  -1   3   5    1.95    1.37
  -1   3   5    2.10    0.80
  -1   3   5    1.99    1.70
  -1   3   5    2.39    1.23
  -1   3   5   -3.47    3.47
   1  -3  -5   -1.08    0.94
   1  -3  -5    0.51    1.41
   1  -3  -5    4.56    1.92
   1  -3  -5    1.81    1.12
   1  -3  -5    7.41    7.20
  -1   3   4    4.27    1.88
  -1   3   4    4.92    1.88
  -1   3   4    4.92    1.23
  -1   3   4    2.53    1.30
  -1   3   4    5.28    1.70
  -1   3   4    2.71    1.30
  -1   3   4    5.21    5.17
   1  -3  -4    6.76    2.06
   1  -3  -4    3.65    1.56
   1  -3  -4    3.29    1.63
   1  -3  -4    4.12    1.74
   1  -3  -4   -2.57    5.57
  -1   3   3 1560.40   23.51
  -1   3   3 1728.72   25.03
  -1   3   3 1924.55   19.31
  -1   3   3 1993.15   27.23
  -1   3   3 1930.62   20.65
  -1   3   3 1762.86   24.63
  -1   3   3 1813.38   62.78
   1  -3  -3 2527.78   36.09
   1  -3  -3 1689.11   24.59
   1  -3  -3 1853.45   25.79
   1  -3  -3 1746.47   24.81
   1  -3  -3 1945.02   65.10
  -1   3   2  555.31   12.69
  -1   3   2  587.68   13.20
  -1   3   2  630.21    6.65
  -1   3   2  713.68   14.61
  -1   3   2  642.18    9.87
  -1   3   2  599.32   13.27
  -1   3   2  580.92   32.26
   1  -3  -2  584.60   13.24
   1  -3  -2  575.60   12.98
   1  -3  -2  663.05   13.96
   1  -3  -2  618.60   13.63
   1  -3  -2  725.79   35.95
  -1   3   1  147.01    5.82
  -1   3   1  157.57    6.11
  -1   3   1  192.58    6.76
  -1   3   1  166.61    3.80
  -1   3   1  152.65    6.22
  -1   3   1  176.20   15.95
   1  -3  -1  145.45    5.93
   1  -3  -1  158.33    6.11
   1  -3  -1  172.80    6.37
   1  -3  -1  175.29    6.73
   1  -3  -1  156.81   15.04
  -1   3   0   13.49    1.63
  -1   3   0   20.87    1.99
  -1   3   0   22.64    2.03
  -1   3   0   18.48    2.10
   1  -3   0   18.91    1.92
   1  -3   0   15.30    1.74
   1  -3   0   21.37    1.99
   1  -3   0   20.11    2.24
   1  -3   0   20.94    5.86
  -1   3  -1  559.58    8.82
  -1   3  -1  611.84    9.26
  -1   3  -1  685.47    9.08
  -1   3  -1  737.69    6.47
  -1   3  -1  614.04   22.96
   1  -3   1  621.24    9.51
   1  -3   1  621.64    9.48
   1  -3   1  736.46    9.04
   1  -3   1  804.92    6.80
   1  -3   1  684.53   12.08
   1  -3   1  680.80   24.34
  -1   3  -2  165.82    4.48
  -1   3  -2  175.87    4.63
  -1   3  -2  228.34    7.05
  -1   3  -2  200.32    4.45
  -1   3  -2  199.23    4.85
  -1   3  -2  207.26   12.44
   1  -3   2  167.73    4.67
   1  -3   2  183.39    4.85
   1  -3   2  221.22    3.51
   1  -3   2  227.66    7.05
   1  -3   2  193.23    4.34
   1  -3   2  220.06    5.14
   1  -3   2  189.47   12.04
  -1   3  -3  213.59    5.32
  -1   3  -3  218.07    5.39
  -1   3  -3  257.93    7.63
  -1   3  -3  264.00    8.14
  -1   3  -3  237.46    6.62
   1  -3   3  251.56    5.97
   1  -3   3  217.75    5.57
   1  -3   3  268.74    8.14
   1  -3   3  250.55    5.35
   1  -3   3  254.24    6.87
   1  -3   3  258.58   14.72
   1  -3   3  230.59   13.96
  -1   3  -4  210.23    5.97
  -1   3  -4  186.14    5.64
  -1   3  -4  225.13    7.23
  -1   3  -4  205.74    3.94
  -1   3  -4  224.76    8.14
  -1   3  -4  204.69    7.16
  -1   3  -4  212.72   15.12
   1  -3   4  213.23    6.22
   1  -3   4  177.39    5.71
   1  -3   4  209.07    4.01
   1  -3   4  232.21    8.21
   1  -3   4  216.27    7.45
   1  -3   4  193.84   14.54
  -1   3  -5 1922.27   20.65
  -1   3  -5 1634.72   18.91
  -1   3  -5 1835.29   20.83
  -1   3  -5 1726.94   15.19
  -1   3  -5 1987.33   26.36
  -1   3  -5 1380.74   32.40
  -1   3  -5 2000.06   52.55
   1  -3   5 1800.21   20.51
   1  -3   5 1582.83   19.38
   1  -3   5 1847.52   15.80
   1  -3   5 1835.84   30.85
   1  -3   5 1861.08   24.66
   1  -3   5 2047.80   53.20
  -1   3  -6  466.74   11.46
  -1   3  -6  399.91   10.52
  -1   3  -6  464.39   10.60
  -1   3  -6  429.20    9.11
  -1   3  -6  516.98   14.65
  -1   3  -6  414.92   12.80
  -1   3  -6  499.22   29.58
   1  -3   6  434.88   11.36
   1  -3   6  399.59   10.96
   1  -3   6  478.39    9.69
   1  -3   6  508.88   14.36
   1  -3   6  478.32   13.92
   1  -3   6  396.80   12.15
   1  -3   6  478.82   28.90
  -1   3  -7   21.34    3.22
  -1   3  -7   28.03    3.11
  -1   3  -7   23.54    2.50
  -1   3  -7   25.17    2.57
  -1   3  -7   22.68    3.58
  -1   3  -7   21.52    3.69
  -1   3  -7   43.76   11.83
   1  -3   7   25.03    3.11
   1  -3   7   23.62    3.80
   1  -3   7   27.02    2.78
   1  -3   7   34.14    5.21
   1  -3   7   23.18    4.34
   1  -3   7   20.36    3.44
   1  -3   7   23.15    7.59
  -1   3  -8   34.43    3.83
  -1   3  -8   32.11    3.76
  -1   3  -8   34.07    2.89
  -1   3  -8   29.19    3.22
  -1   3  -8   28.61    4.74
  -1   3  -8   41.48    6.40
  -1   3  -8   52.76   13.56
   1  -3   8   31.83    3.87
   1  -3   8   26.83    4.27
   1  -3   8   31.35    3.40
   1  -3   8   25.10    4.20
   1  -3   8   25.68    4.23
   1  -3   8   30.27    5.06
   1  -3   8   32.77   11.79
  -1   3  -9  174.35    9.37
  -1   3  -9  119.31    7.67
  -1   3  -9  146.79    7.63
  -1   3  -9  178.84   10.89
  -1   3  -9  152.58   25.97
   1  -3   9  167.73   11.07
   1  -3   9  148.93    8.90
   1  -3   9  168.35    8.32
   1  -3   9  166.36   10.67
   1  -3   9  127.59   13.45
   1  -3   9   17.94    9.15
  -1   3 -10  482.19   16.67
  -1   3 -10  400.45   13.71
  -1   3 -10  492.42   19.24
  -1   3 -10  478.28   42.35
   1  -3  10  413.07   15.88
   1  -3  10  398.72   15.70
   1  -3  10  476.76   19.24
   1  -3  10  365.34   18.12
   1  -3  10  244.98   29.26
  -1   3 -11    3.65    2.35
  -1   3 -11    8.39    3.76
  -1   3 -11  -20.43   13.06
   1  -3  11    5.35    2.75
   1  -3  11    7.70    3.40
   1  -3  11    3.44    2.31
   1  -3  11  -21.41   18.99
  -1   3 -12    0.51    2.17
  -1   3 -12    0.36    2.24
   1  -3  12    7.16    4.67
   1  -3  12   -0.76    1.70
   1  -3  12   -1.34    1.52
  -1   2  10    7.16    3.07
  -1   2  10   14.94    4.20
  -1   2  10   21.70   19.93
   1  -2 -10    6.94    3.11
   1  -2 -10    6.84    3.44
   1  -2 -10   11.43    3.54
   1  -2 -10   13.13   12.59
  -1   2   9  130.37   10.20
  -1   2   9  126.43    8.86
  -1   2   9  151.96   10.34
  -1   2   9   82.64   23.40
   1  -2  -9  143.25   10.52
   1  -2  -9  150.95   10.85
   1  -2  -9  130.45    9.66
   1  -2  -9  113.20   25.57
  -1   2   8  107.30    8.68
  -1   2   8  124.26    9.37
  -1   2   8  151.10   10.27
  -1   2   8  147.91    9.48
  -1   2   8  123.79    9.08
  -1   2   8  158.87   30.23
   1  -2  -8  165.67   10.74
   1  -2  -8  153.30   10.38
   1  -2  -8  121.30    8.50
   1  -2  -8  125.71    8.93
   1  -2  -8  149.18   32.01
  -1   2   7    0.54    1.48
  -1   2   7    0.43    1.45
  -1   2   7    1.23    1.30
  -1   2   7    0.72    1.37
  -1   2   7  -13.06    6.33
   1  -2  -7    2.13    1.88
   1  -2  -7    0.07    1.52
   1  -2  -7    3.00    1.56
   1  -2  -7   -0.47    0.94
   1  -2  -7   -5.42    9.29
  -1   2   6    3.00    1.66
  -1   2   6    4.05    1.84
  -1   2   6    1.70    1.23
  -1   2   6    4.92    1.95
  -1   2   6    6.08    2.24
  -1   2   6    9.98    6.22
   1  -2  -6    3.76    1.99
   1  -2  -6    1.12    1.19
   1  -2  -6    2.21    1.45
   1  -2  -6    3.33    1.56
   1  -2  -6    2.42    1.66
   1  -2  -6   -1.12    6.08
  -1   2   5  724.06   17.65
  -1   2   5  815.63   18.99
  -1   2   5  951.86   20.40
  -1   2   5  898.05   17.68
  -1   2   5  797.47   18.01
  -1   2   5  930.41   49.58
   1  -2  -5  895.98   19.85
   1  -2  -5  765.14   18.15
   1  -2  -5  848.14   19.02
   1  -2  -5  842.50   16.96
   1  -2  -5  806.95   18.34
   1  -2  -5  797.15   45.60
  -1   2   4  598.82   14.61
  -1   2   4  647.86   15.37
  -1   2   4  736.03    8.79
  -1   2   4  769.08   16.78
  -1   2   4  743.91   14.25
  -1   2   4  661.42   15.04
  -1   2   4  677.11   38.52
   1  -2  -4  673.39   15.66
   1  -2  -4  595.35   19.06
   1  -2  -4  693.68   15.73
   1  -2  -4  675.23   13.45
   1  -2  -4  643.88   15.01
   1  -2  -4  766.30   41.01
  -1   2   3   40.61    4.52
  -1   2   3   24.95    2.86
  -1   2   3   31.28    1.99
  -1   2   3   30.05    3.11
  -1   2   3   31.03    2.57
  -1   2   3   26.11    2.78
  -1   2   3   41.08    9.91
   1  -2  -3   31.43    3.15
   1  -2  -3   25.03    2.78
   1  -2  -3   28.82    2.93
   1  -2  -3   30.81    2.53
   1  -2  -3   30.88    3.04
   1  -2  -3   21.52    7.09
  -1   2   2  348.27    8.79
  -1   2   2  352.61    8.93
  -1   2   2  413.07    7.27
  -1   2   2  429.24    9.98
  -1   2   2  414.52    7.41
  -1   2   2  370.80    9.19
  -1   2   2  382.80   22.86
   1  -2  -2  377.42    9.26
   1  -2  -2  335.25    8.68
   1  -2  -2  410.90    9.69
   1  -2  -2  370.65    7.02
   1  -2  -2  385.84    9.44
   1  -2  -2  425.30   24.05
  -1   2   1  161.19    5.10
  -1   2   1  156.49    5.06
  -1   2   1  193.48    5.14
  -1   2   1  192.72    3.58
  -1   2   1  180.93    5.75
  -1   2   1  189.11   13.56
   1  -2  -1  170.95    5.32
   1  -2  -1  165.06    5.21
   1  -2  -1  182.99    5.61
   1  -2  -1  189.43    3.54
  -1   2   0  528.40    7.41
  -1   2   0  584.39    7.81
  -1   2   0  660.62    9.66
  -1   2   0  622.76    5.28
  -1   2   0  602.47    8.50
  -1   2   0  593.28    9.44
   1  -2   0  567.10    7.81
   1  -2   0  567.14    7.78
   1  -2   0  631.04    5.32
   1  -2   0  698.09    8.93
   1  -2   0  606.63    9.58
   1  -2   0  626.16   20.07
  -1   2  -1   40.58    1.63
  -1   2  -1   52.62    2.86
  -1   2  -1   49.33    2.17
  -1   2  -1   46.87    1.74
  -1   2  -1   50.56    4.56
   1  -2   1   44.34    1.77
   1  -2   1   46.58    1.92
   1  -2   1   48.57    2.21
   1  -2   1   58.95    2.97
   1  -2   1   53.02    2.24
   1  -2   1   53.70    1.88
   1  -2   1   39.89    4.16
  -1   2  -2  498.93    5.89
  -1   2  -2  586.49    9.55
  -1   2  -2  597.26   10.16
  -1   2  -2  535.89    8.28
   1  -2   2  546.34    8.17
   1  -2   2  495.89    6.15
   1  -2   2  533.87    9.04
   1  -2   2  548.19    5.61
   1  -2   2  592.78   10.09
   1  -2   2  535.24    7.52
   1  -2   2  578.46    8.64
   1  -2   2  650.57   18.70
  -1   2  -3 3070.29   18.95
  -1   2  -3 2533.82   17.18
  -1   2  -3 2992.71   22.06
  -1   2  -3 2738.08   16.13
  -1   2  -3 3224.82   26.65
  -1   2  -3 2729.07   23.04
  -1   2  -3 3274.26   49.33
   1  -2   3 2980.13   19.20
   1  -2   3 2631.10   18.12
   1  -2   3 2881.87   21.52
   1  -2   3 2822.30   16.46
   1  -2   3 3272.95   26.62
   1  -2   3 3001.39   24.34
   1  -2   3 2998.10   46.91
  -1   2  -4  514.26    9.51
  -1   2  -4  461.86    9.01
  -1   2  -4  522.08    9.44
  -1   2  -4  472.20    8.39
  -1   2  -4  583.27   12.77
  -1   2  -4  475.28   11.17
  -1   2  -4  603.34   25.60
   1  -2   4  502.98    9.62
   1  -2   4  467.65    9.33
   1  -2   4  500.67    8.68
   1  -2   4  575.78   12.55
   1  -2   4  526.74   11.90
   1  -2   4  525.44   24.05
  -1   2  -5  110.66    5.17
  -1   2  -5   89.58    4.70
  -1   2  -5  106.65    4.34
  -1   2  -5   91.64    4.41
  -1   2  -5  116.27    6.37
  -1   2  -5   91.68    5.57
  -1   2  -5  104.12   12.87
   1  -2   5   97.50    4.95
   1  -2   5   97.79    5.03
   1  -2   5   97.07    4.56
   1  -2   5   98.91    5.89
   1  -2   5   91.42    5.17
   1  -2   5   93.20   11.61
  -1   2  -6    4.77    1.56
  -1   2  -6    1.37    1.05
  -1   2  -6    3.94    1.08
  -1   2  -6    3.22    1.30
  -1   2  -6    2.28    1.37
  -1   2  -6    1.34    1.08
  -1   2  -6   -5.75    2.10
   1  -2   6    1.77    1.23
   1  -2   6   -0.25    0.76
   1  -2   6    2.93    1.23
   1  -2   6    1.88    1.19
   1  -2   6    1.74    1.41
   1  -2   6    0.61    0.80
   1  -2   6    0.07    4.09
  -1   2  -7   70.16    5.21
  -1   2  -7   51.14    4.48
  -1   2  -7   64.01    4.70
  -1   2  -7   77.68    6.26
  -1   2  -7   59.38    5.50
  -1   2  -7   54.43   14.47
   1  -2   7   58.95    4.99
   1  -2   7   47.95    4.56
   1  -2   7   79.02    5.28
   1  -2   7   66.25    6.00
   1  -2   7   57.86    4.99
   1  -2   7   45.68   13.53
  -1   2  -8 2319.21   32.44
  -1   2  -8 1930.70   29.37
  -1   2  -8 2104.47   29.26
  -1   2  -8 2498.38   38.08
  -1   2  -8 2222.51   43.54
  -1   2  -8 2349.05   81.01
   1  -2   8 2060.89   31.21
   1  -2   8 2079.23   31.61
   1  -2   8 2367.06   31.32
   1  -2   8 2314.12   36.92
   1  -2   8 2021.00   31.57
   1  -2   8 2162.37   77.79
  -1   2  -9   -0.40    1.66
  -1   2  -9    0.90    1.30
  -1   2  -9    0.43    1.45
  -1   2  -9   -1.19    1.27
   1  -2   9    2.21    1.74
   1  -2   9   -0.51    0.94
   1  -2   9    1.52    1.19
   1  -2   9   -0.83    1.12
   1  -2   9   -0.51    8.35
  -1   2 -10    2.78    2.10
  -1   2 -10    5.68    3.00
  -1   2 -10   14.25   12.62
   1  -2  10    2.31    2.31
   1  -2  10    1.30    2.17
   1  -2  10    5.46    2.06
   1  -2  10    4.99    2.17
   1  -2  10   23.15   11.14
  -1   2 -11    9.37    3.51
  -1   2 -11    3.76    2.28
  -1   2 -11    6.69    9.95
   1  -2  11    9.76    3.33
   1  -2  11   13.24    3.80
   1  -2  11   12.12    3.54
   1  -2  11    9.69    3.47
   1  -2  11   48.17   19.17
  -1   2 -12   40.72    6.44
  -1   2 -12   90.74    9.51
   1  -2  12   40.11    6.55
   1  -2  12   38.23    6.33
   1  -2  12   46.80    8.03
  -1   1  11    2.68    2.24
  -1   1  11    1.12    2.46
  -1   1  11   14.54   17.14
   1  -1 -11    3.00    2.03
   1  -1 -11    3.62    2.93
   1  -1 -11  -15.12   19.71
  -1   1  10    6.11    3.00
  -1   1  10    3.36    2.13
   1  -1 -10    1.74    1.81
   1  -1 -10    6.65    2.71
   1  -1 -10   18.70   17.83
  -1   1   9   -0.87    1.74
  -1   1   9   -2.35    1.08
   1  -1  -9   -1.48    1.45
   1  -1  -9    2.57    2.50
   1  -1  -9   -0.47    1.08
   1  -1  -9  -13.96   10.09
  -1   1   8    0.87    1.66
  -1   1   8    0.69    1.27
  -1   1   8    0.69    1.16
  -1   1   8    0.18    1.12
  -1   1   8    3.58    8.64
   1  -1  -8   -2.31    0.83
   1  -1  -8   -2.75    1.27
   1  -1  -8    0.22    1.16
   1  -1  -8    2.21    1.23
   1  -1  -8    2.64    1.92
   1  -1  -8    0.51    0.69
   1  -1  -8    7.99   10.74
  -1   1   7   25.68    4.20
  -1   1   7   30.02    5.14
  -1   1   7   28.82    4.63
  -1   1   7   32.37    4.95
  -1   1   7   26.33    4.23
  -1   1   7   45.57   13.38
   1  -1  -7   31.79    5.39
   1  -1  -7   31.75    5.39
   1  -1  -7   34.39    4.20
   1  -1  -7   22.10    3.76
   1  -1  -7   32.77    4.09
   1  -1  -7   17.58    3.25
   1  -1  -7   31.50   12.26
  -1   1   6  161.33    8.53
  -1   1   6  157.75    8.57
  -1   1   6  200.82    9.40
  -1   1   6  199.85    9.08
  -1   1   6  165.74    8.46
  -1   1   6  167.33   26.83
   1  -1  -6  184.48    9.26
   1  -1  -6  169.32    8.72
   1  -1  -6  185.02    8.86
   1  -1  -6  174.03    8.32
   1  -1  -6  157.28    8.39
   1  -1  -6  160.25   25.06
  -1   1   5  163.90    7.92
  -1   1   5  179.38    8.32
  -1   1   5  207.12    8.75
  -1   1   5  182.96    7.81
  -1   1   5  173.48    7.96
  -1   1   5  178.76   20.32
   1  -1  -5  175.33    8.21
   1  -1  -5  159.85    7.78
   1  -1  -5  163.97    7.67
   1  -1  -5  162.81    8.90
   1  -1  -5  213.01   21.88
  -1   1   4 1547.78   21.59
  -1   1   4 1541.02   21.77
  -1   1   4 1795.11   23.11
  -1   1   4 1722.21   21.16
  -1   1   4 1595.27   21.63
  -1   1   4 1571.69   53.60
   1  -1  -4 1639.24   22.42
   1  -1  -4 1449.09   20.87
   1  -1  -4 1722.03   22.39
   1  -1  -4 1626.80   20.36
   1  -1  -4 1475.31   21.01
   1  -1  -4 1544.60   61.08
  -1   1   3   14.39    2.31
  -1   1   3   18.37    1.05
  -1   1   3   19.20    1.99
  -1   1   3   20.87    3.11
  -1   1   3   16.09    5.17
   1  -1  -3   17.18    2.53
   1  -1  -3   15.91    1.95
   1  -1  -3   19.60    1.99
   1  -1  -3   18.30    2.82
   1  -1  -3   21.74    6.62
  -1   1   2 3462.06   24.05
  -1   1   2 3276.35   23.54
  -1   1   2 3638.22   61.05
   1  -1  -2 5263.36   37.58
   1  -1  -2 3640.71   60.97
  -1   1   1  115.55    3.51
  -1   1   1  120.32    3.58
  -1   1   1  136.52    3.33
  -1   1   1  145.74    3.11
  -1   1   1  120.47    3.80
   1  -1  -1  127.12    3.69
   1  -1  -1  111.64    3.44
   1  -1  -1  127.37    3.22
   1  -1  -1  133.12    2.97
   1  -1  -1  123.97    3.87
   1  -1  -1  153.56    9.95
  -1   1  -1  197.50    4.48
  -1   1  -1  181.95    4.38
  -1   1  -1  184.69    3.69
  -1   1  -1  206.32    4.56
  -1   1  -1  202.05    5.14
   1  -1   1  186.65    2.06
   1  -1   1  171.60    1.99
   1  -1   1  189.03    4.38
   1  -1   1  176.23    4.30
   1  -1   1  186.50    3.72
   1  -1   1  203.43    4.52
   1  -1   1  176.81    4.09
   1  -1   1  177.64    3.98
   1  -1   1  187.30    4.95
  -1   1  -2 4316.35   47.23
   1  -1   2 3699.12   24.05
   1  -1   2 4005.62   45.50
  -1   1  -3  395.50    7.63
  -1   1  -3  363.71    7.31
  -1   1  -3  381.29    7.81
  -1   1  -3  462.01   10.05
  -1   1  -3  384.79    9.08
  -1   1  -3  421.86   19.71
   1  -1   3  382.59    7.63
   1  -1   3  399.69    7.85
   1  -1   3  422.04    7.12
   1  -1   3  389.82    7.92
   1  -1   3  450.98    9.87
   1  -1   3  398.86    9.33
   1  -1   3  371.74    7.78
   1  -1   3  369.35   18.37
  -1   1  -4    0.65    0.69
  -1   1  -4    0.25    0.51
  -1   1  -4    1.74    0.90
  -1   1  -4    2.17    1.08
  -1   1  -4    0.36    0.61
  -1   1  -4    3.47    2.64
   1  -1   4    2.21    0.94
   1  -1   4    5.97    1.52
   1  -1   4    2.24    0.76
   1  -1   4    1.01    0.61
   1  -1   4    2.86    1.23
   1  -1   4    0.76    0.58
   1  -1   4    3.58    3.51
  -1   1  -5    1.01    0.83
  -1   1  -5    0.47    0.61
  -1   1  -5    0.04    0.58
  -1   1  -5    1.01    1.08
  -1   1  -5    2.53    3.47
   1  -1   5    1.34    0.87
   1  -1   5    0.54    0.83
   1  -1   5    0.51    0.51
   1  -1   5    0.14    0.72
   1  -1   5   -0.04    0.69
   1  -1   5    0.61    0.87
   1  -1   5   -5.82    3.04
  -1   1  -6  556.25   14.03
  -1   1  -6  479.69   12.91
  -1   1  -6  482.55   12.87
  -1   1  -6  571.77   15.91
  -1   1  -6  498.86   14.65
  -1   1  -6  568.55   35.04
   1  -1   6  458.46   12.87
   1  -1   6  488.33   13.45
   1  -1   6  550.75   13.92
   1  -1   6  528.44   15.26
   1  -1   6  483.99   13.06
   1  -1   6  539.47   34.18
  -1   1  -7  221.76    9.80
  -1   1  -7  184.30    8.82
  -1   1  -7  195.98    9.08
  -1   1  -7  236.30   11.21
  -1   1  -7  189.43    9.91
  -1   1  -7  233.77   25.28
   1  -1   7  181.15    8.97
   1  -1   7  192.43    9.37
   1  -1   7  224.11    9.76
   1  -1   7  217.17   10.70
   1  -1   7  198.54    9.19
   1  -1   7  238.83   24.95
  -1   1  -8    1.34    1.56
  -1   1  -8    0.07    1.19
  -1   1  -8    2.39    1.63
  -1   1  -8    0.43    1.01
  -1   1  -8   -1.16    1.45
  -1   1  -8   -5.75    6.98
   1  -1   8    4.52    1.92
   1  -1   8    1.66    1.70
   1  -1   8    3.40    2.13
   1  -1   8    2.68    1.77
   1  -1   8    0.65    1.37
   1  -1   8    0.47    1.19
   1  -1   8  -14.00    6.69
  -1   1  -9   36.49    5.97
  -1   1  -9   30.56    9.15
  -1   1  -9   11.97   10.56
   1  -1   9   40.32    6.47
   1  -1   9   24.34    4.56
   1  -1   9    3.07    1.88
   1  -1   9   26.69    4.95
   1  -1   9   30.34    5.68
   1  -1   9   18.12    3.76
  -1   1 -10   35.62    6.00
  -1   1 -10   27.23    5.14
  -1   1 -10   -5.21   14.61
   1  -1  10   28.24    5.35
   1  -1  10   29.15    5.71
   1  -1  10   27.23    5.39
   1  -1  10   32.69    6.00
   1  -1  10   33.52   15.98
  -1   1 -11    5.79    2.89
  -1   1 -11   -1.34    2.10
  -1   1 -11   29.26   18.15
   1  -1  11   -0.90    3.07
   1  -1  11    1.12    1.41
   1  -1  11    4.38    1.99
   1  -1  11    1.34    2.28
   1  -1  11   43.18   22.35
  -1   0  11    3.51    1.88
  -1   0  11   31.35   20.14
   1   0 -11    3.58    1.95
   1   0 -11    0.72    1.70
   1   0 -11   40.69   24.99
  -1   0  10    6.18    2.71
  -1   0  10    4.70    2.53
  -1   0  10    5.64    2.17
  -1   0  10    0.04    7.34
   1   0 -10   10.63    3.40
   1   0 -10    8.06    2.97
   1   0 -10  -20.65   12.26
  -1   0   9   -0.51    1.99
  -1   0   9    9.15    2.93
  -1   0   9    5.42    2.13
  -1   0   9    8.21    2.75
  -1   0   9    6.62   11.17
   1   0  -9    2.86    2.06
   1   0  -9    8.68    2.78
   1   0  -9    3.11    1.99
   1   0  -9    6.26    2.24
   1   0  -9    6.11    2.53
   1   0  -9  -17.61    9.66
  -1   0   8   19.10    4.09
  -1   0   8   34.10    5.57
  -1   0   8   29.87    5.21
  -1   0   8   23.76    4.09
  -1   0   8   13.06   11.54
   1   0  -8   39.06    4.81
   1   0  -8   24.95    6.29
   1   0  -8   30.27    4.70
   1   0  -8   33.52    5.14
   1   0  -8   22.17    3.83
   1   0  -8   29.26    5.17
   1   0  -8   24.01   12.01
  -1   0   7    0.61    0.90
  -1   0   7    1.77    1.37
  -1   0   7    1.19    1.05
  -1   0   7   -6.80    2.53
   1   0  -7   -0.33    0.72
   1   0  -7    0.83    1.08
   1   0  -7   -0.33    0.83
   1   0  -7    0.04    0.87
   1   0  -7    0.61    0.83
   1   0  -7    1.45    1.23
   1   0  -7   -1.74    4.30
  -1   0   6  238.69    9.76
  -1   0   6  229.10    9.73
  -1   0   6  248.74    9.98
  -1   0   6  222.78    9.44
  -1   0   6  192.07   21.19
   1   0  -6  230.12    9.73
   1   0  -6  221.51    9.44
   1   0  -6  224.01    8.97
   1   0  -6  280.82   10.34
   1   0  -6  227.55    9.40
   1   0  -6  198.26    9.04
   1   0  -6  288.27   26.29
  -1   0   5   83.22    5.32
  -1   0   5   79.82    5.24
  -1   0   5   96.60    5.64
  -1   0   5   80.94    5.50
  -1   0   5   96.92   16.71
   1   0  -5   95.76    5.71
   1   0  -5   83.58    5.68
   1   0  -5   93.59    5.28
   1   0  -5   98.44    5.50
   1   0  -5   88.03    5.57
   1   0  -5   72.94    4.95
   1   0  -5   97.43   16.56
  -1   0   4  473.94   11.14
  -1   0   4  431.52   10.74
  -1   0   4  507.39   11.36
  -1   0   4  431.56   10.63
   1   0  -4  477.81   11.28
   1   0  -4  426.27   10.56
   1   0  -4  484.64   10.60
   1   0  -4  530.86   11.07
   1   0  -4  466.67   10.78
   1   0  -4  400.49   10.38
   1   0  -4  523.20   29.19
  -1   0   3 2244.32   21.08
  -1   0   3 2154.95   20.79
  -1   0   3 2503.15   21.74
  -1   0   3 2084.54   20.32
  -1   0   3 2443.51   54.43
   1   0  -3 2350.21   21.70
   1   0  -3 2199.91   20.87
   1   0  -3 2423.26   20.58
   1   0  -3 2463.44   19.85
   1   0  -3 2359.43   20.98
   1   0  -3 2117.81   20.65
   1   0  -3 2770.95   57.94
  -1   0   1  164.19    3.80
  -1   0   1  139.85    3.51
  -1   0   1  153.77    3.58
  -1   0   1  177.24    3.98
  -1   0   1  142.63    3.29
  -1   0   1  175.47    9.69
   1   0  -1  172.65    3.91
   1   0  -1  143.10    3.54
   1   0  -1  150.59    3.51
   1   0  -1  168.82    3.87
   1   0  -1  145.96    3.33
   1   0  -1  170.55    9.55
  -1   0   0   34.18    1.48
  -1   0   0  147.05    3.04
  -1   0   0  171.13    3.87
  -1   0   0  165.60    3.83
  -1   0   0  123.29    2.24
  -1   0   0  156.81    7.81
   1   0   0  141.26    3.00
   1   0   0  162.52    3.22
   1   0   0  160.93    3.76
   1   0   0  173.66    3.91
   1   0   0  165.63    3.72
   1   0   0  151.21    7.63
  -1   0  -1 2281.86   14.47
  -1   0  -1 2242.11   14.32
  -1   0  -1 2531.61   17.25
  -1   0  -1 2623.29   38.26
   1   0   1 2246.23   14.43
   1   0   1 2356.36   14.86
   1   0   1 2321.24   16.46
   1   0   1 2485.72   37.58
  -1   0  -2   87.27    3.58
  -1   0  -2   73.67    3.29
  -1   0  -2   81.80    3.76
  -1   0  -2   80.83    2.97
  -1   0  -2   96.99    9.29
   1   0   2   76.02    3.40
   1   0   2   85.67    3.62
   1   0   2   88.78    3.83
   1   0   2   88.06    3.94
   1   0   2   96.02    4.23
   1   0   2   82.93    3.00
  -1   0  -3 1490.82   17.50
  -1   0  -3 1346.13   16.53
  -1   0  -3 1398.02   17.76
  -1   0  -3 1680.83   20.36
  -1   0  -3 1396.61   15.44
  -1   0  -3 1677.98   45.89
   1   0   3 1422.25   17.18
   1   0   3 1465.54   17.58
   1   0   3 1529.99   18.30
   1   0   3 1537.22   18.77
   1   0   3 1538.81   19.46
   1   0   3 1412.89   15.44
   1   0   3 1445.76   42.96
  -1   0  -4    6.11    1.66
  -1   0  -4    4.70    1.66
  -1   0  -4    4.12    1.41
  -1   0  -4    4.92    1.41
  -1   0  -4    5.61    1.48
  -1   0  -4    5.71    3.54
   1   0   4    5.21    1.41
   1   0   4    3.36    1.08
   1   0   4    7.70    1.30
   1   0   4    3.87    1.27
   1   0   4    9.58    2.31
   1   0   4    6.08    1.77
   1   0   4    7.78    1.66
   1   0   4    6.18    3.51
  -1   0  -5 1284.07   20.87
  -1   0  -5 1083.17   19.02
  -1   0  -5 1200.93   20.51
  -1   0  -5 1420.92   23.80
  -1   0  -5 1137.24   18.59
  -1   0  -5 1295.57   51.57
   1   0   5 1117.60   19.60
   1   0   5 1180.57   20.36
   1   0   5 1296.22   12.66
   1   0   5 1147.26   21.23
   1   0   5 1243.31   21.12
   1   0   5 1238.46   21.99
   1   0   5 1143.28   18.48
   1   0   5 1229.21   50.52
  -1   0  -6  175.94    8.61
  -1   0  -6  140.21    7.52
  -1   0  -6  160.64    8.21
  -1   0  -6  200.75    9.87
  -1   0  -6  109.87   10.05
  -1   0  -6  207.77   22.31
   1   0   6  155.47    8.10
   1   0   6  165.24    8.46
   1   0   6  176.27    4.48
   1   0   6  163.36    8.25
   1   0   6  181.29    8.86
   1   0   6  185.60    9.37
   1   0   6  171.96    7.99
   1   0   6  159.31   19.89
  -1   0  -7  109.11    7.41
  -1   0  -7   91.57    6.76
  -1   0  -7  102.85    7.12
  -1   0  -7  124.80    8.46
  -1   0  -7  112.51    7.16
  -1   0  -7   95.22   19.85
   1   0   7   99.71    7.09
   1   0   7  108.53    7.52
   1   0   7  116.02    7.56
   1   0   7  130.16    8.14
   1   0   7  109.83    8.03
   1   0   7  105.02    6.87
   1   0   7  105.17   22.46
  -1   0  -8   16.53    3.72
  -1   0  -8   11.57    5.42
  -1   0  -8   13.27    3.91
  -1   0  -8    3.07    7.59
   1   0   8    8.79    2.82
   1   0   8   12.08    3.44
   1   0   8   17.79    4.16
   1   0   8   13.92    3.51
   1   0   8   18.08    4.20
   1   0   8   15.70    3.33
   1   0   8   12.62    9.44
  -1   0  -9    8.82    2.86
  -1   0  -9   15.66    4.56
  -1   0  -9   13.71   11.97
   1   0   9   12.59    3.76
   1   0   9   12.40    3.87
   1   0   9   15.41    4.30
   1   0   9   18.77    4.81
   1   0   9   19.89    4.59
  -1   0 -10   14.29    4.20
  -1   0 -10   30.05    6.69
  -1   0 -10   18.77   14.00
   1   0  10   13.06    3.44
   1   0  10   18.30    4.30
   1   0  10   22.17    5.21
   1   0  10   16.74    4.27
   1   0  10  -33.56   13.67
  -1   0 -11   78.26    8.72
  -1   0 -11   82.56    9.48
  -1   0 -11   44.37   27.12
   1   0  11   59.17    8.82
   1   0  11   72.69    7.88
   1   0  11   78.37    8.93
   1   0  11   36.60   24.27
  -1  -1  12   41.19    6.76
  -1  -1  12   49.87    7.85
  -1  -1  12   86.94   31.54
   1   1 -12   68.32    8.06
   1   1 -12  104.26   29.26
  -1  -1  11   78.30    8.35
  -1  -1  11   82.38    8.17
  -1  -1  11   87.45    8.75
  -1  -1  11   86.47   24.63
   1   1 -11   78.26    7.74
   1   1 -11   96.74    8.86
   1   1 -11   85.86   23.98
  -1  -1  10    5.50    2.82
  -1  -1  10    5.10    2.53
  -1  -1  10    0.18    1.70
  -1  -1  10    3.11    6.84
   1   1 -10    0.40    1.59
   1   1 -10   -2.10    1.59
   1   1 -10    0.18    1.37
   1   1 -10    1.30    9.95
  -1  -1   9    1.59    1.52
  -1  -1   9    1.12    1.41
  -1  -1   9   -0.40    0.72
  -1  -1   9   -0.58    1.01
  -1  -1   9    0.65    7.20
   1   1  -9    0.40    1.23
   1   1  -9    0.00    1.08
   1   1  -9   -2.35    1.23
   1   1  -9   12.48    6.37
  -1  -1   8  374.20   14.10
  -1  -1   8  358.86   13.92
  -1  -1   8  450.65   15.84
  -1  -1   8  382.80   14.32
  -1  -1   8  384.54   35.48
   1   1  -8  389.53   14.32
   1   1  -8  347.47   13.45
   1   1  -8  365.74   12.51
   1   1  -8  431.12   14.79
   1   1  -8  374.09   14.21
   1   1  -8  464.32   38.05
  -1  -1   7  384.83   13.09
  -1  -1   7  375.07   13.09
  -1  -1   7  463.96   14.76
  -1  -1   7  371.81   13.02
  -1  -1   7  378.61   32.08
   1   1  -7  455.86   14.29
   1   1  -7  357.27   12.51
   1   1  -7  399.73   12.01
   1   1  -7  460.67   13.96
   1   1  -7  412.46   13.74
   1   1  -7  476.40   36.06
  -1  -1   6  233.34    9.33
  -1  -1   6  222.02    9.22
  -1  -1   6  253.52    9.98
  -1  -1   6  227.66    9.37
  -1  -1   6  256.48   23.58
   1   1  -6  259.12    9.87
   1   1  -6  231.67    9.26
   1   1  -6  261.47    8.79
   1   1  -6  265.59    9.58
   1   1  -6  258.58    9.98
   1   1  -6  299.59   25.60
  -1  -1   5  824.56   15.88
  -1  -1   5  776.17   15.55
  -1  -1   5  756.57   15.48
  -1  -1   5  933.09   41.55
   1   1  -5  856.67   16.24
   1   1  -5  762.17   15.26
   1   1  -5  863.29   14.21
   1   1  -5  921.62   15.77
   1   1  -5  851.79   16.42
   1   1  -5  912.44   41.12
  -1  -1   4 9999.00  122.42
   1   1  -4 8197.09  210.91
  -1  -1   2  364.04    7.38
  -1  -1   2  313.04    6.87
  -1  -1   2  400.45    5.75
  -1  -1   2  356.22    5.32
  -1  -1   2  401.39    7.78
  -1  -1   2  398.79   19.06
   1   1  -2  311.23    6.84
   1   1  -2  409.57    5.82
   1   1  -2  379.15    7.52
  -1  -1   1   57.86    2.75
  -1  -1   1   50.92    2.60
  -1  -1   1   63.94    2.17
  -1  -1   1   66.04    7.27
   1   1  -1   47.48    2.53
   1   1  -1   55.55    2.71
   1   1  -1   65.28    2.60
   1   1  -1   60.18    2.13
   1   1  -1   59.89    2.75
   1   1  -1   53.74    6.62
  -1  -1   0   16.64    1.59
  -1  -1   0   16.96    1.59
  -1  -1   0   17.68    1.48
  -1  -1   0   15.95    1.56
  -1  -1   0   16.31    1.12
  -1  -1   0   18.55    4.81
   1   1   0   16.71    1.59
   1   1   0   17.68    1.63
   1   1   0   14.90    1.37
   1   1   0   19.82    1.66
   1   1   0   18.01    4.70
  -1  -1  -1  339.23    7.63
  -1  -1  -1  351.74    7.70
  -1  -1  -1  400.63    7.38
  -1  -1  -1  386.13    8.35
  -1  -1  -1  379.26    6.11
  -1  -1  -1  417.13   20.83
   1   1   1  335.65    7.56
   1   1   1  353.40    7.81
   1   1   1  373.98    7.09
   1   1   1  381.11    8.35
   1   1   1  386.86    6.15
   1   1   1  362.52   19.31
  -1  -1  -2    0.07    0.36
  -1  -1  -2   -0.18    0.36
  -1  -1  -2    0.54    0.51
  -1  -1  -2   -0.07    0.36
  -1  -1  -2    0.18    0.33
  -1  -1  -2    1.41    2.13
   1   1   2    0.11    0.40
   1   1   2    0.22    0.54
   1   1   2    0.22    0.36
   1   1   2   -0.07    0.36
   1   1   2    0.43    0.43
   1   1   2    2.28    2.42
  -1  -1  -3  160.72    6.73
  -1  -1  -3  153.19    6.51
  -1  -1  -3  163.83    6.91
  -1  -1  -3  167.08    5.86
  -1  -1  -3  156.02   16.53
   1   1   3  152.47    6.55
   1   1   3  148.02    6.51
   1   1   3  175.72    6.33
   1   1   3  169.90    7.20
   1   1   3  165.53    6.84
   1   1   3  174.03    5.97
   1   1   3  166.86   16.85
  -1  -1  -4    5.97    1.84
  -1  -1  -4    2.97    1.23
  -1  -1  -4    5.24    1.56
  -1  -1  -4    4.81    1.48
  -1  -1  -4   -1.88    1.37
   1   1   4    4.56    1.70
   1   1   4    5.10    2.64
   1   1   4    6.37    1.77
   1   1   4    6.22    1.74
   1   1   4    9.55    2.50
   1   1   4    5.46    1.59
   1   1   4    4.27    3.33
  -1  -1  -5   60.87    5.03
  -1  -1  -5   53.99    4.74
  -1  -1  -5   55.51    4.92
  -1  -1  -5   58.88    4.48
  -1  -1  -5   50.09   13.45
   1   1   5   55.84    5.06
   1   1   5   57.25    5.03
   1   1   5   60.32    4.67
   1   1   5   74.79    5.75
   1   1   5   61.91    5.24
   1   1   5   54.93    4.34
   1   1   5   57.90   14.83
  -1  -1  -6   -0.65    0.80
  -1  -1  -6   -0.65    0.94
  -1  -1  -6    0.14    0.69
  -1  -1  -6    0.11    0.83
  -1  -1  -6    0.29    0.80
  -1  -1  -6    2.82    4.88
   1   1   6    0.33    1.08
   1   1   6   -0.83    0.72
   1   1   6   -0.54    0.58
   1   1   6   -0.11    0.94
   1   1   6   -1.19    0.43
   1   1   6    0.90    0.90
   1   1   6    0.65    0.80
   1   1   6   -7.34    4.99
  -1  -1  -7   48.03    5.39
  -1  -1  -7   49.18    5.61
  -1  -1  -7   45.97    4.85
  -1  -1  -7   37.72   14.07
   1   1   7   41.70    6.22
   1   1   7   50.41    5.57
   1   1   7   52.26    5.21
   1   1   7   56.92    5.89
   1   1   7   45.06    5.46
   1   1   7   49.44    5.06
   1   1   7   64.01   17.83
  -1  -1  -8   69.40    6.80
  -1  -1  -8   58.59    6.69
  -1  -1  -8   52.22    5.42
  -1  -1  -8   37.76   14.61
   1   1   8   39.85    6.04
   1   1   8   53.99    9.04
   1   1   8   52.26    5.82
   1   1   8   60.79    6.55
   1   1   8   50.02    6.04
   1   1   8   34.94    5.32
   1   1   8   23.47   14.54
  -1  -1  -9  761.05   23.87
  -1  -1  -9  867.74   27.05
  -1  -1  -9  693.24   21.16
  -1  -1  -9  795.48   61.84
   1   1   9  609.52   21.66
   1   1   9  718.88   23.72
   1   1   9  760.26   24.30
   1   1   9  795.63   25.13
   1   1   9  662.03   21.81
   1   1   9  653.90   53.92
  -1  -1 -10   76.63    8.35
  -1  -1 -10   72.94    8.39
  -1  -1 -10   67.12   25.21
   1   1  10   67.01    7.78
   1   1  10   62.17    7.70
   1   1  10   62.96    7.70
   1   1  10   23.58   17.14
  -1  -2  12    1.56    2.42
  -1  -2  12    2.35    2.03
  -1  -2  12   33.60   19.06
   1   2 -12    3.40    2.35
   1   2 -12    1.70    1.84
   1   2 -12    5.57   19.28
  -1  -2  11    3.22    3.00
  -1  -2  11   -1.63    1.05
  -1  -2  11   -0.69    2.21
  -1  -2  11   -5.06   14.36
   1   2 -11    2.17    1.92
   1   2 -11    2.46    1.63
   1   2 -11   51.10   16.02
  -1  -2  10   47.12    7.05
  -1  -2  10   71.50   15.41
  -1  -2  10    0.29   10.85
   1   2 -10   56.67    6.11
   1   2 -10   44.30    4.99
   1   2 -10   58.12    6.29
   1   2 -10   46.72   17.50
  -1  -2   9  395.97   15.12
  -1  -2   9  360.02   14.61
  -1  -2   9  465.26   17.18
  -1  -2   9  402.98   15.66
  -1  -2   9  337.16   34.97
   1   2  -9  456.15   16.24
   1   2  -9  404.83   13.09
   1   2  -9  489.85   16.60
   1   2  -9  351.59   14.97
   1   2  -9  516.36   42.17
  -1  -2   8  719.35   18.95
  -1  -2   8  654.69   18.30
  -1  -2   8  804.34   20.98
  -1  -2   8  715.45   19.38
  -1  -2   8  843.62   50.34
   1   2  -8  671.87   18.08
   1   2  -8  786.08    9.91
   1   2  -8  747.60   16.35
   1   2  -8  865.03   20.29
   1   2  -8  762.28   20.14
   1   2  -8  855.77   50.81
  -1  -2   7  117.50    7.12
  -1  -2   7  116.45    7.12
  -1  -2   7  144.95    8.28
  -1  -2   7  100.72    6.80
  -1  -2   7  114.06   20.98
   1   2  -7  126.47    7.41
   1   2  -7  115.04    7.05
   1   2  -7  117.90    4.34
   1   2  -7  123.14    6.04
   1   2  -7  136.12    7.41
   1   2  -7  126.47    7.63
   1   2  -7  114.82   20.65
  -1  -2   6 1534.08   23.54
  -1  -2   6 1306.82   21.95
  -1  -2   6 1644.52   22.89
  -1  -2   6 1594.98   25.03
  -1  -2   6 1351.23   22.71
  -1  -2   6 1562.72   58.59
   1   2  -6 1528.94   23.51
   1   2  -6 1381.17   22.13
   1   2  -6 1557.87   19.17
   1   2  -6 1686.76   23.40
   1   2  -6 1570.24   24.56
   1   2  -6 1796.52   62.75
  -1  -2   5 4815.31   38.15
  -1  -2   5 4064.46   35.41
  -1  -2   5 5598.53   37.79
  -1  -2   5 5440.67   42.13
  -1  -2   5 3998.46   44.23
  -1  -2   5 5301.69   98.77
   1   2  -5 5083.94   39.31
   1   2  -5 3997.37   44.30
   1   2  -5 5235.87   30.96
   1   2  -5 5437.93   37.54
   1   2  -5 4863.95   48.79
   1   2  -5 5472.83  100.61
  -1  -2   4 2367.17   24.48
  -1  -2   4 1883.36   22.02
  -1  -2   4 2528.36   22.42
  -1  -2   4 2487.96   25.75
  -1  -2   4 2494.22   62.10
   1   2  -4 2251.95   23.94
   1   2  -4 2048.88   22.64
   1   2  -4 2573.42   22.75
   1   2  -4 2283.92   24.45
   1   2  -4 2415.88   61.05
  -1  -2   3   20.98    2.21
  -1  -2   3   12.84    2.10
  -1  -2   3   18.41    1.77
  -1  -2   3   19.49    1.23
  -1  -2   3   18.88    2.06
   1   2  -3   19.38    2.10
   1   2  -3   16.93    1.95
   1   2  -3   22.64    1.95
   1   2  -3   20.04    2.17
  -1  -2   2  428.77    9.11
  -1  -2   2  331.13    8.10
  -1  -2   2  453.29    9.04
  -1  -2   2  378.75   21.01
   1   2  -2  517.37   12.51
   1   2  -2  378.75    8.61
   1   2  -2  404.36    6.87
   1   2  -2  385.48    4.81
   1   2  -2  435.46    8.79
   1   2  -2  367.04   20.79
  -1  -2   1  425.70    9.15
  -1  -2   1  481.50    9.66
  -1  -2   1  496.22    8.50
  -1  -2   1  515.53   24.56
   1   2  -1  422.41    9.04
   1   2  -1  462.08    9.51
   1   2  -1  490.83    8.50
   1   2  -1  453.62   23.07
  -1  -2   0  534.73   10.74
  -1  -2   0  582.83   11.14
  -1  -2   0  650.82    9.40
  -1  -2   0  624.64   10.92
  -1  -2   0  636.32    9.62
  -1  -2   0  622.58   28.50
   1   2   0  540.63   10.74
   1   2   0  600.95   11.39
   1   2   0  627.10   11.03
   1   2   0  643.19   28.86
  -1  -2  -1    1.59    0.87
  -1  -2  -1    3.51    1.19
  -1  -2  -1    3.44    1.05
  -1  -2  -1    1.16    0.61
  -1  -2  -1    2.10    0.80
  -1  -2  -1    4.20    3.33
   1   2   1    2.21    0.98
   1   2   1    2.68    1.05
   1   2   1    3.15    0.90
   1   2   1    1.84    0.80
   1   2   1    2.86    0.98
   1   2   1   -0.69    1.56
  -1  -2  -2  132.00    6.37
  -1  -2  -2  120.75    6.04
  -1  -2  -2  135.91    5.10
  -1  -2  -2  150.23    6.76
  -1  -2  -2  143.61    5.50
  -1  -2  -2  158.51   16.82
   1   2   2  121.59    6.04
   1   2   2  143.94    6.65
   1   2   2  146.83    5.28
   1   2   2  146.50    6.73
   1   2   2  137.32    5.35
   1   2   2  155.87   16.38
  -1  -2  -3   24.41    3.04
  -1  -2  -3   24.56    3.83
  -1  -2  -3   22.35    3.72
  -1  -2  -3   21.88    2.39
  -1  -2  -3   25.50    9.01
   1   2   3   23.40    2.89
   1   2   3   12.33    2.39
   1   2   3   21.77    2.35
   1   2   3   16.96    4.01
   1   2   3   20.51    3.18
   1   2   3   23.18    2.50
   1   2   3   15.80    7.63
  -1  -2  -4   54.17    4.92
  -1  -2  -4   56.56    4.92
  -1  -2  -4   54.61    4.85
  -1  -2  -4   62.93    4.52
  -1  -2  -4   71.82   16.13
   1   2   4   41.16    4.27
   1   2   4   58.51    5.10
   1   2   4   53.78    4.01
   1   2   4   63.07    5.35
   1   2   4   51.46    4.52
   1   2   4   55.48    4.41
   1   2   4   58.41   14.36
  -1  -2  -5  181.33    9.55
  -1  -2  -5  159.31    8.79
  -1  -2  -5  178.15    9.51
  -1  -2  -5  172.61    8.17
  -1  -2  -5  213.16   25.89
   1   2   5  146.00    8.53
   1   2   5  171.78    9.37
   1   2   5  183.79    8.03
   1   2   5  204.01   10.34
   1   2   5  192.87    9.48
   1   2   5  183.93    8.39
   1   2   5  189.47   28.71
  -1  -2  -6   54.75    5.86
  -1  -2  -6   57.36    5.82
  -1  -2  -6   56.92    6.29
  -1  -2  -6   52.15    5.03
  -1  -2  -6   56.78   16.02
   1   2   6   42.06    5.17
   1   2   6   29.91    4.67
   1   2   6   62.20    5.17
   1   2   6   61.91    6.26
   1   2   6   59.27    5.89
   1   2   6   56.20    5.03
   1   2   6   30.88   13.81
  -1  -2  -7  953.49   25.03
  -1  -2  -7 1034.75   28.35
  -1  -2  -7  890.96   21.74
  -1  -2  -7  928.35   59.74
   1   2   7  791.87   22.86
   1   2   7  895.59   24.59
   1   2   7  884.77   20.83
   1   2   7 1027.12   26.62
   1   2   7  995.33   25.10
   1   2   7  864.85   21.34
   1   2   7  985.75   61.88
  -1  -2  -8   49.69    6.87
  -1  -2  -8   83.36    8.28
  -1  -2  -8   55.30    5.86
  -1  -2  -8   62.75   22.96
   1   2   8   57.83    6.91
   1   2   8   53.85    7.85
   1   2   8   70.16    6.84
   1   2   8   69.62    7.63
   1   2   8   54.68   12.48
   1   2   8   56.31    6.04
  -1  -2  -9   17.36    4.45
  -1  -2  -9   11.86    4.20
  -1  -2  -9    5.35    2.13
  -1  -2  -9  -27.23   14.10
   1   2   9    7.99    2.60
   1   2   9    4.30    2.50
   1   2   9   14.47    4.16
   1   2   9   21.55   16.35
  -1  -3  12   -1.88    2.86
  -1  -3  12    0.04    1.66
  -1  -3  12    1.77    1.99
  -1  -3  12   59.85   17.61
   1   3 -12    0.29    1.92
   1   3 -12    1.63    1.99
   1   3 -12    0.40    1.48
   1   3 -12   -6.87   13.63
  -1  -3  11    0.25    3.07
  -1  -3  11    1.41    1.27
  -1  -3  11   -2.17    1.41
  -1  -3  11  -20.47   12.84
   1   3 -11    4.05    2.39
   1   3 -11    0.33    1.59
   1   3 -11   -1.19    1.27
   1   3 -11    9.15   12.84
  -1  -3  10   17.65    4.09
  -1  -3  10    9.66    3.07
  -1  -3  10    7.34    2.78
  -1  -3  10    9.73   11.57
   1   3 -10   11.54    3.76
   1   3 -10   15.95    3.29
   1   3 -10   12.87    3.62
   1   3 -10   13.89    8.86
  -1  -3   9    0.65    1.66
  -1  -3   9    1.92    1.08
  -1  -3   9    2.13    1.56
  -1  -3   9    2.42    1.70
  -1  -3   9   15.73    8.50
   1   3  -9    3.25    1.84
   1   3  -9    2.97    1.23
   1   3  -9   -0.90    1.01
   1   3  -9    0.87    1.48
   1   3  -9   -4.59    5.71
  -1  -3   8    1.52    1.30
  -1  -3   8    0.11    1.19
  -1  -3   8    2.39    1.19
  -1  -3   8    4.45    2.42
  -1  -3   8    2.60    1.30
  -1  -3   8   28.90   11.43
   1   3  -8    1.27    1.23
   1   3  -8    0.72    1.48
   1   3  -8    0.36    0.83
   1   3  -8    3.98    1.34
   1   3  -8    2.39    1.56
   1   3  -8   -0.47    0.76
   1   3  -8    5.50    6.73
  -1  -3   7   82.93   12.30
  -1  -3   7   82.67    6.08
  -1  -3   7  108.71    6.47
  -1  -3   7   92.40    6.65
  -1  -3   7   85.17    6.33
  -1  -3   7  134.61   22.06
   1   3  -7   91.57    6.26
   1   3  -7   89.69    6.11
   1   3  -7   95.22    4.70
   1   3  -7  102.74    6.37
   1   3  -7   96.13    6.65
   1   3  -7   95.08   18.55
  -1  -3   6  540.41   14.14
  -1  -3   6  464.03   13.27
  -1  -3   6  600.16   13.96
  -1  -3   6  640.26   16.06
  -1  -3   6  490.94   14.03
  -1  -3   6  598.31   36.53
   1   3  -6  578.93   14.61
   1   3  -6  496.69   13.42
   1   3  -6  566.67   10.16
   1   3  -6  605.15   14.14
   1   3  -6  551.59   14.72
   1   3  -6  600.91   36.56
  -1  -3   5   24.12    2.89
  -1  -3   5   22.24    2.78
  -1  -3   5   28.32    2.78
  -1  -3   5   25.46    1.84
  -1  -3   5   29.62    3.29
  -1  -3   5   21.55    8.75
   1   3  -5   25.86    2.93
   1   3  -5   21.63    2.68
   1   3  -5   29.22    2.93
   1   3  -5   27.56    3.11
   1   3  -5   19.13    7.49
  -1  -3   4   68.82    4.48
  -1  -3   4   58.26    4.16
  -1  -3   4   72.19    4.09
  -1  -3   4   73.27    4.63
  -1  -3   4   70.99   13.02
  -1  -3   4   61.44   12.22
   1   3  -4   68.10    4.45
   1   3  -4   54.10    3.94
   1   3  -4   64.08    2.82
   1   3  -4   81.77    4.81
  -1  -3   3  625.15   12.84
  -1  -3   3  534.26   11.97
  -1  -3   3  682.47   11.86
  -1  -3   3  678.24   12.80
  -1  -3   3  635.05   31.86
  -1  -3   3  576.14   30.34
   1   3  -3  520.48   11.65
   1   3  -3  584.75   12.48
   1   3  -3  601.64    8.82
   1   3  -3  671.76   12.66
  -1  -3   2  266.06    8.39
  -1  -3   2  295.32    8.75
  -1  -3   2  322.05    7.16
  -1  -3   2  286.06   21.23
   1   3  -2  255.40    8.10
   1   3  -2  291.49    8.72
   1   3  -2  302.74    6.98
   1   3  -2  311.02    5.06
   1   3  -2  346.86    8.57
   1   3  -2  271.60   20.61
  -1  -3   1 4338.84   42.71
  -1  -3   1 2927.51   28.03
  -1  -3   1 3270.71   25.79
  -1  -3   1 3467.20   75.19
   1   3  -1 2820.31   27.45
   1   3  -1 3077.84   28.93
   1   3  -1 3284.24   26.04
   1   3  -1 3135.93   71.93
  -1  -3   0  353.91   10.31
  -1  -3   0  412.71    8.10
  -1  -3   0  398.93   10.09
  -1  -3   0  417.92    9.66
  -1  -3   0  392.79   26.58
   1   3   0  355.25   10.23
   1   3   0  373.26   10.60
   1   3   0  418.75   10.45
   1   3   0  414.27   27.56
  -1  -3  -1   12.12    2.57
  -1  -3  -1   13.63    2.82
  -1  -3  -1   14.03    1.66
  -1  -3  -1   16.49    2.97
  -1  -3  -1   16.56    2.68
  -1  -3  -1   27.30    9.08
   1   3   1   19.46    3.54
   1   3   1    8.64    2.06
   1   3   1   12.62    1.56
   1   3   1   14.25    2.82
   1   3   1   17.18    2.10
   1   3   1    3.22    3.65
  -1  -3  -2  312.54   11.03
  -1  -3  -2  298.50   10.67
  -1  -3  -2  339.62    8.32
  -1  -3  -2  324.04   11.07
  -1  -3  -2  341.50    9.84
  -1  -3  -2  358.07   28.79
   1   3   2  296.12   10.67
   1   3   2  315.72   14.00
   1   3   2  335.72    8.21
   1   3   2  337.49   11.83
   1   3   2  318.79    9.40
   1   3   2  364.22   28.79
  -1  -3  -3   36.78    4.48
  -1  -3  -3   44.59    4.52
  -1  -3  -3   41.55    4.34
  -1  -3  -3   39.46    3.72
  -1  -3  -3   48.17   13.78
   1   3   3   41.48    4.30
   1   3   3   42.39    4.48
   1   3   3   47.27    3.47
   1   3   3   47.05    4.67
   1   3   3   42.24    4.01
   1   3   3   35.66    4.27
   1   3   3   60.68   15.55
  -1  -3  -4  268.74   11.79
  -1  -3  -4  237.46   10.99
  -1  -3  -4  266.79   11.75
  -1  -3  -4  266.25   10.16
  -1  -3  -4  332.25   30.45
   1   3   4  252.14   11.39
   1   3   4  264.80   11.79
   1   3   4  270.15    9.01
   1   3   4  299.99   12.62
   1   3   4  285.85   11.10
   1   3   4  256.99    9.87
   1   3   4  247.80   28.79
  -1  -3  -5  189.32   10.63
  -1  -3  -5  145.35   11.54
  -1  -3  -5  172.11    8.86
  -1  -3  -5  201.91   33.02
   1   3   5  174.28   10.13
   1   3   5  166.07   10.09
   1   3   5  190.44    8.21
   1   3   5  240.39   12.12
   1   3   5  205.60   10.23
   1   3   5  182.23    8.97
   1   3   5  217.13   32.95
  -1  -3  -6  244.84   12.87
  -1  -3  -6  212.87   18.55
  -1  -3  -6  206.32   10.34
  -1  -3  -6  224.58   37.21
   1   3   6  169.47   10.67
   1   3   6  208.60   11.97
   1   3   6  206.25    9.33
   1   3   6  222.45   12.55
   1   3   6  227.69   11.54
   1   3   6  202.38   10.16
   1   3   6  178.55   32.22
  -1  -3  -7   22.46    4.74
  -1  -3  -7   23.72    4.70
  -1  -3  -7   21.34   16.27
   1   3   7   18.52    4.12
   1   3   7   23.36    5.06
   1   3   7   23.72    4.41
   1   3   7   27.05    5.61
   1   3   7   28.43    5.24
   1   3   7   22.60    4.30
   1   3   7   16.13   11.25
  -1  -3  -8    9.44    2.78
  -1  -3  -8   14.47    4.12
  -1  -3  -8   16.53    3.62
  -1  -3  -8   -5.71   15.37
   1   3   8   10.78    3.65
   1   3   8   12.91    4.16
   1   3   8   10.89    3.33
   1   3   8   -5.17   15.04
  -1  -3  -9   11.46    3.25
  -1  -3  -9    7.38    3.44
  -1  -3  -9    0.58    2.28
  -1  -3  -9  -11.17   23.07
   1   3   9    3.80    2.57
   1   3   9    5.42    3.72
   1   3   9    8.82    3.04
  -1  -4  12   21.92    4.67
  -1  -4  12   10.74    3.33
  -1  -4  12   13.71    4.09
  -1  -4  12   43.14   16.42
   1   4 -12   28.90    5.86
   1   4 -12   24.95    4.16
   1   4 -12   26.26    5.03
   1   4 -12   13.27   16.20
  -1  -4  11   47.01    7.56
  -1  -4  11   42.71    6.76
  -1  -4  11   64.99    7.45
  -1  -4  11   65.64   21.23
   1   4 -11   63.25    6.94
   1   4 -11   61.34    3.98
   1   4 -11   50.02    4.70
   1   4 -11   68.06    6.91
   1   4 -11   29.26   16.93
  -1  -4  10   29.22    5.10
  -1  -4  10    9.84    3.33
  -1  -4  10   39.49    7.99
  -1  -4  10   -4.20    9.66
   1   4 -10   24.77    4.30
   1   4 -10   26.76    3.65
   1   4 -10   26.80    3.76
   1   4 -10   29.22    5.35
   1   4 -10   45.53   13.92
  -1  -4   9    2.17    2.03
  -1  -4   9    0.18    0.87
  -1  -4   9    0.11    1.27
  -1  -4   9    2.39    1.66
  -1  -4   9   13.96   10.02
   1   4  -9    1.77    1.19
   1   4  -9    4.92    1.41
   1   4  -9    1.23    0.90
   1   4  -9    3.00    1.63
   1   4  -9    6.65    2.46
   1   4  -9    0.65    6.73
  -1  -4   8    0.58    1.30
  -1  -4   8    3.83    1.81
  -1  -4   8    3.33    1.77
  -1  -4   8    2.89    1.63
  -1  -4   8    6.29    2.60
  -1  -4   8    0.07    5.32
   1   4  -8    0.36    0.90
   1   4  -8    3.83    1.77
   1   4  -8    0.87    0.90
   1   4  -8    0.33    0.98
   1   4  -8    6.11    2.31
   1   4  -8    7.12    7.09
  -1  -4   7  251.38   12.87
  -1  -4   7  204.84    9.62
  -1  -4   7  283.42   10.63
  -1  -4   7  277.89   11.61
  -1  -4   7  228.38   10.56
  -1  -4   7  266.61   26.33
   1   4  -7  235.61   10.16
   1   4  -7  209.50    9.48
   1   4  -7  244.33    6.47
   1   4  -7  273.91   10.60
   1   4  -7  218.72   10.16
   1   4  -7  249.47   25.42
  -1  -4   6    1.30    1.34
  -1  -4   6    4.05    1.52
  -1  -4   6    5.46    1.95
  -1  -4   6    3.76    0.87
  -1  -4   6    0.65    1.12
  -1  -4   6   13.56    6.73
  -1  -4   6    4.48    4.88
   1   4  -6    0.33    0.72
   1   4  -6    3.29    1.34
   1   4  -6    2.93    0.87
   1   4  -6    3.00    1.37
  -1  -4   5  515.78   13.63
  -1  -4   5  390.47   12.01
  -1  -4   5  557.41   13.13
  -1  -4   5  528.98   13.78
  -1  -4   5  547.90   34.54
  -1  -4   5  458.43   31.72
   1   4  -5  435.32   12.40
   1   4  -5  447.61   12.69
   1   4  -5  493.94    7.81
   1   4  -5  532.89   13.63
  -1  -4   4  186.94    7.96
  -1  -4   4  140.68    7.31
  -1  -4   4  204.04    7.63
  -1  -4   4  200.50    7.92
  -1  -4   4  184.62   19.38
  -1  -4   4  151.46   17.68
   1   4  -4  153.66    7.20
   1   4  -4  164.15    7.45
   1   4  -4  166.61    4.77
   1   4  -4  189.61    7.63
  -1  -4   3 3162.94   32.19
  -1  -4   3 2519.75   29.04
  -1  -4   3 3147.57   23.04
  -1  -4   3 2865.52   75.55
   1   4  -3 2508.57   28.46
   1   4  -3 2744.44   30.09
   1   4  -3 2869.82   22.13
   1   4  -3 3437.97   30.41
   1   4  -3 2821.51   74.86
  -1  -4   2   13.74    2.42
  -1  -4   2   22.75    3.40
  -1  -4   2   21.05    2.17
  -1  -4   2   21.77    8.79
   1   4  -2   22.39    3.47
   1   4  -2   16.20    2.60
   1   4  -2   23.80    2.28
   1   4  -2   26.98    2.64
   1   4  -2   23.98    8.32
  -1  -4   1  534.95   13.85
  -1  -4   1  591.40   14.39
  -1  -4   1  636.21   11.03
  -1  -4   1  645.47   13.13
  -1  -4   1  597.91   13.27
  -1  -4   1  588.47   35.37
   1   4  -1  524.03   13.49
   1   4  -1  563.81   14.18
   1   4  -1  615.56   12.95
   1   4  -1  544.24   34.21
  -1  -4   0  237.28   10.16
  -1  -4   0  282.34   10.38
  -1  -4   0  289.03    7.20
  -1  -4   0  265.02   11.75
  -1  -4   0  295.39    9.48
  -1  -4   0  342.34   28.61
   1   4   0  251.42    9.80
   1   4   0  267.19   10.20
   1   4   0  280.71    9.66
   1   4   0  273.12   25.28
  -1  -4  -1    1.08    1.19
  -1  -4  -1    3.76    1.48
  -1  -4  -1    0.69    0.69
  -1  -4  -1    2.03    1.30
  -1  -4  -1    2.24    1.05
  -1  -4  -1    0.00    4.63
   1   4   1    2.50    1.27
   1   4   1    1.52    1.19
   1   4   1    2.31    1.19
   1   4   1   10.20    5.89
  -1  -4  -2 1386.13   25.89
  -1  -4  -2 1389.27   25.60
  -1  -4  -2 1442.18   25.57
  -1  -4  -2 1536.46   23.69
  -1  -4  -2 1591.14   67.99
   1   4   2 1326.27   25.03
   1   4   2 2084.07   38.80
   1   4   2 1520.66   17.87
   1   4   2 1533.35   26.69
   1   4   2 1445.11   22.64
   1   4   2 1358.79   62.49
  -1  -4  -3  309.53   13.06
  -1  -4  -3  313.40   12.95
  -1  -4  -3  323.28   13.06
  -1  -4  -3  303.57   11.17
  -1  -4  -3  383.02   34.90
   1   4   3  275.61   12.15
   1   4   3  300.46   12.87
   1   4   3  332.83    9.08
   1   4   3  340.13   13.60
   1   4   3  317.38   11.43
   1   4   3  302.70   11.03
   1   4   3  330.15   33.02
  -1  -4  -4   20.47    4.34
  -1  -4  -4   29.08    5.53
  -1  -4  -4   18.70    4.16
  -1  -4  -4   17.97    3.36
  -1  -4  -4   16.24   10.89
   1   4   4   24.52    4.45
   1   4   4   25.21    4.56
   1   4   4   29.66    2.97
   1   4   4   22.13    4.20
   1   4   4   34.32    4.23
   1   4   4   29.69    4.77
   1   4   4   49.44   16.74
  -1  -4  -5  261.54   13.45
  -1  -4  -5  237.60   17.47
  -1  -4  -5  266.61   11.75
  -1  -4  -5  233.12   47.77
   1   4   5  207.12   11.97
   1   4   5  259.99   13.34
   1   4   5  254.93    9.48
   1   4   5  298.43   14.43
   1   4   5  254.60   11.93
   1   4   5  237.35   11.03
   1   4   5  229.94   35.98
  -1  -4  -6   52.15    8.03
  -1  -4  -6   67.09    6.04
  -1  -4  -6   46.29   20.40
   1   4   6   40.25    6.80
   1   4   6   74.90    5.46
   1   4   6   70.81    7.78
   1   4   6   58.48    6.11
   1   4   6   54.79    5.86
   1   4   6   73.56   22.35
  -1  -4  -7   63.76    9.58
  -1  -4  -7   62.02    6.37
  -1  -4  -7   40.00   24.12
   1   4   7   65.06    7.41
   1   4   7   66.98    5.97
   1   4   7   69.98    7.92
   1   4   7   61.19    6.58
  -1  -4  -8    5.53    2.89
  -1  -4  -8    3.62    2.71
  -1  -4  -8    6.80    2.86
  -1  -4  -8   19.20   21.34
   1   4   8    5.24    2.89
   1   4   8   10.85    4.30
   1   4   8    8.53    3.72
  -1  -5  12   -6.91    2.86
  -1  -5  12    0.07    1.19
  -1  -5  12    4.48    2.50
  -1  -5  12   20.40   16.46
   1   5 -12    2.75    2.13
   1   5 -12    2.35    1.63
   1   5 -12    5.03    1.95
   1   5 -12   -2.46    1.70
   1   5 -12   23.90   15.84
  -1  -5  11   -2.39    1.81
  -1  -5  11    1.12    1.59
  -1  -5  11    1.41    1.30
  -1  -5  11   -1.63   11.61
   1   5 -11   -0.80    1.23
   1   5 -11    1.19    1.59
   1   5 -11    0.98    1.34
   1   5 -11    2.21    2.06
   1   5 -11   -4.59   10.31
  -1  -5  10   79.49    7.16
  -1  -5  10   67.09    6.65
  -1  -5  10    1.48    2.06
   1   5 -10   81.33    7.20
   1   5 -10   88.03    6.18
   1   5 -10   76.20    4.27
   1   5 -10   86.40    7.52
   1   5 -10  115.62   23.40
  -1  -5   9    0.76    1.27
  -1  -5   9   -1.01    0.72
  -1  -5   9   -2.64    1.19
  -1  -5   9    1.41    0.83
  -1  -5   9    1.12    1.37
  -1  -5   9  -10.56    5.10
   1   5  -9    0.80    1.19
   1   5  -9    0.69    0.76
   1   5  -9    1.63    1.27
   1   5  -9    0.22    1.34
  -1  -5   8  131.71    8.39
  -1  -5   8  106.40    7.56
  -1  -5   8  148.57    8.57
  -1  -5   8  126.87    4.38
  -1  -5   8  157.21    9.48
  -1  -5   8  134.42   25.10
  -1  -5   8  125.20   22.49
   1   5  -8  123.32    8.03
   1   5  -8  123.54    8.17
   1   5  -8  125.75    4.16
   1   5  -8  147.34    8.57
   1   5  -8  132.44    8.61
  -1  -5   7  323.60   12.44
  -1  -5   7  259.70   11.28
  -1  -5   7  352.39   12.44
  -1  -5   7  350.44   13.20
  -1  -5   7  333.08   31.32
  -1  -5   7  322.92   30.05
   1   5  -7  285.96   11.50
   1   5  -7  315.47    5.86
   1   5  -7  331.41   12.69
  -1  -5   6   11.61    3.51
  -1  -5   6   13.56    3.33
  -1  -5   6   15.88    3.40
  -1  -5   6    8.21    2.50
  -1  -5   6    8.93    6.00
  -1  -5   6    2.39    3.76
   1   5  -6    9.62    2.60
   1   5  -6    9.01    2.31
   1   5  -6    9.40    1.08
   1   5  -6   13.24    2.93
  -1  -5   5  880.87   19.17
  -1  -5   5  671.62   16.93
  -1  -5   5  903.43   18.23
  -1  -5   5  899.60   18.62
  -1  -5   5  829.40   45.97
  -1  -5   5  714.98   42.39
   1   5  -5  683.70   16.67
   1   5  -5  774.80   17.94
   1   5  -5  773.46   10.09
   1   5  -5  866.33   18.01
  -1  -5   4  785.75   17.83
  -1  -5   4  629.52   16.13
  -1  -5   4  882.60   17.65
  -1  -5   4  880.58   17.32
  -1  -5   4  766.04   43.25
   1   5  -4  646.16   15.98
   1   5  -4  699.39   16.78
   1   5  -4  735.56   11.32
   1   5  -4  845.43   16.82
  -1  -5   3  393.15   12.69
  -1  -5   3  460.70   10.13
  -1  -5   3  440.52   32.77
   1   5  -3  371.67   12.15
   1   5  -3  384.11   12.48
   1   5  -3  431.84    9.87
   1   5  -3  500.38   12.37
   1   5  -3  444.61   32.66
  -1  -5   2  243.71   12.62
  -1  -5   2  176.56    8.61
  -1  -5   2  180.61    7.09
  -1  -5   2  136.05   22.17
   1   5  -2  153.12    7.96
   1   5  -2  154.10    8.10
   1   5  -2  179.52    7.12
   1   5  -2  203.72    7.70
   1   5  -2  164.04   19.78
  -1  -5   1  102.82    6.80
  -1  -5   1  128.06    7.52
  -1  -5   1  125.64    5.14
  -1  -5   1  136.92    6.80
  -1  -5   1  137.57    9.22
   1   5  -1  115.84    7.12
   1   5  -1  116.34    9.04
   1   5  -1  135.40    6.84
   1   5  -1  144.95    6.55
   1   5  -1  106.98   20.32
  -1  -5   0  159.67    8.82
  -1  -5   0  153.12    8.46
  -1  -5   0  170.44    5.75
  -1  -5   0  173.77    8.28
  -1  -5   0  177.06    8.32
  -1  -5   0  155.15   25.28
   1   5   0  138.08    8.10
   1   5   0  154.75    8.61
   1   5   0  170.70    8.39
   1   5   0  143.14   24.77
  -1  -5  -1    3.18    1.92
  -1  -5  -1    7.52    2.35
  -1  -5  -1    3.62    1.08
  -1  -5  -1    3.69    1.81
  -1  -5  -1    2.50    1.37
  -1  -5  -1   12.44   10.16
   1   5   1    3.87    1.84
   1   5   1    4.23    1.88
   1   5   1    1.48    1.27
   1   5   1   -1.08    7.27
  -1  -5  -2    1.34    1.37
  -1  -5  -2    2.64    1.41
  -1  -5  -2    1.37    1.30
  -1  -5  -2    4.81    2.03
  -1  -5  -2   -3.51    7.34
   1   5   2    1.92    1.84
   1   5   2   -0.43    0.87
   1   5   2   -0.51    1.01
   1   5   2   -0.04    0.94
   1   5   2    2.28    1.37
   1   5   2    8.72    7.16
  -1  -5  -3    0.11    1.34
  -1  -5  -3    6.18    2.68
  -1  -5  -3    1.08    1.52
  -1  -5  -3    2.64    1.52
  -1  -5  -3   -0.87    6.15
   1   5   3    0.14    1.88
   1   5   3   -1.59    1.41
   1   5   3   -2.50    0.94
   1   5   3    1.88    1.56
   1   5   3    4.12    1.74
   1   5   3    0.14    4.99
  -1  -5  -4   26.47    4.99
  -1  -5  -4   38.12    4.52
  -1  -5  -4   59.38   17.36
   1   5   4   27.96    5.42
   1   5   4   33.31    5.64
   1   5   4   37.11    3.25
   1   5   4   40.11    6.29
   1   5   4   40.90    4.74
   1   5   4   41.26    6.11
   1   5   4   44.27   16.89
  -1  -5  -5    9.62    3.36
  -1  -5  -5    4.81    2.03
  -1  -5  -5   25.50   14.54
   1   5   5    3.91    3.04
   1   5   5   10.31    2.50
   1   5   5   10.20    3.69
   1   5   5    8.28    2.35
   1   5   5    3.15    2.06
   1   5   5   10.60   15.80
  -1  -5  -6    1.08    2.35
  -1  -5  -6   -2.31    1.23
   1   5   6    5.32    2.13
   1   5   6   -0.04    1.74
   1   5   6    1.92    2.50
   1   5   6   -0.65    1.41
   1   5   6   16.38   16.09
  -1  -5  -7    9.91    4.16
  -1  -5  -7   10.13    3.00
  -1  -5  -7    7.38   19.46
   1   5   7    6.37    3.62
   1   5   7    6.18    3.33
   1   5   7    7.20    3.58
   1   5   7   12.04    3.69
   1   5   7  -17.36   23.15
  -1  -6  12   88.39    9.29
  -1  -6  12   91.97    8.61
  -1  -6  12  111.71    6.22
  -1  -6  12  126.97   10.85
  -1  -6  12   92.11   29.11
  -1  -6  12   96.42   26.76
   1   6 -12  113.74    9.62
   1   6 -12  107.63    7.38
   1   6 -12  133.74   10.42
  -1  -6  11   15.70    3.91
  -1  -6  11    8.86    3.04
  -1  -6  11   12.22    2.35
  -1  -6  11   16.67    4.16
  -1  -6  11    2.50   14.32
  -1  -6  11    3.51   11.54
   1   6 -11   17.47    4.16
   1   6 -11   12.33    3.25
   1   6 -11   10.45    3.69
  -1  -6  10   27.85    5.21
  -1  -6  10   26.33    5.32
  -1  -6  10   58.41    6.69
  -1  -6  10   19.85   13.67
  -1  -6  10   44.59   14.97
   1   6 -10   37.94    5.61
   1   6 -10   48.21    5.14
   1   6 -10   49.65    5.82
  -1  -6   9  116.96    8.68
  -1  -6   9  103.32    8.21
  -1  -6   9  145.09    9.84
  -1  -6   9   82.31   20.51
   1   6  -9  107.55    8.17
   1   6  -9   -0.69    2.39
  -1  -6   8    1.56    1.70
  -1  -6   8    2.06    1.45
  -1  -6   8   -0.14    0.87
  -1  -6   8  -15.30    7.20
  -1  -6   8    8.86    6.94
   1   6  -8   -2.31    1.08
   1   6  -8    0.04    0.90
  -1  -6   7  155.47    9.08
  -1  -6   7  137.86    8.64
  -1  -6   7  175.76    9.26
  -1  -6   7  173.05    9.58
  -1  -6   7  168.17   28.50
  -1  -6   7  111.64   21.77
   1   6  -7  130.84    8.21
   1   6  -7  134.86    8.50
   1   6  -7  150.45    8.86
  -1  -6   6   88.24    6.87
  -1  -6   6   87.88    6.73
  -1  -6   6  118.22    7.41
  -1  -6   6  122.89    7.63
  -1  -6   6  122.42   22.21
  -1  -6   6   98.66   19.82
   1   6  -6   89.94    6.65
   1   6  -6   84.59    6.55
   1   6  -6  106.40    7.02
  -1  -6   5 1614.22   28.03
  -1  -6   5 1233.26   24.77
  -1  -6   5 1737.21   27.52
  -1  -6   5 1737.90   26.76
  -1  -6   5 1614.43   69.26
  -1  -6   5 1483.55   65.60
   1   6  -5 1299.95   24.77
   1   6  -5 1436.03   26.36
   1   6  -5 1525.98   15.80
   1   6  -5 1664.96   25.89
  -1  -6   4  407.40   14.07
  -1  -6   4  339.77   12.95
  -1  -6   4  448.44   13.92
  -1  -6   4  371.52   32.51
   1   6  -4  328.30   12.44
   1   6  -4  354.27   13.16
   1   6  -4  401.83    9.51
   1   6  -4  446.56   12.80
   1   6  -4  373.08   32.19
  -1  -6   3   36.89    4.45
  -1  -6   3   37.90    4.34
  -1  -6   3   36.49    3.33
  -1  -6   3   47.70    4.85
  -1  -6   3   36.85   13.92
   1   6  -3   30.41    4.70
   1   6  -3   26.51    4.30
   1   6  -3   46.29    3.72
   1   6  -3   48.46    4.16
   1   6  -3   41.52   12.04
  -1  -6   2   -0.58    0.90
  -1  -6   2   -0.54    1.01
  -1  -6   2   -0.98    0.51
  -1  -6   2   -0.04    0.65
  -1  -6   2    0.72    1.05
  -1  -6   2   -6.29    2.13
   1   6  -2    0.04    0.94
   1   6  -2    1.16    1.12
   1   6  -2    1.45    0.65
   1   6  -2    0.83    0.87
   1   6  -2    5.14    6.29
  -1  -6   1  249.68   11.79
  -1  -6   1  250.51   11.61
  -1  -6   1  278.25    7.81
  -1  -6   1  266.06   10.45
  -1  -6   1  264.11   11.14
  -1  -6   1  298.72   31.39
   1   6  -1  229.32   10.99
   1   6  -1  258.65   11.90
   1   6  -1  273.84   10.70
   1   6  -1  316.84   10.31
   1   6  -1  294.53   30.70
  -1  -6   0  547.79   18.01
  -1  -6   0  577.84   18.26
  -1  -6   0  613.86   10.96
  -1  -6   0  596.90   16.89
  -1  -6   0  620.66   17.29
  -1  -6   0  590.46   46.33
   1   6   0  517.77   17.58
   1   6   0  586.12   18.52
   1   6   0  637.59   17.65
   1   6   0  621.35   46.76
  -1  -6  -1  135.55    9.37
  -1  -6  -1  138.69    9.37
  -1  -6  -1  144.15    8.86
  -1  -6  -1  152.65    8.82
  -1  -6  -1  129.25   26.87
   1   6   1  123.47    8.82
   1   6   1  130.84    9.29
   1   6   1  166.83    9.73
   1   6   1  121.51   26.65
  -1  -6  -2   16.20    4.01
  -1  -6  -2   19.17    4.63
  -1  -6  -2   14.39    3.94
  -1  -6  -2   16.20    3.72
  -1  -6  -2   29.58   14.97
   1   6   2   17.29    4.27
   1   6   2   14.25    3.76
   1   6   2   16.24    3.91
   1   6   2   18.59    3.54
   1   6   2   23.72   11.28
  -1  -6  -3   16.71    3.51
  -1  -6  -3   19.93    3.83
  -1  -6  -3   38.19   13.71
   1   6   3   27.38    5.71
   1   6   3   29.51    7.99
   1   6   3   29.15    4.70
   1   6   3   12.51   13.67
  -1  -6  -4   55.62    8.25
  -1  -6  -4   51.93    5.79
  -1  -6  -4   81.37   24.56
   1   6   4   36.56    6.22
   1   6   4   58.80    7.23
   1   6   4   44.99    5.24
   1   6   4   55.44    5.97
   1   6   4   37.43   17.14
  -1  -6  -5   -3.58    2.10
  -1  -6  -5    6.65    2.24
  -1  -6  -5   15.55   21.48
   1   6   5   -2.60    1.81
   1   6   5   -0.98    1.84
   1   6   5    3.25    2.53
   1   6   5    4.01   10.70
  -1  -7  12   38.37    7.20
  -1  -7  12    9.44    2.97
  -1  -7  12   27.20    6.37
  -1  -7  12  -36.49   15.23
   1   7 -12   21.08    5.03
   1   7 -12   25.42    4.67
  -1  -7  11    7.81    4.12
  -1  -7  11    6.04    2.57
  -1  -7  11    4.85    2.24
  -1  -7  11  -18.08   15.77
  -1  -7  11  -11.90   14.21
   1   7 -11    1.63    2.39
   1   7 -11    6.47    2.53
  -1  -7  10   36.89    6.18
  -1  -7  10   39.09    6.40
  -1  -7  10   32.15    5.86
  -1  -7  10   21.81   11.50
  -1  -7  10   34.21   16.42
   1   7 -10   33.20    5.82
  -1  -7   9   11.90    3.33
  -1  -7   9    5.53    2.57
  -1  -7   9    0.54    1.59
  -1  -7   9    6.18    2.39
  -1  -7   9   -8.53   10.42
  -1  -7   9   -8.25    4.12
   1   7  -9    2.86    1.95
  -1  -7   8   18.48    4.09
  -1  -7   8   12.26    4.88
  -1  -7   8   17.83    6.33
  -1  -7   8   20.36    3.98
  -1  -7   8   25.39   14.18
   1   7  -8   18.12    4.30
   1   7  -8   12.48    3.40
  -1  -7   7   86.14    7.34
  -1  -7   7   77.90    7.02
  -1  -7   7  116.78    7.96
  -1  -7   7   99.78    7.45
  -1  -7   7  121.55   25.10
  -1  -7   7   63.36   17.76
   1   7  -7   84.19    7.09
   1   7  -7   93.52    7.23
  -1  -7   6    6.08    2.53
  -1  -7   6    3.87    2.17
  -1  -7   6    6.98    2.53
  -1  -7   6   23.62   11.10
  -1  -7   6   24.52   11.14
   1   7  -6    9.33    2.71
   1   7  -6    5.71    1.88
  -1  -7   5   32.58    5.06
  -1  -7   5   33.92    5.57
  -1  -7   5   37.54    5.35
  -1  -7   5   26.54   12.26
  -1  -7   5    6.73    7.99
   1   7  -5   35.30    5.61
   1   7  -5   41.34    3.00
   1   7  -5   43.80    4.45
  -1  -7   4   73.52    6.51
  -1  -7   4   60.61    5.97
  -1  -7   4   67.05    4.30
  -1  -7   4   74.07    6.29
  -1  -7   4   78.80   19.31
   1   7  -4   58.23    5.82
   1   7  -4   57.57    4.16
   1   7  -4   68.10    5.32
   1   7  -4   52.62   15.95
  -1  -7   3   31.61    4.92
  -1  -7   3   44.59    6.84
  -1  -7   3   44.37    3.72
  -1  -7   3   42.46    3.87
  -1  -7   3   52.26    5.46
  -1  -7   3   46.04   15.26
   1   7  -3   34.10    5.42
   1   7  -3   42.24    4.12
   1   7  -3   55.48    4.70
   1   7  -3   12.77   10.52
  -1  -7   2  203.14   11.28
  -1  -7   2  208.16   11.21
  -1  -7   2  218.98    7.63
  -1  -7   2  202.96    9.26
  -1  -7   2  234.75   11.43
  -1  -7   2  229.54   28.61
   1   7  -2  117.57    8.64
   1   7  -2  206.18   11.21
   1   7  -2  231.93    9.95
   1   7  -2  265.67    9.95
   1   7  -2  261.51   29.69
  -1  -7   1  227.80   12.19
  -1  -7   1  237.53   12.51
  -1  -7   1  285.63    7.81
  -1  -7   1  279.23   11.65
  -1  -7   1  285.67   12.69
  -1  -7   1  251.31   37.79
   1   7  -1  236.23   12.37
   1   7  -1  259.16   13.02
   1   7  -1  289.39   12.04
   1   7  -1  318.21   10.96
   1   7  -1  294.24   33.92
  -1  -7   0   23.07    4.70
  -1  -7   0   44.19    7.05
  -1  -7   0   30.49    2.42
  -1  -7   0   34.61    5.50
  -1  -7   0   21.45   11.50
   1   7   0   25.71    5.03
   1   7   0   27.99    4.74
   1   7   0   34.32    4.67
   1   7   0   44.63   16.78
  -1  -7  -1   70.34   12.80
  -1  -7  -1   56.38    7.02
  -1  -7  -1   65.31    6.55
  -1  -7  -1   66.04    6.37
  -1  -7  -1   89.15   24.09
   1   7   1   67.85    7.23
   1   7   1   77.79    7.16
   1   7   1   60.58   20.43
  -1  -7  -2   12.08    3.72
  -1  -7  -2   25.50    4.74
  -1  -7  -2   31.64   19.10
   1   7   2   10.60    3.40
   1   7   2   21.01    3.91
   1   7   2   50.56   18.23
  -1  -7  -3   25.60    5.42
  -1  -7  -3   19.67    4.85
  -1  -7  -3   31.79   20.36
   1   7   3   37.58    6.65
   1   7   3   36.89    6.80
   1   7   3   24.95    4.59
  -1  -7  -4   54.50    9.11
  -1  -7  -4   52.84    6.04
  -1  -7  -4   40.83   22.64
   1   7   4   45.21    7.59
   1   7   4   58.98    9.33
   1   7   4   50.38    5.68
   1   7   4   66.69   29.26
  -1  -8  11    3.58    3.18
  -1  -8  11   -2.68    1.37
  -1  -8  11   -0.69    2.10
  -1  -8  11   15.04   17.47
   1   8 -11    1.77    2.50
   1   8 -11   -3.11    1.88
  -1  -8  10  124.84   11.97
  -1  -8  10  118.66    9.55
  -1  -8  10  151.68   10.92
  -1  -8  10  148.82   31.64
  -1  -8  10   44.48   22.42
   1   8 -10  136.96   10.13
  -1  -8   9    4.27    2.57
  -1  -8   9   -1.59    1.27
  -1  -8   9   -5.21    2.21
  -1  -8   9    4.81   13.85
  -1  -8   9    0.40   12.08
   1   8  -9    1.52    1.99
  -1  -8   8   46.98    6.58
  -1  -8   8   35.19    5.61
  -1  -8   8   57.07    6.04
  -1  -8   8   44.34   17.65
  -1  -8   8   34.21   16.89
   1   8  -8   53.27    6.15
   1   8  -8    4.70    2.39
  -1  -8   7    9.29    2.93
  -1  -8   7    2.78    1.92
  -1  -8   7   -0.98    1.77
  -1  -8   7   13.71   18.08
  -1  -8   7    4.70   13.42
   1   8  -7    8.57    3.15
   1   8  -7    9.84    3.76
  -1  -8   6   44.70    6.33
  -1  -8   6   48.86    5.68
  -1  -8   6   19.10    4.70
  -1  -8   6   47.05   15.88
   1   8  -6   53.38    5.97
   1   8  -6   59.64    5.61
  -1  -8   5   72.22    7.16
  -1  -8   5   42.39    6.69
  -1  -8   5   57.32    6.15
  -1  -8   5   46.36   15.80
   1   8  -5   62.24    6.55
   1   8  -5   72.69    4.45
   1   8  -5   72.11    5.97
  -1  -8   4    2.68    1.92
  -1  -8   4    3.65    2.46
  -1  -8   4    1.19    1.30
  -1  -8   4    4.45    2.24
  -1  -8   4  -11.07    8.79
   1   8  -4   -1.01    1.70
   1   8  -4    4.12    1.81
   1   8  -4    3.36    1.99
   1   8  -4   31.43   14.07
  -1  -8   3  289.43   14.32
  -1  -8   3  302.74   14.57
  -1  -8   3  335.21   10.27
  -1  -8   3  350.69   12.12
  -1  -8   3  324.11   14.61
  -1  -8   3  297.96   34.75
   1   8  -3  277.67   13.85
   1   8  -3  376.04   12.66
   1   8  -3  408.26   13.02
   1   8  -3  341.32   35.73
  -1  -8   2   65.93    6.87
  -1  -8   2   60.43    6.91
  -1  -8   2   76.20    4.48
  -1  -8   2   67.41    6.11
  -1  -8   2   75.22    7.12
  -1  -8   2  107.30   27.41
   1   8  -2   81.44    7.52
   1   8  -2   80.68    6.51
   1   8  -2   83.72    5.93
   1   8  -2   83.14   20.47
  -1  -8   1  139.99   10.45
  -1  -8   1  147.41   10.60
  -1  -8   1  131.50    8.75
  -1  -8   1  164.91   10.45
  -1  -8   1   94.79   25.82
   1   8  -1  139.23   10.27
   1   8  -1  173.88    9.91
   1   8  -1  179.88    8.64
   1   8  -1  162.71   31.64
  -1  -8   0    2.13    1.63
  -1  -8   0   -2.28    1.27
  -1  -8   0   24.01   14.57
   1   8   0   -2.82    1.84
   1   8   0    0.80    1.56
   1   8   0   11.07   13.49
  -1  -8  -1  153.09   11.65
  -1  -8  -1  160.57   10.56
  -1  -8  -1   89.54   27.63
   1   8   1  123.07   10.63
   1   8   1  151.86   10.74
   1   8   1  134.17    8.17
   1   8   1  141.51    8.46
   1   8   1   99.92   29.66
  -1  -8  -2   64.70    7.92
  -1  -8  -2   65.10    6.91
  -1  -8  -2   63.61   22.35
   1   8   2   42.89    7.16
   1   8   2   51.32    7.45
   1   8   2   57.29    5.79
   1   8   2   35.04   29.19
  -1  -9  10   72.29    8.25
  -1  -9  10   59.78    7.20
  -1  -9  10   56.49    8.14
  -1  -9  10  -18.66   16.64
   1   9 -10   51.10    7.56
  -1  -9   9    2.21    3.11
  -1  -9   9    0.87    1.56
  -1  -9   9   27.77   17.68
  -1  -9   9   21.92   17.43
  -1  -9   8    0.80    2.57
  -1  -9   8    0.14    1.41
  -1  -9   8  -15.33   15.48
  -1  -9   8    6.98   15.04
   1   9  -8    0.54    2.06
  -1  -9   7    1.56    2.71
  -1  -9   7   -0.72    1.56
  -1  -9   7   11.39   16.13
  -1  -9   7  -12.48    6.26
   1   9  -7    3.00    2.13
   1   9  -7    5.17    2.68
  -1  -9   6   51.82    7.41
  -1  -9   6   40.72    6.37
  -1  -9   6   53.20    6.47
  -1  -9   6   23.76   17.43
  -1  -9   6   69.40   24.34
   1   9  -6   32.91    6.40
   1   9  -6   56.34    3.33
  -1  -9   5   59.27    7.09
  -1  -9   5   50.02    7.88
  -1  -9   5   50.41    7.74
  -1  -9   5   48.42   15.59
   1   9  -5   49.22    7.96
   1   9  -5   48.10    4.01
   1   9  -5   46.11    5.10
  -1  -9   4   99.89    9.19
  -1  -9   4   87.34    8.21
  -1  -9   4   99.63    6.15
  -1  -9   4   95.22    6.26
  -1  -9   4  112.26    9.22
  -1  -9   4   75.77   23.54
   1   9  -4   93.31    8.43
   1   9  -4  113.52    6.84
   1   9  -4  118.80    7.78
   1   9  -4   80.54   23.98
  -1  -9   3  168.71   11.72
  -1  -9   3  191.96    7.49
  -1  -9   3  168.06    9.19
  -1  -9   3  183.21   11.75
  -1  -9   3  146.83   33.24
   1   9  -3  149.58   10.92
   1   9  -3  211.75   10.38
   1   9  -3  181.15    6.44
   1   9  -3  213.63    9.80
   1   9  -3  180.06   37.18
  -1  -9   2    3.91    2.75
  -1  -9   2    5.82    2.64
  -1  -9   2    5.42    2.03
  -1  -9   2    7.31   16.82
   1   9  -2    4.77    2.50
   1   9  -2   11.36    3.29
   1   9  -2    6.62    2.75
   1   9  -2    4.41   16.96
  -1  -9   1   64.95    7.78
  -1  -9   1   85.89    8.21
  -1  -9   1  105.46   26.22
   1   9  -1  104.34    9.40
   1   9  -1   72.00    8.57
   1   9  -1   97.07    6.94
   1   9  -1   17.00   19.31
  -1  -9   0   -0.87    1.81
  -1  -9   0    6.47    2.97
  -1  -9   0   23.33   21.77
   1   9   0   -1.34    2.24
   1   9   0   -3.44    1.66
   1   9   0    2.03    2.13
   1   9   0    4.34    2.53
   1   9   0   14.32   18.95
  -1 -10   7    0.43    2.57
  -1 -10   7    5.61    2.97
  -1 -10   7   -0.90   19.17
  -1 -10   7   14.03   18.08
   1  10  -7    3.11    2.53
  -1 -10   6   19.78    5.03
  -1 -10   6   30.16    6.47
  -1 -10   6   12.55   18.84
  -1 -10   6   45.68   17.36
   1  10  -6   32.66    6.55
   1  10  -6   39.13    6.08
  -1 -10   5   68.28    7.81
  -1 -10   5   69.69    5.53
  -1 -10   5   66.29    7.81
  -1 -10   5   49.44   24.19
   1  10  -5   51.17    7.41
   1  10  -5   85.28    5.79
  -1 -10   4    0.07    1.52
  -1 -10   4    2.78    1.59
  -1 -10   4    4.16    2.64
  -1 -10   4    1.88    2.75
  -1 -10   4   27.12   23.43
   1  10  -4   -3.22    1.56
   1  10  -4    6.04    2.39
   1  10  -4    9.11    2.93
   1  10  -4  -24.56   20.32
  -1 -10   3   43.40    7.41
  -1 -10   3   71.97    6.87
  -1 -10   3   63.83    7.56
  -1 -10   3   36.13   27.74
   1  10  -3   68.79    8.32
   1  10  -3   84.95    7.12
   1  10  -3   74.86    6.69
   1  10  -3   13.20   22.96
  -2  11  -3  227.19   12.98
  -2  11  -3  250.44   15.91
  -2  11  -3  250.04   13.60
  -2  11  -3  222.67   40.29
   2 -11   3  213.16   13.31
   2 -11   3  213.37   13.24
   2 -11   3  218.47    9.73
   2 -11   3  244.66   15.70
   2 -11   3  243.28   40.14
  -2  11  -4   18.52    4.67
  -2  11  -4   30.63    6.18
  -2  11  -4   17.65   19.10
   2 -11   4   20.14    4.56
   2 -11   4   31.25    4.16
   2 -11   4   36.20    7.27
   2 -11   4   46.83   22.75
  -2  11  -5   16.38    4.01
  -2  11  -5   13.31    4.77
   2 -11   5   25.10    4.92
   2 -11   5   14.14    4.01
   2 -11   5   17.07    2.78
   2 -11   5   26.47    5.82
   2 -11   5   27.96   19.28
  -2  11  -6   18.59    4.41
  -2  11  -6   15.55    4.59
  -2  11  -6   16.42    2.75
   2 -11   6   24.70    5.39
   2 -11   6   27.34    5.28
   2 -11   6   25.79    4.01
   2 -11   6   38.23    7.38
   2 -11   6   14.29   18.26
  -2  10   0    4.01    2.57
  -2  10   0   -0.51    1.70
  -2  10   0   -4.30    2.06
  -2  10   0    6.80   18.26
   2 -10   0    0.04    2.03
   2 -10   0   -3.47    2.50
   2 -10   0    6.11    2.64
   2 -10   0  -23.18   10.23
  -2  10  -1   93.92    8.68
  -2  10  -1  122.09   10.09
  -2  10  -1  123.14    7.67
  -2  10  -1   89.54   25.28
   2 -10   1  111.13    9.48
   2 -10   1  105.31    9.40
   2 -10   1  106.00    7.99
   2 -10   1  114.43   10.05
   2 -10   1   72.33   23.76
  -2  10  -2  104.77    8.61
  -2  10  -2  138.33   10.81
  -2  10  -2  120.07    7.05
  -2  10  -2   97.50   24.99
   2 -10   2  104.26    8.86
   2 -10   2   92.58    8.50
   2 -10   2  103.43    7.20
   2 -10   2  121.19   10.23
   2 -10   2  156.20   25.24
  -2  10  -3  106.79    8.35
  -2  10  -3  147.84   11.39
  -2  10  -3  132.07    6.44
  -2  10  -3   94.03   23.98
   2 -10   3  128.06    9.33
   2 -10   3  110.77    9.15
   2 -10   3  132.91    7.16
   2 -10   3  157.35   11.79
   2 -10   3  121.55   26.62
  -2  10  -4   30.02    4.95
  -2  10  -4   32.22    6.73
  -2  10  -4   37.79    2.86
  -2  10  -4   39.02   16.64
   2 -10   4   33.27    5.93
   2 -10   4   32.37    2.89
   2 -10   4   26.62    2.93
   2 -10   4   40.36    7.38
   2 -10   4   11.93   13.92
  -2  10  -5  161.91    9.37
  -2  10  -5  191.71   12.98
  -2  10  -5  170.01    6.11
   2 -10   5  179.34   10.52
   2 -10   5  171.13   10.31
   2 -10   5  175.07    7.70
   2 -10   5  168.02   11.97
   2 -10   5  153.34   28.35
  -2  10  -6   30.13    4.70
  -2  10  -6   20.87    4.81
  -2  10  -6   22.13    3.40
   2 -10   6   28.64    6.04
   2 -10   6   19.02    4.12
   2 -10   6   29.08    4.30
   2 -10   6   26.87    6.18
   2 -10   6   22.64   13.42
   2 -10   6   42.02   16.82
  -2  10  -7    9.37    2.71
  -2  10  -7   19.78    5.21
  -2  10  -7   14.47    3.11
   2 -10   7   18.05    3.98
   2 -10   7    8.35    3.04
   2 -10   7   14.25    3.76
   2 -10   7   14.25    4.41
   2 -10   7   -7.09   10.09
   2 -10   7   -1.59   14.43
  -2  10  -8   38.77    5.35
  -2  10  -8   39.28    6.62
  -2  10  -8   37.47    5.39
   2 -10   8   49.33    6.73
   2 -10   8   39.96    4.85
   2 -10   8   24.99    5.79
   2 -10   8   39.56    5.71
   2 -10   8   34.32   17.11
  -2  10  -9   -2.64    1.99
  -2  10  -9    0.04    2.10
   2 -10   9   -2.64    2.10
   2 -10   9   -0.33    1.34
   2 -10   9   -2.39    1.63
   2 -10   9   16.96   17.58
  -2   9   3   32.62    8.14
  -2   9   3   37.76    6.00
  -2   9   3   23.36   24.38
   2  -9  -3   47.70    7.88
   2  -9  -3   55.87    9.19
   2  -9  -3   85.57   28.64
  -2   9   2   17.32    4.56
  -2   9   2   21.16    4.92
  -2   9   2   15.80    4.12
  -2   9   2   26.73   21.26
   2  -9  -2   12.15    3.91
   2  -9  -2   20.58    5.35
   2  -9  -2  -20.94   31.17
  -2   9   1   13.49    3.80
  -2   9   1    5.79    3.04
  -2   9   1    7.67    2.53
  -2   9   1   23.36   14.76
   2  -9  -1    4.38    2.03
   2  -9  -1    6.84    3.69
   2  -9  -1   11.65    3.76
   2  -9  -1    5.46   12.04
  -2   9   0  147.37   10.05
  -2   9   0  149.07   10.49
  -2   9   0  142.85    8.75
  -2   9   0  108.49   25.10
   2  -9   0  118.44    9.29
   2  -9   0  140.54   10.09
   2  -9   0  134.28    8.82
   2  -9   0  152.58   11.03
   2  -9   0   96.56   24.52
  -2   9  -1   86.36    7.59
  -2   9  -1   75.62    7.52
  -2   9  -1   95.98    6.58
   2  -9   1   84.59    7.56
   2  -9   1   75.73    7.38
   2  -9   1   84.05    6.58
   2  -9   1   99.20    8.68
   2  -9   1  105.49   24.88
  -2   9  -2  101.08    7.63
  -2   9  -2  106.07    9.01
  -2   9  -2  110.01    6.37
  -2   9  -2   77.75   17.65
   2  -9   2  116.74    8.32
   2  -9   2   99.92    7.96
   2  -9   2  104.88    6.65
   2  -9   2  103.14    8.90
   2  -9   2   98.62   21.05
  -2   9  -3  150.92    8.97
  -2   9  -3  159.16   10.96
  -2   9  -3  159.31    6.87
  -2   9  -3  173.37   29.19
   2  -9   3  138.48    9.84
   2  -9   3  148.93    9.19
   2  -9   3  154.46    7.12
   2  -9   3  161.08   10.99
   2  -9   3  152.36   26.44
  -2   9  -4   60.61    5.57
  -2   9  -4   74.43    7.52
  -2   9  -4   75.37    3.91
  -2   9  -4   68.50    3.40
  -2   9  -4   47.34   14.36
   2  -9   4   54.25    5.57
   2  -9   4   66.51    4.41
   2  -9   4   71.10    3.83
   2  -9   4   69.40    7.20
   2  -9   4   81.01   17.58
  -2   9  -5  232.61   10.20
  -2   9  -5  252.11   13.78
  -2   9  -5  241.04    7.92
   2  -9   5  245.78   11.14
   2  -9   5  229.83   10.89
   2  -9   5  252.61    9.80
   2  -9   5  255.72   13.89
   2  -9   5  204.87   29.37
  -2   9  -6   34.28    3.98
  -2   9  -6   36.67    5.86
  -2   9  -6   40.76    3.94
   2  -9   6   41.92    4.70
   2  -9   6   37.14    5.50
   2  -9   6   48.32    4.81
   2  -9   6   29.15    5.32
   2  -9   6   58.04   16.56
  -2   9  -7   26.00    4.12
  -2   9  -7   40.43    7.02
  -2   9  -7   27.77    4.30
   2  -9   7   31.61    4.88
   2  -9   7   32.15    6.33
   2  -9   7   50.23    4.70
   2  -9   7   30.56   13.24
   2  -9   7   -2.35   13.71
  -2   9  -8    8.93    2.42
  -2   9  -8    4.38    2.39
  -2   9  -8    3.62    2.46
   2  -9   8    7.88    2.71
   2  -9   8    0.80    1.52
   2  -9   8    6.11    2.35
   2  -9   8    4.41    7.74
  -2   9  -9   59.67    5.75
  -2   9  -9   86.90    8.14
  -2   9  -9    0.40    1.84
   2  -9   9   71.06    6.51
   2  -9   9   63.54    5.82
   2  -9   9   77.14    7.02
   2  -9   9   68.17   19.02
   2  -9   9   98.22   20.47
  -2   9 -10   28.46    4.45
  -2   9 -10   22.35    4.70
   2  -9  10   21.95    4.95
   2  -9  10   16.85    3.62
   2  -9  10   28.46    5.53
   2  -9  10    0.83   15.30
  -2   8   4   16.93    4.70
  -2   8   4   40.36    6.29
  -2   8   4   35.01    3.15
  -2   8   4    0.22   21.66
   2  -8  -4   26.94    5.64
   2  -8  -4   37.00    7.38
   2  -8  -4    7.34   16.96
  -2   8   3    3.91    2.06
  -2   8   3    2.89    1.59
  -2   8   3   31.64   17.97
   2  -8  -3   -0.04    2.03
   2  -8  -3    5.86    2.86
   2  -8  -3    0.65    1.84
   2  -8  -3   23.58   14.90
  -2   8   2   57.18    6.58
  -2   8   2   72.62    6.73
  -2   8   2   39.93   15.41
   2  -8  -2   63.87    7.16
   2  -8  -2   63.69    7.16
   2  -8  -2   53.20    6.62
   2  -8  -2   82.17   22.82
  -2   8   1    0.98    1.59
  -2   8   1    0.61    1.08
  -2   8   1    1.41    1.30
  -2   8   1   -4.77    9.62
   2  -8  -1    1.74    1.66
   2  -8  -1   -1.41    1.37
   2  -8  -1    0.69    1.74
   2  -8  -1   23.18   13.49
  -2   8   0   49.08   10.02
  -2   8   0   58.80    6.26
  -2   8   0   68.28    5.68
  -2   8   0   54.83   18.99
   2  -8   0   55.15    5.93
   2  -8   0   65.17    6.29
   2  -8   0   65.49    5.82
   2  -8   0   75.62    7.16
   2  -8   0   59.53   18.66
  -2   8  -1   -0.07    1.63
  -2   8  -1   23.33    4.20
  -2   8  -1   19.78    4.09
  -2   8  -1   19.02    3.36
  -2   8  -1  -15.70    6.40
   2  -8   1   17.47    4.23
   2  -8   1   17.94    3.91
   2  -8   1   23.04    3.87
   2  -8   1   23.54    5.35
   2  -8   1   24.95    9.98
  -2   8  -2   -0.76    1.27
  -2   8  -2   -0.11    1.08
  -2   8  -2    0.61    1.23
  -2   8  -2    2.97    1.37
  -2   8  -2   -5.93    5.32
   2  -8   2    3.18    1.63
   2  -8   2    4.48    1.74
   2  -8   2    1.88    1.34
   2  -8   2    0.25    1.23
   2  -8   2   -5.50    5.68
  -2   8  -3  346.53   15.01
  -2   8  -3  401.68   13.02
  -2   8  -3  436.44   16.74
  -2   8  -3  441.07   10.67
  -2   8  -3  415.79   33.45
   2  -8   3  372.39   13.13
   2  -8   3  399.59   13.53
   2  -8   3  419.84    9.48
   2  -8   3  410.18   10.23
   2  -8   3  429.64   16.64
   2  -8   3  427.50   34.47
  -2   8  -4  745.86   16.93
  -2   8  -4  871.54   18.41
  -2   8  -4 1023.03   25.68
  -2   8  -4  936.71   13.42
  -2   8  -4  899.17   13.53
  -2   8  -4  959.92   48.89
   2  -8   4  779.68   18.41
   2  -8   4  941.12   16.93
   2  -8   4  900.54   11.61
   2  -8   4  932.87   24.52
   2  -8   4  857.00   46.69
  -2   8  -5   54.57    4.52
  -2   8  -5   61.66    4.77
  -2   8  -5   54.57    6.29
  -2   8  -5   61.12    4.23
   2  -8   5   61.62    5.10
   2  -8   5   49.08    4.56
   2  -8   5   66.65    4.45
   2  -8   5   53.56    6.08
   2  -8   5   58.30   14.79
  -2   8  -6   16.46    3.00
  -2   8  -6   12.62    2.71
  -2   8  -6   20.58    4.48
  -2   8  -6   21.01    3.72
   2  -8   6   16.49    3.29
   2  -8   6   10.02    2.60
   2  -8   6   18.81    3.25
   2  -8   6   12.37    7.67
  -2   8  -7   29.55    3.51
  -2   8  -7   27.30    3.87
  -2   8  -7   28.68    5.10
  -2   8  -7   24.77    3.91
   2  -8   7   27.67    4.45
   2  -8   7   19.82    3.69
   2  -8   7   24.59    4.16
   2  -8   7   12.33    8.64
  -2   8  -8    0.76    1.27
  -2   8  -8    2.28    1.34
  -2   8  -8    4.05    1.92
  -2   8  -8   -1.74    1.30
   2  -8   8    4.45    1.74
   2  -8   8   -1.48    0.83
   2  -8   8    1.74    1.19
   2  -8   8   -0.47    6.76
  -2   8  -9   17.83    3.40
  -2   8  -9   22.78    8.14
  -2   8  -9   -1.23    1.59
   2  -8   9   19.38    3.87
   2  -8   9   21.34    3.98
   2  -8   9   22.53    4.81
   2  -8   9   38.37   14.03
  -2   8 -10   30.56    4.59
  -2   8 -10   36.53    6.18
   2  -8  10   52.44    5.71
   2  -8  10   47.12    5.06
   2  -8  10   46.18    3.40
   2  -8  10   60.07    6.69
   2  -8  10   39.60   14.79
   2  -8  10   53.27   16.31
  -2   8 -11   20.87    4.20
  -2   8 -11   20.47    5.17
   2  -8  11   30.67    5.42
   2  -8  11   24.48    4.81
   2  -8  11   28.71    3.76
   2  -8  11   31.50    5.86
   2  -8  11   20.43   16.82
  -2   7   6    5.46    2.93
  -2   7   6    2.93    1.92
  -2   7   6    8.82    2.97
  -2   7   6   36.38   24.30
   2  -7  -6    4.48    2.97
   2  -7  -6    6.87    3.29
   2  -7  -6   20.00   19.28
  -2   7   5   19.85    5.14
  -2   7   5   17.47    3.51
  -2   7   5   19.20    3.69
  -2   7   5  -19.35   13.81
   2  -7  -5   19.20    4.34
   2  -7  -5    5.21    2.50
   2  -7  -5   59.89   20.04
  -2   7   4   27.02    5.57
  -2   7   4   19.17    3.91
  -2   7   4   21.66    2.57
  -2   7   4   13.09   15.70
   2  -7  -4   15.01    4.23
   2  -7  -4   14.21    3.69
   2  -7  -4   14.97    3.87
   2  -7  -4   -1.56   14.07
  -2   7   3   48.82    5.79
  -2   7   3   54.36    5.50
  -2   7   3   55.59    3.33
  -2   7   3   94.35   20.98
   2  -7  -3   53.38    6.58
   2  -7  -3   60.03    6.80
   2  -7  -3   55.51    9.15
   2  -7  -3   56.42    8.28
   2  -7  -3   68.03   35.51
  -2   7   2   35.48    5.61
  -2   7   2   45.28    5.10
  -2   7   2   45.28    5.50
  -2   7   2   27.96   14.00
   2  -7  -2   36.96    5.64
   2  -7  -2   46.87    6.87
   2  -7  -2   38.59    6.69
   2  -7  -2   31.03    5.57
   2  -7  -2   43.25   15.51
  -2   7   1    3.00    1.70
  -2   7   1    1.34    1.56
  -2   7   1    1.92    1.48
  -2   7   1    3.00    1.56
  -2   7   1    1.52    5.28
   2  -7  -1    5.68    2.06
   2  -7  -1    6.58    2.68
   2  -7  -1    5.10    1.95
   2  -7  -1    3.04    1.84
   2  -7  -1    3.18    8.06
  -2   7   0   82.67    6.15
  -2   7   0   84.08    6.33
  -2   7   0   95.37    7.16
  -2   7   0   94.28    6.18
   2  -7   0   80.90    6.40
   2  -7   0   78.48    7.74
   2  -7   0   93.88    6.26
   2  -7   0   89.33    7.31
   2  -7   0   73.23   17.18
  -2   7  -1  412.46   12.95
  -2   7  -1  441.61   13.56
  -2   7  -1  498.50   16.38
  -2   7  -1  502.98   13.13
  -2   7  -1  456.51   34.39
   2  -7   1  410.07   13.49
   2  -7   1  426.96   13.60
   2  -7   1  454.30   12.59
   2  -7   1  477.16   16.38
   2  -7   1  405.91   32.40
  -2   7  -2 2132.60   27.77
  -2   7  -2 2438.38   29.98
  -2   7  -2 2784.08   38.66
  -2   7  -2 2655.51   27.27
  -2   7  -2 2581.30   77.14
   2  -7   2 2320.34   30.41
   2  -7   2 2358.78   30.38
   2  -7   2 2547.49   19.38
   2  -7   2 2530.71   26.47
   2  -7   2 2527.92   37.18
   2  -7   2 2537.69   76.71
  -2   7  -3  434.23   11.93
  -2   7  -3  489.42   12.73
  -2   7  -3  544.86   17.25
  -2   7  -3  532.49   10.99
  -2   7  -3  534.23    8.68
  -2   7  -3  491.84   31.75
   2  -7   3  454.74   12.91
   2  -7   3  483.56   13.24
   2  -7   3  530.07   11.21
   2  -7   3  512.60   10.05
   2  -7   3  599.87   17.79
   2  -7   3  506.99   16.64
   2  -7   3  484.90   31.90
  -2   7  -4  235.79    8.46
  -2   7  -4  236.52    8.53
  -2   7  -4  280.13   12.48
  -2   7  -4  267.76    7.05
  -2   7  -4  257.31    7.56
  -2   7  -4  268.67   23.07
   2  -7   4  277.28    9.76
   2  -7   4  224.08    8.86
   2  -7   4  319.08   13.13
   2  -7   4  299.95    8.21
   2  -7   4  258.51   12.01
   2  -7   4  200.28   31.39
  -2   7  -5   19.31    2.89
  -2   7  -5   19.17    2.97
  -2   7  -5   20.18    4.16
  -2   7  -5   15.66    2.75
   2  -7   5   17.58    3.04
   2  -7   5   16.17    2.97
   2  -7   5   25.06    4.63
   2  -7   5   24.09    2.78
   2  -7   5    7.31    6.76
   2  -7   5    5.89    6.11
  -2   7  -6  400.02   10.85
  -2   7  -6  382.01   10.63
  -2   7  -6  464.46   16.24
  -2   7  -6  442.04   12.87
   2  -7   6  443.27   12.40
   2  -7   6  348.81   11.14
   2  -7   6  497.01   17.94
   2  -7   6  420.31    8.28
   2  -7   6  508.19   13.96
   2  -7   6  438.97   29.44
  -2   7  -7  181.15    7.56
  -2   7  -7  188.56    7.70
  -2   7  -7  217.28   11.17
  -2   7  -7  190.81    9.26
   2  -7   7  221.15    9.08
   2  -7   7  181.33    8.25
   2  -7   7  239.34   12.33
   2  -7   7  206.94    6.26
   2  -7   7  247.22   10.78
   2  -7   7  192.51   21.52
  -2   7  -8   -0.43    1.01
  -2   7  -8    2.42    1.23
  -2   7  -8   -1.56    0.87
  -2   7  -8   -2.10    0.98
   2  -7   8    1.01    1.30
   2  -7   8   -0.69    0.76
   2  -7   8    0.11    0.80
   2  -7   8   -0.43    1.05
   2  -7   8    5.28    7.74
  -2   7  -9   24.16    3.76
  -2   7  -9   38.08    3.91
  -2   7  -9   44.16    5.21
  -2   7  -9   42.71    7.16
  -2   7  -9    0.00    1.45
   2  -7   9   39.24    4.52
   2  -7   9   33.92    4.05
   2  -7   9   35.69    3.36
   2  -7   9   44.70    5.39
   2  -7   9   35.44   13.74
  -2   7 -10   20.00    3.51
  -2   7 -10   15.37    3.65
  -2   7 -10   26.22    6.26
   2  -7  10   17.32    3.58
   2  -7  10   16.20    3.98
   2  -7  10   19.31    3.25
   2  -7  10   27.45    5.53
   2  -7  10   -8.06    7.41
   2  -7  10    0.40    9.66
  -2   7 -11   66.94    5.89
  -2   7 -11   63.43    6.15
  -2   7 -11   70.27    8.46
   2  -7  11   67.09    6.69
   2  -7  11   54.10    5.50
   2  -7  11   53.89    5.24
   2  -7  11   70.77    7.59
   2  -7  11   64.08   25.46
   2  -7  11   80.76   21.45
  -2   6   7   -0.22    2.50
  -2   6   7    2.86    1.34
  -2   6   7   25.82   22.21
   2  -6  -7   -2.57    1.84
   2  -6  -7    1.88    1.81
  -2   6   6   99.85   11.25
  -2   6   6   96.23    5.86
  -2   6   6   96.96    6.69
  -2   6   6   84.92   24.56
   2  -6  -6   82.49    8.39
   2  -6  -6   81.01    7.96
   2  -6  -6   65.02   23.04
  -2   6   5   36.53    6.44
  -2   6   5   32.95    3.76
  -2   6   5   29.19    5.03
  -2   6   5   36.67   16.06
   2  -6  -5   26.98    5.61
   2  -6  -5   27.70    5.57
   2  -6  -5   31.35    6.26
   2  -6  -5   32.33   16.24
  -2   6   4   23.18    4.85
  -2   6   4   25.39    4.27
  -2   6   4   19.24    2.93
  -2   6   4   13.13    3.25
  -2   6   4    4.30   10.34
   2  -6  -4   20.65    4.63
   2  -6  -4   25.28    4.52
   2  -6  -4   25.50    5.24
   2  -6  -4   20.25    4.41
   2  -6  -4   37.32   13.31
  -2   6   3  107.66    7.92
  -2   6   3  121.04    7.34
  -2   6   3  124.84    4.99
  -2   6   3  108.89    8.10
  -2   6   3   85.42   20.94
   2  -6  -3  115.47    8.25
   2  -6  -3  106.61    7.92
   2  -6  -3  130.56   11.46
   2  -6  -3  126.40    8.86
   2  -6  -3   70.96   19.10
  -2   6   2   15.55    3.18
  -2   6   2   23.18    4.27
  -2   6   2   24.59    3.94
  -2   6   2   23.83    1.81
  -2   6   2   23.72    4.45
  -2   6   2   15.19    9.80
   2  -6  -2   27.88    4.70
   2  -6  -2   20.83    3.94
   2  -6  -2   25.06    4.63
   2  -6  -2   25.82    4.88
   2  -6  -2    7.41    5.86
  -2   6   1   16.38    3.33
  -2   6   1   16.64    3.36
  -2   6   1   26.00    4.23
  -2   6   1   18.81    3.62
  -2   6   1    3.62    7.27
   2  -6  -1   17.11    3.83
   2  -6  -1   17.14    3.25
   2  -6  -1   16.49    3.29
   2  -6  -1   23.40    4.63
   2  -6  -1   22.96    9.58
  -2   6   0  862.42   17.87
  -2   6   0  974.57   19.13
  -2   6   0 1063.79   21.70
  -2   6   0 1011.06   19.10
   2  -6   0  911.46   19.02
   2  -6   0  925.21   18.99
   2  -6   0  991.82   18.73
   2  -6   0  986.90   21.92
   2  -6   0  996.70   48.17
  -2   6  -1  220.50    8.39
  -2   6  -1  239.70    8.79
  -2   6  -1  267.40   10.99
  -2   6  -1  250.80    8.53
  -2   6  -1  247.95   22.13
   2  -6   1  233.91    9.04
   2  -6   1  238.54    9.01
   2  -6   1  262.70    8.64
   2  -6   1  244.66   10.67
   2  -6   1  267.62   22.57
  -2   6  -2  259.08    8.50
  -2   6  -2  294.20    9.08
  -2   6  -2  338.32   12.37
  -2   6  -2  335.97    9.01
  -2   6  -2  301.76   23.00
   2  -6   2  289.35    9.40
   2  -6   2  308.05    9.62
   2  -6   2  331.41    7.56
   2  -6   2  335.50    8.57
   2  -6   2  320.28   12.04
   2  -6   2  322.66   23.98
  -2   6  -3    6.94    1.70
  -2   6  -3    5.93    1.52
  -2   6  -3    8.64    2.35
  -2   6  -3   11.61    1.95
  -2   6  -3   10.09    1.70
  -2   6  -3    6.76    4.09
   2  -6   3    7.67    1.81
   2  -6   3    8.14    1.92
   2  -6   3    7.20    1.74
   2  -6   3    7.09    1.41
   2  -6   3   12.91    3.11
   2  -6   3   10.63    1.70
   2  -6   3    8.32    2.42
   2  -6   3    8.14    5.75
  -2   6  -4  323.64    8.57
  -2   6  -4  352.39    9.04
  -2   6  -4  405.48   13.78
  -2   6  -4  354.23    9.08
   2  -6   4  396.26   10.23
   2  -6   4  297.75    8.93
   2  -6   4  414.77   13.85
   2  -6   4  369.13    8.21
   2  -6   4  439.40   10.20
   2  -6   4  388.84   24.41
   2  -6   4  361.76   25.17
  -2   6  -5   91.79    4.59
  -2   6  -5   92.73    4.59
  -2   6  -5  108.28    7.20
  -2   6  -5   95.51    5.46
   2  -6   5  118.44    5.68
   2  -6   5   89.94    4.95
   2  -6   5  126.07    7.85
   2  -6   5  103.83    4.45
   2  -6   5  117.97    6.11
   2  -6   5  123.36   14.47
   2  -6   5  107.95   15.88
  -2   6  -6  121.26    5.50
  -2   6  -6  116.56    5.39
  -2   6  -6  129.72    7.99
  -2   6  -6  125.46    6.94
   2  -6   6  133.81    6.33
   2  -6   6  104.12    5.61
   2  -6   6  159.13    9.15
   2  -6   6  122.35    5.14
   2  -6   6  157.53    7.96
   2  -6   6  127.37   15.01
   2  -6   6  133.38   15.19
  -2   6  -7   79.45    4.81
  -2   6  -7   81.77    4.74
  -2   6  -7   89.51    6.65
  -2   6  -7   87.92    7.27
  -2   6  -7   78.12    6.00
   2  -6   7   94.86    5.68
   2  -6   7   74.72    5.06
   2  -6   7   88.13    7.27
   2  -6   7   78.66    4.52
   2  -6   7   85.89    6.47
   2  -6   7  125.82   15.66
   2  -6   7   58.23   13.31
  -2   6  -8   10.31    2.35
  -2   6  -8   10.16    2.39
  -2   6  -8    7.67    2.39
  -2   6  -8   10.38    3.40
  -2   6  -8    7.85    2.82
   2  -6   8   12.08    2.75
   2  -6   8    8.46    2.28
   2  -6   8    5.86    3.25
   2  -6   8    8.68    2.24
   2  -6   8   11.90    3.15
   2  -6   8   27.05   10.23
  -2   6  -9  103.32    6.15
  -2   6  -9  112.87    7.52
  -2   6  -9  124.95    9.69
  -2   6  -9   -1.88    1.48
   2  -6   9  107.66    7.02
   2  -6   9   97.97    6.62
   2  -6   9  104.66    6.26
   2  -6   9  138.87    9.58
   2  -6   9   83.65   18.05
  -2   6 -10   29.91    3.72
  -2   6 -10   38.80    4.74
  -2   6 -10   51.72    8.10
   2  -6  10   22.64    4.34
   2  -6  10   31.50    5.17
   2  -6  10   36.45    5.10
   2  -6  10   37.97    6.58
   2  -6  10   31.43   13.74
  -2   6 -11    4.34    1.99
  -2   6 -11    1.05    1.84
  -2   6 -11    1.05    1.84
  -2   6 -11  -23.15    8.03
   2  -6  11   -0.54    2.03
   2  -6  11   -0.33    1.52
   2  -6  11    4.20    2.35
   2  -6  11    2.68    1.66
   2  -6  11   25.71   14.29
  -2   6 -12   91.42    7.49
  -2   6 -12  120.32   11.21
   2  -6  12   72.00    7.88
   2  -6  12   71.61    6.94
   2  -6  12   81.12    7.63
   2  -6  12  111.57   10.34
  -2   5   8  168.31   12.33
  -2   5   8  144.23    7.45
  -2   5   8  189.29   10.70
  -2   5   8  103.47   32.33
   2  -5  -8  173.01   13.24
   2  -5  -8  138.76   11.17
   2  -5  -8  198.22   37.25
  -2   5   7   18.73    4.63
  -2   5   7   12.55    2.46
  -2   5   7   15.30    3.54
  -2   5   7   12.08   17.07
   2  -5  -7   10.09    3.07
   2  -5  -7   12.12    3.65
   2  -5  -7   -1.27   10.27
  -2   5   6    2.31    1.88
  -2   5   6    4.34    1.52
  -2   5   6    3.36    1.37
  -2   5   6    2.24    1.41
  -2   5   6    8.39   11.43
   2  -5  -6    5.39    2.71
   2  -5  -6    3.58    2.68
   2  -5  -6  -22.60    9.33
  -2   5   5   -1.23    1.27
  -2   5   5   -1.30    0.58
  -2   5   5    2.71    0.80
  -2   5   5   -2.42    0.87
  -2   5   5   -0.51    1.66
  -2   5   5   10.27    6.33
   2  -5  -5    0.14    1.23
   2  -5  -5    0.58    1.84
   2  -5  -5   -3.80    1.45
   2  -5  -5   -0.54    0.80
  -2   5   4  292.28   12.87
  -2   5   4  313.69   10.20
  -2   5   4  324.98    9.44
  -2   5   4  273.91   12.51
  -2   5   4  301.90   32.01
   2  -5  -4  302.27   13.24
   2  -5  -4  279.41   12.44
   2  -5  -4  295.47   13.13
   2  -5  -4  283.06   12.80
   2  -5  -4  298.25   33.05
  -2   5   3 1117.96   23.07
  -2   5   3 1265.52   26.91
  -2   5   3 1421.75   22.42
  -2   5   3 1457.88   16.96
  -2   5   3 1244.40   25.13
  -2   5   3 1255.93   60.50
   2  -5  -3 1302.91   25.46
   2  -5  -3 1185.56   24.05
   2  -5  -3 1287.00   25.17
   2  -5  -3 1313.51   26.18
   2  -5  -3 1389.74   64.16
  -2   5   2  191.20    8.79
  -2   5   2  203.75    9.26
  -2   5   2  215.29   10.70
  -2   5   2  247.19    5.46
  -2   5   2  214.49   22.96
   2  -5  -2  208.89    9.51
   2  -5  -2  210.08    9.40
   2  -5  -2  222.49    9.73
   2  -5  -2  200.71    9.76
   2  -5  -2  183.46   20.47
  -2   5   1   90.74    5.64
  -2   5   1   97.36    5.89
  -2   5   1   99.92    6.47
  -2   5   1  120.10   19.82
   2  -5  -1  104.30    6.22
   2  -5  -1   93.38    5.82
   2  -5  -1  108.82    6.18
   2  -5  -1   94.50    6.40
   2  -5  -1  100.00   17.43
  -2   5   0   23.04    2.64
  -2   5   0   25.82    2.82
  -2   5   0   30.63    6.80
  -2   5   0   28.10    2.97
  -2   5   0   26.73    8.17
   2  -5   0   28.64    3.22
   2  -5   0   32.15    3.18
   2  -5   0   28.53    3.00
   2  -5   0   28.03    4.23
   2  -5   0   24.70    8.32
  -2   5  -1 1138.83   16.49
  -2   5  -1 1267.25   17.40
  -2   5  -1 1421.46   24.23
  -2   5  -1 1387.43   18.44
  -2   5  -1 1298.64   44.08
   2  -5   1 1247.51   17.87
   2  -5   1 1253.83   17.79
   2  -5   1 1377.66   12.66
   2  -5   1 1480.62   18.34
   2  -5   1 1382.55   45.64
  -2   5  -2 1004.04   14.00
  -2   5  -2 1045.49   14.36
  -2   5  -2 1248.23   21.59
  -2   5  -2 1196.01   15.80
  -2   5  -2 1169.10   10.67
  -2   5  -2 1117.57   37.43
   2  -5   2 1017.79   14.90
   2  -5   2 1079.05   15.26
   2  -5   2 1224.83   15.04
   2  -5   2 1229.13   14.39
   2  -5   2 1336.58   11.46
   2  -5   2 1152.61   20.72
   2  -5   2 1126.53   37.61
  -2   5  -3   32.15    2.39
  -2   5  -3   37.43    3.87
  -2   5  -3   35.04    2.60
  -2   5  -3   33.56    2.46
  -2   5  -3   44.52    8.06
   2  -5   3   29.04    2.46
   2  -5   3   29.94    2.78
   2  -5   3   36.42    2.06
   2  -5   3   47.12    4.23
   2  -5   3   32.37    2.50
   2  -5   3   38.23    2.68
   2  -5   3   34.50    7.99
  -2   5  -4  950.30   12.55
  -2   5  -4 1140.49   21.01
  -2   5  -4 1050.44   16.06
   2  -5   4 1101.44   14.76
   2  -5   4  882.96   13.27
   2  -5   4 1203.78   21.95
   2  -5   4 1079.99   14.39
   2  -5   4 1176.73   17.14
   2  -5   4 1203.17   36.82
   2  -5   4  915.37   32.08
  -2   5  -5   67.77    3.58
  -2   5  -5   77.14    5.64
  -2   5  -5   80.43    6.04
   2  -5   5   78.33    4.20
   2  -5   5   56.34    3.62
   2  -5   5   73.02    5.68
   2  -5   5   68.71    3.87
   2  -5   5   82.28    5.21
   2  -5   5   80.39   12.15
   2  -5   5   60.54   10.09
  -2   5  -6    6.55    1.63
  -2   5  -6    1.74    0.58
  -2   5  -6    5.06    1.77
  -2   5  -6    3.58    1.63
  -2   5  -6    2.10    1.23
   2  -5   6    3.51    1.48
   2  -5   6    3.94    1.41
   2  -5   6    2.17    1.52
   2  -5   6    2.31    0.98
   2  -5   6    2.60    1.45
   2  -5   6   -0.07    4.38
   2  -5   6    3.33    4.20
  -2   5  -7  105.60    5.35
  -2   5  -7   91.03    4.99
  -2   5  -7  109.65    6.87
  -2   5  -7  121.19    8.28
  -2   5  -7  101.66    6.91
   2  -5   7   90.88    5.42
   2  -5   7   88.46    5.35
   2  -5   7  105.31    3.72
   2  -5   7  120.50    8.10
   2  -5   7  101.26    5.64
   2  -5   7  124.12    7.81
   2  -5   7  109.25   16.53
  -2   5  -8    2.13    1.34
  -2   5  -8    5.46    1.84
  -2   5  -8    1.56    1.19
  -2   5  -8    4.85    1.27
  -2   5  -8    1.59    1.48
  -2   5  -8    4.67    2.42
  -2   5  -8   16.42    6.87
   2  -5   8    2.06    1.56
   2  -5   8    2.06    1.37
   2  -5   8    5.17    1.34
   2  -5   8    4.38    1.63
   2  -5   8    4.67    1.95
  -2   5  -9  128.89    7.12
  -2   5  -9  121.98    6.91
  -2   5  -9  135.62    7.67
  -2   5  -9  121.12    5.53
  -2   5  -9  148.28   11.36
  -2   5  -9  131.64   21.08
   2  -5   9  126.36    7.52
   2  -5   9  107.45    7.12
   2  -5   9  133.09    9.55
   2  -5   9  113.38    8.57
  -2   5 -10   -0.14    1.45
  -2   5 -10    0.61    1.30
  -2   5 -10    4.12    1.48
  -2   5 -10    1.84    1.84
  -2   5 -10   10.13    9.58
   2  -5  10   -1.34    1.52
   2  -5  10    1.74    1.05
   2  -5  10   -1.70    1.66
   2  -5  10    2.68    8.57
  -2   5 -11   70.45    6.51
  -2   5 -11   69.15    5.35
  -2   5 -11   89.80    9.15
  -2   5 -11   62.49   20.22
   2  -5  11   65.35    6.80
   2  -5  11   62.06    6.15
   2  -5  11   73.41    8.03
   2  -5  11   67.95   17.65
  -2   5 -12   43.43    6.65
  -2   5 -12   47.05    5.42
  -2   5 -12   45.03    8.25
   2  -5  12   37.32    6.40
   2  -5  12   34.97    5.64
   2  -5  12   30.16    6.55
  -2   4   9   47.30    8.35
  -2   4   9   38.59    5.46
  -2   4   9   67.92    6.76
  -2   4   9   -3.72   16.13
   2  -4  -9   41.66    7.16
   2  -4  -9   41.30    7.81
   2  -4  -9   87.48   27.30
  -2   4   8    3.29    1.74
  -2   4   8    1.01    1.95
  -2   4   8  -20.00   14.00
   2  -4  -8    0.00    2.03
   2  -4  -8    2.35    2.17
  -2   4   7   24.34    5.10
  -2   4   7   28.32    3.98
  -2   4   7   40.50    4.48
  -2   4   7   -6.00   13.49
   2  -4  -7   41.73    6.98
   2  -4  -7   32.33    7.92
   2  -4  -7   44.05    8.72
   2  -4  -7   24.09   13.74
  -2   4   6    0.98    2.03
  -2   4   6   -0.69    1.37
  -2   4   6    2.06    0.98
  -2   4   6    0.04    1.23
  -2   4   6    7.16    2.86
  -2   4   6    7.23    7.12
   2  -4  -6    3.40    2.03
   2  -4  -6    2.06    2.03
   2  -4  -6   -1.12    0.87
   2  -4  -6   10.63    6.69
  -2   4   5  351.49   13.96
  -2   4   5  374.49   14.61
  -2   4   5  414.23    9.80
  -2   4   5  414.85   11.97
  -2   4   5  355.46   14.00
  -2   4   5  349.35   33.71
   2  -4  -5  388.92   14.97
   2  -4  -5  354.27   14.07
   2  -4  -5  381.36   14.76
   2  -4  -5  380.60   14.72
   2  -4  -5  366.57   35.59
  -2   4   4    3.44    1.84
  -2   4   4    5.86    2.28
  -2   4   4    4.05    1.48
  -2   4   4   10.05    2.03
  -2   4   4    3.62    1.95
  -2   4   4   19.17   15.48
   2  -4  -4    9.40    2.82
   2  -4  -4    3.36    1.92
   2  -4  -4    6.26    2.21
   2  -4  -4    5.86    2.28
   2  -4  -4   24.23   11.61
  -2   4   3   33.42    3.76
  -2   4   3   45.97    4.38
  -2   4   3   47.01    3.62
  -2   4   3   42.24    2.93
  -2   4   3   35.44    3.98
  -2   4   3   36.96   10.49
   2  -4  -3   38.12    4.05
   2  -4  -3   37.03    4.20
   2  -4  -3   40.29    4.27
   2  -4  -3   34.18    4.01
   2  -4  -3   44.63   13.45
  -2   4   2   96.63    5.61
  -2   4   2  107.45    6.04
  -2   4   2  110.19    5.53
  -2   4   2  110.92    3.65
  -2   4   2   78.69   15.04
   2  -4  -2  106.00    6.15
   2  -4  -2   86.83    5.46
   2  -4  -2  102.56    6.04
   2  -4  -2  100.32    6.29
   2  -4  -2   85.28   15.41
  -2   4   1  961.59   19.67
  -2   4   1 1041.04   16.78
  -2   4   1 1257.56   18.88
  -2   4   1 1123.28   18.23
  -2   4   1 1085.02   19.10
   2  -4  -1 1105.88   17.61
   2  -4  -1 1061.69   17.07
   2  -4  -1 1204.11   18.70
   2  -4  -1 1178.00   20.14
   2  -4  -1 1174.78   44.48
  -2   4   0 1924.01   19.96
  -2   4   0 2107.29   21.01
  -2   4   0 2523.94   27.02
  -2   4   0 2222.44   23.36
  -2   4   0 2216.40   26.00
  -2   4   0 2143.63   52.84
   2  -4   0 2109.75   21.59
   2  -4   0 2136.40   21.55
   2  -4   0 2304.86   13.53
   2  -4   0 2458.12   23.90
   2  -4   0 2278.78   26.65
   2  -4   0 2278.46   54.39
  -2   4  -1   10.63    1.66
  -2   4  -1    7.92    1.34
  -2   4  -1    8.39    2.03
  -2   4  -1    7.31    1.52
  -2   4  -1   12.22    4.20
   2  -4   1    8.14    1.56
   2  -4   1    8.72    1.52
   2  -4   1    7.63    1.37
   2  -4   1    9.98    1.88
   2  -4   1    7.81    1.95
   2  -4   1    4.81    3.65
  -2   4  -2 1597.51   13.56
  -2   4  -2 2086.28   25.17
  -2   4  -2 1919.12   18.99
  -2   4  -2 1764.45   36.92
   2  -4   2 1642.53   14.94
   2  -4   2 1778.88   15.51
   2  -4   2 1899.02   19.13
   2  -4   2 2205.51   25.50
   2  -4   2 1903.28   18.77
   2  -4   2 2043.89   15.80
   2  -4   2 1846.36   23.04
   2  -4   2 1774.50   37.11
  -2   4  -3 1488.33   12.30
  -2   4  -3 1431.55   12.12
  -2   4  -3 1686.91   22.93
  -2   4  -3 1574.83   17.36
   2  -4   3 1637.29   15.12
   2  -4   3 1340.16   13.16
   2  -4   3 1588.54   20.04
   2  -4   3 1674.32   13.16
   2  -4   3 1791.32   23.80
   2  -4   3 1598.12   17.32
   2  -4   3 1727.67   18.30
   2  -4   3 1805.93   36.02
   2  -4   3 1262.91   48.53
  -2   4  -4  227.04    5.28
  -2   4  -4  225.99    5.35
  -2   4  -4  256.95    9.08
  -2   4  -4  240.10    7.96
   2  -4   4  240.32    6.37
   2  -4   4  215.00    5.75
   2  -4   4  236.26    4.92
   2  -4   4  277.93    9.91
   2  -4   4  247.62    7.23
   2  -4   4  262.85    8.39
   2  -4   4  280.71   15.59
   2  -4   4  229.61   14.10
  -2   4  -5   11.36    1.70
  -2   4  -5   14.76    2.60
  -2   4  -5   11.25    2.46
  -2   4  -5    8.97    2.13
  -2   4  -5   13.20    4.63
   2  -4   5   12.55    2.06
   2  -4   5    5.93    1.37
   2  -4   5    9.98    1.48
   2  -4   5    6.58    1.92
   2  -4   5   16.02    2.71
   2  -4   5   14.00    2.71
   2  -4   5   19.02    5.28
  -2   4  -6   68.17    3.91
  -2   4  -6   56.02    3.54
  -2   4  -6   70.63    4.92
  -2   4  -6   63.14    3.36
  -2   4  -6   66.11    5.61
  -2   4  -6   49.26    4.59
  -2   4  -6   82.56   12.91
   2  -4   6   58.15    3.98
   2  -4   6   50.67    3.65
   2  -4   6   66.40    3.51
   2  -4   6   68.06    5.61
   2  -4   6   69.11    5.46
   2  -4   6   55.19   11.21
  -2   4  -7   36.16    3.33
  -2   4  -7   42.17    3.54
  -2   4  -7   38.23    3.80
  -2   4  -7   40.76    3.15
  -2   4  -7   45.78    5.14
  -2   4  -7   39.09    4.38
  -2   4  -7   37.07   10.31
   2  -4   7   37.47    3.69
   2  -4   7   41.73    3.69
   2  -4   7   38.26    3.07
   2  -4   7   49.44    5.17
   2  -4   7   44.30    4.85
   2  -4   7   38.08    4.23
   2  -4   7   39.60   11.21
  -2   4  -8   82.46    5.42
  -2   4  -8   68.60    4.95
  -2   4  -8   58.37    7.09
  -2   4  -8   75.33    4.63
  -2   4  -8   77.54    7.02
  -2   4  -8   51.25    9.29
  -2   4  -8   93.56   17.29
   2  -4   8   70.52    5.35
   2  -4   8   58.77    4.95
   2  -4   8   75.62    4.74
   2  -4   8   76.27    6.76
   2  -4   8   65.49    5.97
  -2   4  -9    1.63    1.41
  -2   4  -9    0.25    1.19
  -2   4  -9   -0.65    1.05
  -2   4  -9    0.33    1.45
  -2   4  -9   11.90    8.46
   2  -4   9    1.12    1.52
   2  -4   9    1.70    1.56
   2  -4   9    3.54    1.52
   2  -4   9    1.37    1.70
   2  -4   9    3.94    1.99
  -2   4 -10    0.69    1.41
  -2   4 -10    2.86    1.34
  -2   4 -10    0.51    1.59
  -2   4 -10    6.98   12.33
   2  -4  10    2.75    1.70
   2  -4  10    0.36    1.45
   2  -4  10    0.40    1.16
   2  -4  10    2.75    1.48
   2  -4  10   23.69   11.97
  -2   4 -11   15.15    3.87
  -2   4 -11   19.49    3.58
  -2   4 -11   17.21    4.81
  -2   4 -11   21.88   15.44
   2  -4  11   19.89    4.67
   2  -4  11   13.45    3.94
   2  -4  11   27.02    4.52
   2  -4  11   13.89    3.80
   2  -4  11   43.40   16.49
  -2   4 -12   -0.36    2.78
  -2   4 -12    1.70    2.53
  -2   4 -12   -0.51    2.17
   2  -4  12    2.31    3.11
   2  -4  12    0.00    1.23
   2  -4  12   -1.37    2.03
  -2   3  10   47.59    8.64
  -2   3  10   70.56    7.59
   2  -3 -10   73.49    8.32
   2  -3 -10   62.38    9.62
   2  -3 -10   39.06    6.91
   2  -3 -10   67.95   23.18
  -2   3   9   -1.56    1.41
  -2   3   9    3.58    1.95
  -2   3   9    2.28   13.81
   2  -3  -9    0.83    1.74
   2  -3  -9    2.28    1.77
   2  -3  -9   -1.66    1.63
   2  -3  -9  -20.76   12.55
  -2   3   8   20.07    4.95
  -2   3   8   29.15    5.24
  -2   3   8   30.13   14.68
   2  -3  -8   23.54    5.35
   2  -3  -8   18.30    3.76
   2  -3  -8   12.04    4.05
   2  -3  -8   43.87   18.05
  -2   3   7    5.50    2.17
  -2   3   7    3.33    1.99
  -2   3   7   -0.43    1.16
  -2   3   7    4.01    1.84
  -2   3   7   11.93   11.07
   2  -3  -7    4.09    2.13
   2  -3  -7    4.67    1.88
   2  -3  -7    0.65    1.84
   2  -3  -7    2.50    1.66
  -2   3   6  154.86   11.54
  -2   3   6  160.25   11.83
  -2   3   6  126.14    7.27
  -2   3   6  113.38    8.03
  -2   3   6   86.90   20.04
   2  -3  -6  185.20   12.62
   2  -3  -6  108.21    7.88
   2  -3  -6  118.11    8.10
   2  -3  -6  116.81    6.94
   2  -3  -6  113.85    8.10
   2  -3  -6  119.63   24.05
  -2   3   5  381.65   13.53
  -2   3   5  407.51   14.10
  -2   3   5  438.21    8.43
  -2   3   5  480.38   12.66
  -2   3   5  394.20   13.78
  -2   3   5  394.02   33.49
   2  -3  -5  405.59   14.21
   2  -3  -5  365.19   13.34
   2  -3  -5  420.27   14.29
   2  -3  -5  429.53   11.90
   2  -3  -5  388.23   13.85
   2  -3  -5  481.79   37.36
  -2   3   4   65.21    5.17
  -2   3   4   69.29    5.42
  -2   3   4   73.38    3.76
  -2   3   4   81.41    4.63
  -2   3   4   71.10    5.53
  -2   3   4   70.96   15.59
   2  -3  -4   67.63    5.39
   2  -3  -4   65.60    5.24
   2  -3  -4   71.32    5.53
   2  -3  -4   67.48    4.20
   2  -3  -4   77.03    5.75
   2  -3  -4   64.45   15.08
  -2   3   3  161.11    7.31
  -2   3   3  184.26    7.96
  -2   3   3  197.82    6.33
  -2   3   3  207.62    6.26
  -2   3   3  175.80    7.92
  -2   3   3  214.67   20.51
   2  -3  -3  191.42    8.14
   2  -3  -3  180.03    7.81
   2  -3  -3  189.87    8.17
   2  -3  -3  188.74    5.97
   2  -3  -3  174.57    7.99
   2  -3  -3  212.83   20.83
  -2   3   2   36.71    3.15
  -2   3   2   37.32    3.22
  -2   3   2   43.54    3.07
  -2   3   2   41.73    2.28
  -2   3   2   36.31    3.36
  -2   3   2   23.65    6.94
   2  -3  -2   38.23    3.29
   2  -3  -2   33.92    3.07
   2  -3  -2   47.27    3.76
   2  -3  -2   36.67    2.13
   2  -3  -2   35.48    3.40
   2  -3  -2   44.63    9.37
  -2   3   1  410.98    9.01
  -2   3   1  431.23    9.29
  -2   3   1  522.36   10.74
  -2   3   1  466.78    6.47
  -2   3   1  456.26   10.60
  -2   3   1  521.35    5.50
  -2   3   1  449.85   10.81
   2  -3  -1  458.68    9.76
   2  -3  -1  414.52    9.22
   2  -3  -1  518.93   11.07
   2  -3  -1  482.40    5.32
   2  -3  -1  460.49   24.12
  -2   3   0  967.63   11.39
  -2   3   0 1059.99   12.01
  -2   3   0 1244.87   16.85
  -2   3   0 1149.97   11.17
  -2   3   0 1094.71   15.01
  -2   3   0 1053.12   15.48
  -2   3   0 1119.45   30.99
   2  -3   0 1052.47   12.33
   2  -3   0 1071.24   12.37
   2  -3   0 1120.03   15.88
   2  -3   0 1117.64   10.96
   2  -3   0 1111.49   16.06
   2  -3   0 1178.87   31.72
  -2   3  -1 1846.43   11.72
  -2   3  -1 1727.45   12.37
  -2   3  -1 2435.88   23.98
  -2   3  -1 2254.59   18.44
  -2   3  -1 2218.79   20.11
  -2   3  -1 2101.83   32.84
   2  -3   1 1998.47   13.38
   2  -3   1 2021.54   13.42
   2  -3   1 2290.64   23.07
   2  -3   1 2136.73   17.87
   2  -3   1 2512.55   23.40
   2  -3   1 2132.10   19.60
   2  -3   1 2223.99   13.71
   2  -3   1 2127.79   21.30
   2  -3   1 2230.14   33.78
  -2   3  -2  195.25    6.94
  -2   3  -2  174.50    5.64
   2  -3   2  189.54    3.44
   2  -3   2  151.96    3.07
   2  -3   2  187.84    6.76
   2  -3   2  169.11    5.86
   2  -3   2  203.97    7.02
   2  -3   2  170.88    5.57
   2  -3   2  174.53    5.14
   2  -3   2  208.82    8.17
   2  -3   2  147.23    9.01
  -2   3  -3  439.91    5.21
  -2   3  -3  440.92    5.21
  -2   3  -3  503.67   11.36
  -2   3  -3  530.14   12.19
  -2   3  -3  473.36   10.05
   2  -3   3  491.12    6.62
   2  -3   3  417.56    6.15
   2  -3   3  520.01   11.43
   2  -3   3  500.05   11.32
   2  -3   3  466.06    7.78
   2  -3   3  538.28   12.19
   2  -3   3  487.43    9.95
   2  -3   3  489.17   10.31
   2  -3   3  508.22   15.73
   2  -3   3  379.77   22.49
  -2   3  -4 1154.45   11.79
  -2   3  -4 1322.11   18.73
  -2   3  -4 1258.32   14.14
  -2   3  -4 1424.79   21.70
  -2   3  -4 1232.68   18.62
  -2   3  -4 1403.48   33.85
   2  -3   4 1233.98   13.38
   2  -3   4 1089.94   12.62
   2  -3   4 1231.77   17.94
   2  -3   4 1217.06   19.64
   2  -3   4 1191.99   13.81
   2  -3   4 1375.10   21.12
   2  -3   4 1221.68   17.18
   2  -3   4 1260.06   19.02
   2  -3   4 1214.92   31.68
  -2   3  -5   56.20    3.22
  -2   3  -5   43.65    2.89
  -2   3  -5   55.48    3.98
  -2   3  -5   53.27    3.36
  -2   3  -5   70.67    5.28
  -2   3  -5   52.22    4.38
  -2   3  -5   68.35   10.78
   2  -3   5   54.54    3.44
   2  -3   5   48.35    3.29
   2  -3   5   55.59    3.91
   2  -3   5   55.26    4.63
   2  -3   5   51.57    3.29
   2  -3   5   65.49    5.06
   2  -3   5   52.55    4.48
   2  -3   5   53.85    9.62
  -2   3  -6  511.23   11.32
  -2   3  -6  435.42   10.38
  -2   3  -6  518.53   12.12
  -2   3  -6  475.24   11.03
  -2   3  -6  560.23   16.06
  -2   3  -6  477.12   14.32
  -2   3  -6  606.45   31.21
   2  -3   6  466.78   11.36
   2  -3   6  449.42   11.25
   2  -3   6  470.43   14.57
   2  -3   6  471.08   11.07
   2  -3   6  525.58   15.37
   2  -3   6  523.63   15.19
   2  -3   6  431.95   12.48
   2  -3   6  462.11   27.41
  -2   3  -7  106.18    5.82
  -2   3  -7   88.97    5.35
  -2   3  -7   94.50    7.02
  -2   3  -7  129.00   16.13
   2  -3   7   93.27    5.79
   2  -3   7   95.87    5.89
   2  -3   7  101.88    7.34
   2  -3   7  114.14    6.11
   2  -3   7   94.28    7.12
   2  -3   7  106.94    7.49
   2  -3   7   85.42    6.04
   2  -3   7   72.33   23.62
  -2   3  -8  388.66   12.40
  -2   3  -8  316.41   11.03
  -2   3  -8  351.70   11.54
  -2   3  -8  349.97   14.50
  -2   3  -8  365.66   30.34
   2  -3   8  331.74   11.83
   2  -3   8  335.83   12.12
   2  -3   8  376.73   12.12
   2  -3   8  386.71   15.41
   2  -3   8  351.34   13.02
   2  -3   8  344.43   29.87
  -2   3  -9   -2.93    1.12
  -2   3  -9    1.16    1.34
  -2   3  -9   -8.75    6.18
   2  -3   9    0.36    1.66
   2  -3   9    0.90    0.98
   2  -3   9    1.56    1.37
   2  -3   9    2.17    1.66
   2  -3   9   -0.22    1.27
  -2   3 -10  154.35    9.26
  -2   3 -10  132.94    8.53
  -2   3 -10  168.96   11.79
  -2   3 -10  149.18   27.34
   2  -3  10  120.03    8.68
   2  -3  10  153.85    9.69
   2  -3  10  148.35    8.90
   2  -3  10  159.60   11.50
   2  -3  10  145.74    9.48
   2  -3  10  138.08   25.71
  -2   3 -11   28.64    4.81
  -2   3 -11    2.21    2.06
  -2   3 -11   43.90    8.68
  -2   3 -11    2.53   15.91
   2  -3  11   21.01    4.92
   2  -3  11   25.46    5.06
   2  -3  11   21.95    4.56
   2  -3  11   20.87    5.14
   2  -3  11   43.43   18.77
  -2   2  10    7.05    3.33
  -2   2  10   12.77    3.47
  -2   2  10   15.19   17.32
   2  -2 -10   14.61    3.72
   2  -2 -10    8.06    3.44
   2  -2 -10   10.34    3.11
   2  -2 -10    3.65   13.53
  -2   2   9    6.55    2.35
  -2   2   9   -2.93    1.30
  -2   2   9   -3.33   11.93
   2  -2  -9    1.48    1.77
   2  -2  -9   -0.87    1.05
   2  -2  -9   -0.43    1.70
   2  -2  -9   -1.56    1.27
   2  -2  -9   -0.65   12.84
  -2   2   8    0.65    1.88
  -2   2   8   -2.06    1.19
  -2   2   8   -0.07    1.45
  -2   2   8    3.11    2.17
  -2   2   8   12.12   10.70
   2  -2  -8    2.42    1.84
   2  -2  -8    2.78    2.10
   2  -2  -8   -2.60    1.88
   2  -2  -8    4.41    2.13
   2  -2  -8    5.71    2.13
   2  -2  -8    2.10    1.74
  -2   2   7  393.33   15.26
  -2   2   7  394.12   15.33
  -2   2   7  475.03   15.23
  -2   2   7  399.01   15.77
  -2   2   7  390.58   36.16
   2  -2  -7  496.76   17.29
   2  -2  -7  416.22   15.62
   2  -2  -7  395.61   15.01
   2  -2  -7  422.33   14.14
   2  -2  -7  414.34   15.62
   2  -2  -7  524.97   43.04
  -2   2   6  424.94   14.57
  -2   2   6  461.32   15.41
  -2   2   6  515.20   14.43
  -2   2   6  399.59   14.07
  -2   2   6  491.37   38.66
   2  -2  -6  791.25   25.10
   2  -2  -6  441.65   14.86
   2  -2  -6  455.39   14.94
   2  -2  -6  458.03   13.45
   2  -2  -6  426.31   14.68
   2  -2  -6  441.03   36.42
  -2   2   5    0.43    0.80
  -2   2   5    1.37    0.94
  -2   2   5    1.34    0.87
  -2   2   5    2.13    1.27
  -2   2   5    8.82    5.39
   2  -2  -5    2.46    1.59
   2  -2  -5    1.41    1.12
   2  -2  -5    0.76    1.01
   2  -2  -5    1.48    0.87
   2  -2  -5    2.68    4.05
  -2   2   4   -0.33    0.58
  -2   2   4    1.70    1.30
  -2   2   4    0.07    0.72
  -2   2   4   -0.36    0.72
  -2   2   4    1.19    3.15
   2  -2  -4   -0.33    0.54
   2  -2  -4   -0.33    0.43
   2  -2  -4    1.59    0.98
   2  -2  -4    1.48    0.87
   2  -2  -4    0.72    0.69
   2  -2  -4    3.94    3.18
  -2   2   3   40.61    3.44
  -2   2   3   39.71    3.40
  -2   2   3   44.84    2.68
  -2   2   3   53.89    3.25
  -2   2   3   51.39   11.32
   2  -2  -3   42.10    3.58
   2  -2  -3   38.15    3.36
   2  -2  -3   47.27    2.68
   2  -2  -3   47.88    3.83
   2  -2  -3   41.95    2.86
   2  -2  -3   37.21    3.40
   2  -2  -3   43.76    9.80
  -2   2   2  440.09    9.58
  -2   2   2  422.30    9.44
  -2   2   2  500.09    9.01
  -2   2   2  432.64   10.31
  -2   2   2  514.77    8.25
  -2   2   2  432.13   10.16
  -2   2   2  462.58   24.12
   2  -2  -2  456.54    9.91
   2  -2  -2  443.13    9.69
   2  -2  -2  461.93    8.61
   2  -2  -2  475.39    7.92
   2  -2  -2  436.55   10.31
   2  -2  -2  465.22   24.41
  -2   2   1  518.42    8.61
  -2   2   1  555.42    8.93
  -2   2   1  642.79   10.52
  -2   2   1  547.86    8.10
  -2   2   1  572.60   10.78
  -2   2   1  564.64   10.38
  -2   2   1  577.48   22.46
   2  -2  -1  587.53    9.33
   2  -2  -1  537.92    8.90
   2  -2  -1  589.41   10.02
   2  -2  -1  668.29    7.74
   2  -2  -1  557.59   10.38
   2  -2  -1  679.43   24.63
  -2   2   0  349.75    5.14
  -2   2   0  432.71    8.90
  -2   2   0  387.29    7.12
  -2   2   0  383.17    8.21
  -2   2   0  352.75    7.38
  -2   2   0  425.88   14.39
   2  -2   0  400.63    5.79
   2  -2   0  330.76    5.71
   2  -2   0  426.35    8.79
   2  -2   0  374.45    6.98
   2  -2   0  365.19    7.99
   2  -2   0  389.06    7.81
   2  -2   0  443.02   14.72
  -2   2  -1    8.50    1.66
  -2   2  -1    6.15    1.30
  -2   2  -1    6.98    1.30
  -2   2  -1    7.02    1.45
   2  -2   1    8.93    1.77
   2  -2   1    6.40    1.34
   2  -2   1    6.37    1.19
   2  -2   1    7.63    1.48
   2  -2   1    8.57    1.48
  -2   2  -2    7.81    1.77
  -2   2  -2    5.10    1.19
  -2   2  -2    5.46    1.34
  -2   2  -2    5.68    1.41
   2  -2   2    7.41    0.65
   2  -2   2    6.51    0.61
   2  -2   2    9.04    1.81
   2  -2   2    3.76    1.05
   2  -2   2    6.04    1.23
   2  -2   2    6.11    1.45
   2  -2   2    4.74    1.12
   2  -2   2    9.11    1.70
   2  -2   2    4.92    1.34
  -2   2  -3  256.16    4.92
  -2   2  -3  306.39    8.14
  -2   2  -3  290.37    7.16
  -2   2  -3  319.15    9.11
  -2   2  -3  317.53   14.10
   2  -2   3  266.61    5.46
   2  -2   3  307.22    8.10
   2  -2   3  272.36    8.50
   2  -2   3  269.07    6.91
   2  -2   3  317.67    8.97
   2  -2   3  291.02    8.46
   2  -2   3  263.64   12.91
  -2   2  -4  156.52    5.03
  -2   2  -4  138.11    4.70
  -2   2  -4  152.98    5.79
  -2   2  -4  178.84    7.59
  -2   2  -4  165.63   13.06
   2  -2   4  146.32    5.10
   2  -2   4  148.78    5.21
   2  -2   4  165.09    6.11
   2  -2   4  150.41    7.02
   2  -2   4  154.17    5.86
   2  -2   4  168.85    7.34
   2  -2   4  147.88    6.87
   2  -2   4  151.57   12.59
  -2   2  -5    6.44    1.45
  -2   2  -5    1.92    1.01
  -2   2  -5    3.98    1.30
  -2   2  -5    5.24    1.99
  -2   2  -5    0.87    3.58
   2  -2   5    1.95    1.05
   2  -2   5    5.06    1.56
   2  -2   5    4.95    1.41
   2  -2   5    5.35    1.74
   2  -2   5    4.70    1.59
   2  -2   5    4.05    1.56
   2  -2   5    2.78    1.30
   2  -2   5    3.62    1.30
   2  -2   5    8.03    4.16
  -2   2  -6 1441.75   20.72
  -2   2  -6 1155.03   18.44
  -2   2  -6 1325.26   20.94
  -2   2  -6 1524.93   26.69
  -2   2  -6 1505.29   53.13
   2  -2   6 1207.54   19.60
   2  -2   6 1271.74   20.29
   2  -2   6 1410.25   18.34
   2  -2   6 1291.88   24.12
   2  -2   6 1349.45   21.30
   2  -2   6 1356.33   25.13
   2  -2   6 1226.64   20.36
   2  -2   6 1299.26   49.55
  -2   2  -7   10.99    2.42
  -2   2  -7    7.16    2.06
  -2   2  -7   14.43    2.86
  -2   2  -7   11.57    3.44
  -2   2  -7   17.14    9.44
   2  -2   7    8.86    2.17
   2  -2   7    9.58    2.57
   2  -2   7   11.97    2.24
   2  -2   7   10.63    3.15
   2  -2   7   12.59    3.04
   2  -2   7   16.93    3.72
   2  -2   7   12.37    2.82
   2  -2   7   -2.97    6.11
  -2   2  -8   48.28    4.85
  -2   2  -8   38.30    6.37
  -2   2  -8   37.65    4.23
  -2   2  -8   54.68    6.00
  -2   2  -8   48.42   12.84
   2  -2   8   43.29    4.56
   2  -2   8   48.24    4.95
   2  -2   8   48.14    5.64
   2  -2   8   40.83    4.70
   2  -2   8   34.75    5.35
   2  -2   8   36.09    4.23
   2  -2   8   30.88   11.03
  -2   2  -9   65.02    6.18
  -2   2  -9   56.27    5.53
  -2   2  -9   79.82    7.63
  -2   2  -9   82.31   21.12
   2  -2   9   44.01    5.21
   2  -2   9   63.87    6.29
   2  -2   9   69.83    6.22
   2  -2   9   75.73   12.87
   2  -2   9   68.97    6.29
   2  -2   9   -0.51    8.35
  -2   2 -10   -1.52    1.52
  -2   2 -10    1.05    1.92
  -2   2 -10    0.76    1.84
  -2   2 -10   19.78   12.69
   2  -2  10    0.94    1.63
   2  -2  10    3.22    2.21
   2  -2  10    1.19    1.99
   2  -2  10   -1.30    1.52
   2  -2  10   -2.75    1.74
   2  -2  10   -0.76   11.32
  -2   2 -11   39.13    5.75
  -2   2 -11   39.93    7.02
  -2   2 -11   15.55   18.08
   2  -2  11   30.34    5.97
   2  -2  11   46.18    7.67
   2  -2  11   38.48    6.29
   2  -2  11   33.71    7.16
   2  -2  11   34.79   18.52
  -2   1  11    0.51    1.81
  -2   1  11   -0.04    1.81
  -2   1  11  -25.24   16.09
   2  -1 -11    3.76    2.42
   2  -1 -11    3.15    2.39
   2  -1 -11   -1.27    1.27
   2  -1 -11   23.47   21.70
  -2   1  10    5.46    2.31
  -2   1  10   10.78    3.76
  -2   1  10    4.77   12.40
   2  -1 -10    5.75    2.57
   2  -1 -10    8.21    2.71
   2  -1 -10    4.59    2.28
   2  -1 -10   -3.72   13.45
  -2   1   9   86.98    8.17
  -2   1   9   90.88    8.17
  -2   1   9  134.93    9.29
  -2   1   9   90.77   22.75
   2  -1  -9  114.24    9.04
   2  -1  -9  132.00    9.29
   2  -1  -9  113.27    8.57
   2  -1  -9  111.03    8.79
   2  -1  -9   64.30   18.52
  -2   1   8  307.08   13.81
  -2   1   8  300.02   13.74
  -2   1   8  361.90   14.29
  -2   1   8  302.23   13.63
  -2   1   8  317.35   35.30
   2  -1  -8  344.11   14.79
   2  -1  -8  294.38   13.42
   2  -1  -8  295.83   15.95
   2  -1  -8  346.13   13.89
   2  -1  -8  294.16   12.73
   2  -1  -8  274.89   13.09
   2  -1  -8  406.42   38.70
  -2   1   7    1.81    1.12
  -2   1   7    1.41    1.27
  -2   1   7   -0.94    0.69
  -2   1   7   -0.40    1.05
  -2   1   7   -1.59    4.95
   2  -1  -7   -1.48    0.80
   2  -1  -7    1.48    1.59
   2  -1  -7    2.50    1.27
   2  -1  -7   -1.19    0.47
   2  -1  -7    2.21    1.56
   2  -1  -7    1.12    0.83
  -2   1   6  226.39   10.13
  -2   1   6  301.65   14.36
  -2   1   6  247.98    9.98
  -2   1   6  192.18    9.29
  -2   1   6  200.86   23.72
   2  -1  -6  246.64   10.67
   2  -1  -6  302.01   13.89
   2  -1  -6  215.65    9.55
   2  -1  -6  214.71    9.15
   2  -1  -6  233.48   25.17
  -2   1   5   20.54    3.62
  -2   1   5   28.06    4.12
  -2   1   5   15.70    2.57
  -2   1   5   17.03    3.25
  -2   1   5   28.39    9.66
   2  -1  -5   17.50    3.00
   2  -1  -5   28.43    5.06
   2  -1  -5   21.45    3.51
   2  -1  -5   26.26    4.41
   2  -1  -5   21.48    3.69
   2  -1  -5   10.89    6.00
  -2   1   4 3973.32   43.58
  -2   1   4 2618.73   28.46
  -2   1   4 2984.00   27.81
  -2   1   4 2538.52   27.99
  -2   1   4 2548.03   69.15
   2  -1  -4 2784.98   29.47
   2  -1  -4 2629.33   28.35
   2  -1  -4 2827.26   17.50
   2  -1  -4 2953.00   29.73
   2  -1  -4 2822.34   26.83
   2  -1  -4 2529.80   28.24
   2  -1  -4 3152.16   76.49
  -2   1   3 1007.12   15.48
  -2   1   3  933.41   15.04
  -2   1   3 1142.45   15.15
  -2   1   3  914.39   14.97
  -2   1   3  927.05   36.67
   2  -1  -3 1025.89   15.80
   2  -1  -3  946.29   15.08
   2  -1  -3 1010.77   11.28
   2  -1  -3 1060.61   14.47
   2  -1  -3  941.70   15.33
   2  -1  -3 1146.14   40.69
  -2   1   2  323.46    7.56
  -2   1   2  298.58    7.27
  -2   1   2  310.22    7.92
  -2   1   2  357.02    7.41
  -2   1   2  279.99    7.20
  -2   1   2  340.09   19.02
   2  -1  -2  341.87    7.85
   2  -1  -2  294.16    7.27
   2  -1  -2  332.10    6.80
   2  -1  -2  359.01    7.38
   2  -1  -2  306.32    7.59
   2  -1  -2  380.67   20.32
  -2   1   1  259.08    5.53
  -2   1   1  229.61    5.21
  -2   1   1  257.35    6.15
  -2   1   1  252.83    6.58
  -2   1   1  239.12    5.57
  -2   1   1  208.96   12.37
   2  -1  -1  263.24    5.68
   2  -1  -1  245.38    5.46
   2  -1  -1  280.24    6.51
   2  -1  -1  247.73    6.47
   2  -1  -1  283.28    5.97
   2  -1  -1  255.03    5.79
   2  -1  -1  300.60   14.83
   2  -1   1 5091.18   77.72
  -2   1  -2  657.08    8.25
  -2   1  -2  714.00   12.69
  -2   1  -2  713.82   11.65
  -2   1  -2  824.56   12.73
  -2   1  -2  725.36   21.84
   2  -1   2  651.15    8.57
   2  -1   2  663.15    8.68
   2  -1   2  776.46   11.97
   2  -1   2  732.01   11.86
   2  -1   2  843.62   12.80
   2  -1   2  688.18   21.30
  -2   1  -3   24.81    2.06
  -2   1  -3   15.55    2.10
  -2   1  -3   20.07    2.21
  -2   1  -3   26.40    2.71
  -2   1  -3   19.02    5.06
   2  -1   3   20.94    1.95
   2  -1   3   19.10    1.88
   2  -1   3   25.82    2.31
   2  -1   3   20.94    2.42
   2  -1   3   23.33    2.35
   2  -1   3   23.00    2.53
   2  -1   3   20.79    2.50
   2  -1   3   22.57    1.88
   2  -1   3   13.16    4.63
  -2   1  -4  864.30   13.92
  -2   1  -4  784.20   13.16
  -2   1  -4  882.57   15.80
  -2   1  -4 1030.88   18.59
  -2   1  -4  930.09   36.09
   2  -1   4  767.42   13.42
   2  -1   4  826.73   14.03
   2  -1   4  966.94   14.14
   2  -1   4  903.87   17.32
   2  -1   4  874.21   15.88
   2  -1   4  883.36   17.47
   2  -1   4  837.29   13.09
   2  -1   4  782.28   33.09
  -2   1  -5 2346.12   26.07
  -2   1  -5 2012.25   23.98
  -2   1  -5 2200.30   27.38
  -2   1  -5 2590.13   32.62
  -2   1  -5 2440.01   66.18
   2  -1   5 2017.78   24.70
   2  -1   5 2116.15   25.57
   2  -1   5 2478.77   23.07
   2  -1   5 2194.52   29.29
   2  -1   5 2260.27   28.03
   2  -1   5 2277.88   30.85
   2  -1   5 2133.36   23.90
   2  -1   5 2128.12   61.88
  -2   1  -6   54.07    4.52
  -2   1  -6   49.18    4.27
  -2   1  -6   55.98    4.81
  -2   1  -6   69.87    5.89
  -2   1  -6   54.65   14.03
   2  -1   6   39.09    4.01
   2  -1   6   51.25    4.63
   2  -1   6   61.95    3.72
   2  -1   6   53.81    5.06
   2  -1   6   60.11    4.99
   2  -1   6   61.26    5.61
   2  -1   6   52.91    4.27
   2  -1   6   48.06   12.37
  -2   1  -7   26.47    4.30
  -2   1  -7   22.75    3.69
  -2   1  -7   27.85    4.45
  -2   1  -7   19.06    3.58
  -2   1  -7   15.44    8.97
   2  -1   7   23.87    4.05
   2  -1   7   28.17    4.45
   2  -1   7   28.90    2.64
   2  -1   7   25.57    4.77
   2  -1   7   33.34    5.14
   2  -1   7   27.81    5.28
   2  -1   7   28.90    4.41
   2  -1   7   36.27   13.42
  -2   1  -8   21.37    4.12
  -2   1  -8   -2.06    1.30
  -2   1  -8   21.99    4.16
  -2   1  -8   22.89    5.10
  -2   1  -8   11.07    7.16
   2  -1   8   17.83    4.12
   2  -1   8   11.97    3.07
   2  -1   8   16.89    1.92
   2  -1   8   14.18    3.33
   2  -1   8   20.69    4.41
   2  -1   8   19.13    4.48
   2  -1   8   17.68    3.87
   2  -1   8  -14.47    5.64
  -2   1  -9    4.01    3.33
  -2   1  -9   -1.63    1.16
  -2   1  -9    0.61    1.45
  -2   1  -9   10.56    9.58
   2  -1   9    1.48    1.95
   2  -1   9    0.98    1.88
   2  -1   9    1.74    1.37
   2  -1   9    0.18    1.74
   2  -1   9   32.01   11.97
  -2   1 -10    3.76    1.77
  -2   1 -10    0.22    1.30
  -2   1 -10   -2.13   11.03
   2  -1  10    4.01    2.53
   2  -1  10   -1.66    1.12
   2  -1  10   -1.19    0.90
   2  -1  10   -2.60    1.70
   2  -1  10  -11.17   15.15
  -2   1 -11    9.66    4.12
  -2   1 -11   13.09    4.16
   2  -1  11   -2.17    2.89
   2  -1  11    8.50    3.07
   2  -1  11   10.49    3.76
   2  -1  11   10.02    3.94
  -2   0  12   10.05    3.80
  -2   0  12   17.11    4.95
  -2   0  12  -45.86   23.22
   2   0 -12   16.42    4.01
   2   0 -12    9.11    3.98
   2   0 -12   37.79   31.90
  -2   0  11    4.74    2.03
  -2   0  11    6.29    2.82
   2   0 -11   -0.87    2.17
   2   0 -11    0.76    1.56
   2   0 -11   -1.48   18.01
  -2   0  10   17.94    4.74
  -2   0  10   19.49    4.70
  -2   0  10   13.63    3.98
  -2   0  10   45.53   18.84
   2   0 -10   11.61    3.87
   2   0 -10   11.32    3.62
   2   0 -10   16.74   15.04
  -2   0   9   -0.29    0.80
  -2   0   9   -0.47    0.90
  -2   0   9    2.10    1.59
  -2   0   9   -8.10    6.15
   2   0  -9    0.43    1.37
   2   0  -9    0.83    1.74
   2   0  -9    0.00    1.23
   2   0  -9    0.36    1.52
   2   0  -9   -1.81    1.41
   2   0  -9    1.30    1.16
   2   0  -9    4.48    9.58
  -2   0   8   16.53    3.65
  -2   0   8    8.93    2.46
  -2   0   8   13.56    3.15
  -2   0   8    7.59    2.24
  -2   0   8    8.53    8.75
   2   0  -8   16.24    4.01
   2   0  -8   18.66    4.52
   2   0  -8   14.29    3.44
   2   0  -8   13.49    3.15
   2   0  -8    5.97    2.31
   2   0  -8    9.98    2.60
   2   0  -8   -0.18    2.93
  -2   0   7    8.21    2.53
  -2   0   7    7.67    2.64
  -2   0   7    4.52    1.74
  -2   0   7    5.64    2.28
  -2   0   7   -3.76    5.50
   2   0  -7   11.65    3.22
   2   0  -7    9.44    2.93
   2   0  -7    4.74    1.88
   2   0  -7   10.99    2.60
   2   0  -7   12.12    3.25
   2   0  -7   11.07    3.25
   2   0  -7   12.69    8.14
  -2   0   6  182.05    8.72
  -2   0   6  172.36    8.61
  -2   0   6  206.72    9.11
  -2   0   6  161.51    8.21
  -2   0   6  205.20   23.29
   2   0  -6  188.85    8.86
   2   0  -6  199.92    8.53
   2   0  -6  215.04    8.50
   2   0  -6  195.87    8.75
   2   0  -6  165.67    8.46
   2   0  -6  227.15   23.69
  -2   0   5   44.37    5.32
  -2   0   5   31.43    3.47
  -2   0   5   49.40    4.09
  -2   0   5   37.94    3.76
  -2   0   5   25.21    8.61
   2   0  -5   74.61    7.23
   2   0  -5   35.19    5.53
   2   0  -5   43.36    3.72
   2   0  -5   47.74    3.62
   2   0  -5   36.06    3.62
   2   0  -5   49.15   11.79
  -2   0   4  702.94   14.07
  -2   0   4  611.80   13.27
  -2   0   4  746.30   14.21
  -2   0   4  623.88   13.16
  -2   0   4  766.01   36.20
   2   0  -4  710.89   14.32
   2   0  -4  634.66   13.42
   2   0  -4  752.55   11.86
   2   0  -4  684.02   13.45
   2   0  -4  604.53   13.09
   2   0  -4  701.31   34.75
  -2   0   3   47.63    3.29
  -2   0   3   39.64    3.04
  -2   0   3   44.19    3.00
  -2   0   3   46.29    3.22
  -2   0   3   35.91    2.82
  -2   0   3   48.17    9.69
   2   0  -3   47.34    3.29
   2   0  -3   45.10    3.22
   2   0  -3   48.86    2.42
   2   0  -3   46.51    3.22
   2   0  -3   38.80    2.93
   2   0  -3   57.47   10.49
  -2   0   2  526.52    9.58
  -2   0   2  444.39    8.86
  -2   0   2  503.49    9.19
  -2   0   2  553.25   10.02
  -2   0   2  455.93    8.32
  -2   0   2  553.18   24.30
   2   0  -2  519.65    9.62
   2   0  -2  465.55    9.04
   2   0  -2  579.69    5.24
   2   0  -2  447.79    8.61
   2   0  -2  553.43    9.98
   2   0  -2  461.79    8.43
   2   0  -2  566.41   24.59
  -2   0   1 4016.61   58.44
   2   0  -1 3783.17   24.09
  -2   0   0 4034.15   22.60
  -2   0   0 4797.30   29.11
  -2   0   0 4599.84   60.03
   2   0   0 4200.55   23.29
  -2   0  -1    4.88    1.12
  -2   0  -1    3.80    0.98
  -2   0  -1    3.33    0.98
  -2   0  -1    1.63    0.69
  -2   0  -1    3.83    1.01
  -2   0  -1    7.27    3.00
   2   0   1    2.46    0.80
   2   0   1    3.04    0.94
   2   0   1    3.94    1.08
   2   0   1    2.28    0.80
   2   0   1    9.58    3.15
  -2   0  -2  622.54   10.70
  -2   0  -2  604.82   10.52
  -2   0  -2  688.54   12.87
  -2   0  -2  664.24   12.73
  -2   0  -2  790.85   13.20
  -2   0  -2  735.81   28.82
   2   0   2  581.39   10.49
   2   0   2  637.66   11.07
   2   0   2  645.58   12.37
   2   0   2  655.45   12.77
   2   0   2  665.79    7.63
   2   0   2  586.34   25.75
  -2   0  -3 3956.14   30.63
  -2   0  -3 3587.91   28.97
  -2   0  -3 3982.15   34.18
  -2   0  -3 4604.58   36.74
  -2   0  -3 3780.31   23.90
  -2   0  -3 4200.47   78.19
   2   0   3 3637.28   29.73
   2   0   3 3754.67   30.45
   2   0   3 3769.28   32.77
   2   0   3 3963.02   34.47
   2   0   3 3998.42   35.51
   2   0   3 3894.84   24.19
   2   0   3 3925.08   75.87
  -2   0  -4  764.16   15.08
  -2   0  -4  743.48   14.76
  -2   0  -4  765.18   16.38
  -2   0  -4  905.64   19.06
  -2   0  -4  749.62   12.73
  -2   0  -4  799.82   38.12
   2   0   4  681.85   14.39
   2   0   4  730.82   20.43
   2   0   4  787.16   16.78
   2   0   4  675.38   19.93
   2   0   4  763.77   12.80
   2   0   4  840.33   39.31
  -2   0  -5   42.46    4.01
  -2   0  -5   39.75    3.87
  -2   0  -5   39.53    4.12
  -2   0  -5   54.65    5.03
  -2   0  -5   45.28    3.62
  -2   0  -5   45.03   13.09
   2   0   5   31.61    3.62
   2   0   5   38.59    3.98
   2   0   5   51.50    3.44
   2   0   5   37.65    4.05
   2   0   5   40.03    4.30
   2   0   5   44.56    4.63
   2   0   5   41.66    3.47
   2   0   5   35.88   12.01
  -2   0  -6   46.36    4.56
  -2   0  -6   34.21    3.83
  -2   0  -6   36.67    4.30
  -2   0  -6   39.82    4.88
  -2   0  -6   48.53   13.63
   2   0   6   37.58    4.20
   2   0   6   42.46    4.52
   2   0   6   33.60    2.82
   2   0   6   30.96    3.80
   2   0   6   44.37    4.70
   2   0   6   38.70    4.67
   2   0   6   35.04    3.62
   2   0   6   30.78   10.92
  -2   0  -7   80.29    6.47
  -2   0  -7   65.64    5.79
  -2   0  -7   71.57    6.55
  -2   0  -7   86.11    7.34
  -2   0  -7  136.16   24.85
   2   0   7   71.28    6.18
   2   0   7   83.14    6.84
   2   0   7   85.57    4.23
   2   0   7   81.88    6.69
   2   0   7   93.88    7.23
   2   0   7   86.94    7.49
   2   0   7   76.49    5.79
   2   0   7   78.55   18.52
  -2   0  -8   -0.90    1.59
  -2   0  -8   -1.19    1.01
  -2   0  -8    5.06    2.57
  -2   0  -8   31.14   12.77
   2   0   8    3.54    1.95
   2   0   8    6.37    2.53
   2   0   8    4.99    1.37
   2   0   8    4.41    1.81
   2   0   8    4.52    2.78
   2   0   8    4.95    1.95
  -2   0  -9    7.99    3.29
  -2   0  -9   13.20    3.65
  -2   0  -9   11.65   13.38
   2   0   9    8.79    3.15
   2   0   9    3.29    2.39
   2   0   9    6.87    2.86
   2   0   9   14.76    3.76
   2   0   9   14.47    3.72
   2   0   9   35.51   13.53
  -2   0 -10    5.21    2.93
  -2   0 -10   -1.27    1.92
  -2   0 -10   -9.11   15.23
   2   0  10    4.81    3.15
   2   0  10    0.72    1.99
   2   0  10   -1.92    2.03
   2   0  10    3.72    2.28
   2   0  10   -5.03   16.42
  -2  -1  12   -0.58    1.74
  -2  -1  12   -0.14    2.03
  -2  -1  12  -10.89   21.45
   2   1 -12   -7.34    2.86
   2   1 -12    6.33    2.39
   2   1 -12   -2.64   21.59
  -2  -1  11   13.42    4.34
  -2  -1  11   14.50    3.94
   2   1 -11   15.19    4.27
   2   1 -11   19.46    4.95
   2   1 -11   24.63   16.67
  -2  -1  10    5.50    2.75
  -2  -1  10    1.70    1.52
  -2  -1  10    3.36   10.42
   2   1 -10   -1.23    1.45
   2   1 -10   -1.27    1.56
   2   1 -10    2.93    1.77
   2   1 -10   -7.31    9.51
  -2  -1   9  246.21   15.08
  -2  -1   9  178.69   10.74
  -2  -1   9  219.52   11.90
  -2  -1   9  186.90   10.96
  -2  -1   9  240.57   30.05
   2   1  -9  199.70   11.28
   2   1  -9  163.68   10.23
   2   1  -9  181.91    9.58
   2   1  -9  218.54   10.92
   2   1  -9  175.04   10.60
   2   1  -9  235.43   44.12
  -2  -1   8  186.47   10.13
  -2  -1   8  187.48   10.31
  -2  -1   8  243.46   11.68
  -2  -1   8  177.21    9.95
  -2  -1   8  167.30   28.39
   2   1  -8  209.39   10.78
   2   1  -8  200.03   10.49
   2   1  -8  187.37    9.04
   2   1  -8  225.13   10.20
   2   1  -8  190.99   10.20
   2   1  -8  211.60   25.60
  -2  -1   7    5.61    2.03
  -2  -1   7    3.22    1.74
  -2  -1   7    1.81    1.27
  -2  -1   7    2.10    1.56
  -2  -1   7   -0.65    6.04
   2   1  -7    9.11    2.78
   2   1  -7    2.50    1.45
   2   1  -7    2.75    1.48
   2   1  -7    4.99    1.84
   2   1  -7    2.10    1.45
   2   1  -7   11.90    6.69
  -2  -1   6 4775.82   43.58
  -2  -1   6 5223.97   45.93
  -2  -1   6 4234.40   41.08
  -2  -1   6 4811.30  108.96
   2   1  -6 4938.81   44.74
   2   1  -6 4262.46   41.08
   2   1  -6 4988.07   39.75
   2   1  -6 5236.09   39.35
   2   1  -6 4884.57   43.87
   2   1  -6 5331.35  113.85
  -2  -1   5 2840.39   30.92
  -2  -1   5 2368.15   28.53
  -2  -1   5 3168.98   32.87
  -2  -1   5 2515.88   29.00
  -2  -1   5 3212.70   81.77
   2   1  -5 2887.62   31.43
   2   1  -5 2324.64   35.26
   2   1  -5 3152.53   26.54
   2   1  -5 2937.45   31.32
   2   1  -5 2984.29   78.26
  -2  -1   4   37.07    3.33
  -2  -1   4   38.52    3.40
  -2  -1   4   43.72    3.04
  -2  -1   4   37.86    3.25
  -2  -1   4   31.97    8.86
   2   1  -4   49.33    3.83
   2   1  -4   38.44    3.40
   2   1  -4   46.91    2.75
   2   1  -4   50.56   10.85
  -2  -1   3  186.03    6.65
  -2  -1   3  262.20   10.23
  -2  -1   3  209.58    4.45
  -2  -1   3  182.05    5.46
  -2  -1   3  195.40    6.91
  -2  -1   3  157.68    5.75
  -2  -1   3  191.82   16.64
   2   1  -3  193.48    6.87
   2   1  -3  154.50    6.08
   2   1  -3  211.42    4.48
   2   1  -3  165.89    5.17
   2   1  -3  216.81    7.23
   2   1  -3  170.19   15.66
  -2  -1   2  320.35    8.14
  -2  -1   2  257.64    7.34
  -2  -1   2  338.25    4.30
  -2  -1   2  308.23    6.76
  -2  -1   2  272.90    6.40
  -2  -1   2  319.73   20.07
  -2  -1   2  293.51   19.28
   2   1  -2  313.80    8.10
   2   1  -2  265.63    7.41
   2   1  -2  286.10    6.47
   2   1  -2  331.99    8.43
  -2  -1   1  633.28   10.99
  -2  -1   1  511.62    9.95
  -2  -1   1  607.79   10.96
  -2  -1   1  604.24   26.54
   2   1  -1  536.11   10.16
   2   1  -1  572.09   10.60
   2   1  -1  626.52   11.03
   2   1  -1  606.67    9.80
  -2  -1   0   16.13    1.92
  -2  -1   0   15.41    2.24
  -2  -1   0   18.81    1.99
  -2  -1   0   18.81    2.06
  -2  -1   0   18.62    1.16
  -2  -1   0   10.23    4.41
   2   1   0   18.26    1.99
   2   1   0   19.64    2.06
   2   1   0   17.94    1.92
   2   1   0   21.19    2.17
   2   1   0   18.01    5.61
  -2  -1  -1  417.16    9.73
  -2  -1  -1  441.97    9.95
  -2  -1  -1  496.62   10.52
  -2  -1  -1  467.65   10.96
  -2  -1  -1  480.34    6.37
  -2  -1  -1  526.45   27.12
   2   1   1  457.16   10.20
   2   1   1  449.06   10.20
   2   1   1  482.51   10.31
   2   1   1  473.11   11.14
   2   1   1  488.30    6.40
   2   1   1  416.08   24.05
  -2  -1  -2    5.68    1.56
  -2  -1  -2    3.83    1.16
  -2  -1  -2    7.67    1.95
  -2  -1  -2    7.09    2.06
  -2  -1  -2    6.87    1.23
  -2  -1  -2    9.76    4.85
   2   1   2    4.63    1.56
   2   1   2    8.03    1.92
   2   1   2    4.88    1.27
   2   1   2    1.77    0.83
   2   1   2    4.74    1.01
   2   1   2   -2.06    3.07
  -2  -1  -3  295.79    9.73
  -2  -1  -3  297.06    9.66
  -2  -1  -3  317.06    9.84
  -2  -1  -3  309.57   10.56
  -2  -1  -3  305.09    7.56
  -2  -1  -3  334.05   25.46
   2   1   3  265.70    9.26
   2   1   3  289.90   12.12
   2   1   3  307.91    9.58
   2   1   3  299.12   11.14
   2   1   3  307.22   10.52
   2   1   3  318.90    7.70
   2   1   3  279.01   23.18
  -2  -1  -4    1.30    1.08
  -2  -1  -4   -0.54    0.87
  -2  -1  -4   -0.29    0.72
  -2  -1  -4    0.94    0.58
  -2  -1  -4   -0.07    4.88
   2   1   4    0.43    0.94
   2   1   4    0.69    0.80
   2   1   4    1.59    1.05
   2   1   4    0.25    0.76
   2   1   4   -0.72    0.58
   2   1   4   -0.36    0.40
   2   1   4   -3.91    1.45
  -2  -1  -5  204.37    9.55
  -2  -1  -5  176.99    8.79
  -2  -1  -5  181.55    9.48
  -2  -1  -5  220.46   10.56
  -2  -1  -5  172.51    7.41
  -2  -1  -5  219.74   24.16
   2   1   5  146.94    9.95
   2   1   5  167.52    8.86
   2   1   5  191.93    8.86
   2   1   5  195.54    9.95
   2   1   5  192.07    9.80
   2   1   5  171.35    7.63
   2   1   5  146.11   23.87
  -2  -1  -6   27.67    4.56
  -2  -1  -6   29.62    5.42
  -2  -1  -6   18.05    3.76
  -2  -1  -6   23.11    4.77
  -2  -1  -6   26.54    4.09
  -2  -1  -6   27.41   13.31
   2   1   6   21.66    3.94
   2   1   6   25.24    4.52
   2   1   6   32.26    5.03
   2   1   6   20.83    4.23
   2   1   6   24.52    4.67
   2   1   6   20.61    3.44
   2   1   6   35.26   14.21
  -2  -1  -7  622.07   19.31
  -2  -1  -7   -0.61    1.84
  -2  -1  -7  730.53   22.46
  -2  -1  -7  558.31   16.02
  -2  -1  -7  559.90   45.31
   2   1   7  487.72   17.29
   2   1   7  585.40   19.20
   2   1   7  637.69   12.08
   2   1   7  563.81   17.61
   2   1   7  652.49   20.87
   2   1   7  581.64   19.64
   2   1   7  574.41   16.13
   2   1   7  587.21   45.28
  -2  -1  -8    5.17    2.53
  -2  -1  -8    3.22    2.57
  -2  -1  -8   -8.14    7.02
   2   1   8    0.61    1.81
   2   1   8    5.61    2.17
   2   1   8    0.72    0.98
   2   1   8    0.04    1.77
   2   1   8   -0.22    1.34
   2   1   8   -0.43    1.63
   2   1   8    5.21    2.46
   2   1   8   -7.45   11.75
  -2  -1  -9    8.25    3.33
  -2  -1  -9    5.39    2.39
  -2  -1  -9   17.07   17.87
   2   1   9    5.24    3.29
   2   1   9    2.82    2.24
   2   1   9    8.14    3.44
   2   1   9    6.58    3.00
   2   1   9    3.91    2.86
  -2  -2  12    4.12    2.71
  -2  -2  12    6.00    2.39
  -2  -2  12    5.75   16.93
   2   2 -12   -0.51    1.70
   2   2 -12   -0.90    1.74
   2   2 -12   30.67   19.13
  -2  -2  11    0.40    2.71
  -2  -2  11    0.98    1.41
  -2  -2  11   -2.21    1.12
   2   2 -11   -0.83    1.19
   2   2 -11    1.05    1.84
   2   2 -11    0.80    1.12
   2   2 -11   12.44   14.32
  -2  -2  10  146.83   11.14
  -2  -2  10  143.36   12.98
  -2  -2  10  106.72   24.30
   2   2 -10  153.66   10.38
   2   2 -10  144.66    8.53
   2   2 -10  175.29   10.13
   2   2 -10  174.71   32.87
  -2  -2   9  102.82    7.96
  -2  -2   9  102.42    8.06
  -2  -2   9  118.95    8.75
  -2  -2   9  153.74   29.04
   2   2  -9  127.55    8.97
   2   2  -9   95.51    7.78
   2   2  -9  120.83    4.23
   2   2  -9  105.93    6.87
   2   2  -9  132.18    8.32
   2   2  -9  116.16    8.68
  -2  -2   8 2056.66   33.05
  -2  -2   8 1789.47   31.17
  -2  -2   8 2310.68   35.84
  -2  -2   8 1822.71   31.43
  -2  -2   8 2225.01   84.66
   2   2  -8 2212.89   34.39
   2   2  -8 1887.88   31.35
   2   2  -8 2112.17   28.10
   2   2  -8 2403.52   31.93
   2   2  -8 2083.02   33.60
   2   2  -8 2445.72   88.50
  -2  -2   7 1602.72   27.20
  -2  -2   7 1382.04   25.53
  -2  -2   7 1708.25   28.68
  -2  -2   7 1397.99   25.57
  -2  -2   7 1869.25   72.22
   2   2  -7 1568.51   27.34
   2   2  -7 1368.15   24.99
   2   2  -7 1398.17   27.20
   2   2  -7 1541.27   26.94
   2   2  -7 1757.97   69.87
  -2  -2   6   38.12    4.01
  -2  -2   6   42.24    4.30
  -2  -2   6   45.78    3.54
  -2  -2   6   38.66    3.22
  -2  -2   6   43.22    4.38
  -2  -2   6   38.99    4.01
  -2  -2   6   47.56   12.12
   2   2  -6   46.33    4.41
   2   2  -6   40.79    4.20
   2   2  -6   51.57    3.87
   2   2  -6   47.88    4.48
   2   2  -6   40.22   11.68
  -2  -2   5   45.39    4.12
  -2  -2   5   43.04    3.98
  -2  -2   5   54.72    3.47
  -2  -2   5   49.94    3.18
  -2  -2   5   47.30    4.09
  -2  -2   5   61.52   12.91
   2   2  -5   49.04    4.16
   2   2  -5   43.29    3.98
   2   2  -5   52.87    3.44
   2   2  -5   51.43    4.30
   2   2  -5   55.87   12.66
  -2  -2   4  493.87   12.30
  -2  -2   4  401.79   11.21
  -2  -2   4  499.33    9.04
  -2  -2   4  473.47    8.64
  -2  -2   4  519.18   12.73
  -2  -2   4  417.78   10.81
  -2  -2   4  496.11   30.56
   2   2  -4  460.05   11.97
   2   2  -4  396.22   10.99
   2   2  -4  519.11    9.26
   2   2  -4  512.53   12.51
   2   2  -4  440.60   28.79
  -2  -2   3  464.83   11.32
  -2  -2   3  378.72   10.31
  -2  -2   3  523.38    8.25
  -2  -2   3  459.29    7.96
  -2  -2   3  497.66   11.72
  -2  -2   3  501.14   28.93
  -2  -2   3  400.16   25.97
   2   2  -3  466.16   11.43
   2   2  -3  397.89   10.49
   2   2  -3  455.24    9.51
   2   2  -3  444.65    7.78
   2   2  -3  502.15   11.65
  -2  -2   2  265.45    8.28
  -2  -2   2  220.82    7.67
  -2  -2   2  235.32   19.28
   2   2  -2  214.46    7.49
   2   2  -2  228.02    7.78
   2   2  -2  269.50    7.52
   2   2  -2  241.15    5.93
   2   2  -2  273.88    8.28
   2   2  -2  206.97   23.98
  -2  -2   1   98.15    5.10
  -2  -2   1  113.41    5.46
  -2  -2   1  122.96    5.28
  -2  -2   1  117.93    5.24
  -2  -2   1  108.78   17.25
   2   2  -1   94.10    4.99
   2   2  -1  105.93    5.32
   2   2  -1  107.19    5.06
   2   2  -1  106.51    4.41
   2   2  -1   80.54   13.38
  -2  -2   0   89.51    5.03
  -2  -2   0  100.72    5.28
  -2  -2   0  100.86    4.81
  -2  -2   0  103.36    5.32
  -2  -2   0   99.96    3.80
  -2  -2   0  106.79   13.20
   2   2   0   85.42    4.88
   2   2   0   94.90    5.24
   2   2   0   95.04    5.17
   2   2   0   78.48   13.63
  -2  -2  -1   36.60    3.44
  -2  -2  -1   40.14    3.15
  -2  -2  -1   44.16    4.01
  -2  -2  -1   39.64    2.57
  -2  -2  -1   30.31    9.19
   2   2   1   30.99    3.18
   2   2   1   34.07    3.33
   2   2   1   35.51    2.93
   2   2   1   34.36    3.40
   2   2   1   23.65    7.96
  -2  -2  -2  112.69    6.29
  -2  -2  -2  110.45    6.26
  -2  -2  -2  122.16    5.86
  -2  -2  -2  116.27    4.77
  -2  -2  -2   93.96   17.40
   2   2   2  101.26    6.00
   2   2   2   98.01    6.51
   2   2   2  120.94    5.79
   2   2   2  114.46    7.59
   2   2   2  117.32    4.77
   2   2   2  114.53   18.84
  -2  -2  -3  297.17   11.03
  -2  -2  -3  277.75   10.56
  -2  -2  -3  304.91   11.50
  -2  -2  -3  306.14    8.64
  -2  -2  -3  311.34   27.56
   2   2   3  277.67   11.25
   2   2   3  272.76   10.67
   2   2   3  311.13    9.91
   2   2   3  328.99   12.12
   2   2   3  322.19    8.82
   2   2   3  317.74   27.81
  -2  -2  -4   60.43    5.46
  -2  -2  -4   54.14    5.28
  -2  -2  -4   66.65    5.79
  -2  -2  -4   59.89    4.23
  -2  -2  -4   69.26   16.38
   2   2   4   58.77    5.35
   2   2   4   61.59    5.53
   2   2   4   63.54    4.92
   2   2   4   68.35    6.04
   2   2   4   71.28    5.86
   2   2   4   58.01    4.20
   2   2   4   80.47   17.61
  -2  -2  -5 1232.06   25.75
  -2  -2  -5 1196.66   32.55
  -2  -2  -5 1191.88   70.45
   2   2   5 1042.60   23.76
   2   2   5 1122.27   24.92
   2   2   5 1240.85   22.93
   2   2   5 1280.60   27.49
   2   2   5 1279.51   26.33
   2   2   5 1173.98   20.54
   2   2   5 1104.80   59.71
  -2  -2  -6  367.33   15.12
  -2  -2  -6  401.68   16.42
  -2  -2  -6  370.51   12.66
  -2  -2  -6  387.51   36.82
   2   2   6  290.73   13.42
   2   2   6  306.75   14.07
   2   2   6  340.85   12.91
   2   2   6  368.30   15.77
   2   2   6  364.87   15.08
   2   2   6  324.00   11.75
   2   2   6  332.35   34.57
  -2  -2  -7   57.39    6.58
  -2  -2  -7   70.23    7.31
  -2  -2  -7   67.12    5.97
  -2  -2  -7   31.79   17.58
   2   2   7   62.75    6.87
   2   2   7   65.49    7.09
   2   2   7   55.40    5.82
   2   2   7   59.64    7.09
   2   2   7   67.63    7.34
   2   2   7   61.88    5.64
  -2  -2  -8   13.20    3.83
  -2  -2  -8    3.40    2.82
  -2  -2  -8    8.68    2.89
  -2  -2  -8  -18.99   17.54
   2   2   8   10.20    3.62
   2   2   8    9.87    3.58
   2   2   8   10.85    1.95
   2   2   8    4.30    2.64
   2   2   8    6.58    3.29
   2   2   8    8.39    3.25
   2   2   8  -30.99   13.63
  -2  -2  -9    1.34    2.35
  -2  -2  -9   -3.69    1.92
  -2  -2  -9   56.27   24.85
   2   2   9   -0.11    2.13
   2   2   9    1.30    2.35
   2   2   9    1.23    1.70
   2   2   9   31.14   18.48
  -2  -3  12   18.95    4.92
  -2  -3  12   22.24    5.17
  -2  -3  12   37.50   19.82
   2   3 -12   16.42    4.74
   2   3 -12   16.35    4.12
   2   3 -12   26.29    5.14
   2   3 -12   18.48   17.50
  -2  -3  11    3.54    2.78
  -2  -3  11    6.22    2.21
  -2  -3  11   18.52    4.95
   2   3 -11   12.59    3.72
   2   3 -11    5.71    2.35
   2   3 -11    8.03    2.78
   2   3 -11   28.86   16.38
  -2  -3  10  154.97   10.38
  -2  -3  10  132.54   12.55
  -2  -3  10  117.90   27.67
   2   3 -10  188.17   11.28
   2   3 -10  151.46    5.97
   2   3 -10  141.12    7.85
   2   3 -10  153.27    9.40
   2   3 -10  154.89   29.98
  -2  -3   9  357.67   14.76
  -2  -3   9  293.51   13.45
  -2  -3   9  389.35   15.88
  -2  -3   9  440.89   52.48
   2   3  -9  360.85   14.72
   2   3  -9  348.20   11.36
   2   3  -9  418.17   14.36
   2   3  -9  407.22   38.15
  -2  -3   8   41.34    4.88
  -2  -3   8   41.26    4.85
  -2  -3   8   48.46    4.48
  -2  -3   8   45.53    3.87
  -2  -3   8   47.70    5.32
  -2  -3   8   28.14    4.63
  -2  -3   8   40.25   15.33
   2   3  -8   50.96    5.35
   2   3  -8   42.67    4.99
   2   3  -8   43.43    4.52
   2   3  -8   51.32    4.77
   2   3  -8   29.47    4.70
   2   3  -8   53.96   15.88
  -2  -3   7   72.87    6.04
  -2  -3   7   59.71    5.46
  -2  -3   7   99.27    5.86
  -2  -3   7   87.05    4.74
  -2  -3   7   84.95    6.58
  -2  -3   7   78.95    6.18
  -2  -3   7   95.55   19.78
   2   3  -7   88.39    6.55
   2   3  -7   79.35    6.08
   2   3  -7   86.65    4.92
   2   3  -7   74.68    6.37
   2   3  -7   77.54    6.22
   2   3  -7  106.07   20.11
  -2  -3   6   29.58    5.39
  -2  -3   6   14.72    3.11
  -2  -3   6   18.70    2.86
  -2  -3   6   19.96    1.99
  -2  -3   6   13.78    2.89
  -2  -3   6   19.78    3.72
  -2  -3   6   29.40    9.55
   2   3  -6   17.97    3.44
   2   3  -6   17.29    3.47
   2   3  -6   22.28    2.64
   2   3  -6   16.09    3.33
   2   3  -6   17.29    8.64
  -2  -3   5   92.94    6.44
  -2  -3   5  119.49    5.39
  -2  -3   5  125.42    4.30
  -2  -3   5  137.61    7.67
  -2  -3   5  135.33   21.26
  -2  -3   5  115.69   19.24
   2   3  -5  110.16    6.47
   2   3  -5  130.45    7.02
  -2  -3   4   64.23    4.81
  -2  -3   4   55.80    4.52
  -2  -3   4   71.14    3.87
  -2  -3   4   61.30    2.75
  -2  -3   4   68.68    4.88
  -2  -3   4   58.70   12.04
  -2  -3   4   54.72   12.80
   2   3  -4   49.94    4.23
   2   3  -4   88.53    7.20
   2   3  -4   60.97    3.62
   2   3  -4   69.15    4.85
  -2  -3   3  112.54    6.11
  -2  -3   3   91.24    5.57
  -2  -3   3  118.08    4.81
  -2  -3   3   94.10   16.38
   2   3  -3   98.44    5.71
   2   3  -3  105.82    6.00
   2   3  -3  103.83    4.85
   2   3  -3  105.71    3.69
   2   3  -3  117.10    6.00
  -2  -3   2  252.86    9.19
  -2  -3   2  320.67    8.90
  -2  -3   2  298.97   27.52
   2   3  -2  257.31    9.19
   2   3  -2  293.33    9.87
   2   3  -2  320.17    8.97
   2   3  -2  318.97    7.23
   2   3  -2  344.25   10.02
   2   3  -2  278.00   23.47
  -2  -3   1   24.77    2.93
  -2  -3   1   28.17    2.71
  -2  -3   1   33.49    3.15
  -2  -3   1   22.82    2.31
  -2  -3   1   30.02    8.86
   2   3  -1   23.83    3.54
   2   3  -1   22.64    3.69
   2   3  -1   20.51    2.53
   2   3  -1   16.49    6.55
  -2  -3   0 1970.41   34.50
  -2  -3   0 1307.76   21.66
  -2  -3   0 1426.59   18.99
  -2  -3   0 1418.67   21.74
  -2  -3   0 1418.17   17.61
  -2  -3   0 1383.31   54.90
   2   3   0 1220.27   21.12
   2   3   0 1305.23   21.95
   2   3   0 1347.79   21.41
   2   3   0 1391.66   55.22
  -2  -3  -1  979.85   19.82
  -2  -3  -1 1005.67   19.89
  -2  -3  -1 1105.41   17.18
  -2  -3  -1 1143.06   21.01
  -2  -3  -1 1115.97   16.24
  -2  -3  -1 1155.10   52.66
   2   3   1  971.24   19.60
   2   3   1 1041.80   20.54
   2   3   1 1088.63   16.93
   2   3   1 1078.72   20.65
   2   3   1 1161.07   52.69
  -2  -3  -2    8.43    2.39
  -2  -3  -2   10.31    2.89
  -2  -3  -2    9.11    2.24
  -2  -3  -2    7.81    2.17
  -2  -3  -2    9.37    2.10
  -2  -3  -2    6.69    5.42
   2   3   2   11.21    3.72
   2   3   2   10.78    2.93
   2   3   2    8.90    1.99
   2   3   2   11.28    3.11
   2   3   2    5.75    1.52
   2   3   2   10.42    7.63
  -2  -3  -3  792.41   20.00
  -2  -3  -3  764.34   19.42
  -2  -3  -3  839.89   20.76
  -2  -3  -3  842.10   16.24
  -2  -3  -3  849.44   50.67
   2   3   3  762.75   19.53
   2   3   3 1190.04   30.20
   2   3   3  876.42   21.52
   2   3   3  898.59   20.22
   2   3   3  854.58   16.27
   2   3   3  803.87   49.47
  -2  -3  -4 1622.72   30.31
  -2  -3  -4 1400.59   35.98
  -2  -3  -4 1647.38   32.95
  -2  -3  -4 1660.04   74.68
   2   3   4 1501.71   29.11
   2   3   4 1633.71   30.74
   2   3   4 1694.47   25.35
   2   3   4 1704.96   31.97
   2   3   4 1758.23   30.23
   2   3   4 1651.90   24.45
   2   3   4 1517.04   72.11
  -2  -3  -5  166.72   10.56
  -2  -3  -5  155.15    8.17
  -2  -3  -5  173.81   30.02
   2   3   5  135.87    9.48
   2   3   5  162.99   10.45
   2   3   5  158.87    8.32
   2   3   5  180.68   11.21
   2   3   5  172.61   10.09
   2   3   5  160.10    8.25
   2   3   5  185.09   31.79
  -2  -3  -6   10.42    3.29
  -2  -3  -6   16.46    3.36
  -2  -3  -6   19.46   13.27
   2   3   6    9.15    3.07
   2   3   6   25.03    5.57
   2   3   6   18.91    4.09
   2   3   6   11.68    4.05
   2   3   6   14.94    3.98
   2   3   6   15.80    3.62
   2   3   6   -1.74   12.98
  -2  -3  -7    6.55    3.36
  -2  -3  -7    2.86    2.03
  -2  -3  -7   11.36    3.18
  -2  -3  -7   -5.35    9.87
   2   3   7   13.06    3.83
   2   3   7   17.29    4.45
   2   3   7    3.22    2.35
   2   3   7    5.64    2.82
  -2  -3  -8   -1.70    2.24
  -2  -3  -8    1.95    1.77
  -2  -3  -8  -37.50   17.90
   2   3   8   -0.36    2.21
   2   3   8   -2.78    1.27
   2   3   8   -5.24    1.81
   2   3   8    4.05    2.60
   2   3   8   11.17   19.60
  -2  -4  12   14.10    4.45
  -2  -4  12   31.90    5.03
  -2  -4  12   29.58    6.40
  -2  -4  12   33.34   19.75
   2   4 -12   29.00    6.65
   2   4 -12   33.38    3.07
   2   4 -12   24.45    4.38
   2   4 -12   25.82    4.70
   2   4 -12   14.29   18.23
  -2  -4  11    7.23    3.33
  -2  -4  11    1.23    2.31
  -2  -4  11    8.43    2.39
  -2  -4  11   10.13    3.58
  -2  -4  11    2.13   13.24
   2   4 -11    4.92    2.39
   2   4 -11    4.92    1.70
   2   4 -11    4.63    1.92
   2   4 -11    7.16    2.75
   2   4 -11    7.23   13.13
  -2  -4  10    7.45    2.60
  -2  -4  10   16.24    4.48
  -2  -4  10    9.15    2.53
  -2  -4  10   12.33    3.69
  -2  -4  10   -1.30   10.56
   2   4 -10   12.44    3.33
   2   4 -10    8.82    2.10
   2   4 -10   14.94    3.62
   2   4 -10    7.38   11.61
  -2  -4   9  122.27    8.90
  -2  -4   9  109.94    8.21
  -2  -4   9  148.78    8.50
  -2  -4   9  126.72    6.26
  -2  -4   9  140.65    9.62
  -2  -4   9  190.95   31.93
   2   4  -9  126.29    8.82
   2   4  -9  147.88    8.61
   2   4  -9   74.90    7.70
   2   4  -9  152.87   28.43
  -2  -4   8   -0.43    1.12
  -2  -4   8    1.23    0.94
  -2  -4   8    1.34    1.37
  -2  -4   8    1.30    1.45
  -2  -4   8    0.80    1.27
  -2  -4   8    8.90    8.06
   2   4  -8    1.01    1.12
   2   4  -8   -0.47    1.45
   2   4  -8   -0.43    0.87
   2   4  -8    0.33    0.90
   2   4  -8    0.76    1.59
   2   4  -8   -9.44    5.97
  -2  -4   7  246.25   11.17
  -2  -4   7  214.49   10.45
  -2  -4   7  274.56   10.02
  -2  -4   7  246.64    6.51
  -2  -4   7  205.74   10.23
  -2  -4   7  248.49   28.10
  -2  -4   7  233.41   25.89
   2   4  -7  275.00   11.79
   2   4  -7  206.75   10.13
   2   4  -7  284.15   10.23
   2   4  -7  247.69   11.17
  -2  -4   6   29.19    4.63
  -2  -4   6   22.93    5.10
  -2  -4   6   27.96    3.04
  -2  -4   6   25.86    1.81
  -2  -4   6   22.13    4.01
  -2  -4   6   19.13    9.01
  -2  -4   6   18.81    8.86
   2   4  -6   32.22    5.86
   2   4  -6   17.68    3.33
   2   4  -6   23.36    2.35
   2   4  -6   25.93    4.30
  -2  -4   5  869.29   19.28
  -2  -4   5  688.51   17.36
  -2  -4   5  924.88   16.27
  -2  -4   5  908.32   19.38
  -2  -4   5  926.72   48.86
  -2  -4   5  776.93   44.84
   2   4  -5  706.30   17.29
   2   4  -5  782.10   18.37
   2   4  -5  808.72   13.38
   2   4  -5  900.25   19.06
  -2  -4   4   16.38    3.15
  -2  -4   4   11.46    2.64
  -2  -4   4   19.78    2.31
  -2  -4   4    9.37    5.14
  -2  -4   4   12.12    6.84
   2   4  -4   14.86    3.07
   2   4  -4   14.72    2.86
   2   4  -4   14.54    2.42
   2   4  -4   17.00    1.30
   2   4  -4   18.88    3.51
  -2  -4   3   40.43    4.05
  -2  -4   3   21.01    3.76
  -2  -4   3   35.37   11.65
   2   4  -3   25.89    3.91
   2   4  -3   31.86    4.67
   2   4  -3   28.24    2.78
   2   4  -3   30.60    2.10
   2   4  -3   36.89    3.62
   2   4  -3   15.91    8.03
  -2  -4   2  235.36   10.02
  -2  -4   2  270.08   10.45
  -2  -4   2  296.99    9.37
  -2  -4   2  296.33    9.44
  -2  -4   2  263.71   25.57
   2   4  -2  240.60    9.87
   2   4  -2  273.59   10.78
   2   4  -2  294.42    9.48
   2   4  -2  277.64    7.38
   2   4  -2  327.33   10.52
   2   4  -2  251.78   24.85
  -2  -4   1  207.12    9.48
  -2  -4   1  235.69    9.98
  -2  -4   1  246.10    8.28
  -2  -4   1  259.70    9.48
  -2  -4   1  254.85    8.68
  -2  -4   1  274.27   26.76
   2   4  -1  216.48    9.55
   2   4  -1  236.52   10.13
   2   4  -1  269.28    9.76
   2   4  -1  240.71   24.66
  -2  -4   0  163.65    8.72
  -2  -4   0  183.28    9.08
  -2  -4   0  190.55    7.27
  -2  -4   0  195.29    8.82
  -2  -4   0  190.99    7.59
  -2  -4   0  176.85   21.70
   2   4   0  177.79    8.97
   2   4   0  161.87    8.64
   2   4   0  198.47    9.04
   2   4   0  194.28   23.11
  -2  -4  -1  207.84   10.23
  -2  -4  -1  217.97   10.34
  -2  -4  -1  214.17    7.85
  -2  -4  -1  212.72    9.95
  -2  -4  -1  229.39    8.57
  -2  -4  -1  230.30   26.07
   2   4   1  212.25   10.20
   2   4   1  206.72   10.23
   2   4   1  219.34   10.20
   2   4   1  178.26   28.35
  -2  -4  -2  391.16   14.68
  -2  -4  -2  382.59   14.36
  -2  -4  -2  430.51   11.61
  -2  -4  -2  406.78   14.65
  -2  -4  -2  415.97   12.08
  -2  -4  -2  409.21   36.27
   2   4   2  516.07   19.85
   2   4   2  389.17   14.76
   2   4   2  421.65   11.39
   2   4   2  433.15   15.37
   2   4   2  424.86   37.50
  -2  -4  -3  554.15   18.41
  -2  -4  -3  490.40   17.07
  -2  -4  -3  564.24   18.41
  -2  -4  -3  585.87   15.12
  -2  -4  -3  616.47   47.05
   2   4   3  484.54   17.03
   2   4   3  540.19   18.23
   2   4   3  563.16   13.85
   2   4   3  610.39   19.38
   2   4   3  594.51   17.32
   2   4   3  550.57   14.54
   2   4   3  553.90   44.41
  -2  -4  -4   48.21    7.12
  -2  -4  -4   42.93    4.52
  -2  -4  -4   22.68   14.68
   2   4   4   36.06    6.58
   2   4   4   47.99    6.00
   2   4   4   52.91    4.74
   2   4   4   47.74    5.86
   2   4   4   54.17    5.71
   2   4   4   53.13    4.77
   2   4   4   43.98   17.21
  -2  -4  -5    2.64    1.63
  -2  -4  -5    0.80    1.52
  -2  -4  -5    8.82   14.83
   2   4   5   -3.87    1.45
   2   4   5    3.07    1.99
   2   4   5    6.22    2.21
   2   4   5    0.69    1.95
   2   4   5    2.57    1.84
   2   4   5    5.64    2.03
  -2  -4  -6    9.84    3.44
  -2  -4  -6   19.93    4.09
  -2  -4  -6   30.41   16.96
   2   4   6   10.74    4.41
   2   4   6   16.02    3.76
   2   4   6   17.79    4.95
   2   4   6   12.98    3.47
   2   4   6   13.27    3.40
   2   4   6   27.96   21.16
  -2  -4  -7   37.18    7.27
  -2  -4  -7   45.71    8.17
  -2  -4  -7   51.39    5.64
  -2  -4  -7   22.10   23.07
   2   4   7   41.26    7.59
   2   4   7   48.32    6.58
   2   4   7   59.71    9.76
   2   4   7   47.85    7.99
   2   4   7   46.15   24.38
  -2  -5  12    0.25    1.45
  -2  -5  12    3.04    1.77
  -2  -5  12    1.30    1.77
  -2  -5  12   15.15   16.89
   2   5 -12    1.48    1.84
   2   5 -12    0.87    1.63
   2   5 -12   -2.57    1.95
   2   5 -12   -1.52    1.95
   2   5 -12   10.34   13.31
  -2  -5  11    4.12    3.22
  -2  -5  11    6.29    3.29
  -2  -5  11   11.46    2.42
  -2  -5  11   13.53    4.01
  -2  -5  11   12.30   13.71
   2   5 -11   11.17    3.04
   2   5 -11   13.67    2.97
   2   5 -11   11.97    2.64
   2   5 -11    9.29    2.93
  -2  -5  10   69.11    7.41
  -2  -5  10   52.04    6.00
  -2  -5  10   71.61    7.70
  -2  -5  10   73.13    4.45
  -2  -5  10   61.05    7.02
   2   5 -10   56.85    4.20
   2   5 -10   85.71    7.05
  -2  -5   9  286.32   13.53
  -2  -5   9  238.15   12.40
  -2  -5   9  317.89   12.69
  -2  -5   9  299.26    7.56
  -2  -5   9  315.32   14.72
  -2  -5   9  366.93   37.76
  -2  -5   9  294.35   31.35
   2   5  -9  293.88   13.67
   2   5  -9  296.73    8.57
   2   5  -9  319.44   12.84
  -2  -5   8   32.01    5.28
  -2  -5   8   21.26    4.63
  -2  -5   8   30.49    3.80
  -2  -5   8   25.89    4.30
  -2  -5   8   26.40    4.77
  -2  -5   8   28.57   13.74
  -2  -5   8   29.51   13.92
   2   5  -8   29.58    2.75
   2   5  -8   29.15    2.71
   2   5  -8   27.88    5.06
  -2  -5   7  693.03   19.49
  -2  -5   7  547.75   17.50
  -2  -5   7  707.13   16.93
  -2  -5   7  711.25   19.71
  -2  -5   7  773.31   50.49
  -2  -5   7  610.79   44.95
   2   5  -7  563.12   19.02
   2   5  -7  610.17   18.30
   2   5  -7  645.33   11.75
   2   5  -7  696.35   19.20
  -2  -5   6  342.19   13.27
  -2  -5   6  285.09   12.19
  -2  -5   6  369.71   11.68
  -2  -5   6  395.35   14.00
  -2  -5   6  378.43   34.50
  -2  -5   6  315.97   31.43
   2   5  -6  306.93   12.48
   2   5  -6  316.73   12.84
   2   5  -6  327.80    8.50
   2   5  -6  360.27   13.20
  -2  -5   5  185.63    9.66
  -2  -5   5  141.66    8.50
  -2  -5   5  200.14    8.35
  -2  -5   5  210.30   25.46
  -2  -5   5  116.85   24.09
   2   5  -5  149.47    8.46
   2   5  -5  141.15    8.39
   2   5  -5  165.71    6.37
   2   5  -5  178.76    8.90
  -2  -5   4  631.26   17.40
  -2  -5   4  507.18   15.84
  -2  -5   4  666.16   15.15
  -2  -5   4  561.17   40.14
   2   5  -4  485.55   15.19
   2   5  -4  504.54   15.70
   2   5  -4  561.97   12.44
   2   5  -4  651.04   16.27
  -2  -5   3  140.61    8.35
  -2  -5   3  169.61    7.67
  -2  -5   3  175.87   27.74
   2   5  -3  148.64    8.50
   2   5  -3  160.25    8.90
   2   5  -3  171.93    7.41
   2   5  -3  180.06    5.46
   2   5  -3  205.45    8.97
   2   5  -3  173.99   26.69
  -2  -5   2  520.12   16.20
  -2  -5   2  917.36   26.65
  -2  -5   2  611.80   14.00
  -2  -5   2  622.98   15.01
  -2  -5   2  618.06   15.44
  -2  -5   2  591.58   42.31
   2   5  -2  513.43   15.84
   2   5  -2  575.20   16.96
   2   5  -2  482.66   21.84
   2   5  -2  676.82   16.13
   2   5  -2  556.50   40.83
  -2  -5   1   58.70    5.57
  -2  -5   1   61.05    5.64
  -2  -5   1   71.97    4.74
  -2  -5   1   54.83    4.88
  -2  -5   1   80.58    5.75
  -2  -5   1   56.34   15.98
   2   5  -1   59.96    5.64
   2   5  -1   61.48    5.86
   2   5  -1   65.86    5.39
   2   5  -1   61.37   15.37
  -2  -5   0  101.15    7.49
  -2  -5   0   88.89    7.02
  -2  -5   0  119.38    5.97
  -2  -5   0  113.96    7.41
  -2  -5   0  114.90    6.73
  -2  -5   0  120.97   23.72
   2   5   0   96.99    7.27
   2   5   0  107.99    7.85
   2   5   0  118.87    7.67
   2   5   0  130.95   24.95
  -2  -5  -1   30.56    5.24
  -2  -5  -1   33.85    5.42
  -2  -5  -1   27.67    3.04
  -2  -5  -1   25.82    4.63
  -2  -5  -1   30.13    3.54
  -2  -5  -1   25.13   13.27
   2   5   1   27.23    4.99
   2   5   1   28.97    5.17
   2   5   1   30.70    5.21
   2   5   1   28.64   12.80
  -2  -5  -2  194.17   11.28
  -2  -5  -2  180.46   10.78
  -2  -5  -2  213.84    8.25
  -2  -5  -2  182.27   10.63
  -2  -5  -2  213.73    9.66
  -2  -5  -2  168.13   30.09
   2   5   2  174.57   12.44
   2   5   2  193.19   11.32
   2   5   2  205.24   11.36
   2   5   2  156.23   29.11
  -2  -5  -3    0.80    1.66
  -2  -5  -3    5.32    1.74
  -2  -5  -3   -2.03    9.84
   2   5   3   -1.74    1.99
   2   5   3   -1.27    0.98
   2   5   3    0.11    1.01
   2   5   3    2.93    1.63
   2   5   3   -9.87   10.56
  -2  -5  -4  111.50    9.29
  -2  -5  -4  102.09    7.38
  -2  -5  -4   89.44   24.70
   2   5   4  109.40    9.22
   2   5   4  109.72    6.51
   2   5   4   98.91    9.11
   2   5   4  100.18    7.88
   2   5   4   87.88    6.76
   2   5   4  102.06   25.75
  -2  -5  -5   20.25    4.38
  -2  -5  -5   11.17    3.11
  -2  -5  -5    1.95   11.79
   2   5   5   12.30    3.98
   2   5   5   18.44    3.36
   2   5   5    4.56    3.29
   2   5   5   15.66    3.11
  -2  -5  -6   22.93    5.68
  -2  -5  -6   21.45    4.45
  -2  -5  -6   37.18   25.60
   2   5   6   13.78    4.88
   2   5   6   26.94    4.20
   2   5   6   23.22    6.29
   2   5   6   16.42    4.38
   2   5   6  -35.62   21.19
  -2  -6  12   -0.11    1.34
  -2  -6  12    0.94    1.48
  -2  -6  12    1.23    2.35
  -2  -6  12   52.29   22.60
  -2  -6  12  -26.47   18.81
   2   6 -12   -1.37    1.19
   2   6 -12   -2.97    1.66
   2   6 -12    3.76    1.45
   2   6 -12    1.30    1.95
  -2  -6  11   26.51    6.04
  -2  -6  11    9.62    3.07
  -2  -6  11   12.69    3.40
  -2  -6  11    9.29   12.37
  -2  -6  11   42.60   20.72
   2   6 -11   24.63    5.14
   2   6 -11   18.30    2.53
  -2  -6  10    2.75    2.75
  -2  -6  10    5.64    2.46
  -2  -6  10   14.43    3.40
  -2  -6  10    9.29    2.97
  -2  -6  10  -12.69    8.25
  -2  -6  10   35.08   15.91
   2   6 -10    8.25    1.63
   2   6 -10    9.87    1.66
  -2  -6   9   88.50    7.99
  -2  -6   9   77.90    7.38
  -2  -6   9  102.89    7.59
  -2  -6   9  107.84    8.72
  -2  -6   9  -11.32    6.29
  -2  -6   9   63.47   20.61
   2   6  -9   85.89    7.78
   2   6  -9   83.32    3.80
   2   6  -9   96.34    4.09
  -2  -6   8  131.82    8.97
  -2  -6   8   83.18    7.41
  -2  -6   8  124.01    7.81
  -2  -6   8  130.63    9.19
  -2  -6   8  141.80   28.39
  -2  -6   8   93.20   22.31
   2   6  -8   95.33    7.88
   2   6  -8  100.50    4.34
   2   6  -8  111.86    4.48
   2   6  -8   48.06    5.71
  -2  -6   7  123.76    8.57
  -2  -6   7   96.23    7.74
  -2  -6   7  126.14    7.59
  -2  -6   7  118.22    8.25
  -2  -6   7  120.94   26.29
  -2  -6   7  106.22   23.54
   2   6  -7  107.45    8.03
   2   6  -7  115.22    4.85
   2   6  -7  114.46    8.46
  -2  -6   6  504.43   17.14
  -2  -6   6  376.69   14.97
  -2  -6   6  520.70   15.12
  -2  -6   6  485.44   41.16
   2   6  -6  333.19   17.00
   2   6  -6  433.25   15.84
   2   6  -6  439.26   10.16
   2   6  -6  498.93   16.06
  -2  -6   5    1.34    1.23
  -2  -6   5    1.70    1.12
  -2  -6   5    1.74    1.23
  -2  -6   5    7.70    8.21
  -2  -6   5  -11.83    5.17
   2   6  -5   -1.34    1.52
   2   6  -5    0.04    0.98
   2   6  -5    0.54    0.69
   2   6  -5    2.39    1.41
  -2  -6   4  122.27    8.35
  -2  -6   4   85.67    7.12
  -2  -6   4  130.52    7.56
  -2  -6   4  132.36   25.06
   2   6  -4   97.03    7.67
   2   6  -4  100.97    7.67
   2   6  -4  120.75    6.29
   2   6  -4  138.37    7.88
   2   6  -4  130.08   25.21
  -2  -6   3   42.42    4.99
  -2  -6   3   46.91    4.27
  -2  -6   3   45.78    4.12
  -2  -6   3   43.43    4.70
  -2  -6   3   24.38   11.28
   2   6  -3   37.76    5.75
   2   6  -3   38.80    6.04
   2   6  -3   39.49    3.91
   2   6  -3   38.41    2.86
   2   6  -3   50.12    4.74
   2   6  -3   35.15   12.01
  -2  -6   2  212.97   11.32
  -2  -6   2  241.54   11.90
  -2  -6   2  252.29    9.80
  -2  -6   2  275.21   10.85
  -2  -6   2  255.36   10.92
  -2  -6   2  268.81   29.87
   2   6  -2  218.33   14.29
   2   6  -2  241.94   12.12
   2   6  -2  247.08   10.42
   2   6  -2  290.66   11.25
   2   6  -2  257.67   37.43
  -2  -6   1    1.41    1.23
  -2  -6   1   -1.41    0.98
  -2  -6   1    2.35    1.19
  -2  -6   1   -2.89    1.12
  -2  -6   1   -0.83    0.83
  -2  -6   1    9.58   10.49
   2   6  -1    1.37    1.59
   2   6  -1    1.30    1.27
   2   6  -1    0.72    1.08
   2   6  -1    0.47    1.05
   2   6  -1   -4.67    7.56
  -2  -6   0  162.34   10.42
  -2  -6   0  156.63   10.16
  -2  -6   0  184.87    7.59
  -2  -6   0  180.21   10.05
  -2  -6   0  179.96    9.33
  -2  -6   0  166.32   29.80
   2   6   0  147.52    9.98
   2   6   0  170.95   10.67
   2   6   0  190.59   10.42
   2   6   0  121.59   26.73
  -2  -6  -1    4.59    2.17
  -2  -6  -1    1.95    1.88
  -2  -6  -1    3.04    1.23
  -2  -6  -1    2.35    1.95
  -2  -6  -1    3.87    1.66
  -2  -6  -1    7.70   14.18
   2   6   1    6.55    2.78
   2   6   1    4.77    1.95
   2   6   1    2.60    1.56
   2   6   1    0.11   12.95
  -2  -6  -2  113.49    9.33
  -2  -6  -2  111.71    7.78
  -2  -6  -2   32.69   21.23
   2   6   2  114.35   11.61
   2   6   2  114.24   29.29
  -2  -6  -3   21.45    5.39
  -2  -6  -3   17.94    4.12
  -2  -6  -3   33.24   17.40
   2   6   3    7.05    2.75
   2   6   3   17.87    4.12
   2   6   3   20.65    4.20
   2   6   3   -8.25   16.82
  -2  -6  -4  126.83   10.78
  -2  -6  -4  116.78    8.46
  -2  -6  -4   60.18   21.01
   2   6   4  123.14   11.03
   2   6   4  150.01   11.50
   2   6   4  110.34   10.34
  -2  -7  11   44.23    7.74
  -2  -7  11   53.42    8.82
  -2  -7  11   40.29   25.93
  -2  -7  11   61.34   20.00
   2   7 -11   37.90    6.29
  -2  -7  10   10.49    4.16
  -2  -7  10   19.10    4.59
  -2  -7  10   31.68    6.44
  -2  -7  10    9.98   10.45
  -2  -7  10  -11.10   13.38
   2   7 -10   14.50    4.56
  -2  -7   9    7.12    3.00
  -2  -7   9   16.17    4.27
  -2  -7   9   27.92    5.17
  -2  -7   9   25.86    5.50
  -2  -7   9    8.86   11.46
  -2  -7   9   61.37   18.84
   2   7  -9   13.85    3.87
  -2  -7   8   85.78    8.14
  -2  -7   8   76.81    7.34
  -2  -7   8  105.49    7.67
  -2  -7   8   97.97    8.14
  -2  -7   8   23.54   17.25
   2   7  -8   79.49    7.38
  -2  -7   7   16.38    4.34
  -2  -7   7    9.19    4.01
  -2  -7   7   24.45    4.63
  -2  -7   7   13.16   10.20
  -2  -7   7   25.17   20.18
   2   7  -7   15.33    3.91
   2   7  -7   16.02    2.31
   2   7  -7   22.89    4.92
  -2  -7   6   39.75    6.11
  -2  -7   6   14.94    3.58
  -2  -7   6   48.06    5.10
  -2  -7   6   18.30   10.92
  -2  -7   6   25.89   11.61
   2   7  -6   31.54    5.93
   2   7  -6   37.25    3.22
   2   7  -6   35.66    5.61
  -2  -7   5   25.10    4.70
  -2  -7   5   18.52    4.12
  -2  -7   5   34.03    4.20
  -2  -7   5   26.69   11.97
  -2  -7   5   26.83   11.50
   2   7  -5   26.54    5.46
   2   7  -5   23.80    3.62
   2   7  -5   33.27    5.14
  -2  -7   4   32.40    5.24
  -2  -7   4   38.88    6.33
  -2  -7   4   39.31    6.04
  -2  -7   4    5.32   13.60
   2   7  -4   33.34    7.63
   2   7  -4   49.58    5.89
   2   7  -4   30.67    3.62
   2   7  -4   54.10    5.17
   2   7  -4    8.25   13.24
  -2  -7   3  233.88   12.69
  -2  -7   3  282.16   10.52
  -2  -7   3  271.16   10.89
  -2  -7   3  269.32   12.33
  -2  -7   3  263.82   32.37
   2   7  -3  245.09   12.98
   2   7  -3  274.78   11.10
   2   7  -3  291.13    8.17
   2   7  -3  292.86   11.90
   2   7  -3  248.45   30.99
  -2  -7   2    1.63    1.19
  -2  -7   2   15.12    3.98
  -2  -7   2    8.61    2.17
  -2  -7   2    7.27    2.42
  -2  -7   2    7.96    2.53
  -2  -7   2  -15.66   10.56
   2   7  -2    4.45    2.13
   2   7  -2    6.44    2.42
   2   7  -2   11.90    2.75
   2   7  -2    2.50   13.96
  -2  -7   1   19.85    4.70
  -2  -7   1   22.10    4.20
  -2  -7   1   27.67    3.18
  -2  -7   1   34.14    5.28
  -2  -7   1   25.42    4.56
  -2  -7   1   18.55   15.37
   2   7  -1   32.98    5.86
   2   7  -1   27.52    5.06
   2   7  -1   41.19    5.82
   2   7  -1   21.08   13.13
  -2  -7   0   26.04    4.67
  -2  -7   0   34.47    3.44
  -2  -7   0   34.97    6.04
  -2  -7   0   30.13    5.28
  -2  -7   0   22.21   15.55
   2   7   0   41.77    7.02
   2   7   0   40.47    6.40
   2   7   0   37.68    5.28
   2   7   0   21.92   14.83
  -2  -7  -1    7.02    2.78
  -2  -7  -1    7.67    2.42
  -2  -7  -1   53.52   24.48
   2   7   1    5.82    3.18
   2   7   1    7.02    2.64
   2   7   1   -4.81   12.37
  -2  -7  -2  141.77   11.39
  -2  -7  -2  129.54    9.08
  -2  -7  -2  105.85   27.77
   2   7   2  101.44    9.69
   2   7   2  143.18   11.03
   2   7   2  126.54    8.72
   2   7   2  149.79   36.35
  -2  -7  -3   12.26    4.12
  -2  -7  -3    9.51    3.98
  -2  -7  -3   60.65   21.48
   2   7   3    4.09    2.24
   2   7   3    1.48    2.46
   2   7   3    9.95    3.91
  -2  -8  10   55.37    9.01
  -2  -8  10   78.88    7.96
  -2  -8  10   46.80   21.48
  -2  -8  10   61.70   23.65
   2   8 -10   58.98    8.14
  -2  -8   9   47.77    7.63
  -2  -8   9   29.62    5.42
  -2  -8   9   41.16    6.47
  -2  -8   9   56.24   21.95
  -2  -8   9   55.87   21.63
   2   8  -9   55.04    7.96
  -2  -8   8    4.20    2.64
  -2  -8   8    2.86    2.06
  -2  -8   8   18.95   12.33
  -2  -8   8   -2.39   11.32
   2   8  -8    8.61    3.15
  -2  -8   7    9.15    3.51
  -2  -8   7    3.94    2.35
  -2  -8   7   -0.04    1.70
  -2  -8   7  -17.94   10.74
  -2  -8   7    6.87   14.36
   2   8  -7    7.78    2.86
   2   8  -7    7.81    1.63
  -2  -8   6    6.94    2.97
  -2  -8   6    3.80    2.03
  -2  -8   6    1.37    2.50
  -2  -8   6   -0.25   11.90
   2   8  -6    0.83    1.99
   2   8  -6    4.99    1.92
   2   8  -6    8.90    3.04
  -2  -8   5  518.89   19.75
  -2  -8   5  412.06   17.87
  -2  -8   5   83.69    7.56
  -2  -8   5  546.05   19.42
  -2  -8   5  466.42   45.71
   2   8  -5  459.66   18.52
   2   8  -5  494.19   13.56
   2   8  -5  517.84   17.61
  -2  -8   4   55.77    7.70
  -2  -8   4   49.62    7.56
  -2  -8   4   64.77    5.42
  -2  -8   4   61.59    6.44
  -2  -8   4   46.33   19.42
   2   8  -4   51.72    6.40
   2   8  -4   48.46    4.88
   2   8  -4   73.78    6.40
   2   8  -4   41.30   16.85
  -2  -8   3   64.16    7.09
  -2  -8   3   66.15    5.21
  -2  -8   3   73.60    6.08
  -2  -8   3   70.52    6.73
  -2  -8   3   69.04   18.66
   2   8  -3   79.92    7.92
   2   8  -3   75.77    6.33
   2   8  -3   75.26    4.48
   2   8  -3   83.32    6.69
   2   8  -3   54.39   19.35
  -2  -8   2    3.00    1.92
  -2  -8   2    1.95    1.37
  -2  -8   2    2.93    1.88
  -2  -8   2   -0.40    0.90
  -2  -8   2   10.74   17.11
   2   8  -2   -3.07    1.08
   2   8  -2    2.60    1.41
   2   8  -2    1.88    2.06
   2   8  -2   14.07   12.37
  -2  -8   1   69.73    7.99
  -2  -8   1   90.30    5.28
  -2  -8   1   99.49    8.03
  -2  -8   1   81.80   23.25
   2   8  -1   94.21    9.08
   2   8  -1   94.10    7.81
   2   8  -1   83.65   27.38
  -2  -8   0   34.68    6.08
  -2  -8   0   52.98    8.10
  -2  -8   0   19.38   20.61
   2   8   0   69.69    8.03
   2   8   0   62.24    6.98
   2   8   0   68.86    6.76
   2   8   0   86.40   23.04
  -2  -8  -1    0.22    2.21
  -2  -8  -1    2.60    2.03
  -2  -8  -1   -3.00   21.19
   2   8   1    1.66    1.81
   2   8   1    1.27    1.77
   2   8   1   -0.87    1.99
   2   8   1    5.50   22.28
  -2  -9   9   -0.36    1.84
  -2  -9   9   -6.87   11.50
  -2  -9   9  -11.68   20.58
   2   9  -9    9.55    3.07
  -2  -9   8    8.14    3.33
  -2  -9   8  -24.30   17.97
  -2  -9   8   33.92   20.29
   2   9  -8   10.56    3.36
  -2  -9   7   65.57    7.63
  -2  -9   7   92.37   28.50
   2   9  -7   73.56    8.17
  -2  -9   6  112.47    9.87
  -2  -9   6  137.14   10.56
  -2  -9   6  144.15   30.85
  -2  -9   6   96.05   30.96
   2   9  -6  133.05   10.67
   2   9  -6  139.05    9.04
  -2  -9   5  145.93   11.25
  -2  -9   5  143.03    8.57
  -2  -9   5  143.90   10.52
  -2  -9   5  180.32   37.32
   2   9  -5  127.95   10.42
   2   9  -5  160.61    8.21
   2   9  -5   -0.65    1.95
  -2  -9   4   -0.94    1.30
  -2  -9   4    0.90    1.37
  -2  -9   4   -1.16    1.52
  -2  -9   4   16.06   14.18
   2   9  -4   -3.00    1.81
   2   9  -4    1.84    1.70
   2   9  -4   -2.97    2.42
   2   9  -4  -50.78   17.14
  -2  -9   3   71.97    8.06
  -2  -9   3   79.96    5.61
  -2  -9   3   97.97    7.56
  -2  -9   3   96.78    8.46
  -2  -9   3   45.28   16.82
   2   9  -3   84.66    8.93
   2   9  -3   93.16    7.34
   2   9  -3   84.30    4.95
   2   9  -3   88.60    7.59
   2   9  -3   49.29   25.97
  -2  -9   2    0.98    2.13
  -2  -9   2  -11.83   13.45
   2   9  -2    0.40    2.21
   2   9  -2    5.46    2.57
   2   9  -2    3.72    2.50
   2   9  -2  -11.79   23.25
  -3  11  -2    2.86    3.47
  -3  11  -2    5.64    2.24
  -3  11  -2    3.22   23.87
   3 -11   2    4.63    2.24
   3 -11   2    3.07    2.93
   3 -11   2   -2.31    2.82
   3 -11   2    1.23    2.10
   3 -11   2  -75.51   26.18
  -3  11  -3   12.55    3.98
  -3  11  -3   14.36    4.52
  -3  11  -3   21.99    3.80
   3 -11   3   18.70    4.59
   3 -11   3   11.57    3.65
   3 -11   3   20.90    3.69
   3 -11   3   29.29    6.40
   3 -11   3   46.18   20.29
  -3  11  -4   -0.36    2.06
  -3  11  -4    0.33    1.84
  -3  11  -4   -0.36    1.34
  -3  11  -4  -17.43   11.90
   3 -11   4    2.93    1.92
   3 -11   4    0.00    1.30
   3 -11   4    2.28    2.17
   3 -11   4  -16.13    9.98
  -3  11  -5   69.00    6.37
  -3  11  -5   72.73   10.52
   3 -11   5   64.70    6.84
   3 -11   5   62.85    6.33
   3 -11   5   60.25    4.81
   3 -11   5   75.22    8.32
   3 -11   5   71.06   21.26
  -3  11  -6  108.13    7.59
  -3  11  -6  123.76   11.25
   3 -11   6  105.75    8.21
   3 -11   6  107.19    7.74
   3 -11   6  108.68    7.27
   3 -11   6  112.29   10.78
   3 -11   6   28.61   19.46
  -3  10   1   38.62    6.08
  -3  10   1   48.14    7.56
  -3  10   1   33.49    6.04
  -3  10   1   14.14   20.29
   3 -10  -1   39.53    6.87
   3 -10  -1   32.77    6.29
   3 -10  -1   45.86    8.43
   3 -10  -1   36.56   27.09
  -3  10   0  125.28    9.62
  -3  10   0  144.88   11.10
  -3  10   0  145.20    9.26
  -3  10   0   88.93   25.10
   3 -10   0  114.53    9.62
   3 -10   0   96.67    9.11
   3 -10   0  143.07   11.54
   3 -10   0   90.81   26.36
  -3  10  -1   49.11    6.08
  -3  10  -1   58.84    8.97
  -3  10  -1   55.51    5.46
  -3  10  -1   -7.67   12.01
   3 -10   1   48.28    5.93
   3 -10   1   48.61    7.20
   3 -10   1   44.95    5.35
   3 -10   1   64.63    7.81
   3 -10   1   83.47   22.24
  -3  10  -2   13.49    3.07
  -3  10  -2    6.87    3.58
  -3  10  -2   16.31    3.36
  -3  10  -2   14.61   12.80
   3 -10   2   12.51    3.76
   3 -10   2    7.23    3.40
   3 -10   2   15.66    3.33
   3 -10   2   19.64    5.21
  -3  10  -3  117.28    7.88
  -3  10  -3  151.86   11.57
  -3  10  -3  135.91    7.09
  -3  10  -3  180.86   29.33
   3 -10   3  111.28    8.14
   3 -10   3  105.85    9.91
   3 -10   3  108.10    6.37
   3 -10   3  114.21   10.05
   3 -10   3  134.03   24.66
  -3  10  -4    1.52    1.59
  -3  10  -4   -3.65    1.41
  -3  10  -4    0.29    1.16
  -3  10  -4  -14.29    7.56
   3 -10   4    0.43    1.34
   3 -10   4    2.28    1.12
   3 -10   4    1.74    1.16
   3 -10   4   -1.27    1.99
   3 -10   4   16.96   12.73
  -3  10  -5   32.80    4.59
  -3  10  -5   41.26    7.59
   3 -10   5   40.65    4.88
   3 -10   5   30.16    4.95
   3 -10   5   26.29    3.83
   3 -10   5   27.16    5.68
   3 -10   5    9.40    9.37
   3 -10   5   11.54   13.20
  -3  10  -6   36.60    4.23
  -3  10  -6   48.68    7.59
   3 -10   6   57.03    5.39
   3 -10   6   38.05    4.52
   3 -10   6   44.41    4.99
   3 -10   6   61.01    7.41
   3 -10   6   62.60   16.71
   3 -10   6   66.54   18.34
  -3  10  -7   34.57    6.15
   3 -10   7   37.14    4.52
   3 -10   7   32.26    4.92
   3 -10   7   34.28    5.28
   3 -10   7   31.54    3.91
   3 -10   7   23.18    5.39
   3 -10   7   48.32   15.19
   3 -10   7   10.60   12.66
  -3  10  -8   12.95    2.53
  -3  10  -8   18.05    4.34
   3 -10   8   14.72    3.76
   3 -10   8   11.43    3.00
   3 -10   8   14.39    3.36
   3 -10   8   15.26    4.48
   3 -10   8   22.39   13.09
  -3  10  -9    6.18    2.28
  -3  10  -9   15.51    4.59
  -3  10  -9   -2.89    2.31
   3 -10   9    4.56    2.68
   3 -10   9    8.46    2.57
   3 -10   9    7.99    3.04
   3 -10   9   -3.36   11.68
  -3   9   3   15.62    4.27
  -3   9   3   15.33    3.80
  -3   9   3    8.10    2.89
  -3   9   3   26.18   22.71
   3  -9  -3   22.06    4.85
   3  -9  -3   14.83    4.41
   3  -9  -3   40.03   22.93
  -3   9   2  202.13   12.40
  -3   9   2  239.92   13.09
  -3   9   2  214.28   12.40
  -3   9   2  150.12   31.14
   3  -9  -2  204.37   12.84
   3  -9  -2  163.39   12.15
   3  -9  -2  202.88   13.60
   3  -9  -2  181.40   34.28
  -3   9   1   49.80    6.18
  -3   9   1   75.11    7.38
  -3   9   1   76.13    6.98
   3  -9  -1   78.69    7.63
   3  -9  -1   65.71    7.12
   3  -9  -1   65.31    7.70
   3  -9  -1   39.17   17.29
  -3   9   0   65.21    6.33
  -3   9   0   86.11    8.10
  -3   9   0   82.60    6.73
  -3   9   0   33.05   16.64
   3  -9   0   76.63    7.23
   3  -9   0   75.91    7.02
   3  -9   0   66.25    6.62
   3  -9   0   77.39    7.88
   3  -9   0  107.30   23.54
  -3   9  -1  125.75    8.21
  -3   9  -1  152.87   10.60
  -3   9  -1  151.64    8.50
  -3   9  -1  117.90   24.77
   3  -9   1  142.45    9.11
   3  -9   1  128.71    8.72
   3  -9   1  143.39    8.39
   3  -9   1  139.31   10.49
   3  -9   1  174.86   28.35
  -3   9  -2   38.95    4.45
  -3   9  -2   51.39    6.08
  -3   9  -2   45.78    4.41
  -3   9  -2   45.24   13.78
   3  -9   2   37.68    4.56
   3  -9   2   34.97    5.68
   3  -9   2   44.52    4.34
   3  -9   2   37.03    6.55
  -3   9  -3    0.43    1.16
  -3   9  -3    9.84    2.35
  -3   9  -3   12.77    4.01
  -3   9  -3    9.69    2.21
  -3   9  -3   34.75   10.81
   3  -9   3    8.93    2.75
   3  -9   3    8.86    2.78
   3  -9   3    9.01    1.66
   3  -9   3   13.71    3.76
   3  -9   3    6.29    7.56
  -3   9  -4   21.08    3.51
  -3   9  -4   22.89    3.54
  -3   9  -4   18.88    4.09
  -3   9  -4   20.72    3.22
  -3   9  -4   -0.11    7.85
   3  -9   4   25.10    4.27
   3  -9   4   27.02    4.67
   3  -9   4   22.17    2.31
   3  -9   4   26.83    5.79
   3  -9   4   40.43   12.37
  -3   9  -5  158.00    7.31
  -3   9  -5  161.30    7.34
  -3   9  -5  177.68   11.79
   3  -9   5  194.28    9.01
   3  -9   5  162.49    8.28
   3  -9   5  192.83    8.86
   3  -9   5  202.16    6.80
   3  -9   5  182.56   11.61
   3  -9   5   15.84    9.62
   3  -9   5  169.69   24.66
  -3   9  -6   62.10    6.51
  -3   9  -6   64.01    7.12
   3  -9   6   65.46    5.35
   3  -9   6   62.31    5.03
   3  -9   6   51.97    5.32
   3  -9   6   66.76    4.77
   3  -9   6   63.79    7.31
   3  -9   6   48.57   13.71
   3  -9   6   59.45   15.26
  -3   9  -7   14.83    2.50
  -3   9  -7   10.56    2.24
  -3   9  -7    5.21    2.68
  -3   9  -7   11.61    2.71
   3  -9   7   12.77    2.89
   3  -9   7   17.03    3.04
   3  -9   7   12.51    3.33
   3  -9   7   18.15    3.51
   3  -9   7    0.40    7.52
   3  -9   7   10.89    9.11
  -3   9  -8   18.48    2.89
  -3   9  -8   20.98    3.00
  -3   9  -8   26.22    5.61
  -3   9  -8   18.08    3.58
   3  -9   8   21.48    4.05
   3  -9   8   14.47    3.58
   3  -9   8   22.02    4.05
   3  -9   8   22.82   12.26
   3  -9   8    4.20   10.63
  -3   9  -9    1.81    1.41
  -3   9  -9    6.40    1.84
  -3   9  -9    4.27    2.50
   3  -9   9    5.24    2.31
   3  -9   9    2.13    2.28
   3  -9   9    6.08    2.24
   3  -9   9    2.21   10.52
   3  -9   9   24.05   16.24
  -3   9 -10  156.41    6.98
  -3   9 -10  208.71   12.91
   3  -9  10  170.55    9.33
   3  -9  10  151.89    8.50
   3  -9  10  222.74   12.59
   3  -9  10   76.02   20.54
  -3   8   5    5.46    2.71
  -3   8   5    7.09    2.71
  -3   8   5    0.51    2.46
  -3   8   5  -14.79   20.43
   3  -8  -5    7.52    3.36
   3  -8  -5    2.64    2.78
   3  -8  -5   24.05   22.35
  -3   8   4   65.46    7.59
  -3   8   4   61.55    6.22
  -3   8   4   56.53    6.84
  -3   8   4   33.20   21.48
   3  -8  -4   62.89    7.41
   3  -8  -4   57.03    9.08
   3  -8  -4   52.44   24.05
  -3   8   3    4.20    3.04
  -3   8   3    4.48    2.28
  -3   8   3    4.20    2.21
  -3   8   3   -8.35   14.39
   3  -8  -3    5.93    2.97
   3  -8  -3    1.37    2.89
   3  -8  -3    5.86    3.04
  -3   8   2  155.87   10.13
  -3   8   2  167.80   10.09
  -3   8   2  156.70    9.95
  -3   8   2  130.88   28.57
   3  -8  -2  172.98   10.89
   3  -8  -2  145.49   10.05
   3  -8  -2  159.09   10.78
   3  -8  -2  147.44   10.78
   3  -8  -2  131.03   29.47
  -3   8   1   45.03    5.32
  -3   8   1   56.34    6.11
  -3   8   1   55.91    5.71
   3  -8  -1   67.27   10.81
   3  -8  -1   52.01    5.71
   3  -8  -1   39.20    8.43
   3  -8  -1   59.02   18.81
  -3   8   0    0.65    1.45
  -3   8   0   38.44    4.67
  -3   8   0   52.66    5.86
  -3   8   0   43.83    4.70
  -3   8   0   39.09   15.80
   3  -8   0   39.82    4.85
   3  -8   0   42.60    6.73
   3  -8   0   53.99    5.17
   3  -8   0   46.65    5.68
   3  -8   0   63.22   17.76
  -3   8  -1    5.42    2.06
  -3   8  -1    8.14    2.64
  -3   8  -1    7.92    2.86
  -3   8  -1    8.06    2.31
  -3   8  -1   -2.17    7.45
   3  -8   1    7.31    2.21
   3  -8   1    5.50    1.92
   3  -8   1    7.23    2.24
   3  -8   1    8.57    2.93
   3  -8   1   12.91    8.21
  -3   8  -2  482.62   13.34
  -3   8  -2  535.24   14.18
  -3   8  -2  649.85   20.36
  -3   8  -2  619.76   15.19
  -3   8  -2  562.22   37.43
   3  -8   2  512.89   14.79
   3  -8   2  547.32   15.15
   3  -8   2  582.90    9.29
   3  -8   2  576.21   14.00
   3  -8   2  597.66   19.71
   3  -8   2  501.10   39.42
  -3   8  -3   31.79    3.33
  -3   8  -3   33.24    3.44
  -3   8  -3   33.13    5.14
  -3   8  -3   47.09    3.98
  -3   8  -3   32.62    9.84
   3  -8   3   30.45    3.51
   3  -8   3   36.60    3.94
   3  -8   3   38.05    3.18
   3  -8   3   36.24    3.25
   3  -8   3   41.12    6.69
   3  -8   3   41.99   12.08
  -3   8  -4   16.27    2.71
  -3   8  -4    2.71    1.23
  -3   8  -4   14.65    3.83
  -3   8  -4   18.95    3.04
   3  -8   4   13.71    2.78
   3  -8   4   14.29    2.97
   3  -8   4    9.91    2.50
   3  -8   4   14.07    1.99
   3  -8   4   16.42    1.84
   3  -8   4   16.20    4.12
   3  -8   4   21.59    8.50
  -3   8  -5   53.63    3.83
  -3   8  -5   80.54    7.34
   3  -8   5   75.91    4.99
   3  -8   5   58.15    4.56
   3  -8   5   70.27    5.50
   3  -8   5   82.09    4.85
   3  -8   5   67.56    6.73
   3  -8   5   56.92   12.77
   3  -8   5   61.23   13.31
  -3   8  -6   97.10    4.70
  -3   8  -6   93.96    4.67
  -3   8  -6  120.07    8.82
  -3   8  -6   99.89    6.08
   3  -8   6  113.67    6.22
   3  -8   6   96.85    5.68
   3  -8   6  102.02    7.09
   3  -8   6   94.90    4.95
   3  -8   6  126.25    6.87
   3  -8   6  106.14   16.56
   3  -8   6   98.73   16.42
  -3   8  -7   65.06    3.87
  -3   8  -7   71.21    4.09
  -3   8  -7   85.20    7.63
  -3   8  -7   68.21    5.79
   3  -8   7   79.35    5.28
   3  -8   7   68.89    4.81
   3  -8   7   71.35    4.45
   3  -8   7   95.29    6.73
   3  -8   7   69.98   13.71
   3  -8   7   76.71   13.53
  -3   8  -8   90.41    4.67
  -3   8  -8   83.22    4.56
  -3   8  -8   93.92    7.27
   3  -8   8  103.47    6.29
   3  -8   8   88.89    5.68
   3  -8   8   85.06    7.67
   3  -8   8   98.22    5.50
   3  -8   8  119.81    8.10
   3  -8   8   92.98   15.98
   3  -8   8  116.67   17.94
  -3   8  -9   29.76    3.22
  -3   8  -9   43.29    3.65
  -3   8  -9   56.24    6.04
   3  -8   9   36.27    4.92
   3  -8   9   31.75    4.52
   3  -8   9   44.23    3.83
   3  -8   9   47.34    5.42
   3  -8   9   41.73   12.22
   3  -8   9   29.84   11.83
  -3   8 -10    4.38    1.77
  -3   8 -10    4.70    2.82
   3  -8  10    6.91    2.39
   3  -8  10    5.57    1.99
   3  -8  10    5.86    2.17
   3  -8  10    6.84    2.60
   3  -8  10  -13.60    9.80
   3  -8  10   23.40   11.93
  -3   8 -11    9.80    3.54
  -3   8 -11    4.88    3.15
   3  -8  11   18.99    4.16
   3  -8  11    9.76    2.97
   3  -8  11   14.65    3.76
   3  -8  11   11.25   15.33
  -3   7   6   23.76    4.95
  -3   7   6   17.21    3.51
  -3   7   6   25.93    3.83
  -3   7   6  -11.17   18.73
   3  -7  -6   13.09    4.16
   3  -7  -6   12.62    3.72
   3  -7  -6   32.15   21.16
  -3   7   5   -1.52    2.10
  -3   7   5    1.99    1.27
  -3   7   5    2.46    1.23
  -3   7   5    7.38   16.74
   3  -7  -5    1.63    1.77
   3  -7  -5    2.21    2.28
   3  -7  -5   62.13   18.59
  -3   7   4   36.31    6.26
  -3   7   4   30.45    4.99
  -3   7   4   25.06    4.92
  -3   7   4   28.57   21.19
   3  -7  -4   40.72    7.05
   3  -7  -4   27.52    6.08
   3  -7  -4   25.10    4.41
   3  -7  -4   65.31   23.11
  -3   7   3   24.23    5.10
  -3   7   3   21.63    4.12
  -3   7   3   22.60    4.92
  -3   7   3    5.93   10.49
   3  -7  -3   24.59    5.21
   3  -7  -3   16.78    4.27
   3  -7  -3   12.80    3.69
   3  -7  -3   -0.18   10.60
  -3   7   2   77.72    6.73
  -3   7   2   93.81    7.12
  -3   7   2   86.58    6.98
  -3   7   2   81.91   19.53
   3  -7  -2   84.99    7.09
   3  -7  -2   63.65    6.26
   3  -7  -2   83.11    8.35
   3  -7  -2   80.18    7.38
   3  -7  -2   72.55   17.87
  -3   7   1  381.65   14.03
  -3   7   1  452.49   14.68
  -3   7   1  512.38   16.56
  -3   7   1  476.80   15.41
  -3   7   1   62.49   15.73
   3  -7  -1  451.48   15.15
   3  -7  -1  437.70   17.03
   3  -7  -1  478.42   15.33
   3  -7  -1  476.80   17.32
   3  -7  -1  496.47   38.88
  -3   7   0 1524.56   24.59
  -3   7   0 1589.01   25.35
  -3   7   0 1944.51   32.37
  -3   7   0 1730.81   27.45
  -3   7   0 1766.47   67.30
   3  -7   0 1630.46   26.73
   3  -7   0 1605.65   26.29
   3  -7   0 1771.14   27.30
   3  -7   0 1700.18   31.64
   3  -7   0 1835.18   68.86
  -3   7  -1  102.06    5.93
  -3   7  -1  103.03    6.00
  -3   7  -1  126.97    8.39
  -3   7  -1  115.58    6.65
  -3   7  -1  141.44   21.74
   3  -7   1  108.60    6.47
   3  -7   1  105.20    6.33
   3  -7   1  135.94    6.91
   3  -7   1  129.90    8.61
   3  -7   1  123.83   19.78
  -3   7  -2   12.51    2.35
  -3   7  -2    9.11    1.95
  -3   7  -2   10.67    3.07
  -3   7  -2   12.08    2.50
   3  -7   2    8.17    2.17
   3  -7   2    9.26    2.24
   3  -7   2    9.44    1.74
   3  -7   2   10.99    2.35
   3  -7   2   10.13    3.04
   3  -7   2    1.84    6.80
  -3   7  -3    5.64    1.52
  -3   7  -3    0.04    0.51
  -3   7  -3    9.95    3.15
  -3   7  -3    7.34    2.06
  -3   7  -3   11.50    5.50
   3  -7   3    7.45    1.81
   3  -7   3    5.21    1.74
   3  -7   3    2.60    1.34
   3  -7   3    1.41    1.08
   3  -7   3    6.37    2.60
   3  -7   3    7.52    1.27
   3  -7   3    5.50    2.35
   3  -7   3    7.67    5.75
  -3   7  -4  260.93    7.20
  -3   7  -4  256.77    7.20
  -3   7  -4  329.82   13.71
  -3   7  -4  290.69    9.08
   3  -7   4  307.15    9.04
   3  -7   4  246.68    8.14
   3  -7   4  300.17   10.27
   3  -7   4  294.78    6.62
   3  -7   4  317.38   13.38
   3  -7   4  342.70    8.72
   3  -7   4  302.81   12.91
   3  -7   4  320.31   21.88
   3  -7   4  279.16   20.61
  -3   7  -5  767.02   11.57
  -3   7  -5  734.33   11.36
  -3   7  -5  879.89   22.49
   3  -7   5  874.39   14.97
   3  -7   5  712.01   13.60
   3  -7   5  817.14   18.66
   3  -7   5  934.43   23.36
   3  -7   5  769.55   14.57
   3  -7   5  936.74   17.00
   3  -7   5  950.30   36.42
   3  -7   5  780.80   32.98
  -3   7  -6   50.99    3.07
  -3   7  -6   51.25    3.07
  -3   7  -6   72.80    6.73
  -3   7  -6   58.41    4.81
   3  -7   6   57.72    3.98
   3  -7   6   48.89    3.72
   3  -7   6   53.31    5.32
   3  -7   6   64.70    4.38
   3  -7   6   62.53    5.14
   3  -7   6   59.17   11.43
   3  -7   6   60.47   11.46
  -3   7  -7  179.59    5.79
  -3   7  -7  168.71    5.68
  -3   7  -7  210.52   11.14
  -3   7  -7  184.15    9.26
   3  -7   7  189.79    7.56
   3  -7   7  167.73    7.12
   3  -7   7  197.75   10.63
   3  -7   7  187.48    8.25
   3  -7   7  201.66    9.91
   3  -7   7  237.31   19.46
   3  -7   7  162.45   16.35
  -3   7  -8    1.66    1.12
  -3   7  -8    0.07    0.90
  -3   7  -8   -0.94    0.90
  -3   7  -8   -0.22    1.56
  -3   7  -8    1.74    3.18
   3  -7   8    2.31    1.37
   3  -7   8    2.42    1.23
   3  -7   8   -0.07    1.92
   3  -7   8    4.41    1.66
   3  -7   8    3.44    1.84
   3  -7   8    3.18    6.26
   3  -7   8   13.56    6.84
  -3   7  -9  199.41    7.59
  -3   7  -9  199.16    7.27
  -3   7  -9  247.77   12.33
  -3   7  -9  250.19   14.39
   3  -7   9  205.71    9.04
   3  -7   9  190.55    8.64
   3  -7   9  218.94    9.58
   3  -7   9  243.28   12.77
   3  -7   9  218.91   22.86
   3  -7   9  207.80   21.95
  -3   7 -10   -1.70    1.27
  -3   7 -10   40.29    3.98
  -3   7 -10   67.52    6.29
  -3   7 -10   46.40    7.74
   3  -7  10   42.42    5.03
   3  -7  10   48.79    4.74
   3  -7  10   53.78    5.17
   3  -7  10   57.39    6.69
   3  -7  10   46.18   15.37
   3  -7  10   33.34   13.09
  -3   7 -11    4.38    2.03
  -3   7 -11    9.58    2.64
  -3   7 -11    6.69    3.47
   3  -7  11    6.22    2.82
   3  -7  11    3.69    2.03
   3  -7  11    5.28    2.82
   3  -7  11   19.89   15.77
  -3   6   7    8.32    3.00
  -3   6   7    6.22    2.28
  -3   6   7   39.56   26.94
   3  -6  -7   10.31    3.58
   3  -6  -7    5.89    3.29
   3  -6  -7   -6.80   14.18
  -3   6   6   16.74    4.16
  -3   6   6   18.01    3.22
  -3   6   6   18.48    3.33
  -3   6   6   18.23   15.88
   3  -6  -6   20.65    4.88
   3  -6  -6   21.95    4.99
   3  -6  -6   59.35   21.01
  -3   6   5   -0.04    1.12
  -3   6   5   -1.77    1.01
  -3   6   5  -11.10   10.09
   3  -6  -5    0.00    1.84
   3  -6  -5    0.00    1.23
   3  -6  -5    8.93    9.33
  -3   6   4    3.47    1.70
  -3   6   4   -2.21    0.90
  -3   6   4    1.19    0.72
  -3   6   4    4.81    2.24
  -3   6   4   11.14   10.02
   3  -6  -4    1.92    1.16
   3  -6  -4   -1.30    1.27
   3  -6  -4    0.25    1.37
   3  -6  -4    1.56    1.30
  -3   6   3  155.29    9.08
  -3   6   3  150.95   11.46
  -3   6   3  201.76    9.40
  -3   6   3  182.34   10.16
  -3   6   3  186.39   10.96
  -3   6   3  206.57   31.83
   3  -6  -3  169.83    9.76
   3  -6  -3  162.92    9.40
   3  -6  -3  178.44   10.02
   3  -6  -3  197.53   11.10
   3  -6  -3  203.50   30.49
  -3   6   2  591.58   16.31
  -3   6   2  659.72   17.36
  -3   6   2  769.91   18.52
  -3   6   2  694.65   18.66
  -3   6   2  638.02   18.88
  -3   6   2  463.09   66.00
   3  -6  -2  691.65   18.26
   3  -6  -2  646.70   20.29
   3  -6  -2  665.69   18.15
   3  -6  -2  713.17   20.22
   3  -6  -2  780.08   46.80
  -3   6   1 1325.95   22.39
  -3   6   1 1615.45   24.92
  -3   6   1 1756.53   28.10
  -3   6   1 1627.74   26.69
  -3   6   1 1543.91   28.14
  -3   6   1 1608.58   61.84
   3  -6  -1 1559.50   25.28
   3  -6  -1 1496.18   24.52
   3  -6  -1 1737.90   27.16
   3  -6  -1 1655.63   29.55
   3  -6  -1 1587.53   61.30
  -3   6   0   84.84    5.17
  -3   6   0   90.16    5.39
  -3   6   0  108.39    7.05
  -3   6   0   96.67    6.15
  -3   6   0   96.38   16.60
   3  -6   0   99.78    5.97
   3  -6   0   87.77    5.53
   3  -6   0   97.03    5.97
   3  -6   0   94.32    6.91
   3  -6   0   82.46   15.51
  -3   6  -1   10.38    1.99
  -3   6  -1   10.85    2.13
  -3   6  -1   13.49    3.04
  -3   6  -1   13.24    2.60
  -3   6  -1   -4.05    3.80
   3  -6   1   10.81    2.24
   3  -6   1    8.25    1.95
   3  -6   1   10.99    1.66
   3  -6   1   11.10    2.28
   3  -6   1   12.98    3.11
   3  -6   1   -2.50    5.03
  -3   6  -2    6.69    1.52
  -3   6  -2   14.39    3.36
  -3   6  -2   12.19    2.53
  -3   6  -2    4.12    4.59
   3  -6   2   12.51    2.35
   3  -6   2   11.79    2.13
   3  -6   2   11.10    2.06
   3  -6   2   13.49    2.28
   3  -6   2    7.85    2.17
   3  -6   2   13.81    3.40
   3  -6   2   11.25    6.04
  -3   6  -3   20.43    2.82
  -3   6  -3   20.18    1.84
  -3   6  -3   31.35    4.92
  -3   6  -3   22.31    2.60
  -3   6  -3   23.25    6.37
   3  -6   3   20.61    2.17
   3  -6   3   22.96    2.24
   3  -6   3   23.98    3.51
   3  -6   3   25.53    2.31
   3  -6   3   32.40    3.98
   3  -6   3   24.63    2.75
   3  -6   3   29.11    2.31
   3  -6   3   21.92    3.94
   3  -6   3   28.64    6.87
  -3   6  -4   23.18    1.70
  -3   6  -4   24.12    1.66
  -3   6  -4   30.81    4.95
   3  -6   4   24.34    2.21
   3  -6   4   18.01    1.99
   3  -6   4   28.17    4.01
   3  -6   4   23.72    1.95
   3  -6   4   36.56    5.46
   3  -6   4   24.99    3.58
   3  -6   4   23.80    2.57
   3  -6   4   21.66    5.35
   3  -6   4   30.13    6.62
  -3   6  -5  271.06    5.42
  -3   6  -5  247.84    5.21
  -3   6  -5  340.71   13.09
   3  -6   5  316.15    7.85
   3  -6   5  253.15    7.09
   3  -6   5  304.22   11.43
   3  -6   5  283.17    5.64
   3  -6   5  328.92   13.06
   3  -6   5  304.36    9.44
   3  -6   5  314.20   10.27
   3  -6   5  332.14   18.44
   3  -6   5  271.96   16.64
  -3   6  -6   12.15    1.45
  -3   6  -6   11.75    1.41
  -3   6  -6   16.93    3.80
  -3   6  -6   12.26    2.89
  -3   6  -6   11.46    2.75
   3  -6   6   15.70    2.50
   3  -6   6   14.29    2.31
   3  -6   6   12.26    3.36
   3  -6   6   21.70    4.48
   3  -6   6   18.15    3.11
   3  -6   6   13.27    2.86
   3  -6   6    7.70    4.48
   3  -6   6   11.86    5.82
  -3   6  -7  182.27    5.68
  -3   6  -7  174.89    5.57
  -3   6  -7  215.65   10.67
  -3   6  -7  236.41   12.30
  -3   6  -7  187.15    9.58
   3  -6   7  200.90    7.31
   3  -6   7  169.25    6.80
   3  -6   7  197.68   10.63
   3  -6   7  200.57    8.53
   3  -6   7  216.74   10.49
   3  -6   7  193.52   16.96
   3  -6   7  204.08   17.25
  -3   6  -8   36.89    3.04
  -3   6  -8   40.69    3.07
  -3   6  -8   45.86    4.99
  -3   6  -8   57.61    6.62
  -3   6  -8   29.73    4.63
   3  -6   8   46.00    4.05
   3  -6   8   44.16    3.87
   3  -6   8   45.42    5.61
   3  -6   8   46.36    2.75
   3  -6   8   49.47    4.56
   3  -6   8   50.70    5.61
   3  -6   8   40.58   10.38
   3  -6   8   43.98   11.25
  -3   6  -9   18.05    2.78
  -3   6  -9   26.51    4.92
  -3   6  -9   19.96    5.03
   3  -6   9   19.71    3.47
   3  -6   9   17.32    3.40
   3  -6   9   24.63    2.35
   3  -6   9   20.83    3.91
   3  -6   9   23.11    4.99
   3  -6   9   18.81    4.16
   3  -6   9   22.06   11.03
  -3   6 -10  217.64   10.81
  -3   6 -10  232.36   14.14
   3  -6  10  172.80    9.11
   3  -6  10  185.42    9.29
   3  -6  10  203.61   10.52
   3  -6  10  243.79   14.03
   3  -6  10  208.35   24.34
  -3   6 -11  203.72    9.11
  -3   6 -11  304.44   17.25
   3  -6  11  240.32   11.65
   3  -6  11  215.14   10.81
   3  -6  11  228.74   12.30
   3  -6  11  303.24   16.64
  -3   5   8   -1.34    1.95
  -3   5   8    4.09    1.84
  -3   5   8   19.82   16.20
   3  -5  -8   -2.53    1.77
   3  -5  -8    2.35    1.74
   3  -5  -8   39.38   13.74
  -3   5   7    8.93    3.76
  -3   5   7    8.97    2.13
  -3   5   7   13.13    3.33
  -3   5   7   -1.34   11.72
   3  -5  -7    7.74    3.11
   3  -5  -7    6.15    2.78
   3  -5  -7   -2.82   14.03
  -3   5   6    4.81    2.17
  -3   5   6    9.11    2.28
  -3   5   6   12.30    2.75
  -3   5   6    9.11   14.25
   3  -5  -6    8.90    3.29
   3  -5  -6    8.97    3.29
   3  -5  -6    5.68    2.68
   3  -5  -6    0.80   13.27
  -3   5   5   68.60    6.65
  -3   5   5   69.58    4.77
  -3   5   5   65.35    4.63
  -3   5   5   63.94    6.58
  -3   5   5   18.88   13.67
   3  -5  -5   74.50    6.84
   3  -5  -5   63.22    6.37
   3  -5  -5   56.56    6.47
   3  -5  -5   54.83    6.26
   3  -5  -5   46.69   26.47
  -3   5   4  506.96   16.46
  -3   5   4  511.33   16.56
  -3   5   4  494.52    8.28
  -3   5   4  583.99   11.68
  -3   5   4  532.74   41.55
   3  -5  -4  536.40   17.18
   3  -5  -4  477.23   16.06
   3  -5  -4  509.16   16.96
   3  -5  -4  506.81   17.40
   3  -5  -4  639.14   45.10
  -3   5   3  810.09   18.95
  -3   5   3  943.47   20.69
  -3   5   3 1009.29   20.36
  -3   5   3  915.55   21.45
  -3   5   3 1094.35   13.06
  -3   5   3  915.04   21.77
  -3   5   3  887.77   49.69
   3  -5  -3  972.98   21.45
   3  -5  -3  845.24   21.30
   3  -5  -3 1007.23   22.31
   3  -5  -3  982.96   22.89
   3  -5  -3 1013.81   52.76
  -3   5   2  492.49   13.49
  -3   5   2  544.90   14.36
  -3   5   2  592.09   14.83
  -3   5   2  588.04   16.06
  -3   5   2  541.60   15.91
   3  -5  -2  541.10   14.61
   3  -5  -2  512.49   14.07
   3  -5  -2  561.75   15.48
   3  -5  -2  571.26   16.56
   3  -5  -2  613.68   37.36
  -3   5   1   90.48    5.21
  -3   5   1  104.37    5.64
  -3   5   1  109.58    6.51
  -3   5   1  111.86    3.33
  -3   5   1   99.34    6.26
  -3   5   1   92.04    6.29
  -3   5   1   86.94   14.86
   3  -5  -1  109.22    6.00
   3  -5  -1   99.31    5.68
   3  -5  -1  112.83    6.44
   3  -5  -1   97.68    6.62
   3  -5  -1   91.61   16.02
  -3   5   0  407.14    9.76
  -3   5   0  445.95   10.31
  -3   5   0  505.19   13.96
  -3   5   0  477.30   12.69
  -3   5   0  455.71   13.34
  -3   5   0  458.64   26.07
   3  -5   0  445.80   11.39
   3  -5   0  447.90   10.74
   3  -5   0  467.54    8.10
   3  -5   0  514.05   12.59
   3  -5   0  460.92   13.63
   3  -5   0  508.66   27.77
  -3   5  -1  208.09    6.00
  -3   5  -1    0.14    0.40
  -3   5  -1  255.76   10.05
  -3   5  -1  244.76    8.64
  -3   5  -1  252.76   17.14
   3  -5   1  229.43    6.80
   3  -5   1  226.28    6.76
   3  -5   1  240.35    6.76
   3  -5   1  282.30    8.57
   3  -5   1  238.11   12.22
  -3   5  -2 1135.00   11.07
  -3   5  -2 1252.71   11.68
  -3   5  -2 1500.95   24.52
  -3   5  -2 1351.84   19.53
  -3   5  -2 1349.49   33.27
   3  -5   2 1217.92   13.63
   3  -5   2 1248.34   13.74
   3  -5   2 1335.21   18.08
   3  -5   2 1497.01   23.72
   3  -5   2 1359.18   19.42
   3  -5   2 1454.44   13.85
   3  -5   2 1277.34   22.71
   3  -5   2 1395.38   33.85
  -3   5  -3  105.71    6.69
  -3   5  -3   94.93    5.17
   3  -5   3   98.48    3.47
   3  -5   3   74.14    3.04
   3  -5   3   93.45    5.35
   3  -5   3  104.62    6.47
   3  -5   3   93.85    5.06
   3  -5   3  101.15    4.59
   3  -5   3   91.93    7.05
   3  -5   3  118.51    8.50
   3  -5   3   90.63    7.56
  -3   5  -4   40.61    4.27
   3  -5   4   39.96    2.28
   3  -5   4   28.61    1.92
   3  -5   4   39.46    3.91
   3  -5   4   33.20    2.39
   3  -5   4   38.62    4.20
   3  -5   4   42.93    3.54
   3  -5   4   42.96    3.54
   3  -5   4   40.22    5.89
   3  -5   4   37.29    5.64
  -3   5  -5  208.02    9.55
  -3   5  -5  226.50   10.45
   3  -5   5  204.48    5.68
   3  -5   5  167.30    5.17
   3  -5   5  200.06    9.26
   3  -5   5  201.11    5.86
   3  -5   5  232.00   10.49
   3  -5   5  190.23    7.74
   3  -5   5  210.70    8.82
   3  -5   5  227.37   13.20
   3  -5   5  163.79   11.28
  -3   5  -6   19.85    1.77
  -3   5  -6   20.54    1.74
  -3   5  -6   24.52    4.01
  -3   5  -6   21.26    4.23
   3  -5   6   21.12    2.28
   3  -5   6   18.77    2.10
   3  -5   6   19.78    3.62
   3  -5   6   20.51    2.06
   3  -5   6   30.38    5.21
   3  -5   6   20.83    3.58
   3  -5   6   29.33    4.77
   3  -5   6   19.64    6.04
   3  -5   6   22.06    5.89
  -3   5  -7   89.94    4.77
  -3   5  -7  120.75    7.52
  -3   5  -7  100.57    7.81
  -3   5  -7   99.45   12.26
   3  -5   7  102.89    5.32
   3  -5   7   91.39    4.99
   3  -5   7  112.69    8.25
   3  -5   7  100.72    4.88
   3  -5   7  123.07    9.01
   3  -5   7  101.70    6.44
   3  -5   7  116.16    7.92
   3  -5   7   95.51   14.76
  -3   5  -8   65.49    4.23
  -3   5  -8   93.88    6.69
  -3   5  -8   81.26    7.45
  -3   5  -8   96.27   15.55
   3  -5   8   79.49    5.28
   3  -5   8   76.60    5.10
   3  -5   8   79.49    7.56
   3  -5   8   78.62    4.81
   3  -5   8   74.57    5.97
   3  -5   8   87.52    7.45
   3  -5   8   67.56    6.08
   3  -5   8   98.84   16.46
  -3   5  -9  299.05    9.87
  -3   5  -9  420.99   13.71
  -3   5  -9  528.26   13.20
  -3   5  -9  630.39   22.02
  -3   5  -9  559.07   35.91
   3  -5   9  491.34   14.32
   3  -5   9  467.97   14.03
   3  -5   9  556.65   13.71
   3  -5   9  517.59   16.64
   3  -5   9  597.55   20.76
   3  -5   9  463.85   16.64
   3  -5   9   54.68   15.59
  -3   5 -10   96.13    6.15
  -3   5 -10   92.84    6.15
  -3   5 -10   98.59    9.22
  -3   5 -10   75.62   16.89
   3  -5  10   79.16    6.44
   3  -5  10   73.70    6.11
   3  -5  10  101.01    6.44
   3  -5  10   83.97    7.59
   3  -5  10   88.06    8.64
   3  -5  10   65.24   19.17
  -3   5 -11   -0.72    1.52
  -3   5 -11    4.30    2.24
  -3   5 -11    3.36    2.06
   3  -5  11    3.11    2.24
   3  -5  11   -0.54    1.45
   3  -5  11   -0.43    1.48
   3  -5  11    1.30    1.74
  -3   4   9    2.03    2.60
  -3   4   9    8.50    2.64
  -3   4   9   -6.87   19.02
   3  -4  -9   10.67    3.65
   3  -4  -9    1.84    1.81
   3  -4  -9  -18.52   17.97
  -3   4   8    3.18    1.99
  -3   4   8    2.13    1.52
  -3   4   8    6.00   15.59
   3  -4  -8    5.17    2.71
   3  -4  -8    0.94    2.06
   3  -4  -8   -2.64    1.27
   3  -4  -8  -22.28   14.39
  -3   4   7    4.20    2.13
  -3   4   7   10.96    2.82
  -3   4   7   -1.66    5.82
   3  -4  -7    4.20    2.28
   3  -4  -7    6.04    2.93
   3  -4  -7    1.99    1.92
   3  -4  -7    2.89    2.03
   3  -4  -7    4.70    9.37
  -3   4   6    2.97    1.92
  -3   4   6    0.47    1.37
  -3   4   6    3.44    1.48
  -3   4   6    2.57    1.92
  -3   4   6  -14.86    7.27
   3  -4  -6    1.45    1.56
   3  -4  -6    3.22    1.81
   3  -4  -6    0.11    1.27
   3  -4  -6    0.94    1.27
   3  -4  -6  -13.24    5.71
  -3   4   5   28.71    4.88
  -3   4   5   33.45    5.57
  -3   4   5   36.63    3.18
  -3   4   5   33.24    3.40
  -3   4   5   24.70    4.23
   3  -4  -5   19.17    3.80
   3  -4  -5   13.89    3.00
   3  -4  -5   36.38    5.35
   3  -4  -5   35.44    6.15
   3  -4  -5   38.91   13.13
  -3   4   4  136.88    7.85
  -3   4   4  147.48    8.32
  -3   4   4  169.14    6.94
  -3   4   4  195.87    6.94
  -3   4   4  146.11    8.61
  -3   4   4  183.57   22.64
   3  -4  -4  172.14    9.08
   3  -4  -4  138.11    8.10
   3  -4  -4  158.87    8.93
   3  -4  -4  158.29    6.26
   3  -4  -4  165.89    9.22
   3  -4  -4  215.65   24.70
  -3   4   3  211.64    8.90
  -3   4   3  218.51    9.15
  -3   4   3  264.11    8.86
  -3   4   3  231.24    6.22
  -3   4   3  228.81   10.05
  -3   4   3  257.42    6.76
  -3   4   3  215.54    9.73
  -3   4   3  259.37   24.05
   3  -4  -3  220.86    9.40
   3  -4  -3  206.50    8.97
   3  -4  -3  245.16   10.27
   3  -4  -3  231.20    6.40
   3  -4  -3  226.93   10.16
   3  -4  -3  237.96   23.54
  -3   4   2  409.06   11.14
  -3   4   2  453.15   11.83
  -3   4   2  508.04   12.48
  -3   4   2  460.02    8.21
  -3   4   2  457.59   13.24
  -3   4   2  532.93    7.85
  -3   4   2  446.02   13.13
  -3   4   2   -0.40    2.31
   3  -4  -2  480.59   12.44
   3  -4  -2  428.12   11.65
   3  -4  -2  494.05   13.45
   3  -4  -2  492.93    7.52
   3  -4  -2  476.76   13.78
   3  -4  -2  483.16   30.41
  -3   4   1   74.75    4.23
  -3   4   1   84.26    5.24
  -3   4   1   78.22    3.47
  -3   4   1   68.17    4.92
  -3   4   1   55.95   10.78
   3  -4  -1   76.67    4.48
   3  -4  -1   66.58    4.16
   3  -4  -1   79.16    5.03
   3  -4  -1   91.97    5.39
   3  -4  -1   72.19    5.14
   3  -4  -1   75.01   13.02
  -3   4   0 1051.38   13.13
  -3   4   0 1048.42   13.16
  -3   4   0 1347.83   20.94
  -3   4   0 1266.24   14.83
  -3   4   0 1237.52   19.20
  -3   4   0 1198.86   19.31
  -3   4   0 1249.60   36.45
   3  -4   0 1182.81   14.83
   3  -4   0 1128.99   14.39
   3  -4   0 1263.96   20.07
   3  -4   0 1193.62   14.32
   3  -4   0 1169.79   18.52
   3  -4   0 1198.76   19.53
   3  -4   0 1351.41   38.08
  -3   4  -1  402.66    5.97
  -3   4  -1  452.46    6.37
  -3   4  -1  546.60   13.53
  -3   4  -1  463.20    9.95
  -3   4  -1  473.07   11.43
   3  -4   1  467.14    7.56
   3  -4   1  446.49    7.38
   3  -4   1  489.13   12.66
   3  -4   1  476.29   10.02
   3  -4   1  559.36   12.87
   3  -4   1  479.33   11.39
   3  -4   1  486.74    7.49
   3  -4   1  473.07   11.83
   3  -4   1  514.81   18.59
  -3   4  -2   22.42    3.58
  -3   4  -2   18.34    2.28
   3  -4   2   18.05    1.16
   3  -4   2   17.76    2.86
   3  -4   2   21.16    3.22
   3  -4   2   17.54    2.60
   3  -4   2   20.18    1.95
   3  -4   2   21.34    2.57
   3  -4   2   14.61    2.28
   3  -4   2   13.20    2.24
  -3   4  -3  228.96    9.55
  -3   4  -3  210.95    8.64
   3  -4   3  204.08    8.46
   3  -4   3  196.48    7.85
   3  -4   3  215.87    6.47
   3  -4   3  228.56    9.33
   3  -4   3  201.37    7.49
   3  -4   3  202.27    7.02
  -3   4  -4    9.37    2.50
  -3   4  -4    5.97    1.88
   3  -4   4    7.05    1.08
   3  -4   4    6.47    1.01
   3  -4   4    7.78    2.17
   3  -4   4    4.38    1.52
   3  -4   4    6.11    1.37
   3  -4   4    7.34    1.95
   3  -4   4    4.34    1.41
   3  -4   4    8.61    2.24
   3  -4   4    6.26    2.13
   3  -4   4    7.12    2.24
  -3   4  -5    0.40    0.43
  -3   4  -5    0.00    0.80
  -3   4  -5    1.08    0.90
  -3   4  -5   -2.82    1.95
   3  -4   5    1.59    0.69
   3  -4   5    1.56    0.69
   3  -4   5    3.65    1.48
   3  -4   5   -0.29    0.90
   3  -4   5    0.83    0.80
   3  -4   5    2.42    1.41
   3  -4   5    1.23    0.94
   3  -4   5    2.97    1.37
   3  -4   5    1.23    2.39
  -3   4  -6  446.27    8.68
  -3   4  -6  374.02    7.92
  -3   4  -6  451.16   13.31
  -3   4  -6  467.97   11.17
  -3   4  -6  498.24   16.02
  -3   4  -6  539.76   28.35
   3  -4   6  414.85    9.73
   3  -4   6  420.60    9.84
   3  -4   6  410.25   12.55
   3  -4   6  402.23   14.25
   3  -4   6  420.27   10.67
   3  -4   6  501.03   15.91
   3  -4   6  420.38   12.91
   3  -4   6  443.16   14.43
   3  -4   6  490.07   24.59
  -3   4  -7  210.84    7.09
  -3   4  -7  270.01   12.66
  -3   4  -7  249.57   20.29
   3  -4   7  218.83    8.14
   3  -4   7  225.09    8.28
   3  -4   7  229.07   11.57
   3  -4   7  247.69    8.93
   3  -4   7  264.55   12.37
   3  -4   7  258.33   12.01
   3  -4   7  215.25    9.73
   3  -4   7  220.57   19.78
  -3   4  -8   18.34    2.97
  -3   4  -8   11.83    2.39
  -3   4  -8   17.94    3.15
  -3   4  -8   12.04    3.29
  -3   4  -8   17.14    8.43
   3  -4   8   11.90    2.75
   3  -4   8   10.45    2.50
   3  -4   8   13.16    2.97
   3  -4   8   14.03    3.54
   3  -4   8   10.34    2.68
  -3   4  -9   12.19    2.71
  -3   4  -9    7.70    2.35
  -3   4  -9   15.01    3.22
  -3   4  -9    8.75    2.89
  -3   4  -9   -0.65    7.63
   3  -4   9   11.46    2.78
   3  -4   9    8.61    2.39
   3  -4   9    8.82    2.57
   3  -4   9    4.88    2.71
  -3   4 -10  109.47    7.27
  -3   4 -10   99.71    7.12
  -3   4 -10   96.49    9.29
  -3   4 -10   78.01   19.06
   3  -4  10   79.31    7.02
   3  -4  10   85.17    6.94
   3  -4  10   98.55    7.20
   3  -4  10  106.79    9.62
   3  -4  10   69.36    7.20
   3  -4  10   54.65   16.71
  -3   4 -11   30.23    4.99
  -3   4 -11   40.58    5.97
  -3   4 -11   40.32    7.81
   3  -4  11   28.35    5.46
   3  -4  11   37.54    6.18
   3  -4  11   32.08    5.61
   3  -4  11   33.56    7.31
  -3   3  10    6.44    2.24
  -3   3  10    6.84    2.78
  -3   3  10   20.36   23.04
   3  -3 -10    0.58    1.81
   3  -3 -10    0.69    2.17
   3  -3 -10  -21.16   21.99
  -3   3   9   -0.04    2.06
  -3   3   9    4.52    2.17
  -3   3   9  -16.13   14.00
   3  -3  -9    1.88    1.77
   3  -3  -9    4.81    2.21
   3  -3  -9    0.69    1.41
   3  -3  -9  -27.52   16.35
  -3   3   8  167.19   11.25
  -3   3   8  201.40   10.60
  -3   3   8  127.52   28.68
   3  -3  -8  184.66   12.40
   3  -3  -8  138.15   12.66
   3  -3  -8  164.30   10.02
   3  -3  -8  138.95   10.27
   3  -3  -8  175.94   34.90
  -3   3   7  111.35    8.50
  -3   3   7  111.46    8.68
  -3   3   7  138.22    8.06
  -3   3   7   17.68    4.41
  -3   3   7  120.68   26.07
   3  -3  -7  130.59    9.29
   3  -3  -7  118.30    8.90
   3  -3  -7  109.00    7.12
   3  -3  -7  106.79    8.32
   3  -3  -7  151.68   29.51
  -3   3   6   12.04    3.29
  -3   3   6   16.42    4.01
  -3   3   6   15.12    2.89
  -3   3   6   10.13    2.68
  -3   3   6    8.10    8.57
   3  -3  -6   26.26    5.89
   3  -3  -6    9.15    2.75
   3  -3  -6   18.37    3.54
   3  -3  -6   17.58    3.58
   3  -3  -6   10.49    3.33
   3  -3  -6    6.94    7.31
  -3   3   5  197.42    9.66
  -3   3   5  267.33    9.33
  -3   3   5  207.80   10.16
  -3   3   5  244.87   25.71
   3  -3  -5  245.27   10.96
   3  -3  -5  199.88    9.76
   3  -3  -5  239.52   10.92
   3  -3  -5  225.85   10.74
   3  -3  -5  277.28   28.57
  -3   3   4  153.34    7.81
  -3   3   4  164.30    8.14
  -3   3   4  157.17    8.32
  -3   3   4  183.90    6.87
  -3   3   4  148.78    7.99
  -3   3   4  154.97   23.18
   3  -3  -4  171.89    8.43
   3  -3  -4  148.13    7.70
   3  -3  -4  171.60    8.61
   3  -3  -4  180.68    6.80
   3  -3  -4  150.55    8.17
   3  -3  -4  179.92   20.94
  -3   3   3  153.99    7.02
  -3   3   3  170.77    7.49
  -3   3   3  193.05    6.94
  -3   3   3  168.13    8.03
  -3   3   3  201.76    6.33
  -3   3   3  160.10    7.70
  -3   3   3  164.19   18.01
   3  -3  -3  163.21    8.06
   3  -3  -3  163.68    7.34
   3  -3  -3  184.44    6.73
   3  -3  -3  191.82    8.46
   3  -3  -3  181.22    6.00
   3  -3  -3  193.55   19.71
  -3   3   2  634.48   12.66
  -3   3   2  659.90   12.91
  -3   3   2  754.47   14.00
  -3   3   2  669.59   11.10
  -3   3   2  663.08   14.86
  -3   3   2  751.04   10.60
  -3   3   2  658.45   14.47
   3  -3  -2  718.74   13.74
   3  -3  -2  673.21   13.20
   3  -3  -2  761.67   13.92
   3  -3  -2  788.21   10.85
   3  -3  -2  681.31   14.83
   3  -3  -2  804.45   35.37
  -3   3   1 1699.86   17.43
  -3   3   1 1775.66   17.90
  -3   3   1 2076.33   23.65
  -3   3   1 1875.29   18.48
  -3   3   1 1817.07   23.11
  -3   3   1 1765.86   21.81
  -3   3   1 1934.06   46.72
   3  -3  -1 1911.71   19.24
   3  -3  -1 1785.28   18.48
   3  -3  -1 2028.20   23.18
   3  -3  -1 1756.82   22.49
   3  -3  -1 2164.39   16.24
   3  -3  -1 1837.64   22.46
   3  -3  -1 2198.14   49.94
  -3   3   0  315.57    5.79
  -3   3   0  343.93    8.28
  -3   3   0  348.09    9.69
  -3   3   0  317.89    8.64
  -3   3   0  358.18   16.09
   3  -3   0  371.09    6.84
   3  -3   0  324.15    6.47
   3  -3   0  355.50    9.91
   3  -3   0  332.28    8.10
   3  -3   0  331.41    9.37
   3  -3   0  345.52    9.08
   3  -3   0  413.76   17.29
  -3   3  -1  207.91    7.81
  -3   3  -1  192.00    6.69
  -3   3  -1  199.63    7.23
  -3   3  -1  178.76    6.47
   3  -3   1  206.32    3.44
   3  -3   1  181.62    3.22
   3  -3   1  201.15    7.59
   3  -3   1  189.61    6.62
   3  -3   1  216.74    7.12
   3  -3   1  184.01    6.91
   3  -3   1  188.35    6.37
   3  -3   1  219.38    7.23
  -3   3  -2  673.14   14.25
  -3   3  -2  603.34   12.91
  -3   3  -2  672.23   13.45
  -3   3  -2  603.52   12.80
   3  -3   2  646.45   13.85
   3  -3   2  606.34   12.84
   3  -3   2  641.60   11.72
   3  -3   2  696.75   13.56
   3  -3   2  609.05   12.73
   3  -3   2  617.88   11.57
   3  -3   2  610.97   11.32
  -3   3  -3    1.08    0.90
  -3   3  -3    0.98    0.80
   3  -3   3    1.41    0.43
   3  -3   3    1.59    0.98
   3  -3   3    1.08    1.05
   3  -3   3    1.19    0.65
   3  -3   3    1.99    1.01
   3  -3   3    1.63    0.98
   3  -3   3    2.39    1.05
   3  -3   3    0.83    0.80
  -3   3  -4 1803.47   11.97
  -3   3  -4 1547.89   11.07
  -3   3  -4 1851.28   24.59
  -3   3  -4 1913.73   26.80
  -3   3  -4 1992.68   36.74
   3  -3   4 1557.44   14.25
   3  -3   4 1637.76   14.72
   3  -3   4 1796.74   24.01
   3  -3   4 1680.00   25.17
   3  -3   4 1688.43   20.65
   3  -3   4 1926.21   26.44
   3  -3   4 1675.99   24.38
   3  -3   4 1753.96   24.59
   3  -3   4 1657.40   33.60
  -3   3  -5  116.96    4.30
  -3   3  -5   94.61    3.91
  -3   3  -5  110.99    5.68
  -3   3  -5  118.22    7.27
  -3   3  -5   99.67   10.56
   3  -3   5   86.87    4.20
   3  -3   5   96.70    4.45
   3  -3   5   99.89    6.65
   3  -3   5  102.06    5.50
   3  -3   5  119.27    7.20
   3  -3   5   97.79    6.44
   3  -3   5  101.44   10.67
  -3   3  -6    1.77    0.90
  -3   3  -6   31.64    2.89
  -3   3  -6   42.93    3.87
  -3   3  -6   50.85    5.28
  -3   3  -6   26.26    7.49
   3  -3   6   29.00    2.97
   3  -3   6   41.12    3.47
   3  -3   6   44.12    4.05
   3  -3   6   47.34    5.17
   3  -3   6   37.61    3.72
   3  -3   6   46.15    4.99
   3  -3   6   46.33    5.06
   3  -3   6   36.27    3.58
   3  -3   6   24.85    7.96
  -3   3  -7   49.84    3.94
  -3   3  -7   46.47    3.83
  -3   3  -7   45.31    4.34
  -3   3  -7   57.50    5.86
  -3   3  -7   58.01   12.37
   3  -3   7   38.84    3.83
   3  -3   7   41.99    3.94
   3  -3   7   42.17    3.98
   3  -3   7   38.44    5.86
   3  -3   7   46.15    4.56
   3  -3   7   49.73    5.61
   3  -3   7   48.28    5.57
   3  -3   7   41.92    4.23
   3  -3   7   27.41   10.20
  -3   3  -8  636.18   15.41
  -3   3  -8  492.60   14.07
  -3   3  -8  569.85   16.13
  -3   3  -8  667.28   21.30
  -3   3  -8  669.59   40.54
   3  -3   8  513.94   14.76
   3  -3   8  542.29   15.30
   3  -3   8  568.26   14.14
   3  -3   8  598.67   16.67
   3  -3   8  619.25   20.54
   3  -3   8  520.16   15.55
  -3   3  -9  491.88   14.86
  -3   3  -9  447.36   15.41
  -3   3  -9  502.11   19.78
  -3   3  -9  534.88   39.38
   3  -3   9  362.59   13.74
   3  -3   9  442.33   15.37
   3  -3   9  473.33   15.88
   3  -3   9  491.12   19.57
   3  -3   9  409.68   14.83
  -3   3 -10    2.24    1.92
  -3   3 -10    6.37    2.97
  -3   3 -10    0.94    1.70
  -3   3 -10   22.31   11.97
   3  -3  10    9.04    3.04
   3  -3  10    6.94    2.31
   3  -3  10    5.53    2.46
   3  -3  10    3.54    2.60
   3  -3  10    2.31    2.35
   3  -3  10    7.85   13.20
  -3   3 -11   30.99    5.35
  -3   3 -11   21.12    5.50
   3  -3  11   23.90    4.88
   3  -3  11   24.52    4.74
   3  -3  11   33.13    6.15
   3  -3  11   22.82    5.35
  -3   2  11    0.69    2.31
  -3   2  11    0.29    2.42
   3  -2 -11   -1.01    2.57
   3  -2 -11    1.56    2.42
   3  -2 -11   31.14   19.93
  -3   2  10    7.41    3.11
  -3   2  10    9.19    2.89
  -3   2  10   19.28   16.64
   3  -2 -10    4.99    2.68
   3  -2 -10    8.03    3.15
   3  -2 -10    3.00    2.31
   3  -2 -10   -9.66    9.48
  -3   2   9  124.44    9.98
  -3   2   9  151.17    9.73
  -3   2   9  154.35   32.84
   3  -2  -9  164.41   10.52
   3  -2  -9  136.56    9.37
   3  -2  -9  117.03    9.58
   3  -2  -9  160.35   31.21
  -3   2   8   32.62    5.68
  -3   2   8   28.68    5.06
  -3   2   8   42.82    5.14
  -3   2   8   23.98   14.36
   3  -2  -8   41.73    6.91
   3  -2  -8   23.22    4.48
   3  -2  -8    1.81    3.33
   3  -2  -8   31.14    5.39
   3  -2  -8   28.10    4.85
   3  -2  -8   30.09    5.64
   3  -2  -8   18.41   14.32
  -3   2   7    4.63    2.42
  -3   2   7   10.49    3.25
  -3   2   7    6.84    2.24
  -3   2   7   10.09    3.15
  -3   2   7    5.21    6.58
   3  -2  -7    8.43    2.78
   3  -2  -7    8.50    4.20
   3  -2  -7   10.02    3.18
   3  -2  -7    7.02    2.10
   3  -2  -7    5.86    2.28
   3  -2  -7    9.66   10.99
  -3   2   6    1.88    1.45
  -3   2   6   -1.05    0.87
  -3   2   6   -0.40    0.61
  -3   2   6    1.12    1.23
  -3   2   6   -5.35    5.10
   3  -2  -6   -0.87    1.01
   3  -2  -6    0.65    1.23
   3  -2  -6    1.77    1.30
   3  -2  -6   -1.45    0.72
   3  -2  -6   -0.58    0.80
   3  -2  -6   -5.03    3.58
  -3   2   5   11.86    2.53
  -3   2   5   12.59    2.89
  -3   2   5   15.77    2.97
  -3   2   5   11.93    2.93
  -3   2   5   21.30    8.25
   3  -2  -5    5.64    1.84
   3  -2  -5   12.26    3.07
   3  -2  -5   13.85    1.70
   3  -2  -5   18.48    3.54
   3  -2  -5   17.47    3.18
   3  -2  -5   15.95    3.62
   3  -2  -5    9.19    5.93
  -3   2   4   46.25    4.12
  -3   2   4   43.76    4.05
  -3   2   4   54.36    3.87
  -3   2   4   42.75    4.09
  -3   2   4   60.43   13.53
   3  -2  -4   47.88    4.27
   3  -2  -4   51.03    4.41
   3  -2  -4   55.19    3.40
   3  -2  -4   48.71    4.38
   3  -2  -4   42.06    3.44
   3  -2  -4   41.55    4.99
   3  -2  -4   53.42   12.44
  -3   2   3 1317.12   19.31
  -3   2   3 1334.95   21.05
  -3   2   3 1559.25   18.55
  -3   2   3 1316.33   20.14
  -3   2   3 1414.59   49.29
   3  -2  -3 1518.96   21.01
   3  -2  -3 1281.14   19.10
   3  -2  -3 1482.04   17.83
   3  -2  -3 1553.42   18.41
   3  -2  -3 1335.50   20.51
   3  -2  -3 1686.66   53.99
  -3   2   2  578.67   11.10
  -3   2   2  543.23   10.81
  -3   2   2  610.10   11.43
  -3   2   2  591.62   13.13
  -3   2   2  590.21   12.19
  -3   2   2   31.61    7.23
   3  -2  -2  636.25   11.93
   3  -2  -2  556.32   11.07
   3  -2  -2  650.14   12.15
   3  -2  -2  706.15   11.32
   3  -2  -2  598.67   12.40
   3  -2  -2  713.53   31.07
  -3   2   1   51.79    2.78
  -3   2   1   42.82    2.53
  -3   2   1   50.78    3.29
  -3   2   1   51.43    3.72
  -3   2   1   41.81    2.93
  -3   2   1   55.19    9.04
   3  -2  -1   49.00    2.86
   3  -2  -1   43.07    2.68
   3  -2  -1   46.47    3.40
   3  -2  -1   53.20    3.76
   3  -2  -1   47.67    2.86
   3  -2  -1   43.72    3.04
   3  -2  -1   41.08    7.74
  -3   2   0    7.96    0.94
  -3   2   0    6.98    1.63
  -3   2   0    4.45    1.19
  -3   2   0    7.27    1.30
  -3   2   0    6.26    2.17
   3  -2   0    6.47    1.01
   3  -2   0    6.69    1.34
   3  -2   0    9.04    2.10
   3  -2   0    5.93    1.48
   3  -2   0    7.81    1.45
   3  -2   0    4.81    1.30
   3  -2   0    5.61    1.19
   3  -2   0    7.81    2.68
  -3   2  -1  528.55   11.54
  -3   2  -1  625.36   10.92
  -3   2  -1  535.53   11.79
  -3   2  -1  644.10   14.72
  -3   2  -1  497.16   12.98
   3  -2   1  484.68    5.68
   3  -2   1  521.21    5.93
   3  -2   1  588.73   12.40
   3  -2   1  533.32   11.46
   3  -2   1  582.54   11.54
   3  -2   1  632.45   10.92
   3  -2   1  544.75   11.79
   3  -2   1  536.51    8.57
  -3   2  -2   46.83    3.80
  -3   2  -2   68.32    4.12
  -3   2  -2   48.75    4.74
   3  -2   2   40.40    1.84
   3  -2   2   45.93    1.99
   3  -2   2   55.12    3.94
   3  -2   2   49.87    3.80
   3  -2   2   47.70    3.44
   3  -2   2   52.22    3.58
   3  -2   2   46.58    3.62
   3  -2   2   44.92    4.34
  -3   2  -3  350.40    6.00
  -3   2  -3  316.66    5.68
  -3   2  -3  335.10   10.70
  -3   2  -3  354.49    9.69
  -3   2  -3  402.77   10.99
  -3   2  -3  379.26   16.64
   3  -2   3  283.06    6.18
   3  -2   3  317.31    6.51
   3  -2   3  351.78   10.05
   3  -2   3  332.43   12.62
   3  -2   3  325.41    9.37
   3  -2   3  382.48   10.63
   3  -2   3  352.28   10.56
   3  -2   3  333.95   10.31
   3  -2   3  313.59   15.23
  -3   2  -4  290.66    6.91
  -3   2  -4  329.17   10.02
  -3   2  -4  365.08   12.19
  -3   2  -4  390.33   20.72
   3  -2   4  273.44    7.27
   3  -2   4  314.31    7.85
   3  -2   4  350.00   10.23
   3  -2   4  307.18   10.92
   3  -2   4  314.56    9.87
   3  -2   4  359.19   11.39
   3  -2   4  294.71   13.09
   3  -2   4  304.00    7.92
   3  -2   4  301.04   18.30
  -3   2  -5    1.19    0.72
  -3   2  -5    0.72    0.65
  -3   2  -5    0.51    0.90
  -3   2  -5    0.25    0.65
  -3   2  -5   -0.04    3.54
   3  -2   5    0.58    0.69
   3  -2   5    0.80    0.90
   3  -2   5    0.22    0.72
   3  -2   5   -0.51    0.72
   3  -2   5   -0.47    0.47
   3  -2   5   -1.30    0.58
   3  -2   5    0.18    0.76
   3  -2   5    1.34    0.87
   3  -2   5    0.76    2.97
  -3   2  -6  134.71    6.37
  -3   2  -6  113.27    5.86
  -3   2  -6  122.45    7.09
  -3   2  -6  146.36    8.82
  -3   2  -6  123.11   18.15
   3  -2   6  127.44    6.55
   3  -2   6  120.97    6.47
   3  -2   6  126.94    6.40
   3  -2   6  127.08    8.17
   3  -2   6  132.91    7.52
   3  -2   6  135.08    8.53
   3  -2   6   92.91   20.04
  -3   2  -7  122.63    6.76
  -3   2  -7  115.94    6.62
  -3   2  -7  118.55    7.34
  -3   2  -7  118.87    8.57
  -3   2  -7  124.30   20.58
   3  -2   7   91.71    6.11
   3  -2   7  113.52    6.94
   3  -2   7  117.97    7.67
   3  -2   7  117.17    9.84
   3  -2   7  113.88    7.45
   3  -2   7  132.00    9.08
   3  -2   7  110.19    6.58
  -3   2  -8    4.01    1.95
  -3   2  -8    4.67    2.03
  -3   2  -8   -1.41    1.12
  -3   2  -8    0.18    1.27
  -3   2  -8    3.36    5.89
   3  -2   8    5.75    2.42
   3  -2   8    2.13    1.59
   3  -2   8    4.95    2.17
   3  -2   8    5.03    2.13
   3  -2   8    6.98    3.04
   3  -2   8    3.22    1.74
  -3   2  -9   49.55    5.32
  -3   2  -9    2.21    1.52
  -3   2  -9   60.97    6.87
  -3   2  -9   18.62   10.60
   3  -2   9   40.69    5.68
   3  -2   9   33.42    5.75
   3  -2   9   46.94    5.61
   3  -2   9   54.21    6.51
   3  -2   9   31.83    4.99
   3  -2   9   26.29   14.39
  -3   2 -10   69.87    6.76
  -3   2 -10   42.75    6.91
  -3   2 -10   40.18   19.46
   3  -2  10   41.95    6.65
   3  -2  10   47.30    5.75
   3  -2  10   60.25    6.65
   3  -2  10   58.26    9.29
   3  -2  10   53.49    7.09
   3  -2  10   41.08   16.53
  -3   1  11   73.20    8.35
  -3   1  11   88.06    8.79
   3  -1 -11   75.69    8.32
   3  -1 -11   63.61    7.38
   3  -1 -11   58.44    8.90
   3  -1 -11   60.36   21.66
  -3   1  10   69.94    7.59
  -3   1  10   83.58    7.78
  -3   1  10  109.94   26.69
   3  -1 -10   85.82    8.64
   3  -1 -10   97.21    9.37
   3  -1 -10   70.16    7.67
   3  -1 -10   90.34   25.21
  -3   1   9   18.01    4.92
  -3   1   9   24.38    4.95
  -3   1   9   30.38    5.79
  -3   1   9   26.33   13.27
   3  -1  -9   28.71    5.93
   3  -1  -9   24.38    4.70
   3  -1  -9   23.54    5.28
   3  -1  -9   13.71    5.28
   3  -1  -9   20.79   16.42
  -3   1   8   18.01    4.20
  -3   1   8   12.44    3.33
  -3   1   8   21.37    4.63
  -3   1   8    6.73    6.76
   3  -1  -8   16.31    3.98
   3  -1  -8   19.20    5.61
   3  -1  -8   22.02    3.94
   3  -1  -8    9.80    2.82
   3  -1  -8    9.19    2.82
   3  -1  -8   -7.20    7.34
  -3   1   7   32.58    5.28
  -3   1   7   40.14    4.88
  -3   1   7   42.49    4.81
  -3   1   7   35.41    4.34
  -3   1   7   25.32   12.12
   3  -1  -7   26.36    4.16
   3  -1  -7   39.67    4.59
   3  -1  -7   40.25    4.23
   3  -1  -7   34.86    4.20
   3  -1  -7   23.65    4.23
   3  -1  -7   49.04   14.54
  -3   1   6   71.39    5.82
  -3   1   6   80.65    6.18
  -3   1   6   97.36    6.33
  -3   1   6   75.08    5.93
  -3   1   6  127.01   23.11
   3  -1  -6   99.63    6.94
   3  -1  -6   76.74    5.97
   3  -1  -6   85.42    3.62
   3  -1  -6   84.01    6.15
   3  -1  -6   81.41    5.71
   3  -1  -6   71.82    5.93
   3  -1  -6   98.62   20.25
  -3   1   5  424.14   12.84
  -3   1   5  386.35   12.37
  -3   1   5  384.40   12.19
  -3   1   5  478.75   12.87
  -3   1   5  386.28   12.33
  -3   1   5  414.81   31.43
   3  -1  -5  428.44   13.13
   3  -1  -5  353.58   12.59
   3  -1  -5  442.55    8.93
   3  -1  -5  452.49   13.20
   3  -1  -5  441.36   12.22
   3  -1  -5  379.66   12.37
   3  -1  -5  495.21   34.14
  -3   1   4   40.94    3.76
  -3   1   4   46.18    3.91
  -3   1   4   37.68    3.58
  -3   1   4   45.13    3.69
  -3   1   4   30.96    9.73
   3  -1  -4   42.31    3.80
   3  -1  -4   33.16    3.36
   3  -1  -4   47.20    3.07
   3  -1  -4   45.31    3.69
   3  -1  -4   37.68    3.58
   3  -1  -4   28.61    8.35
  -3   1   3 1182.48   17.50
  -3   1   3 1062.20   16.74
  -3   1   3 1182.08   18.48
  -3   1   3 1325.55   18.12
  -3   1   3 1136.95   17.21
  -3   1   3 1366.89   46.87
   3  -1  -3 1293.22   18.66
   3  -1  -3 1124.36   17.25
   3  -1  -3 1360.96   18.19
   3  -1  -3 1096.92   17.07
   3  -1  -3 1449.38   47.99
  -3   1   2  136.27    5.32
  -3   1   2  122.56    5.06
  -3   1   2  126.00    5.50
  -3   1   2  137.35    6.00
  -3   1   2  129.90    5.14
   3  -1  -2  153.01    5.71
   3  -1  -2  122.16    5.10
   3  -1  -2  149.32    5.68
   3  -1  -2  125.24    5.06
   3  -1  -2  149.43   13.81
  -3   1   1 4005.15   25.17
  -3   1   1 4541.80   32.66
  -3   1   1 4559.99   25.35
  -3   1   1 5574.56   73.85
   3  -1  -1 5123.22   29.15
   3  -1  -1 4273.71   26.47
   3  -1  -1 4532.21   33.02
   3  -1  -1 4481.11   25.28
   3  -1  -1 5288.85   71.93
  -3   1   0 1044.19   11.43
  -3   1   0  575.93    8.53
  -3   1   0  985.42   15.55
  -3   1   0 1137.96   11.54
  -3   1   0 1019.85   15.95
  -3   1   0  948.31    9.11
  -3   1   0 1142.85   30.16
  -3   1   0  967.16   27.70
   3  -1   0  859.35   10.78
   3  -1   0  957.61   11.43
   3  -1   0  910.74   14.83
   3  -1   0 1047.59   15.98
   3  -1   0 1126.32   11.43
   3  -1   0  980.18   15.48
   3  -1   0  983.21    9.33
  -3   1  -1 1158.14   11.86
  -3   1  -1 1091.02   17.21
  -3   1  -1 1333.29   15.26
  -3   1  -1 1073.91   29.04
   3  -1   1  918.41   11.14
   3  -1   1 1031.49   11.86
   3  -1   1 1087.22   17.03
   3  -1   1 1189.53   17.47
   3  -1   1 1306.64   15.01
   3  -1   1 1143.39   17.47
   3  -1   1 1001.98   28.06
  -3   1  -2 1973.84   17.11
  -3   1  -2 3706.64   23.36
  -3   1  -2 3916.00   34.75
  -3   1  -2 4183.15   34.14
  -3   1  -2 4729.06   33.67
  -3   1  -2 4055.92   62.02
   3  -1   2 3476.89   23.83
   3  -1   2 3803.78   25.06
   3  -1   2 3883.85   34.28
   3  -1   2 3983.70   33.67
   3  -1   2 4504.08   32.58
   3  -1   2 4133.39   35.33
   3  -1   2 3855.57   16.74
   3  -1   2 3610.63   58.62
  -3   1  -3 1463.30   16.82
  -3   1  -3 1370.65   16.20
  -3   1  -3 1404.32   24.27
  -3   1  -3 1481.20   22.96
  -3   1  -3 1710.81   23.00
  -3   1  -3 1533.57   43.40
   3  -1   3 1277.74   16.38
   3  -1   3 1374.63   17.14
   3  -1   3 1693.31   21.92
   3  -1   3 1408.69   22.17
   3  -1   3 1509.30   22.10
   3  -1   3 1452.71   13.38
   3  -1   3 1394.05   41.34
  -3   1  -4  113.02    5.32
  -3   1  -4   94.53    4.88
  -3   1  -4  109.80    6.33
  -3   1  -4  145.09    7.52
  -3   1  -4  114.79   13.38
   3  -1   4   85.20    4.85
   3  -1   4   97.17    6.47
   3  -1   4  119.49    5.97
   3  -1   4   98.40    6.47
   3  -1   4   97.83    4.23
   3  -1   4   73.41   12.48
  -3   1  -5   71.21    4.74
  -3   1  -5   62.75    4.45
  -3   1  -5   88.06    6.11
  -3   1  -5   94.35    6.69
  -3   1  -5   80.29   15.19
   3  -1   5   62.49    4.63
   3  -1   5   59.67    4.70
   3  -1   5   82.17    5.14
   3  -1   5   66.83    5.64
   3  -1   5   73.27    5.68
   3  -1   5   79.71    6.37
   3  -1   5   72.26    4.27
   3  -1   5   83.58   15.51
  -3   1  -6  274.82   10.20
  -3   1  -6  229.07    9.26
  -3   1  -6  262.16   11.25
  -3   1  -6  311.34   13.09
  -3   1  -6  274.49   25.42
   3  -1   6  218.25    9.40
   3  -1   6  261.98   10.42
   3  -1   6  283.32    9.44
   3  -1   6  260.46   11.75
   3  -1   6  267.98   11.50
   3  -1   6  260.17   12.26
   3  -1   6  241.11    9.04
   3  -1   6  275.03   24.56
  -3   1  -7   46.29    4.77
  -3   1  -7   38.01    4.38
  -3   1  -7   44.23    5.03
  -3   1  -7   45.35    5.46
  -3   1  -7   45.68   13.81
   3  -1   7   37.54    4.34
   3  -1   7   36.71    4.56
   3  -1   7   35.84    3.54
   3  -1   7   54.72    6.04
   3  -1   7   41.16    4.88
   3  -1   7   48.03    7.59
   3  -1   7   38.37    3.91
   3  -1   7   27.88    9.29
  -3   1  -8   63.14    6.04
  -3   1  -8   -0.29    1.41
  -3   1  -8   67.45    7.02
  -3   1  -8   80.61   19.28
   3  -1   8   40.54    5.71
   3  -1   8   62.06   10.27
   3  -1   8   57.25    4.30
   3  -1   8   45.75    5.61
   3  -1   8   49.87    6.04
   3  -1   8   41.92    4.45
   3  -1   8   56.02   16.64
  -3   1  -9    2.03    1.77
  -3   1  -9    3.65    2.10
  -3   1  -9   13.09   14.97
   3  -1   9    6.98    3.40
   3  -1   9    2.39    2.03
   3  -1   9    5.86    1.66
   3  -1   9    6.69    2.68
   3  -1   9    3.94    2.35
   3  -1   9    1.92    2.46
   3  -1   9   40.47   22.06
  -3   1 -10   -4.41    1.92
  -3   1 -10   -0.43    1.74
   3  -1  10   -3.33    2.50
   3  -1  10   -3.98    1.52
   3  -1  10   -3.18    1.27
   3  -1  10    1.95    2.39
   3  -1  10    2.03    2.39
  -3   0  12    3.94    3.15
  -3   0  12    9.08    4.09
  -3   0  12  -49.58   21.26
   3   0 -12    5.75    2.82
   3   0 -12   16.17    4.74
   3   0 -12   30.88   20.69
  -3   0  11  110.48    9.62
  -3   0  11   67.99   21.95
   3   0 -11  102.96    9.73
   3   0 -11  128.02    9.69
   3   0 -11  102.67   32.48
  -3   0  10   48.06    8.10
  -3   0  10   64.34    7.02
  -3   0  10   50.96   16.93
   3   0 -10   60.97    7.09
   3   0 -10   56.34    5.93
   3   0 -10   64.01   21.23
  -3   0   9   -0.94    2.06
  -3   0   9    1.77    1.56
  -3   0   9    2.57    1.74
  -3   0   9    1.88   11.97
   3   0  -9    2.60    1.34
   3   0  -9    2.39    1.95
   3   0  -9    0.80    1.45
   3   0  -9    3.00    1.59
   3   0  -9   -0.18    1.92
   3   0  -9    1.16    1.52
   3   0  -9    3.51    9.66
  -3   0   8   -1.63    1.34
  -3   0   8    0.83    1.19
  -3   0   8    0.33    1.12
  -3   0   8   -4.05   10.52
   3   0  -8   -0.11    1.08
   3   0  -8    0.47    1.63
   3   0  -8    0.83    1.41
   3   0  -8   -1.08    0.65
   3   0  -8    0.25    0.76
   3   0  -8   15.98    8.93
  -3   0   7  303.35   12.55
  -3   0   7  353.01   13.16
  -3   0   7  288.92   12.15
  -3   0   7  390.47   34.97
   3   0  -7  332.79   13.27
   3   0  -7  300.20   12.40
   3   0  -7  352.79    7.38
   3   0  -7  333.48   12.26
   3   0  -7  363.71   11.57
   3   0  -7  343.24   12.80
   3   0  -7  306.57   12.69
   3   0  -7  357.71   33.92
  -3   0   6  182.27    8.97
  -3   0   6  258.25   14.00
  -3   0   6  196.99    8.79
  -3   0   6  217.86    9.62
  -3   0   6  153.52    8.25
  -3   0   6  155.73   24.05
   3   0  -6  160.07    8.46
   3   0  -6  202.20    8.97
   3   0  -6  215.43    7.88
   3   0  -6  191.85    8.90
   3   0  -6  159.99    8.46
   3   0  -6  215.65   24.30
  -3   0   5  294.60   10.52
  -3   0   5  263.89   10.05
  -3   0   5  306.61   10.16
  -3   0   5  328.52   10.96
  -3   0   5  260.82    9.73
  -3   0   5  353.33   31.50
   3   0  -5  249.57   15.95
   3   0  -5  334.92    8.39
   3   0  -5  317.89   10.63
   3   0  -5  419.95   31.28
  -3   0   4  213.48    9.76
  -3   0   4  204.98    8.14
  -3   0   4  207.04    7.74
  -3   0   4  188.85    7.49
  -3   0   4  256.52   22.02
   3   0  -4  226.68    8.61
   3   0  -4  193.88    7.88
   3   0  -4  252.90    5.89
   3   0  -4  246.14    8.75
   3   0  -4  203.97    7.81
   3   0  -4  232.00   21.19
  -3   0   3   35.01    3.15
  -3   0   3   32.48    3.00
  -3   0   3   35.69    3.07
  -3   0   3   39.56    3.36
  -3   0   3   30.85    2.71
  -3   0   3   33.71    8.82
   3   0  -3   35.44    3.15
   3   0  -3   40.29    3.33
   3   0  -3   41.70    1.66
   3   0  -3   32.55    2.89
   3   0  -3   38.08    3.33
   3   0  -3   29.91    2.68
   3   0  -3   41.16    9.87
  -3   0   2   88.82    4.48
  -3   0   2   66.22    3.91
  -3   0   2   76.20    4.56
  -3   0   2   79.42    4.38
  -3   0   2   72.98    3.51
  -3   0   2   76.34   11.93
   3   0  -2   80.50    4.34
   3   0  -2   68.32    4.01
   3   0  -2   76.24    4.27
   3   0  -2   80.00    4.52
   3   0  -2   74.39    3.58
   3   0  -2   66.98   11.36
  -3   0   1    3.51    1.16
  -3   0   1    2.86    1.01
  -3   0   1    4.30    1.41
  -3   0   1    3.98    1.19
  -3   0   1    2.97    0.76
  -3   0   1    1.99    1.99
   3   0  -1    3.80    1.12
   3   0  -1    3.51    1.23
   3   0  -1    2.71    0.98
  -3   0   0 3245.47   24.74
  -3   0   0 2632.47   22.42
  -3   0   0 3010.98   28.53
  -3   0   0 3636.05   21.08
  -3   0   0 2947.33   59.20
   3   0   0 2700.10   23.00
   3   0   0 2905.05   24.05
   3   0   0 2990.11   28.17
   3   0   0 3221.09   29.62
   3   0   0 3075.93   28.03
   3   0   0 2830.73   57.97
  -3   0  -1 2071.30   20.58
  -3   0  -1 2328.29   21.66
  -3   0  -1 2459.72   26.87
  -3   0  -1 2599.96   27.59
  -3   0  -1 2880.60   23.62
  -3   0  -1 2421.81   55.19
   3   0   1 2058.14   20.87
   3   0   1 2274.08   22.10
   3   0   1 2355.09   26.04
   3   0   1 2425.97   26.94
   3   0   1 2453.21   26.65
   3   0   1 2162.98   52.22
  -3   0  -2   11.57    2.06
  -3   0  -2   11.50    2.06
  -3   0  -2    7.67    1.84
  -3   0  -2   11.25    2.31
  -3   0  -2   13.63    2.35
  -3   0  -2    1.27    4.27
   3   0   2   11.03    2.10
   3   0   2   11.65    2.13
   3   0   2   10.74    2.46
   3   0   2   12.87    2.75
   3   0   2   17.29    5.68
  -3   0  -3   41.84    3.47
  -3   0  -3   39.20    3.36
  -3   0  -3   47.05    4.30
  -3   0  -3   44.30    4.20
  -3   0  -3   46.11    4.01
  -3   0  -3   34.72    9.22
   3   0   3   34.83    3.33
   3   0   3   38.33    4.12
   3   0   3   47.23    4.23
   3   0   3   46.07    4.30
   3   0   3   45.28    2.39
   3   0   3   23.54    8.06
  -3   0  -4  160.79    7.34
  -3   0  -4  150.41    7.02
  -3   0  -4  177.68    8.79
  -3   0  -4  208.56    9.37
  -3   0  -4  229.83   22.02
   3   0   4  154.75    7.34
   3   0   4  159.81    7.59
   3   0   4  164.01    8.32
   3   0   4  176.45    8.86
   3   0   4  193.59    9.51
   3   0   4  172.40    5.68
   3   0   4  194.42   19.85
  -3   0  -5   -1.37    0.61
  -3   0  -5    1.48    1.08
  -3   0  -5    1.30    1.01
  -3   0  -5    1.95    1.27
  -3   0  -5    2.13    5.42
   3   0   5   -0.04    0.72
   3   0   5   -0.83    0.87
   3   0   5   -0.69    0.72
   3   0   5   -1.81    0.83
   3   0   5    1.88    1.08
   3   0   5    0.25    0.72
   3   0   5   -3.62    5.17
  -3   0  -6   11.43    2.86
  -3   0  -6   17.50    3.91
  -3   0  -6   11.28    3.11
  -3   0  -6   17.21   10.45
   3   0   6   10.67    2.75
   3   0   6   14.21    3.40
   3   0   6   14.83    3.72
   3   0   6    7.49    2.42
   3   0   6   13.06    3.54
   3   0   6   18.15    3.18
   3   0   6    5.97    8.79
  -3   0  -7    7.81    2.71
  -3   0  -7    0.54    1.37
  -3   0  -7    8.10    2.64
  -3   0  -7    6.69    8.53
   3   0   7    6.22    2.53
   3   0   7    9.48    2.93
   3   0   7    5.21    2.35
   3   0   7   13.31    3.80
   3   0   7    6.62    3.00
   3   0   7    4.05    1.95
  -3   0  -8   46.36    5.79
  -3   0  -8   62.85    6.98
  -3   0  -8   42.53   16.74
   3   0   8   54.65    6.11
   3   0   8   60.11    6.47
   3   0   8   55.30    4.23
   3   0   8   53.31    6.22
   3   0   8   48.32    7.41
   3   0   8   55.04    5.32
   3   0   8   39.53   15.12
  -3   0  -9   27.59    5.39
  -3   0  -9   18.05    4.41
  -3   0  -9   44.08   18.52
   3   0   9   14.29    3.69
   3   0   9   16.93    4.41
   3   0   9   22.46    2.97
   3   0   9   19.13    4.70
   3   0   9   19.13    5.06
   3   0   9   13.89    3.51
   3   0   9    5.21   17.03
  -3  -1  12   57.90    9.44
  -3  -1  12   49.08    7.70
  -3  -1  12    2.60   23.07
   3   1 -12   91.82    9.11
   3   1 -12   75.30    7.67
   3   1 -12   91.35   33.16
  -3  -1  11    0.87    1.27
  -3  -1  11   -2.71    1.92
  -3  -1  11    2.71   12.55
   3   1 -11    7.38    3.94
   3   1 -11    5.82    2.75
   3   1 -11    1.74    7.05
  -3  -1  10   26.18    5.42
  -3  -1  10   23.47    7.70
  -3  -1  10   24.59    5.53
  -3  -1  10   -2.03   12.04
   3   1 -10   29.40    5.28
   3   1 -10   30.16    5.42
   3   1 -10   41.26    4.77
   3   1 -10   27.92   13.56
  -3  -1   9  136.99    9.66
  -3  -1   9  124.05    9.04
  -3  -1   9  137.79    8.57
  -3  -1   9  153.27   10.05
  -3  -1   9  138.11   27.96
   3   1  -9  141.33    9.80
   3   1  -9  129.25    9.19
   3   1  -9  145.13    8.82
   3   1  -9  144.98    8.50
   3   1  -9  127.66    9.15
   3   1  -9  145.42   28.71
  -3  -1   8 1747.34   31.68
  -3  -1   8 1567.09   30.34
  -3  -1   8 1752.66   28.39
  -3  -1   8 2033.91   34.07
  -3  -1   8 1647.27   31.93
  -3  -1   8 1922.78   82.06
   3   1  -8 1953.88   33.74
   3   1  -8 1560.77   29.87
   3   1  -8 1843.54   29.15
   3   1  -8 2025.30   28.43
   3   1  -8 1800.90   31.72
   3   1  -8 1901.11   81.52
  -3  -1   7   34.47    5.17
  -3  -1   7   20.61    4.12
  -3  -1   7   33.16    3.76
  -3  -1   7   35.66    5.42
  -3  -1   7   28.97    4.56
  -3  -1   7   23.36   10.99
   3   1  -7   27.52    4.23
   3   1  -7   26.54    4.30
   3   1  -7   41.59    4.23
   3   1  -7   37.03    3.62
   3   1  -7   35.22    5.32
   3   1  -7   36.56   13.60
  -3  -1   6   -0.29    1.52
  -3  -1   6    0.36    0.76
  -3  -1   6    1.48    1.16
  -3  -1   6    2.10    1.34
  -3  -1   6    0.87    0.94
  -3  -1   6    4.95    5.68
   3   1  -6    1.66    1.19
   3   1  -6    1.48    1.19
   3   1  -6    0.61    0.83
   3   1  -6    1.84    1.27
   3   1  -6    5.03    3.87
  -3  -1   5   13.13    2.64
  -3  -1   5   12.69    2.93
  -3  -1   5   16.74    2.93
  -3  -1   5   18.30    3.47
  -3  -1   5   16.24    3.22
  -3  -1   5   15.95    8.32
   3   1  -5   22.64    4.41
   3   1  -5   13.06    2.53
   3   1  -5   15.77    1.81
   3   1  -5   16.96    3.15
  -3  -1   4  765.18   15.95
  -3  -1   4  643.23   14.76
  -3  -1   4  741.92   13.67
  -3  -1   4  802.79   16.60
  -3  -1   4  677.87   13.89
  -3  -1   4  901.34   42.60
   3   1  -4  776.13   16.24
   3   1  -4  712.41   15.41
   3   1  -4  838.88    9.33
   3   1  -4  836.06   16.78
   3   1  -4  891.35   42.35
  -3  -1   3 1707.09   22.31
  -3  -1   3 1391.04   20.36
  -3  -1   3 1578.09   19.10
  -3  -1   3 1489.67   18.19
  -3  -1   3 1637.44   54.17
  -3  -1   3 1678.08   54.83
   3   1  -3 1655.16   22.31
   3   1  -3 1394.15   20.32
   3   1  -3 1557.58   18.84
   3   1  -3 1733.20   23.07
  -3  -1   2  287.80    8.79
  -3  -1   2  239.09    8.06
  -3  -1   2  266.82    8.90
  -3  -1   2  276.23    7.99
  -3  -1   2  263.24    6.55
  -3  -1   2  352.97   23.98
  -3  -1   2  289.79   21.74
   3   1  -2  245.85    8.17
   3   1  -2  258.47    8.46
   3   1  -2  273.37    8.72
   3   1  -2  276.41    7.92
   3   1  -2  301.61    9.40
  -3  -1   1 1842.96   21.70
  -3  -1   1 1464.89   19.53
  -3  -1   1 1685.75   22.06
  -3  -1   1 1624.31   13.13
  -3  -1   1 1602.46   50.23
   3   1  -1 1449.27   19.46
   3   1  -1 1600.29   20.65
   3   1  -1 1787.48   22.71
   3   1  -1 1671.61   20.22
   3   1  -1 1646.80   51.03
  -3  -1   0   74.97    4.48
  -3  -1   0   81.59    4.67
  -3  -1   0   84.01    5.03
  -3  -1   0   95.58    5.46
  -3  -1   0   85.64   13.85
   3   1   0   79.63    4.63
   3   1   0   83.94    4.85
   3   1   0   87.59    5.10
   3   1   0   82.75    5.14
   3   1   0   87.84    4.95
   3   1   0   71.03   11.54
  -3  -1  -1  490.07   11.90
  -3  -1  -1  551.84   12.51
  -3  -1  -1  580.77   13.60
  -3  -1  -1  609.96   14.50
  -3  -1  -1  519.04   30.31
   3   1   1  499.76   12.08
   3   1   1  537.73   12.66
   3   1   1  549.89   13.09
   3   1   1  556.47   14.03
   3   1   1  509.45   29.91
  -3  -1  -2    3.58    1.34
  -3  -1  -2    5.35    1.59
  -3  -1  -2    2.68    1.45
  -3  -1  -2    2.68    1.34
  -3  -1  -2    3.40    0.76
  -3  -1  -2    1.84    4.30
   3   1   2    1.88    1.05
   3   1   2    1.77    1.12
   3   1   2    2.06    1.12
   3   1   2    2.50    1.12
   3   1   2    2.50    0.72
   3   1   2    3.25    4.30
  -3  -1  -3  271.96   10.05
  -3  -1  -3  267.76    9.87
  -3  -1  -3  288.96   10.67
  -3  -1  -3  279.26   11.14
  -3  -1  -3  314.92   11.14
  -3  -1  -3  273.01    6.51
  -3  -1  -3  308.56   26.36
   3   1   3  249.90    9.76
   3   1   3  266.14   10.16
   3   1   3  266.43   10.16
   3   1   3  267.44    6.47
   3   1   3  300.31   25.75
  -3  -1  -4    2.89    1.63
  -3  -1  -4    0.94    1.27
  -3  -1  -4    1.12    1.59
  -3  -1  -4    5.32    1.99
  -3  -1  -4    1.77    0.94
  -3  -1  -4    6.04    5.86
   3   1   4    1.23    1.30
   3   1   4    1.12    0.83
   3   1   4    2.03    1.37
   3   1   4    3.22    1.56
   3   1   4    2.64    1.45
   3   1   4    5.03    1.34
   3   1   4    2.31    5.10
  -3  -1  -5   91.03    6.76
  -3  -1  -5   88.24   13.16
  -3  -1  -5   93.27    8.39
  -3  -1  -5  102.13    7.67
  -3  -1  -5   94.32    5.17
  -3  -1  -5   82.38   18.84
   3   1   5   70.59    6.08
   3   1   5   89.00    6.84
   3   1   5   97.72    6.98
   3   1   5   89.62    7.31
   3   1   5   95.15    7.63
   3   1   5   91.61    5.06
   3   1   5  106.18   21.77
  -3  -1  -6   46.36   10.78
  -3  -1  -6    1.84    1.48
  -3  -1  -6   51.10    5.79
  -3  -1  -6   24.59   10.85
   3   1   6   44.12    6.47
   3   1   6   38.95    5.97
   3   1   6   39.64    4.81
   3   1   6   45.21    5.53
   3   1   6   63.04    6.44
   3   1   6   35.37    3.69
   3   1   6    5.93   11.03
  -3  -1  -7    8.28    2.97
  -3  -1  -7   10.78    3.51
  -3  -1  -7  -10.49    9.48
   3   1   7    9.76    3.07
   3   1   7    2.89    2.39
   3   1   7    6.69    1.95
   3   1   7    8.68    3.18
   3   1   7    6.04    2.46
   3   1   7    5.86    2.31
   3   1   7    8.35   10.63
  -3  -1  -8   87.48    8.35
  -3  -1  -8   90.74    8.90
  -3  -1  -8   58.55   18.08
   3   1   8   62.17    8.68
   3   1   8   83.94    8.17
   3   1   8   85.78    8.53
   3   1   8   92.65    8.97
   3   1   8   71.32    6.29
  -3  -1  -9   33.89    6.65
  -3  -1  -9   32.08    6.15
   3   1   9   32.01    6.04
   3   1   9   17.79    4.48
   3   1   9   32.77    3.07
   3   1   9   31.54    6.87
   3   1   9   31.54    6.55
   3   1   9   26.76    4.88
  -3  -2  12   -0.87    1.48
  -3  -2  12    3.07    3.07
  -3  -2  12   17.76   22.10
   3   2 -12    1.99    2.60
   3   2 -12   -0.83    1.66
   3   2 -12   30.85   20.61
  -3  -2  11    9.22    3.65
  -3  -2  11    8.53    2.75
  -3  -2  11    8.72    3.65
  -3  -2  11  -32.19   15.23
   3   2 -11   11.68    4.16
   3   2 -11    9.19    2.89
   3   2 -11   13.38    3.51
   3   2 -11   -7.49   13.74
  -3  -2  10  521.06   19.60
  -3  -2  10  572.92   17.54
  -3  -2  10  600.59   51.21
   3   2 -10  613.25   21.26
   3   2 -10  542.15   17.03
   3   2 -10  643.73   18.55
   3   2 -10  628.11   52.48
  -3  -2   9  248.60   13.06
  -3  -2   9  248.60   12.80
  -3  -2   9  266.06   11.17
  -3  -2   9  286.03   13.78
  -3  -2   9  251.85   31.10
   3   2  -9  307.18   14.25
   3   2  -9  239.63   12.62
   3   2  -9  262.88   11.10
   3   2  -9  293.33   11.57
   3   2  -9  271.92   13.38
   3   2  -9  320.96   34.72
  -3  -2   8  435.10   15.80
  -3  -2   8  365.16   14.68
  -3  -2   8  381.32   12.33
  -3  -2   8  454.09   16.35
  -3  -2   8  390.29   14.90
  -3  -2   8  483.92   40.87
   3   2  -8  453.58   16.24
   3   2  -8  383.13   14.83
   3   2  -8  454.05   13.74
   3   2  -8  487.36   13.49
   3   2  -8  455.89   18.05
   3   2  -8  390.00   36.27
  -3  -2   7   11.90    3.18
  -3  -2   7   12.84    3.47
  -3  -2   7   10.96    2.46
  -3  -2   7   10.92    2.89
  -3  -2   7   11.03    3.07
  -3  -2   7   -1.63    4.16
   3   2  -7    7.99    2.28
   3   2  -7   19.46    4.59
   3   2  -7   12.30    2.50
   3   2  -7   11.17    3.00
   3   2  -7   22.78   11.93
  -3  -2   6   80.07    6.08
  -3  -2   6   65.21    5.57
  -3  -2   6   86.69    4.92
  -3  -2   6   85.49    6.33
  -3  -2   6   73.60    5.57
  -3  -2   6   88.89   18.48
   3   2  -6   77.28    5.97
   3   2  -6  100.79    4.81
   3   2  -6   88.86    6.37
   3   2  -6   85.10   18.26
  -3  -2   5  850.60   18.52
  -3  -2   5  654.55   16.93
  -3  -2   5  861.88   12.08
  -3  -2   5  787.24   13.89
  -3  -2   5  867.74   18.95
  -3  -2   5  734.36   16.13
  -3  -2   5  878.23   46.83
   3   2  -5  708.29   16.89
   3   2  -5  887.88   12.33
   3   2  -5  891.50   19.02
   3   2  -5  860.58   46.04
  -3  -2   4   27.16    3.25
  -3  -2   4   28.68    4.45
  -3  -2   4   27.88    1.92
  -3  -2   4   27.45    2.50
  -3  -2   4   26.22    2.82
  -3  -2   4   28.17    9.69
  -3  -2   4   12.55    7.31
   3   2  -4   26.33    3.22
   3   2  -4   19.20    5.46
   3   2  -4   19.28    2.17
   3   2  -4   27.70    3.36
  -3  -2   3  187.15    8.03
  -3  -2   3  138.01    6.94
  -3  -2   3  203.03    4.70
  -3  -2   3  175.47    6.22
  -3  -2   3  156.02    6.11
  -3  -2   3  163.36   18.84
  -3  -2   3  142.56   17.03
   3   2  -3  151.93    7.20
   3   2  -3  168.27    7.70
   3   2  -3  185.67    7.38
   3   2  -3  174.68    6.18
   3   2  -3  190.91    8.10
  -3  -2   2   85.28    6.98
  -3  -2   2   44.88    3.91
  -3  -2   2   54.75    4.27
  -3  -2   2   36.85   10.85
   3   2  -2   47.74    4.01
   3   2  -2   50.92    4.20
   3   2  -2   54.65    4.09
   3   2  -2   50.20    3.47
   3   2  -2   59.78    4.56
   3   2  -2   45.60   10.74
  -3  -2   1  211.17    8.43
  -3  -2   1  239.30    8.90
  -3  -2   1  247.51    8.86
  -3  -2   1  298.00   13.02
  -3  -2   1  261.72   23.11
   3   2  -1  215.25    8.46
   3   2  -1  224.40    8.75
   3   2  -1  244.69    9.01
   3   2  -1  273.98    8.57
   3   2  -1  211.06   20.54
  -3  -2   0  355.75   11.14
  -3  -2   0  371.99   11.32
  -3  -2   0  410.76   11.54
  -3  -2   0  414.52   12.22
  -3  -2   0  401.07    7.31
  -3  -2   0  364.58   27.56
   3   2   0  324.04   10.63
   3   2   0  358.43   12.12
   3   2   0  366.13   12.22
  -3  -2  -1  628.33   15.37
  -3  -2  -1  667.64   15.70
  -3  -2  -1  730.67   15.84
  -3  -2  -1  759.64   17.58
  -3  -2  -1  720.48   10.02
  -3  -2  -1  702.43   40.07
   3   2   1  617.08   15.30
   3   2   1  635.34   15.66
   3   2   1  731.72   17.43
   3   2   1  705.94   40.11
  -3  -2  -2    1.59    1.01
  -3  -2  -2   -0.80    0.90
  -3  -2  -2    2.68    1.41
  -3  -2  -2   -0.04    0.76
  -3  -2  -2   -1.05    0.40
  -3  -2  -2   -2.60    4.09
   3   2   2    0.94    1.08
   3   2   2   -0.94    0.54
   3   2   2    0.94    1.08
   3   2   2    0.98    1.19
   3   2   2    1.08    4.20
  -3  -2  -3  859.42   19.96
  -3  -2  -3  821.85   19.35
  -3  -2  -3  930.92   19.67
  -3  -2  -3  937.36   22.02
  -3  -2  -3  860.94   13.60
  -3  -2  -3  920.54   50.96
   3   2   3  804.78   19.46
   3   2   3  863.87   20.40
   3   2   3  903.29   19.20
   3   2   3  910.56   21.99
   3   2   3  875.41   13.67
   3   2   3  769.37   46.54
  -3  -2  -4  261.54   14.94
  -3  -2  -4  274.71   17.25
  -3  -2  -4  294.78    8.90
  -3  -2  -4  290.98   30.13
   3   2   4  251.35   11.54
   3   2   4  282.05   12.37
   3   2   4  289.17   11.54
   3   2   4  285.02   13.13
   3   2   4  291.02   12.91
   3   2   4  282.52    8.72
   3   2   4  276.95   32.69
  -3  -2  -5    0.58    1.52
  -3  -2  -5    2.60    1.88
  -3  -2  -5    4.23    1.66
  -3  -2  -5   -3.58    8.86
   3   2   5    2.64    1.56
   3   2   5   -1.59    1.01
   3   2   5    1.08    1.59
   3   2   5    1.66    1.56
   3   2   5    3.18    1.81
   3   2   5    2.60    1.45
   3   2   5    8.97   10.05
  -3  -2  -6   21.45    4.70
  -3  -2  -6   19.02    4.59
  -3  -2  -6   28.32    3.51
  -3  -2  -6   29.47   14.61
   3   2   6   19.20    4.09
   3   2   6   12.26    3.18
   3   2   6   27.20    7.05
   3   2   6   20.65    4.74
   3   2   6   23.22    6.33
   3   2   6   23.33    3.80
  -3  -2  -7   -1.27    2.17
  -3  -2  -7    1.16    1.74
  -3  -2  -7    1.01    1.63
  -3  -2  -7   11.61   15.98
   3   2   7    1.48    1.41
   3   2   7   -0.18    1.81
   3   2   7    0.00    1.56
   3   2   7   -0.36    1.66
   3   2   7    9.84   14.07
  -3  -2  -8   42.35    7.16
  -3  -2  -8   29.62    6.76
  -3  -2  -8   76.85   24.05
   3   2   8   33.56    6.62
   3   2   8   36.85    4.20
   3   2   8   27.59    6.40
   3   2   8   26.91    5.86
   3   2   8   34.36    5.35
   3   2   8   20.40   20.58
  -3  -3  12  137.10   11.39
  -3  -3  12  165.38   10.20
  -3  -3  12  192.22   13.42
  -3  -3  12  205.27   38.73
   3   3 -12  192.72   13.13
   3   3 -12    1.16    2.78
   3   3 -12  188.06   11.54
   3   3 -12  144.91   35.95
  -3  -3  11  541.50   21.16
  -3  -3  11  636.28   18.37
  -3  -3  11  716.14   24.63
   3   3 -11  661.24   23.15
   3   3 -11  592.56   17.58
   3   3 -11  722.10   20.83
   3   3 -11  702.07   57.90
  -3  -3  10   79.53    8.10
  -3  -3  10   77.28    7.74
  -3  -3  10   89.91    6.58
  -3  -3  10  105.06    9.04
  -3  -3  10   97.36   24.85
   3   3 -10   90.74    8.17
   3   3 -10   84.19    6.51
   3   3 -10  106.51    7.45
   3   3 -10   90.38   23.33
  -3  -3   9   12.80    3.54
  -3  -3   9    9.58    2.53
  -3  -3   9   15.59    3.00
  -3  -3   9   13.16    2.97
  -3  -3   9   -0.51    1.81
  -3  -3   9   21.41   11.25
   3   3  -9   10.38    3.22
   3   3  -9    5.24    2.46
   3   3  -9   11.86    2.64
   3   3  -9   14.86    3.04
  -3  -3   8   18.37    4.23
  -3  -3   8    7.99    2.39
  -3  -3   8   16.64    3.04
  -3  -3   8   27.88    5.28
  -3  -3   8    9.22    3.18
  -3  -3   8   23.47   11.90
   3   3  -8   14.47    3.04
   3   3  -8    9.01    5.06
   3   3  -8   18.55    3.22
   3   3  -8   18.73    3.18
   3   3  -8   29.22   12.62
  -3  -3   7   26.11    4.85
  -3  -3   7    7.05    2.17
  -3  -3   7   16.38    2.78
  -3  -3   7   13.31    2.60
  -3  -3   7   12.01    3.00
  -3  -3   7    8.61    2.60
  -3  -3   7    9.11    7.31
   3   3  -7    9.95    2.68
   3   3  -7   17.07    3.94
   3   3  -7   17.32    2.82
   3   3  -7   13.38    3.33
   3   3  -7    2.24    5.57
  -3  -3   6   61.77    5.42
  -3  -3   6   43.72    4.74
  -3  -3   6   64.19    3.98
  -3  -3   6   56.49    3.65
  -3  -3   6   55.73    5.28
  -3  -3   6   59.49    5.10
  -3  -3   6   63.47   17.21
  -3  -3   6   56.85   15.23
   3   3  -6   66.04    5.71
   3   3  -6   41.95    4.70
   3   3  -6   62.93    5.53
  -3  -3   5    8.72    2.57
  -3  -3   5   13.63    3.36
  -3  -3   5   14.00    2.13
  -3  -3   5   16.56    2.42
  -3  -3   5   11.54    2.89
  -3  -3   5   17.83    3.36
  -3  -3   5   15.62    8.79
  -3  -3   5    1.23    3.80
   3   3  -5   18.73    4.34
   3   3  -5   11.07    2.28
   3   3  -5   12.26    3.04
  -3  -3   4  146.76    7.81
  -3  -3   4  123.86    8.28
  -3  -3   4  158.58    5.39
  -3  -3   4  184.37   21.30
  -3  -3   4  113.09   20.22
   3   3  -4  123.14    7.20
   3   3  -4  144.51    7.88
   3   3  -4  150.95    6.87
   3   3  -4  144.41    5.39
   3   3  -4  160.07    8.06
  -3  -3   3   23.40    4.20
  -3  -3   3   26.36    4.30
  -3  -3   3   21.84    8.72
   3   3  -3   24.48    4.12
   3   3  -3   25.10    4.30
   3   3  -3   21.59    2.68
   3   3  -3   23.51    2.39
   3   3  -3   28.90    4.56
  -3  -3   2  546.81   14.76
  -3  -3   2  441.83   13.42
  -3  -3   2  450.25   14.00
  -3  -3   2  479.51   34.10
   3   3  -2  455.21   13.49
   3   3  -2  721.85   21.23
   3   3  -2  498.32   13.20
   3   3  -2  523.05   11.50
   3   3  -2  588.18   15.01
   3   3  -2  509.60   34.94
  -3  -3   1 1279.08   23.07
  -3  -3   1 1416.76   24.01
  -3  -3   1 1457.62   22.57
  -3  -3   1 1545.25   24.16
  -3  -3   1 1470.75   17.90
  -3  -3   1 1376.51   58.48
   3   3  -1 1311.08   23.22
   3   3  -1 1324.36   23.62
   3   3  -1 1456.58   23.72
   3   3  -1 1521.92   21.34
   3   3  -1 1413.79   59.27
  -3  -3   0   30.05    3.69
  -3  -3   0   33.20    4.77
  -3  -3   0   32.84    4.92
  -3  -3   0   38.84    4.20
  -3  -3   0   29.33    2.53
  -3  -3   0   28.53   10.52
   3   3   0   26.47    4.20
   3   3   0   35.41    5.10
   3   3   0   23.54    3.87
   3   3   0   35.04   11.21
  -3  -3  -1 1471.62   32.22
  -3  -3  -1 1619.75   27.30
  -3  -3  -1 1835.80   26.04
  -3  -3  -1 1825.89   29.40
  -3  -3  -1 1844.01   20.11
  -3  -3  -1 1789.65   71.46
   3   3   1 1514.66   26.65
   3   3   1 1659.03   28.21
   3   3   1 1828.64   25.71
   3   3   1 1844.91   29.94
   3   3   1 1757.39   70.63
  -3  -3  -2 1434.62   27.20
  -3  -3  -2 1432.67   26.83
  -3  -3  -2 1678.74   25.82
  -3  -3  -2 1623.66   29.37
  -3  -3  -2 1579.25   19.71
  -3  -3  -2 1581.89   70.38
   3   3   2 1335.24   26.22
   3   3   2 1525.76   28.32
   3   3   2 1574.83   24.74
   3   3   2 1627.16   29.84
   3   3   2 1555.78   69.15
  -3  -3  -3   72.47    6.44
  -3  -3  -3   67.27    5.57
  -3  -3  -3   63.14    6.44
  -3  -3  -3   61.34    4.20
  -3  -3  -3   68.93   18.81
   3   3   3   50.81    5.57
   3   3   3   64.81    6.22
   3   3   3   66.72    5.35
   3   3   3   63.79    6.37
   3   3   3   70.20   20.72
  -3  -3  -4  210.12   11.57
  -3  -3  -4  209.03    8.35
  -3  -3  -4  267.08   32.87
   3   3   4  187.33   10.78
   3   3   4  211.02   11.57
   3   3   4  217.06   10.16
   3   3   4  218.15   12.22
   3   3   4  221.08   11.61
   3   3   4  209.90    8.35
   3   3   4  197.17   33.81
  -3  -3  -5   56.49    6.62
  -3  -3  -5   57.10    4.81
  -3  -3  -5   93.52   22.46
   3   3   5   53.13    7.56
   3   3   5   42.86    6.84
   3   3   5   52.51    5.64
   3   3   5   42.35    7.20
   3   3   5   54.28    6.15
   3   3   5   47.70    4.59
  -3  -3  -6  101.66    8.86
  -3  -3  -6  138.04   10.63
  -3  -3  -6  113.81    7.23
  -3  -3  -6   61.37   19.78
   3   3   6   93.34    9.19
   3   3   6  107.01    9.29
   3   3   6  111.39    7.96
   3   3   6  120.75   10.20
   3   3   6  125.78    9.95
   3   3   6  102.82    6.84
   3   3   6   72.15   24.27
  -3  -3  -7   26.54    5.24
  -3  -3  -7   19.71    5.24
  -3  -3  -7   34.25    5.39
  -3  -3  -7  -24.45   17.47
   3   3   7   30.27    6.47
   3   3   7   29.47    6.69
   3   3   7   30.52    6.18
   3   3   7   22.06    4.41
   3   3   7  -17.97   17.68
  -3  -4  12    0.69    1.56
  -3  -4  12    1.34    1.77
  -3  -4  12   -3.54    1.66
  -3  -4  12   12.55   19.20
   3   4 -12    2.03    2.50
   3   4 -12    3.29    1.77
   3   4 -12    2.64    2.13
   3   4 -12    3.69    2.28
  -3  -4  11   -1.92    1.08
  -3  -4  11   -0.72    1.08
  -3  -4  11   -1.12    2.06
   3   4 -11   -0.54    1.56
   3   4 -11   -3.44    1.37
   3   4 -11    1.16    1.52
   3   4 -11   -8.57    8.61
  -3  -4  10   -1.12    2.21
  -3  -4  10   -0.11    0.83
  -3  -4  10   -0.51    1.05
  -3  -4  10   -0.11   11.07
   3   4 -10    0.98    1.16
   3   4 -10    1.77    1.66
   3   4 -10    0.33    1.23
   3   4 -10   -2.06   10.20
  -3  -4   9   42.86    7.05
  -3  -4   9   63.54    5.24
  -3  -4   9   49.26    3.98
  -3  -4   9   61.26    6.73
  -3  -4   9   65.53   20.29
   3   4  -9   57.36    6.29
   3   4  -9   56.71    4.77
   3   4  -9   54.46    4.99
  -3  -4   8    0.40    1.27
  -3  -4   8    0.54    1.08
  -3  -4   8   -0.65    0.94
  -3  -4   8    0.14    0.72
  -3  -4   8    0.87    1.48
  -3  -4   8   -2.89    1.23
  -3  -4   8   10.09    7.45
  -3  -4   8  -12.87    6.98
   3   4  -8    1.19    1.48
   3   4  -8    1.37    1.77
   3   4  -8    1.63    1.52
  -3  -4   7  200.50   10.70
  -3  -4   7  181.48   10.27
  -3  -4   7  235.43    9.04
  -3  -4   7  198.91    6.40
  -3  -4   7  231.35   11.54
  -3  -4   7  187.77    9.95
  -3  -4   7  218.07   26.94
  -3  -4   7  181.73   29.91
   3   4  -7  212.18   11.07
   3   4  -7  180.39   10.20
   3   4  -7  223.97    8.57
   3   4  -7  221.80   11.17
  -3  -4   6   71.57    6.18
  -3  -4   6   49.51    5.39
  -3  -4   6   67.77    4.41
  -3  -4   6   56.38    3.18
  -3  -4   6   61.23    5.82
  -3  -4   6   48.28    4.85
  -3  -4   6   84.55   19.53
  -3  -4   6   78.62   19.20
   3   4  -6   54.90    5.53
   3   4  -6   54.90    5.53
   3   4  -6   64.34    4.59
   3   4  -6   70.20    6.11
  -3  -4   5    0.87    1.08
  -3  -4   5    0.36    1.12
  -3  -4   5    0.36    0.58
  -3  -4   5   -6.40    3.94
  -3  -4   5    2.57    6.55
   3   4  -5    4.48    1.77
   3   4  -5    0.58    0.90
   3   4  -5   -0.04    0.47
   3   4  -5    0.51    1.16
  -3  -4   4   61.34    5.42
  -3  -4   4   49.37    4.95
  -3  -4   4   58.30    3.91
  -3  -4   4   51.68   14.65
  -3  -4   4   60.94   15.80
   3   4  -4   38.91    4.56
   3   4  -4   46.18    4.81
   3   4  -4   61.73    4.52
   3   4  -4   49.55    3.15
   3   4  -4   60.90    5.21
  -3  -4   3   14.83    3.51
  -3  -4   3    5.21    1.84
  -3  -4   3    9.44    2.21
  -3  -4   3    2.57    5.53
   3   4  -3   15.77    3.51
   3   4  -3   15.51    3.54
   3   4  -3    7.41    2.03
   3   4  -3   15.33    2.50
   3   4  -3    7.88    2.17
   3   4  -3   16.24    7.31
  -3  -4   2  162.92    8.97
  -3  -4   2  195.07    8.68
  -3  -4   2  197.89    8.86
  -3  -4   2  199.09   24.34
   3   4  -2  174.78    9.15
   3   4  -2  182.31    9.51
   3   4  -2  193.74    8.90
   3   4  -2  192.04    7.34
   3   4  -2  219.56    9.76
   3   4  -2  138.62   23.94
  -3  -4   1  483.42   15.70
  -3  -4   1  545.62   16.46
  -3  -4   1  582.29   14.79
  -3  -4   1  617.01   16.46
  -3  -4   1  563.48   12.84
  -3  -4   1  605.00   42.35
   3   4  -1  478.46   15.44
   3   4  -1  513.03   16.24
   3   4  -1  571.62   16.06
   3   4  -1  500.05   38.66
  -3  -4   0  973.20   22.82
  -3  -4   0 1014.89   23.04
  -3  -4   0 1060.28   20.04
  -3  -4   0 1119.34   23.43
  -3  -4   0 1115.58   17.97
  -3  -4   0 1017.17   56.81
   3   4   0  932.51   22.21
   3   4   0 1026.07   23.58
   3   4   0 1061.84   23.11
   3   4   0 1051.31   57.76
  -3  -4  -1    1.81    1.37
  -3  -4  -1    2.17    2.03
  -3  -4  -1    4.12    1.70
  -3  -4  -1    4.12    1.92
  -3  -4  -1    2.24    1.41
  -3  -4  -1   19.31   11.72
   3   4   1    1.30    1.34
   3   4   1    3.94    2.06
   3   4   1    3.47    2.21
  -3  -4  -2   69.98    6.73
  -3  -4  -2   63.61    6.40
  -3  -4  -2   83.07    6.00
  -3  -4  -2   80.25    6.98
  -3  -4  -2   79.56    5.21
  -3  -4  -2   89.22   23.43
   3   4   2   61.30    6.22
   3   4   2   77.75    6.98
   3   4   2   87.81    7.49
   3   4   2   68.42   18.81
  -3  -4  -3   -0.29    1.34
  -3  -4  -3   -1.37    1.12
  -3  -4  -3   15.15    7.20
   3   4   3   -1.08    1.19
   3   4   3    1.92    1.70
   3   4   3    0.94    1.23
   3   4   3    1.27    1.52
   3   4   3    7.67   10.13
  -3  -4  -4   -0.43    1.16
  -3  -4  -4    1.08    1.59
  -3  -4  -4   31.28   16.78
   3   4   4    2.60    2.57
   3   4   4    5.53    2.35
   3   4   4   -2.21    1.63
   3   4   4    3.87    1.92
   3   4   4    3.33    2.03
  -3  -4  -5   16.27    4.38
  -3  -4  -5    8.68    2.60
  -3  -4  -5   -1.34   15.33
   3   4   5    9.37    3.47
   3   4   5   13.45    3.25
   3   4   5    8.68    2.64
   3   4   5    2.13    2.53
   3   4   5   11.43    2.75
   3   4   5   -9.62   12.98
  -3  -4  -6   25.93    6.62
  -3  -4  -6   18.41    4.63
  -3  -4  -6   21.12    3.80
  -3  -4  -6   27.56   19.67
   3   4   6   22.39    5.35
   3   4   6    2.53    2.42
   3   4   6   22.86    5.32
   3   4   6   29.84    6.15
   3   4   6   24.70    4.56
   3   4   6   41.99   21.01
  -3  -5  12    6.62    3.18
  -3  -5  12   11.93    2.89
  -3  -5  12   14.14    4.63
   3   5 -12    6.22    2.93
   3   5 -12    9.62    3.00
   3   5 -12    5.71    3.33
  -3  -5  11   33.49    6.29
  -3  -5  11   61.62    7.59
  -3  -5  11   51.82   24.66
  -3  -5  11   30.41   20.61
   3   5 -11   35.22    6.00
   3   5 -11   47.09    4.77
   3   5 -11   67.95    6.37
  -3  -5  10    1.70    2.10
  -3  -5  10    1.27    1.30
  -3  -5  10    0.87    1.66
  -3  -5  10   -0.76    0.83
  -3  -5  10    1.19    2.03
  -3  -5  10  -11.32   16.13
  -3  -5  10   -3.07   12.77
   3   5 -10   -1.88    1.23
   3   5 -10    1.05    1.45
  -3  -5   9  312.68   14.83
  -3  -5   9  242.52   15.33
  -3  -5   9  321.14   12.15
  -3  -5   9  288.34    7.41
  -3  -5   9  303.53   23.07
  -3  -5   9  347.00   38.33
  -3  -5   9  282.99   41.99
   3   5  -9  304.91   10.13
   3   5  -9  305.05   10.02
  -3  -5   8    7.12    2.57
  -3  -5   8    2.46    1.70
  -3  -5   8    4.59    1.95
  -3  -5   8    5.53    2.31
  -3  -5   8    1.30    1.27
  -3  -5   8   11.90   19.49
  -3  -5   8   19.85   12.19
   3   5  -8    4.92    2.53
   3   5  -8    5.17    2.10
   3   5  -8    3.22    1.52
  -3  -5   7   20.54    3.87
  -3  -5   7   14.00    3.36
  -3  -5   7   15.51    2.97
  -3  -5   7   23.62    4.77
  -3  -5   7   41.44   15.23
  -3  -5   7    3.54    7.12
   3   5  -7    9.98    3.04
   3   5  -7   18.59    4.41
   3   5  -7   26.11    3.00
   3   5  -7   24.45    5.06
  -3  -5   6  167.59   10.02
  -3  -5   6  198.11   13.81
  -3  -5   6  196.85    8.21
  -3  -5   6  218.91   33.63
  -3  -5   6  180.79   29.62
   3   5  -6  160.64    9.80
   3   5  -6  170.84    7.49
   3   5  -6  185.09   10.20
  -3  -5   5  151.78    9.26
  -3  -5   5  122.96    8.46
  -3  -5   5  166.18    8.79
  -3  -5   5  107.16   23.40
  -3  -5   5  152.43   27.92
   3   5  -5  126.43    8.53
   3   5  -5  134.32    8.86
   3   5  -5  144.26    7.16
   3   5  -5  158.73    9.11
  -3  -5   4 1652.05   30.31
  -3  -5   4 1323.85   27.49
  -3  -5   4 1780.72   24.59
  -3  -5   4 1440.95   70.02
   3   5  -4 1336.36   27.23
   3   5  -4 1420.41   28.46
   3   5  -4 1484.96   23.80
   3   5  -4 1588.36   17.58
   3   5  -4 1689.44   28.93
  -3  -5   3  307.26   13.20
  -3  -5   3  238.54   11.79
  -3  -5   3  263.57   10.70
  -3  -5   3  249.90   29.58
   3   5  -3  233.30   11.36
   3   5  -3  247.15   11.93
   3   5  -3  283.35   10.96
   3   5  -3  263.89    8.21
   3   5  -3  294.78   12.01
   3   5  -3  333.04   33.52
  -3  -5   2  232.00   11.68
  -3  -5   2  257.53   12.12
  -3  -5   2  271.31   10.60
  -3  -5   2  270.69   11.14
  -3  -5   2  266.32   10.13
  -3  -5   2  251.02   30.02
   3   5  -2  246.03   11.83
   3   5  -2  271.67   12.66
   3   5  -2  266.14   11.14
   3   5  -2  280.53    9.44
   3   5  -2  299.99   12.08
   3   5  -2  251.60   28.82
  -3  -5   1    4.27    2.42
  -3  -5   1    3.25    2.13
  -3  -5   1    2.50    1.37
  -3  -5   1    4.99    2.06
  -3  -5   1    5.53    1.74
  -3  -5   1    1.37    5.82
   3   5  -1    4.41    1.99
   3   5  -1    3.94    1.84
   3   5  -1    2.03    1.52
   3   5  -1   -3.51    3.11
  -3  -5   0  468.88   17.32
  -3  -5   0  463.63   17.03
  -3  -5   0  510.18   14.36
  -3  -5   0  645.54   28.50
  -3  -5   0  487.83   13.53
  -3  -5   0  569.45   45.75
   3   5   0  436.73   16.53
   3   5   0  465.88   17.29
   3   5   0  508.33   17.18
   3   5   0  393.69   38.80
  -3  -5  -1   63.14    6.69
  -3  -5  -1   46.76    6.98
  -3  -5  -1   70.30    5.46
  -3  -5  -1   73.81    6.94
  -3  -5  -1   70.74    5.32
  -3  -5  -1   25.21   17.87
   3   5   1   46.36    6.55
   3   5   1   61.55    6.65
   3   5   1   62.35    6.33
   3   5   1   55.95   18.44
  -3  -5  -2   71.24    7.34
  -3  -5  -2   70.16    5.64
  -3  -5  -2   88.75    6.11
  -3  -5  -2   70.02   22.78
   3   5   2   65.17    7.05
   3   5   2   68.06    8.03
   3   5   2   79.96   23.51
  -3  -5  -3    8.68    3.44
  -3  -5  -3   12.66    3.15
  -3  -5  -3   17.79   16.38
   3   5   3   11.25    3.22
   3   5   3   23.72    5.79
   3   5   3   13.27    3.33
   3   5   3   13.78   14.79
  -3  -5  -4   19.06    6.94
  -3  -5  -4   25.42    4.30
  -3  -5  -4   -2.13   14.94
   3   5   4   25.03    5.79
   3   5   4   19.46    4.56
   3   5   4    4.09    3.72
   3   5   4   17.54   17.54
  -3  -5  -5    9.19    2.89
  -3  -5  -5   -0.80    1.52
  -3  -5  -5  -10.70   17.40
   3   5   5    1.95    1.95
   3   5   5    7.45    3.36
   3   5   5   -1.56    1.48
   3   5   5   -0.54    1.70
   3   5   5  -22.49   24.77
  -3  -6  11   64.70    7.63
  -3  -6  11   78.91    8.68
  -3  -6  11  109.94   28.93
  -3  -6  11    6.76   21.88
   3   6 -11   75.30    7.99
   3   6 -11   63.00    4.67
   3   6 -11   65.13    4.88
  -3  -6  10   70.41    7.56
  -3  -6  10   92.00    7.16
  -3  -6  10   91.06    8.64
  -3  -6  10   54.39   22.60
  -3  -6  10  115.51   29.44
   3   6 -10   82.78    8.06
   3   6 -10   90.81    5.24
  -3  -6   9   34.39    5.61
  -3  -6   9   39.46    6.91
  -3  -6   9   39.24    4.59
  -3  -6   9   33.85    5.82
  -3  -6   9    7.88    8.17
  -3  -6   9   42.39   16.82
   3   6  -9   27.49    5.17
   3   6  -9   32.37    3.25
  -3  -6   8   54.25    6.08
  -3  -6   8   38.99    6.73
  -3  -6   8   45.60    4.70
  -3  -6   8   33.52    5.53
  -3  -6   8   60.94   20.32
  -3  -6   8   49.08   18.84
   3   6  -8   54.75    8.25
   3   6  -8   39.82    3.69
  -3  -6   7   23.90    4.67
  -3  -6   7   17.68    3.62
  -3  -6   7   26.47    4.45
  -3  -6   7   31.39   14.25
  -3  -6   7   11.68    9.76
   3   6  -7   32.91    5.82
   3   6  -7   23.54    3.58
   3   6  -7    1.30    1.63
  -3  -6   6  171.20   10.70
  -3  -6   6  205.13    9.26
  -3  -6   6  217.24   34.14
  -3  -6   6  179.59   31.97
   3   6  -6  152.62   10.31
   3   6  -6  187.37   11.25
   3   6  -6  179.92    8.82
   3   6  -6  198.65   10.89
  -3  -6   5   33.92    7.85
  -3  -6   5   32.33    5.89
  -3  -6   5   51.86    4.63
  -3  -6   5   17.72    9.91
  -3  -6   5   51.21   17.29
   3   6  -5   31.28    5.50
   3   6  -5   36.67    6.26
   3   6  -5   43.72    4.16
   3   6  -5   49.55    7.85
  -3  -6   4   11.03    3.62
  -3  -6   4    5.03    2.68
  -3  -6   4    4.88    2.06
  -3  -6   4    8.46    9.84
   3   6  -4   10.31    3.00
   3   6  -4    5.03    2.46
   3   6  -4    5.28    1.95
   3   6  -4    2.64    1.16
   3   6  -4    5.39    2.10
   3   6  -4   24.19   12.33
  -3  -6   3    4.30    1.95
  -3  -6   3    4.23    1.92
  -3  -6   3    4.81    1.84
  -3  -6   3    8.39    2.39
  -3  -6   3    3.36    1.56
  -3  -6   3  -17.87    7.34
   3   6  -3    3.87    2.10
   3   6  -3    2.60    1.95
   3   6  -3    5.75    2.06
   3   6  -3    3.91    1.59
   3   6  -3    6.87    2.35
   3   6  -3   14.90   10.85
  -3  -6   2  536.90   23.76
  -3  -6   2  360.78   15.62
  -3  -6   2  370.98   12.77
  -3  -6   2  397.52   14.43
  -3  -6   2  373.87   13.20
  -3  -6   2  420.42   40.65
   3   6  -2  304.91   14.32
   3   6  -2  345.41   15.37
   3   6  -2  414.92   14.94
   3   6  -2  374.13   11.57
   3   6  -2  435.50   15.30
   3   6  -2  418.25   41.23
  -3  -6   1   44.34    7.16
  -3  -6   1   27.63    5.24
  -3  -6   1   35.73    4.16
  -3  -6   1   43.18    6.44
  -3  -6   1   32.51    4.99
  -3  -6   1   49.84   18.81
   3   6  -1   19.57    4.12
   3   6  -1   30.99    5.42
   3   6  -1   35.55    5.75
   3   6  -1   38.70    6.65
   3   6  -1   28.71   15.70
  -3  -6   0   44.19    7.63
  -3  -6   0   44.12    4.38
  -3  -6   0   59.24    8.68
  -3  -6   0   44.37    4.70
  -3  -6   0   62.13   20.90
   3   6   0   32.04    5.79
   3   6   0   41.84    6.44
   3   6   0   21.37   16.53
  -3  -6  -1    1.34    1.95
  -3  -6  -1    1.41    1.70
  -3  -6  -1   -1.45    1.56
  -3  -6  -1   29.84   14.76
   3   6   1   -0.43    1.66
   3   6   1    3.94    2.10
   3   6   1  -14.43   12.98
  -3  -6  -2   97.21    9.04
  -3  -6  -2  116.56    7.88
  -3  -6  -2  112.18   27.67
   3   6   2   96.92    9.29
   3   6   2  108.17    9.51
   3   6   2   54.17   22.96
  -3  -6  -3    0.29    2.10
  -3  -6  -3    1.52    1.59
  -3  -6  -3  -20.87   19.31
   3   6   3    1.34    1.77
   3   6   3    7.16    3.04
   3   6   3    4.20    2.42
   3   6   3    8.17   20.72
  -3  -7  11    5.24    3.36
  -3  -7  11    3.44    2.64
  -3  -7  11   -5.17   19.96
  -3  -7  11    1.41   19.17
   3   7 -11   11.14    4.27
  -3  -7  10   -1.08    1.59
  -3  -7  10   -3.83    1.88
  -3  -7  10    1.34    1.99
  -3  -7  10  -24.74   13.71
  -3  -7  10   -5.39   14.25
   3   7 -10    2.31    2.31
   3   7 -10    1.41    1.19
   3   7 -10    1.45    1.19
  -3  -7   9   69.33    7.70
  -3  -7   9  106.54    9.15
  -3  -7   9   86.90   29.47
  -3  -7   9   80.32   22.28
   3   7  -9   87.52    8.43
   3   7  -9   77.28    4.52
  -3  -7   8    0.14    1.23
  -3  -7   8    1.77    1.56
  -3  -7   8   13.24   17.87
   3   7  -8   -0.65    1.23
   3   7  -8    2.13    1.23
  -3  -7   7   81.23    8.10
  -3  -7   7   62.57    6.80
  -3  -7   7   86.04    6.80
  -3  -7   7   63.00   21.01
  -3  -7   7   54.17   18.77
   3   7  -7   62.53    6.91
   3   7  -7   75.08    5.14
  -3  -7   6    7.27    3.18
  -3  -7   6    3.80    1.37
  -3  -7   6    3.44    2.06
  -3  -7   6   24.52   16.74
  -3  -7   6   25.93   15.70
   3   7  -6    4.70    2.06
   3   7  -6    3.33    1.63
  -3  -7   5  174.93   13.74
  -3  -7   5   94.64    8.50
  -3  -7   5  135.51    8.75
  -3  -7   5  130.88    8.28
  -3  -7   5   83.83   24.48
  -3  -7   5  128.42   30.16
   3   7  -5  122.96    9.51
   3   7  -5  133.01    7.59
   3   7  -5   24.52    4.48
  -3  -7   4   43.36    7.09
  -3  -7   4   46.54    4.92
  -3  -7   4   40.58    4.92
  -3  -7   4   16.78   14.72
   3   7  -4   31.28    5.89
   3   7  -4   41.77    4.63
   3   7  -4   36.82    2.97
   3   7  -4   42.93    5.32
   3   7  -4   37.47   17.25
  -3  -7   3   27.27    5.71
  -3  -7   3   37.00    4.34
  -3  -7   3   33.78    5.06
  -3  -7   3   22.96    4.16
  -3  -7   3    9.01   14.43
   3   7  -3   33.20    6.37
   3   7  -3   32.44    5.06
   3   7  -3   34.94    5.03
   3   7  -3   35.91    5.61
   3   7  -3    6.69    9.73
  -3  -7   2   68.28    7.59
  -3  -7   2   68.50    5.61
  -3  -7   2   65.57    6.33
  -3  -7   2   61.88    5.97
  -3  -7   2   85.28   23.54
   3   7  -2   61.59   13.96
   3   7  -2   73.27    6.76
   3   7  -2   70.20    5.42
   3   7  -2   88.06    7.49
   3   7  -2   53.70   18.66
  -3  -7   1    9.15    3.65
  -3  -7   1   10.27    2.60
  -3  -7   1    5.17    2.42
  -3  -7   1   -4.52    8.25
   3   7  -1   -0.90    1.84
   3   7  -1   10.81    3.40
   3   7  -1    0.33    1.81
   3   7  -1   52.58   17.32
  -3  -7   0  157.71   12.08
  -3  -7   0  191.02    8.97
  -3  -7   0  182.02   10.13
  -3  -7   0  210.41   41.19
   3   7   0  175.40   12.73
   3   7   0  192.25   12.08
   3   7   0  158.04   34.07
  -3  -7  -1   24.23    5.03
  -3  -7  -1   33.27    4.05
  -3  -7  -1   34.94    5.32
  -3  -7  -1  -10.49   20.87
   3   7   1   20.29    5.06
   3   7   1   27.74    5.71
   3   7   1   20.65   16.74
  -3  -7  -2   39.09    7.34
  -3  -7  -2   29.66    5.35
  -3  -7  -2   57.00   25.32
   3   7   2   13.13    4.74
   3   7   2   21.30    5.71
   3   7   2   33.38    6.11
   3   7   2   28.03   23.94
  -3  -8   9   -3.00    1.66
  -3  -8   9   22.24   21.92
   3   8  -9    2.35    2.10
  -3  -8   8   26.44    6.40
  -3  -8   8    2.13    2.35
  -3  -8   8  -20.00   13.38
  -3  -8   8   12.26   20.61
   3   8  -8   39.67    3.69
  -3  -8   7  119.99   10.16
  -3  -8   7   67.09    6.84
  -3  -8   7  147.30   33.13
  -3  -8   7  170.01   33.85
   3   8  -7  126.14   12.37
   3   8  -7  153.95    7.52
  -3  -8   6   24.52    5.14
  -3  -8   6    7.12    3.04
  -3  -8   6    1.30   18.73
   3   8  -6   25.42    9.08
   3   8  -6   20.22    3.51
  -3  -8   5   28.32    5.50
  -3  -8   5   23.43    4.63
  -3  -8   5   -1.95    1.74
  -3  -8   5   16.60    4.74
  -3  -8   5   -1.66   11.14
   3   8  -5   16.74    4.20
   3   8  -5   23.04    4.16
  -3  -8   4   14.86    3.58
  -3  -8   4   20.79    3.69
  -3  -8   4   20.04    4.59
  -3  -8   4   -7.27   16.06
   3   8  -4   10.56    3.07
   3   8  -4   16.74    3.83
   3   8  -4   26.65   18.77
  -3  -8   3   39.42    6.76
  -3  -8   3   49.84    5.24
  -3  -8   3   47.59    5.79
  -3  -8   3   52.95    5.89
  -3  -8   3   96.81   26.15
   3   8  -3   44.56    7.23
   3   8  -3   54.83    6.00
   3   8  -3   55.80    4.48
   3   8  -3   41.81   23.90
  -3  -8   2  123.76   10.74
  -3  -8   2  139.56    8.10
  -3  -8   2  135.98    9.29
  -3  -8   2   44.48   25.79
   3   8  -2  131.82   10.63
   3   8  -2  153.09   10.20
   3   8  -2  136.78    7.85
   3   8  -2  124.80   31.75
  -3  -8   1   15.77    4.67
  -3  -8   1   13.49    3.15
  -3  -8   1   22.64    4.67
  -3  -8   1   43.69   19.53
   3   8  -1   22.42    5.39
   3   8  -1   25.71    4.77
   3   8  -1   30.05   26.87
  -3  -9   6   -1.41    2.24
  -3  -9   6    4.59    2.21
  -3  -9   6   -0.76    1.77
  -3  -9   6   -4.01   23.65
   3   9  -6    6.73    3.18
   3   9  -6   -1.95    1.77
  -3  -9   5   70.23    8.61
  -3  -9   5   59.02    6.08
  -3  -9   5   67.27    7.16
  -3  -9   5   93.02   27.59
  -3  -9   5    7.05   20.36
   3   9  -5   68.86    8.32
   3   9  -5   62.35    6.18
  -4  11  -2   14.00    4.01
  -4  11  -2   19.24    5.89
  -4  11  -2   17.11    3.65
  -4  11  -2  -17.18   16.24
   4 -11   2   14.68    4.01
   4 -11   2   19.28    4.70
   4 -11   2   12.59    4.30
   4 -11   2  -18.95   18.95
  -4  11  -3   13.24    3.33
  -4  11  -3   18.19    4.99
  -4  11  -3   25.60    4.23
  -4  11  -3   80.18   18.30
   4 -11   3   19.10    4.20
   4 -11   3   27.38    5.06
   4 -11   3   18.37    3.54
   4 -11   3   24.92    5.53
   4 -11   3   50.85   18.19
  -4  11  -4    1.81    2.10
  -4  11  -4  161.04   12.91
  -4  11  -4  177.53    8.57
   4 -11   4  177.21   10.05
   4 -11   4  158.94    9.40
   4 -11   4  146.97    7.56
   4 -11   4  171.42   13.20
   4 -11   4  165.20   28.21
  -4  11  -5  141.51    7.34
  -4  11  -5  173.63   13.71
   4 -11   5  174.89    9.51
   4 -11   5  160.35    9.11
   4 -11   5  148.82    7.56
   4 -11   5  169.07   13.20
  -4  11  -6    0.40    1.74
  -4  11  -6    5.14    3.07
   4 -11   6    2.17    2.17
   4 -11   6    3.72    2.28
   4 -11   6    1.30    2.35
   4 -11   6   -1.95    1.92
   4 -11   6    9.44   14.36
  -4  10   1    8.25    3.58
  -4  10   1   11.03    3.44
  -4  10   1    5.10    2.57
  -4  10   1   -2.68   15.01
   4 -10  -1   14.47    4.16
   4 -10  -1    6.33    3.25
   4 -10  -1    8.79    3.83
   4 -10  -1   16.96   20.65
  -4  10   0    5.75    2.46
  -4  10   0    3.58    2.57
  -4  10   0    0.76    1.77
  -4  10   0   14.72   16.60
   4 -10   0    0.69    1.88
   4 -10   0    3.00    2.53
   4 -10   0    3.98    1.88
  -4  10  -1   61.23    6.15
  -4  10  -1   68.28    7.67
  -4  10  -1   70.92    6.37
  -4  10  -1   54.57   18.59
   4 -10   1   66.18    6.62
   4 -10   1   48.79    6.69
   4 -10   1   58.04    6.26
   4 -10   1   71.50    8.03
   4 -10   1   74.93   22.39
  -4  10  -2   64.45    5.93
  -4  10  -2   77.32    8.06
  -4  10  -2   66.07    6.00
  -4  10  -2   50.27   20.22
   4 -10   2   75.62    6.47
   4 -10   2   61.26    6.26
   4 -10   2   65.57    5.79
   4 -10   2   77.18    8.39
   4 -10   2   67.66   18.91
  -4  10  -3  126.18    7.20
  -4  10  -3  158.19   11.79
  -4  10  -3  138.22    7.96
  -4  10  -3   78.59   20.72
   4 -10   3  135.47    8.28
   4 -10   3  136.09    8.39
   4 -10   3  114.57    6.80
   4 -10   3  141.30   11.07
   4 -10   3  126.83   25.39
  -4  10  -4    4.23    1.59
  -4  10  -4   14.07    2.89
  -4  10  -4   18.66    5.10
  -4  10  -4   20.25    3.44
   4 -10   4   14.14    3.04
   4 -10   4   13.27    2.75
   4 -10   4    8.10    2.06
   4 -10   4   14.50    2.46
   4 -10   4   18.19    4.34
   4 -10   4   31.39   13.45
  -4  10  -5    7.41    1.99
  -4  10  -5    9.01    2.06
  -4  10  -5   10.38    3.83
   4 -10   5   11.72    3.00
   4 -10   5   12.12    2.82
   4 -10   5    5.97    3.22
   4 -10   5   13.13    9.22
   4 -10   5    1.34    9.62
  -4  10  -6   93.38    9.48
   4 -10   6  109.40    6.58
   4 -10   6   96.42    7.41
   4 -10   6  107.41    7.59
   4 -10   6  118.69    5.61
   4 -10   6  104.59    9.58
   4 -10   6  119.05   18.48
   4 -10   6   70.05   16.13
   4 -10   7    1.41    1.41
   4 -10   7    0.14    1.34
   4 -10   7   -1.45    2.03
   4 -10   7   -3.18    1.19
   4 -10   7    3.87    2.03
   4 -10   7    3.76    8.50
   4 -10   7  -17.43    8.86
  -4  10  -8   31.17    6.18
   4 -10   8   35.04    3.98
   4 -10   8   27.38    3.87
   4 -10   8   40.32    4.48
   4 -10   8   28.24    5.75
   4 -10   8   40.18   13.13
   4 -10   8   28.24   12.44
  -4   9   3   25.86    5.42
  -4   9   3   17.61    3.69
  -4   9   3   30.70    6.18
  -4   9   3   18.23   16.35
   4  -9  -3   17.40    5.03
   4  -9  -3   19.60    4.63
   4  -9  -3   25.17    5.89
   4  -9  -3   33.16   18.59
  -4   9   2   16.53    4.27
  -4   9   2   12.87    4.09
  -4   9   2   21.34    4.85
  -4   9   2   25.35   16.60
   4  -9  -2   14.94    3.65
   4  -9  -2   11.93    3.54
   4  -9  -2   19.17    5.32
   4  -9  -2   21.92   13.81
  -4   9   1   48.97    5.75
  -4   9   1   45.03    7.27
  -4   9   1   49.40    5.32
  -4   9   1   64.41   20.32
   4  -9  -1   58.88    6.29
   4  -9  -1   37.21    6.04
   4  -9  -1   42.17    6.98
   4  -9  -1   26.18   17.68
  -4   9   0    5.71    2.03
  -4   9   0    5.93    3.04
  -4   9   0    3.98    1.88
  -4   9   0   32.19   10.63
   4  -9   0    8.03    2.78
   4  -9   0    9.11    3.07
   4  -9   0    8.17    3.07
   4  -9   0    4.23    2.75
  -4   9  -1   15.77    3.40
  -4   9  -1   18.30    4.27
  -4   9  -1   23.51    4.41
  -4   9  -1   42.53   13.71
   4  -9   1   24.48    7.05
   4  -9   1   19.13    3.72
   4  -9   1   13.81    3.40
   4  -9   1   13.74    3.98
   4  -9   1   -5.06   10.63
  -4   9  -2   59.67    4.85
  -4   9  -2   72.37    5.21
  -4   9  -2   69.73    7.70
  -4   9  -2   69.94    5.79
  -4   9  -2  112.15   19.85
   4  -9   2   70.56    5.71
   4  -9   2   70.27    5.82
   4  -9   2   60.21    5.17
   4  -9   2   78.69    7.78
   4  -9   2   73.63   18.08
  -4   9  -3   46.29    4.16
  -4   9  -3   59.56    6.91
  -4   9  -3   59.74    5.10
  -4   9  -3   32.11   11.17
   4  -9   3   48.21    4.63
   4  -9   3   65.89    5.24
   4  -9   3   54.65    3.98
   4  -9   3   51.75    4.34
   4  -9   3   66.47    7.12
   4  -9   3   46.58   13.60
  -4   9  -4   13.27    2.28
  -4   9  -4   14.65    2.42
  -4   9  -4   28.64    6.26
  -4   9  -4   19.31    3.44
   4  -9   4   16.27    3.00
   4  -9   4   19.38    3.22
   4  -9   4   14.18    2.78
   4  -9   4   22.17    2.97
   4  -9   4    8.97    2.97
   4  -9   4   11.10    7.78
   4  -9   4   20.76    8.68
  -4   9  -5   19.17    2.21
  -4   9  -5   19.57    1.88
  -4   9  -5   10.34    3.54
   4  -9   5   13.16    4.01
   4  -9   5   19.31    3.07
   4  -9   5   14.32    3.15
   4  -9   5   20.14    2.78
   4  -9   5   13.81    4.23
   4  -9   5   22.68    8.06
   4  -9   5    5.57    7.12
  -4   9  -6   63.69    7.05
   4  -9   6   50.70    4.05
   4  -9   6   36.63    3.22
   4  -9   6   38.59    5.46
   4  -9   6   43.58    6.69
   4  -9   6   57.86   10.27
  -4   9  -7   60.07    7.02
   4  -9   7   55.59    4.12
   4  -9   7   48.46    3.80
   4  -9   7   65.96    6.80
   4  -9   7   52.04    4.23
   4  -9   7   66.76    5.61
   4  -9   7   54.79    6.80
   4  -9   7   50.96   10.74
   4  -9   7   62.13   11.10
  -4   9  -8  141.91   10.85
   4  -9   8  136.49    6.51
   4  -9   8  105.71    5.68
   4  -9   8  122.82    6.84
   4  -9   8  154.82    9.26
   4  -9   8  139.89   13.56
   4  -9   8  123.83   13.67
  -4   9  -9   42.10    7.23
   4  -9   9   20.47    3.29
   4  -9   9   27.52    4.38
   4  -9   9   28.10    4.16
   4  -9   9   32.73    5.32
   4  -9   9   18.23    8.79
   4  -9   9   38.26   10.38
  -4   8   5   11.86    4.12
  -4   8   5    8.46    3.07
  -4   8   5    6.37    3.04
  -4   8   5  -45.97   19.93
   4  -8  -5   10.42    3.94
   4  -8  -5    5.21    2.82
   4  -8  -5   27.45   20.90
  -4   8   4   50.70    7.63
  -4   8   4   57.36    5.97
  -4   8   4   42.31    6.73
  -4   8   4   27.27   22.28
   4  -8  -4   47.41    7.27
   4  -8  -4   61.95    9.08
   4  -8  -4   47.34    8.64
   4  -8  -4   34.25   17.18
  -4   8   3   23.36    4.70
  -4   8   3   22.46    4.59
  -4   8   3   14.65    3.83
  -4   8   3    5.28   16.53
   4  -8  -3   25.50    5.14
   4  -8  -3   17.72    3.94
   4  -8  -3   13.67    4.45
   4  -8  -3   -1.95   11.43
  -4   8   2  115.94    8.43
  -4   8   2  126.22    8.90
  -4   8   2  126.76    9.08
  -4   8   2   63.43   18.66
   4  -8  -2  123.72    8.93
   4  -8  -2  103.11    8.32
   4  -8  -2  119.52   10.42
   4  -8  -2  110.56    9.51
   4  -8  -2  102.20   23.69
  -4   8   1    5.21    2.31
  -4   8   1    9.26    3.29
  -4   8   1    4.05    2.03
  -4   8   1    6.98    9.51
   4  -8  -1    3.25    1.52
   4  -8  -1    0.94    2.82
   4  -8  -1    5.14    2.10
   4  -8  -1    2.82    1.63
   4  -8  -1   -0.40    7.70
  -4   8   0   16.27    3.33
  -4   8   0   10.63    2.68
  -4   8   0   15.44    3.94
  -4   8   0   13.31    3.22
  -4   8   0   16.82    9.76
   4  -8   0   16.35    3.51
   4  -8   0   18.37    3.76
   4  -8   0   22.02    4.34
   4  -8   0   12.01    3.36
   4  -8   0   22.53   14.97
  -4   8  -1  161.58    7.49
  -4   8  -1  187.41    8.17
  -4   8  -1  199.99   11.46
  -4   8  -1  205.31    9.98
  -4   8  -1  197.17   22.02
   4  -8   1  195.76    9.01
   4  -8   1  163.32    8.21
   4  -8   1  189.54    9.11
   4  -8   1  202.70   11.72
   4  -8   1  220.28   23.54
  -4   8  -2   25.97    2.89
  -4   8  -2   -0.61    0.80
  -4   8  -2   35.80    5.93
  -4   8  -2   26.94    4.27
  -4   8  -2   25.68    8.43
   4  -8   2   32.11    3.51
   4  -8   2   28.61    3.40
   4  -8   2   27.41    2.71
   4  -8   2   30.96    3.62
   4  -8   2   39.49    6.29
   4  -8   2   23.18    4.56
   4  -8   2   35.08   10.38
  -4   8  -3   64.30    3.72
  -4   8  -3   74.86    4.01
  -4   8  -3   87.27    7.81
  -4   8  -3   86.33    5.97
  -4   8  -3   76.85   13.24
   4  -8   3   74.17    4.81
   4  -8   3   84.81    5.03
   4  -8   3   81.59    6.87
   4  -8   3   85.42    5.14
   4  -8   3   85.53    7.70
   4  -8   3   70.02    6.80
   4  -8   3   78.37   13.89
  -4   8  -4   11.65    3.36
  -4   8  -4    9.51    2.50
   4  -8   4   12.69    2.21
   4  -8   4   13.67    2.28
   4  -8   4    7.96    2.35
   4  -8   4   10.85    2.03
   4  -8   4   10.02    3.36
   4  -8   4   15.73    1.84
   4  -8   4   10.23    3.33
   4  -8   4    6.00    4.88
   4  -8   4    9.04    5.93
  -4   8  -5   22.49    4.56
   4  -8   5   19.57    2.24
   4  -8   5   15.23    2.35
   4  -8   5   19.10    3.33
   4  -8   5   22.17    2.06
   4  -8   5   12.04    3.87
   4  -8   5   17.87    3.29
   4  -8   5   22.13    3.25
   4  -8   5   15.33    3.51
   4  -8   5   22.78    5.39
   4  -8   5   17.68    5.68
  -4   8  -6   71.03   15.19
   4  -8   6   40.94    3.15
   4  -8   6   40.58    3.18
   4  -8   6   42.10    5.14
   4  -8   6   43.72    4.09
   4  -8   6   49.76    4.70
   4  -8   6   44.45    6.76
   4  -8   6   31.61    7.02
  -4   8  -7  531.66   19.60
   4  -8   7  493.47   10.78
   4  -8   7  400.38    9.73
   4  -8   7  476.36   17.32
   4  -8   7  440.02   13.27
   4  -8   7  546.41   16.38
   4  -8   7  468.88   20.25
   4  -8   7  482.19   20.40
  -4   8  -8   47.88    7.78
   4  -8   8   37.43    3.40
   4  -8   8   41.12    3.36
   4  -8   8   38.37    4.52
   4  -8   8   57.76    5.75
   4  -8   8   44.16    8.64
   4  -8   8   42.20    8.06
  -4   8  -9    7.74    2.78
   4  -8   9    9.98    2.03
   4  -8   9    6.08    1.92
   4  -8   9    7.52    2.42
   4  -8   9    3.98    2.46
   4  -8   9    0.54    7.56
   4  -8   9   -2.86    6.80
  -4   8 -10    8.82    2.57
   4  -8  10    2.10    1.84
   4  -8  10    3.54    1.63
   4  -8  10    4.38    2.71
   4  -8  10    4.63    2.75
   4  -8  10    1.92   11.36
   4  -8  10   -9.55    9.26
  -4   7   6   -0.72    1.95
  -4   7   6   -2.28    1.30
  -4   7   6    4.09    2.89
  -4   7   6   -1.56    1.27
  -4   7   6   -7.63   18.62
   4  -7  -6    3.65    2.42
   4  -7  -6    0.51    1.84
   4  -7  -6    8.35   19.06
  -4   7   5    4.01    2.42
  -4   7   5   -0.29    1.63
  -4   7   5    2.46    1.84
  -4   7   5    1.12   13.89
   4  -7  -5   -1.45    1.45
   4  -7  -5   -1.95    1.56
   4  -7  -5    2.78   13.42
  -4   7   4   71.57    7.38
  -4   7   4   92.26    6.94
  -4   7   4   89.51    8.28
  -4   7   4   70.30   19.46
   4  -7  -4   86.40    7.96
   4  -7  -4   73.38    7.27
   4  -7  -4   82.85    8.21
   4  -7  -4   97.07   24.05
  -4   7   3  164.84   12.30
  -4   7   3  186.79    9.98
  -4   7   3  180.64   10.89
   4  -7  -3  182.52   15.15
   4  -7  -3  139.78    9.37
   4  -7  -3  168.09   10.63
   4  -7  -3  172.29   14.43
   4  -7  -3  207.08   32.11
  -4   7   2    1.23    1.30
  -4   7   2   71.39    6.11
  -4   7   2   78.91    6.76
  -4   7   2   74.39    6.65
  -4   7   2   93.56   20.47
   4  -7  -2   72.19    6.33
   4  -7  -2   75.33    6.80
   4  -7  -2   64.37    9.26
   4  -7  -2   72.15    7.20
   4  -7  -2   91.03   21.99
  -4   7   1   27.12    4.09
  -4   7   1   35.55    4.05
  -4   7   1   37.14    5.86
  -4   7   1   44.23    4.95
  -4   7   1   30.20    5.14
  -4   7   1   32.44   12.55
   4  -7  -1   38.08    4.45
   4  -7  -1   35.91    4.12
   4  -7  -1   42.49    5.82
   4  -7  -1   32.37    5.57
   4  -7  -1   43.90   13.81
  -4   7   0    2.17    1.34
  -4   7   0    3.80    1.66
  -4   7   0    1.59    1.63
  -4   7   0    2.28    1.52
  -4   7   0    4.88    5.53
   4  -7   0    3.18    1.66
   4  -7   0    0.29    1.19
   4  -7   0   -0.54    1.01
   4  -7   0    0.58    1.19
   4  -7   0   -3.94    6.18
  -4   7  -1   68.10    4.27
  -4   7  -1   67.63    4.20
  -4   7  -1   82.24    6.98
  -4   7  -1   79.82    6.04
  -4   7  -1   64.12   13.27
   4  -7   1   74.61    4.99
   4  -7   1   75.66    4.95
   4  -7   1   83.00    4.16
   4  -7   1   80.11    5.53
   4  -7   1   70.52    6.44
   4  -7   1   46.29   11.90
  -4   7  -2    1.01    0.76
  -4   7  -2   -0.22    0.65
  -4   7  -2    1.12    1.05
  -4   7  -2    1.59    1.01
  -4   7  -2    0.00    3.00
   4  -7   2    1.52    0.98
   4  -7   2    2.42    1.19
   4  -7   2    1.45    0.94
   4  -7   2    1.84    0.87
   4  -7   2    1.08    1.41
   4  -7   2   -0.33    0.98
   4  -7   2    0.69    3.76
  -4   7  -3  379.37   15.01
  -4   7  -3  347.83   11.57
   4  -7   3  314.89    8.17
   4  -7   3  313.62    8.14
   4  -7   3  324.25   10.52
   4  -7   3  381.97   10.27
   4  -7   3  373.66   14.47
   4  -7   3  296.37   10.60
   4  -7   3  382.52    7.81
   4  -7   3  334.78   13.49
   4  -7   3  333.69   19.06
  -4   7  -4  113.70    8.39
   4  -7   4  120.10    4.56
   4  -7   4   93.38    4.09
   4  -7   4  101.41    6.51
   4  -7   4  116.05    5.17
   4  -7   4  115.47    8.32
   4  -7   4   99.13    6.11
   4  -7   4  112.22    5.39
   4  -7   4  113.20    7.92
   4  -7   4  117.03    9.15
   4  -7   4   96.92    8.64
  -4   7  -5  635.89   19.67
   4  -7   5  558.53    9.26
   4  -7   5  487.21    8.68
   4  -7   5  533.11   16.06
   4  -7   5  552.27   10.20
   4  -7   5  616.54   19.46
   4  -7   5  513.94   14.00
   4  -7   5  593.83   14.32
   4  -7   5  568.55   17.83
   4  -7   5  571.84   15.04
   4  -7   5  521.28   14.43
  -4   7  -6  112.98    8.35
   4  -7   6  104.15    4.20
   4  -7   6   86.47    3.76
   4  -7   6   96.42    7.38
   4  -7   6  105.13    4.12
   4  -7   6  123.94    9.22
   4  -7   6   97.50    6.29
   4  -7   6   98.15    6.65
   4  -7   6   89.25    6.00
  -4   7  -7  164.48   10.27
   4  -7   7  153.70    5.61
   4  -7   7  126.76    5.06
   4  -7   7  162.60   10.20
   4  -7   7  151.24    8.17
   4  -7   7  178.40    9.69
   4  -7   7  159.23   10.31
  -4   7  -8   53.02    6.04
  -4   7  -8   63.51    7.05
   4  -7   8   47.88    3.69
   4  -7   8   50.02    3.62
   4  -7   8   47.30    4.92
   4  -7   8   56.49    6.04
   4  -7   8   46.76    8.43
   4  -7   8   33.89    7.99
  -4   7  -9   84.92    7.31
  -4   7  -9   71.68    8.06
   4  -7   9   64.55    4.59
   4  -7   9   57.83    4.34
   4  -7   9   60.36    6.00
   4  -7   9   63.65    7.34
   4  -7   9   86.14   12.80
   4  -7   9   44.23   10.67
  -4   7 -10   80.25    8.82
   4  -7  10   51.90    4.56
   4  -7  10   56.81    6.15
   4  -7  10   59.93    7.31
   4  -7  10   38.15   14.10
   4  -7  10   80.72   15.30
  -4   6   7   30.45    5.68
  -4   6   7   17.21    4.20
  -4   6   7   35.51    4.20
  -4   6   7    8.10   21.16
   4  -6  -7   33.20    6.69
   4  -6  -7   22.02    5.24
   4  -6  -7   23.90   23.43
  -4   6   6   59.38    6.87
  -4   6   6   59.49    7.02
  -4   6   6   28.39   19.75
   4  -6  -6   78.77    7.92
   4  -6  -6   47.95    7.27
   4  -6  -6   64.88    7.38
   4  -6  -6   66.90   22.60
  -4   6   5  107.23    8.61
  -4   6   5  114.61    7.05
  -4   6   5  108.82    9.01
  -4   6   5  118.51    5.64
  -4   6   5   42.57   18.52
   4  -6  -5  119.85    9.19
   4  -6  -5   92.47    8.25
   4  -6  -5   74.14   22.86
  -4   6   4  350.40   14.47
  -4   6   4  368.27   12.91
  -4   6   4  340.64   15.08
  -4   6   4  382.30    8.28
  -4   6   4  363.64   36.63
   4  -6  -4  335.18   14.47
   4  -6  -4  299.01   13.49
   4  -6  -4  339.15   14.86
   4  -6  -4  347.69   15.66
   4  -6  -4  420.24   39.38
  -4   6   3 1555.05   27.56
  -4   6   3 1795.44   29.87
  -4   6   3 2047.51   30.81
  -4   6   3 1800.79   32.80
   4  -6  -3 1918.26   31.79
   4  -6  -3 1655.63   29.22
   4  -6  -3 1548.94   45.17
   4  -6  -3 1860.36   34.43
   4  -6  -3 2070.80   80.07
  -4   6   2  133.99    7.41
  -4   6   2  155.26    8.10
  -4   6   2  189.11    9.55
  -4   6   2  165.13    9.44
  -4   6   2  148.53    9.19
  -4   6   2  135.22   22.49
   4  -6  -2  174.53    8.93
   4  -6  -2  147.55    8.10
   4  -6  -2  160.79    9.11
   4  -6  -2  172.25   10.05
   4  -6  -2  172.07   25.57
  -4   6   1   33.52    3.40
  -4   6   1   40.72    3.76
  -4   6   1   43.14    4.70
  -4   6   1   43.04    4.67
  -4   6   1   38.48    4.59
  -4   6   1   43.43   11.54
   4  -6  -1   40.00    4.01
   4  -6  -1   36.53    3.80
   4  -6  -1   41.16    4.48
   4  -6  -1   39.89    4.81
   4  -6  -1   43.04   12.26
  -4   6   0    0.58    1.01
  -4   6   0   -0.11    0.61
  -4   6   0    1.05    1.37
  -4   6   0    0.22    0.80
   4  -6   0    0.94    1.08
   4  -6   0    0.07    0.90
   4  -6   0   -0.11    1.01
   4  -6   0   -0.80    0.76
   4  -6   0    8.75    4.48
  -4   6  -1    1.19    0.61
  -4   6  -1   -1.27    0.51
  -4   6  -1    1.34    1.16
  -4   6  -1   -5.57    2.06
   4  -6   1   -0.33    0.61
   4  -6   1    0.07    0.58
   4  -6   1    2.97    1.12
   4  -6   1    1.01    0.98
   4  -6   1    0.47    0.80
   4  -6   1   -0.14    0.83
   4  -6   1    3.22    4.27
  -4   6  -2  181.95    9.69
  -4   6  -2  163.43    7.92
  -4   6  -2  169.40   11.93
   4  -6   2  151.02    5.14
   4  -6   2  147.62    5.06
   4  -6   2  146.29    6.69
   4  -6   2  196.77    9.58
   4  -6   2  166.83    7.96
   4  -6   2  173.81    4.95
   4  -6   2  157.43    8.50
   4  -6   2  161.77   12.33
  -4   6  -3  524.39   16.53
  -4   6  -3  500.81   13.71
   4  -6   3  494.95    7.59
   4  -6   3  453.87    7.27
   4  -6   3  457.74   12.87
   4  -6   3  536.51   16.13
   4  -6   3  445.51   12.80
   4  -6   3  516.04   10.74
   4  -6   3  457.67   14.39
   4  -6   3  550.21   13.34
   4  -6   3  504.32   12.87
  -4   6  -4    3.72    1.92
   4  -6   4    4.20    1.66
   4  -6   4    4.77    1.45
   4  -6   4    4.70    1.92
   4  -6   4    6.76    2.24
   4  -6   4    2.60    1.27
   4  -6   4    2.13    1.45
  -4   6  -5  330.73   13.53
   4  -6   5  295.25   12.04
   4  -6   5  313.01    8.50
   4  -6   5  347.04   13.89
   4  -6   5  313.66   11.14
   4  -6   5  318.18   11.10
  -4   6  -6   43.51    5.21
  -4   6  -6   53.67    5.79
   4  -6   6   40.03    2.46
   4  -6   6   37.29    2.39
   4  -6   6   39.06    4.81
   4  -6   6   44.88    3.29
   4  -6   6   53.05    7.38
   4  -6   6   48.10    4.52
   4  -6   6   51.46    4.99
  -4   6  -7   83.14    6.91
  -4   6  -7   86.47    7.78
   4  -6   7   67.41    3.76
   4  -6   7   66.43    3.65
   4  -6   7   74.64    7.05
   4  -6   7   73.70    4.38
   4  -6   7   81.91    7.74
   4  -6   7   70.59    5.71
   4  -6   7   70.74    6.37
   4  -6   7   65.86    7.52
   4  -6   7   72.80    8.17
  -4   6  -8  192.58   10.56
  -4   6  -8  203.32   12.51
   4  -6   8  153.16    6.47
   4  -6   8  145.64    6.29
   4  -6   8  180.79    7.16
   4  -6   8  191.78    9.95
   4  -6   8  178.40   10.78
   4  -6   8  151.89   14.21
   4  -6   8  178.76   14.72
  -4   6  -9  328.49   16.60
   4  -6   9  233.70   11.28
   4  -6   9  238.43    9.04
   4  -6   9  285.30    9.62
   4  -6   9  252.97   12.26
   4  -6   9  282.99   14.50
   4  -6   9  241.51   12.30
   4  -6   9  273.51   21.84
  -4   6 -10   33.89    3.18
  -4   6 -10   39.85    7.09
   4  -6  10   43.40    4.74
   4  -6  10   36.06    4.88
   4  -6  10   47.70    4.34
   4  -6  10   35.80    6.51
   4  -6  10   33.42   11.61
  -4   5   8   11.07    4.16
  -4   5   8    7.88    3.69
  -4   5   8    7.45    2.57
  -4   5   8   18.26   20.98
   4  -5  -8    6.11    3.11
   4  -5  -8    8.68    3.36
   4  -5  -8   10.13   19.10
  -4   5   7   26.51    5.64
  -4   5   7   18.19    4.85
  -4   5   7   44.77    4.81
  -4   5   7   31.03   17.72
   4  -5  -7   36.78    6.91
   4  -5  -7   20.61    4.52
   4  -5  -7   35.80    4.30
   4  -5  -7   30.78    6.29
   4  -5  -7   42.46   18.88
  -4   5   6  546.20   19.35
  -4   5   6  552.13   20.32
  -4   5   6  676.86   15.91
  -4   5   6  470.79   44.05
   4  -5  -6  625.83   21.19
   4  -5  -6  509.06   18.77
   4  -5  -6  574.55   14.68
   4  -5  -6  532.42   20.14
   4  -5  -6  585.00   66.11
  -4   5   5  807.92   21.92
  -4   5   5  869.40   17.83
  -4   5   5  796.21   14.18
  -4   5   5  744.06   22.35
  -4   5   5  894.65   16.38
  -4   5   5  741.92   51.72
   4  -5  -5  820.25   22.53
   4  -5  -5  646.84   19.78
   4  -5  -5  771.47   22.57
   4  -5  -5  754.62   15.01
   4  -5  -5  749.66   22.53
   4  -5  -5  826.91   55.44
  -4   5   4   92.62    7.23
  -4   5   4  105.89    7.38
  -4   5   4  116.49    6.84
  -4   5   4  104.37    4.81
  -4   5   4   98.73    7.85
  -4   5   4  116.78    5.24
  -4   5   4   94.72    7.78
  -4   5   4  105.31   19.96
   4  -5  -4  105.57    7.67
   4  -5  -4  101.95    7.34
   4  -5  -4  102.74    4.88
   4  -5  -4   86.58    7.34
   4  -5  -4  124.05   22.02
  -4   5   3   42.57    4.45
  -4   5   3   46.04    4.48
  -4   5   3   58.59    5.03
  -4   5   3   48.53    3.18
  -4   5   3   47.88    5.28
  -4   5   3   40.36    4.74
  -4   5   3   -8.57    6.84
   4  -5  -3   47.52    4.85
   4  -5  -3   34.94    4.16
   4  -5  -3   48.03    5.14
   4  -5  -3   43.61    2.75
   4  -5  -3   46.40    5.14
   4  -5  -3   37.32   12.69
  -4   5   2   86.87    5.53
  -4   5   2   87.77    5.53
  -4   5   2  105.35    6.69
  -4   5   2   98.51    4.41
  -4   5   2  107.59    7.16
  -4   5   2   90.81    6.65
  -4   5   2  135.47   20.58
   4  -5  -2   96.56    6.08
   4  -5  -2   83.76    5.57
   4  -5  -2  109.62    7.12
   4  -5  -2  102.78    3.33
   4  -5  -2  105.17    7.27
   4  -5  -2  130.05   19.78
  -4   5   1   -0.14    0.61
  -4   5   1    0.25    0.72
  -4   5   1    0.80    0.87
  -4   5   1   -0.11    0.54
  -4   5   1   -0.58    0.76
  -4   5   1    0.98    0.90
  -4   5   1   -3.83    3.72
   4  -5  -1   -0.29    0.65
   4  -5  -1   -1.01    0.61
   4  -5  -1    1.48    0.98
   4  -5  -1    0.18    0.90
   4  -5  -1    4.63    4.12
  -4   5   0  617.51   10.74
  -4   5   0  807.34   18.66
  -4   5   0  738.23   13.34
  -4   5   0  745.94   17.25
  -4   5   0  696.43   16.67
  -4   5   0  684.89   29.62
   4  -5   0  694.26   13.27
   4  -5   0  663.41   12.19
   4  -5   0  762.39   17.90
   4  -5   0  722.39   13.13
   4  -5   0  709.26    8.10
   4  -5   0  827.23    8.72
   4  -5   0  705.40   17.00
   4  -5   0  807.09   32.15
  -4   5  -1  733.89    8.25
  -4   5  -1  804.31    8.64
  -4   5  -1  969.98   20.65
  -4   5  -1  907.38   15.98
  -4   5  -1  895.55   18.37
  -4   5  -1  809.30   25.64
   4  -5   1  892.01   11.83
   4  -5   1  817.36   11.25
   4  -5   1  935.44   20.04
   4  -5   1  853.92   15.37
   4  -5   1  984.05   19.31
   4  -5   1  858.34   17.79
   4  -5   1  877.14   11.21
   4  -5   1  877.65   18.37
   4  -5   1 1025.35   29.00
  -4   5  -2  110.19    7.09
  -4   5  -2  103.47    6.40
   4  -5   2   98.73    6.73
   4  -5   2   96.85    5.61
   4  -5   2  118.15    6.84
   4  -5   2  102.17    6.08
   4  -5   2  103.65    4.63
   4  -5   2  106.29    7.81
  -4   5  -3  315.86   12.15
  -4   5  -3  270.08   10.02
   4  -5   3  300.96   11.72
   4  -5   3  285.45   10.38
   4  -5   3  311.70    9.19
   4  -5   3  334.16   11.90
   4  -5   3  283.32   10.16
   4  -5   3  304.33    9.11
   4  -5   3  260.35   11.97
  -4   5  -4   13.92    3.47
  -4   5  -4    9.55    2.39
   4  -5   4    9.91    2.57
   4  -5   4    7.56    2.28
   4  -5   4   14.72    2.50
   4  -5   4   12.84    3.11
   4  -5   4   13.27    2.78
   4  -5   4   12.33    2.68
  -4   5  -5  125.49    7.92
  -4   5  -5  127.81    8.21
   4  -5   5  124.30    7.74
   4  -5   5  109.15    7.38
   4  -5   5   96.63    5.24
   4  -5   5  132.11    8.32
   4  -5   5  109.47    6.73
   4  -5   5  117.90    7.05
  -4   5  -6  176.45    9.55
  -4   5  -6  196.88   10.78
   4  -5   6  145.53    4.85
   4  -5   6  142.78    4.81
   4  -5   6  153.74    8.82
   4  -5   6  158.94    9.58
   4  -5   6  150.77    6.76
   4  -5   6  197.28   10.63
   4  -5   6  164.95    8.72
   4  -5   6  172.87    9.37
   4  -5   6  160.50    9.55
   4  -5   6  141.55    9.08
  -4   5  -7 1092.18   26.80
  -4   5  -7 1006.14   32.73
   4  -5   7  823.76   13.85
   4  -5   7  797.69   13.71
   4  -5   7  887.20   21.26
   4  -5   7  873.34   23.76
   4  -5   7  914.25   17.58
   4  -5   7 1021.44   25.64
   4  -5   7  930.52   21.77
   4  -5   7  976.60   23.90
   4  -5   7  829.19   30.16
  -4   5  -8  311.81    7.20
  -4   5  -8  266.17    6.69
  -4   5  -8  345.48   15.98
  -4   5  -8  334.49   23.07
   4  -5   8  256.01    9.04
   4  -5   8  263.61    9.04
   4  -5   8  309.50   10.92
   4  -5   8  317.89   13.81
   4  -5   8  327.80   14.90
   4  -5   8  270.15   11.83
   4  -5   8  274.31   20.65
  -4   5  -9   53.89    3.76
  -4   5  -9   43.69    3.40
  -4   5  -9   58.55    7.05
  -4   5  -9   57.76   13.38
   4  -5   9   46.15    4.56
   4  -5   9   43.25    4.27
   4  -5   9   57.97    5.10
   4  -5   9   54.93    7.31
   4  -5   9   66.83    7.09
   4  -5   9   55.91    5.71
   4  -5   9   65.06   14.21
  -4   5 -10   11.17    2.42
  -4   5 -10   12.04    3.25
  -4   5 -10   12.95    3.98
  -4   5 -10   18.73    9.33
   4  -5  10    5.75    2.42
   4  -5  10    8.90    2.35
   4  -5  10    8.86    2.93
   4  -5  10    9.69    3.76
   4  -5  10    7.31   12.44
  -4   4   9   16.56    4.59
  -4   4   9    7.81    3.83
  -4   4   9    6.62    2.68
  -4   4   9   54.03   25.93
   4  -4  -9    9.76    3.22
   4  -4  -9    8.03    3.40
   4  -4  -9   -1.56   21.81
  -4   4   8   54.17    6.62
  -4   4   8   41.52    6.73
  -4   4   8   52.22    5.61
  -4   4   8   47.67   20.07
   4  -4  -8   48.79    7.63
   4  -4  -8   28.17    5.24
   4  -4  -8   42.10   21.19
  -4   4   7  105.89    8.75
  -4   4   7   96.45    8.64
  -4   4   7  112.29    7.34
  -4   4   7   68.28   21.23
   4  -4  -7   96.31    8.39
   4  -4  -7   74.17    7.63
   4  -4  -7   95.37    6.87
   4  -4  -7   93.78    8.61
   4  -4  -7  105.28   27.16
  -4   4   6   10.81    2.97
  -4   4   6    7.02    2.60
  -4   4   6   10.38    2.75
  -4   4   6   10.34    9.62
   4  -4  -6    7.31    2.60
   4  -4  -6    1.84    1.95
   4  -4  -6    5.28    1.99
   4  -4  -6    9.40    3.18
   4  -4  -6   31.75   12.12
  -4   4   5  133.12   12.15
  -4   4   5  136.63    8.68
  -4   4   5  141.12    9.22
  -4   4   5  151.68    7.05
  -4   4   5  137.82   25.68
   4  -4  -5  147.81    9.08
   4  -4  -5  123.94    8.28
   4  -4  -5  128.57   11.07
   4  -4  -5  146.90    7.74
   4  -4  -5  130.63    8.82
   4  -4  -5  116.52   23.62
  -4   4   4  124.41    7.38
  -4   4   4  120.83    7.38
  -4   4   4  141.12    6.22
  -4   4   4  132.22    8.43
  -4   4   4  159.88    6.47
  -4   4   4  124.84    7.99
  -4   4   4  112.65   20.18
   4  -4  -4  145.93    8.32
   4  -4  -4  132.47    9.51
   4  -4  -4  140.75    8.53
   4  -4  -4  141.51    6.08
   4  -4  -4  142.89   22.75
  -4   4   3   23.15    3.47
  -4   4   3   31.75    3.51
  -4   4   3   38.52    5.93
  -4   4   3   35.51    3.00
  -4   4   3   32.22    3.98
  -4   4   3   26.73    4.09
  -4   4   3    6.44    3.87
   4  -4  -3   36.53    3.83
   4  -4  -3   32.66    3.62
   4  -4  -3   38.12    3.80
   4  -4  -3   37.83    4.27
   4  -4  -3   34.43    2.71
   4  -4  -3   33.16    4.01
   4  -4  -3   38.52   11.79
  -4   4   2  216.34    7.88
  -4   4   2  228.53    8.14
  -4   4   2  251.78   12.04
  -4   4   2  241.36    7.63
  -4   4   2  239.30   10.13
  -4   4   2  242.05    9.80
  -4   4   2  249.90   21.34
   4  -4  -2  252.39    8.90
   4  -4  -2  227.33    8.39
   4  -4  -2  255.03    9.55
   4  -4  -2  270.37    6.76
   4  -4  -2  238.90    9.91
   4  -4  -2  260.64   22.13
  -4   4   1    6.87    1.66
  -4   4   1    4.74    1.30
  -4   4   1    6.65    2.13
  -4   4   1    7.20    1.77
  -4   4   1    4.34    1.63
  -4   4   1    4.70    1.41
  -4   4   1    6.29    4.30
   4  -4  -1    5.75    1.52
   4  -4  -1    4.48    1.41
   4  -4  -1    2.78    1.30
   4  -4  -1    6.33    1.74
   4  -4  -1    8.25    1.45
   4  -4  -1    4.38    1.41
   4  -4  -1   14.18    5.82
  -4   4   0   36.02    2.21
  -4   4   0   35.77    2.17
  -4   4   0   53.70    4.63
  -4   4   0   41.30    3.40
  -4   4   0   37.58    3.98
  -4   4   0   42.67    4.59
  -4   4   0   37.21    7.31
   4  -4   0   41.23    2.71
   4  -4   0   40.83    2.75
   4  -4   0   41.55    4.09
   4  -4   0   40.11    3.36
   4  -4   0   44.27    3.65
   4  -4   0   37.97    3.83
   4  -4   0   41.30    3.76
   4  -4   0   50.59    8.21
  -4   4  -1  239.74    9.73
  -4   4  -1  236.34    8.46
  -4   4  -1  215.90   11.14
  -4   4  -1  200.57    8.86
   4  -4   1  238.76    4.74
   4  -4   1  192.61    4.23
   4  -4   1  221.40    9.26
   4  -4   1  221.80    8.14
   4  -4   1  244.51    8.68
   4  -4   1  196.34    8.28
   4  -4   1  205.81    7.85
   4  -4   1  248.42    9.91
  -4   4  -2   17.36    3.07
  -4   4  -2   18.99    3.15
   4  -4   2   26.11    4.12
   4  -4   2   16.56    3.51
   4  -4   2   26.54    4.01
   4  -4   2   18.59    2.75
   4  -4   2   20.72    2.50
  -4   4  -3  152.25    8.03
  -4   4  -3  151.64    7.63
   4  -4   3  139.67    7.63
   4  -4   3  141.51    7.41
   4  -4   3  133.74    6.26
   4  -4   3  151.31    7.52
   4  -4   3  132.91    6.98
   4  -4   3  135.36    6.51
   4  -4   3  126.69    6.04
  -4   4  -4  233.34   10.09
  -4   4  -4  239.59   10.20
   4  -4   4  234.64   10.02
   4  -4   4  191.06    9.26
   4  -4   4  213.26    8.06
   4  -4   4  241.83   10.13
   4  -4   4  218.51    9.37
   4  -4   4  214.86    9.11
  -4   4  -5 1420.92   26.54
  -4   4  -5 1380.27   26.76
   4  -4   5 1058.00   12.08
   4  -4   5 1124.33   12.51
   4  -4   5 1287.25   23.80
   4  -4   5 1204.61   24.66
   4  -4   5 1210.73   20.07
   4  -4   5 1388.98   25.97
   4  -4   5 1239.69   23.36
   4  -4   5 1292.71   24.23
   4  -4   5 1188.74   24.95
  -4   4  -6  699.75   19.93
  -4   4  -6  680.84   26.62
   4  -4   6  539.69   10.74
   4  -4   6  596.47   11.32
   4  -4   6  644.46   17.11
   4  -4   6  588.15   18.41
   4  -4   6  616.25   16.17
   4  -4   6  755.56   20.51
   4  -4   6  621.67   17.47
   4  -4   6  675.16   19.02
   4  -4   6  592.05   25.21
  -4   4  -7    1.16    0.80
  -4   4  -7   -1.41    0.61
  -4   4  -7    0.61    0.87
  -4   4  -7    1.12    1.30
  -4   4  -7   -3.87    4.34
   4  -4   7    0.11    0.94
   4  -4   7    3.87    1.41
   4  -4   7   -1.63    0.90
   4  -4   7   -0.11    1.16
   4  -4   7   -3.47    1.23
   4  -4   7   -2.93    1.16
   4  -4   7    0.11    0.98
   4  -4   7   -0.51    0.83
   4  -4   7    0.58    4.77
  -4   4  -8   50.92    3.69
  -4   4  -8   35.77    3.29
  -4   4  -8   38.44    4.48
  -4   4  -8   36.35    5.79
  -4   4  -8   51.21   12.15
   4  -4   8   38.91    4.05
   4  -4   8   41.19    3.94
   4  -4   8   45.86    4.70
   4  -4   8   54.10    5.17
   4  -4   8   47.30    5.50
   4  -4   8   41.70    6.69
   4  -4   8   34.18    4.16
   4  -4   8   50.67   12.55
  -4   4  -9   11.43    2.35
  -4   4  -9   63.14    5.97
  -4   4  -9   43.36    7.38
  -4   4  -9   37.43   13.81
   4  -4   9   55.98    5.24
   4  -4   9   44.01    4.85
   4  -4   9   68.32    6.04
   4  -4   9   60.11    7.31
   4  -4   9   42.10    5.03
  -4   4 -10    1.66    1.95
  -4   4 -10    2.21    2.13
  -4   4 -10    0.36    1.74
  -4   4 -10    8.57   12.15
   4  -4  10    3.22    2.17
   4  -4  10    1.84    1.92
   4  -4  10    6.26    2.82
   4  -4  10    2.13    2.46
   4  -4  10    3.33    2.28
   4  -4  10    4.56   14.54
  -4   3  10   -5.21    2.13
  -4   3  10   -4.48    1.52
  -4   3  10   -0.04    1.63
  -4   3  10   42.96   25.03
   4  -3 -10   -0.07    2.06
   4  -3 -10    1.56    1.92
   4  -3 -10    0.65    1.34
   4  -3 -10   28.97   27.92
  -4   3   9   21.77    4.63
  -4   3   9   16.09    4.38
  -4   3   9   22.13    4.88
  -4   3   9   20.07   18.52
   4  -3  -9   17.87    4.67
   4  -3  -9   28.39    5.71
   4  -3  -9   25.71    5.89
   4  -3  -9   16.06    4.45
   4  -3  -9   48.64   16.49
  -4   3   8    7.49    2.53
  -4   3   8   10.63    3.11
  -4   3   8   14.39    3.33
  -4   3   8   26.04   11.83
   4  -3  -8    9.26    2.78
   4  -3  -8    5.35    2.97
   4  -3  -8   11.32    3.87
   4  -3  -8    8.35    3.04
   4  -3  -8   22.71   15.04
  -4   3   7  133.74    9.44
  -4   3   7  219.92   12.01
  -4   3   7  220.10   12.22
  -4   3   7  269.97   11.39
  -4   3   7  265.88   31.64
   4  -3  -7  246.03   12.80
   4  -3  -7  193.52   11.25
   4  -3  -7  217.97   10.16
   4  -3  -7  197.35   11.72
   4  -3  -7  287.55   33.74
  -4   3   6   77.75    6.76
  -4   3   6   73.81    6.51
  -4   3   6   78.62    6.91
  -4   3   6   98.77    6.44
  -4   3   6   64.81    6.47
   4  -3  -6   92.18    7.41
   4  -3  -6   77.36    6.55
   4  -3  -6   75.95    8.17
   4  -3  -6   65.10    5.28
   4  -3  -6   79.63    6.98
   4  -3  -6   74.75   19.85
  -4   3   5   82.85    6.26
  -4   3   5   83.61    6.37
  -4   3   5   94.03    7.20
  -4   3   5  105.46    6.08
  -4   3   5   87.34    6.69
  -4   3   5   88.46   18.37
   4  -3  -5   98.84    7.12
   4  -3  -5  105.60    7.27
   4  -3  -5   97.10    5.21
   4  -3  -5   95.26    7.20
   4  -3  -5  101.37    5.93
   4  -3  -5   90.12    6.98
   4  -3  -5   94.61   19.60
  -4   3   4  198.69    8.86
  -4   3   4  228.42    9.55
  -4   3   4  235.87   10.63
  -4   3   4  256.55    8.64
  -4   3   4  222.38    9.95
  -4   3   4  252.58   24.01
   4  -3  -4  249.83   10.20
   4  -3  -4  204.33    9.15
   4  -3  -4  244.87    8.53
   4  -3  -4  253.52   10.89
   4  -3  -4  249.65    8.50
   4  -3  -4  216.30   22.60
  -4   3   3  268.42    9.29
  -4   3   3  252.29    9.04
  -4   3   3  256.34    8.53
  -4   3   3  271.09   10.78
  -4   3   3  246.21    9.73
  -4   3   3   -3.65    2.78
   4  -3  -3  297.93   10.09
   4  -3  -3  265.23    9.44
   4  -3  -3  283.53    9.40
   4  -3  -3  312.43    8.72
   4  -3  -3  248.42    9.91
   4  -3  -3  298.61   24.74
  -4   3   2  378.65    9.69
  -4   3   2  372.06    9.69
  -4   3   2  394.88   10.42
  -4   3   2  399.04   12.44
  -4   3   2  368.66   11.43
  -4   3   2  400.24   25.13
   4  -3  -2  410.69   10.52
   4  -3  -2  377.45   10.02
   4  -3  -2  397.60   11.32
   4  -3  -2  465.04    9.98
   4  -3  -2  366.82   11.10
   4  -3  -2  455.13   26.80
  -4   3   1   57.43    3.25
  -4   3   1   51.43    3.07
  -4   3   1   55.69    3.94
  -4   3   1   52.55    3.87
  -4   3   1   37.97    8.39
   4  -3  -1   55.80    3.40
   4  -3  -1   50.16    3.25
   4  -3  -1   58.66    5.50
   4  -3  -1   45.06    4.05
   4  -3  -1   58.66    3.51
   4  -3  -1   52.95    3.91
   4  -3  -1   46.36    9.37
  -4   3   0  333.30    5.93
  -4   3   0  303.78    5.64
  -4   3   0  357.74   10.27
  -4   3   0  345.84   10.99
  -4   3   0  341.61    9.04
  -4   3   0  344.87   18.05
   4  -3   0  401.86    7.49
   4  -3   0  348.88    6.94
   4  -3   0  381.54   11.90
   4  -3   0  351.63   10.05
   4  -3   0  402.55    9.66
   4  -3   0  317.82   12.84
   4  -3   0  367.04    9.48
   4  -3   0  404.50   17.58
  -4   3  -1  446.56   12.01
  -4   3  -1  467.94   12.80
  -4   3  -1  497.52   12.77
  -4   3  -1  443.92   12.08
   4  -3   1  444.86    5.97
   4  -3   1  503.88   13.38
   4  -3   1  474.88   12.30
   4  -3   1  536.83   11.72
   4  -3   1  444.90   12.84
   4  -3   1  459.62    9.95
  -4   3  -2  237.28    8.46
   4  -3   2  215.58    8.97
   4  -3   2  198.26    8.43
   4  -3   2  215.83    8.17
   4  -3   2  228.89    8.25
   4  -3   2  205.67    8.61
   4  -3   2  199.09    6.37
  -4   3  -3  239.34    9.98
  -4   3  -3  263.42   10.16
  -4   3  -3  270.73    7.81
   4  -3   3  193.26    4.09
   4  -3   3  224.04    4.41
   4  -3   3  225.34    9.29
   4  -3   3  213.63    9.26
   4  -3   3  236.84    8.75
   4  -3   3  262.30    9.55
   4  -3   3  220.79    9.22
   4  -3   3  232.54    9.15
  -4   3  -4  192.47    9.04
  -4   3  -4  179.02   11.25
   4  -3   4  148.20    4.67
   4  -3   4  151.82    4.74
   4  -3   4  175.69    8.39
   4  -3   4  177.93    7.92
   4  -3   4  184.37    8.68
   4  -3   4  160.28    8.28
   4  -3   4  179.45    8.75
   4  -3   4  139.99    9.87
  -4   3  -5  232.61    5.71
  -4   3  -5  209.00    5.39
  -4   3  -5  227.80    9.37
  -4   3  -5  263.03   11.32
  -4   3  -5  225.16   16.38
   4  -3   5  178.80    9.91
   4  -3   5  218.18    6.87
   4  -3   5  241.94    9.98
   4  -3   5  208.53   10.42
   4  -3   5  225.78    9.44
   4  -3   5  241.04   10.74
   4  -3   5  232.40   10.49
   4  -3   5  238.22   10.92
   4  -3   5  207.30    7.52
   4  -3   5  192.76   14.86
  -4   3  -6  179.52    6.22
  -4   3  -6  143.72    5.50
  -4   3  -6  170.81    8.64
  -4   3  -6  177.89   10.02
  -4   3  -6  202.67   17.76
   4  -3   6  138.69    6.33
   4  -3   6  156.56    6.76
   4  -3   6  161.87    8.35
   4  -3   6  154.89   11.83
   4  -3   6  163.97    8.53
   4  -3   6  192.72   10.34
   4  -3   6  167.66    9.48
   4  -3   6  161.73    9.66
   4  -3   6  149.04    8.46
   4  -3   6  133.85   15.23
  -4   3  -7   -1.48    0.51
  -4   3  -7  327.87    9.55
  -4   3  -7  335.43   12.73
  -4   3  -7  397.74   16.02
  -4   3  -7  335.72   25.71
   4  -3   7  276.95    9.98
   4  -3   7  347.47   11.25
   4  -3   7  348.20   12.37
   4  -3   7  352.35   13.24
   4  -3   7  387.65   16.02
   4  -3   7  320.67   10.99
   4  -3   7   58.44   12.98
  -4   3  -8    2.31    1.45
  -4   3  -8    0.36    1.63
  -4   3  -8    0.14    1.52
  -4   3  -8    9.04    3.40
  -4   3  -8    6.84    7.92
   4  -3   8    0.80    1.52
   4  -3   8    2.53    1.27
   4  -3   8   -1.77    1.19
   4  -3   8    1.52    1.74
   4  -3   8   -1.34    1.19
   4  -3   8   -1.16    1.34
  -4   3  -9   92.98    6.47
  -4   3  -9   -3.76    1.59
  -4   3  -9  122.16   10.02
  -4   3  -9  110.99   22.64
   4  -3   9   80.11    6.65
   4  -3   9   87.88    7.20
   4  -3   9   97.21    6.55
   4  -3   9  109.69    8.39
   4  -3   9  115.73   10.13
   4  -3   9   94.14    7.02
   4  -3   9  127.05   23.33
  -4   3 -10    2.03    2.24
  -4   3 -10    5.86    2.97
   4  -3  10    8.06    3.54
   4  -3  10    7.96    3.07
   4  -3  10   10.67    3.40
   4  -3  10    4.85    3.04
   4  -3  10    3.29    2.31
  -4   2  10   -2.35    1.30
  -4   2  10   -0.14    1.70
  -4   2  10   -8.28   10.85
   4  -2 -10    3.98    1.70
   4  -2 -10   10.16    3.18
   4  -2 -10    3.65    2.86
   4  -2 -10   35.19   20.69
  -4   2   9   11.43    3.36
  -4   2   9   22.31    5.21
  -4   2   9   26.33    5.10
  -4   2   9    8.46   10.38
   4  -2  -9   27.38    5.89
   4  -2  -9   23.54    4.74
   4  -2  -9   17.40    4.27
   4  -2  -9   10.63    2.93
   4  -2  -9   19.20   15.37
  -4   2   8    3.44    2.10
  -4   2   8    5.86    2.75
  -4   2   8    3.00    1.84
  -4   2   8    2.64    5.97
   4  -2  -8    3.83    1.74
   4  -2  -8    5.46    2.50
   4  -2  -8    4.27    2.03
   4  -2  -8    4.99    2.57
   4  -2  -8    7.12    2.97
   4  -2  -8   -0.40   10.52
  -4   2   7   86.07    7.31
  -4   2   7   87.66    7.45
  -4   2   7   84.12    7.23
  -4   2   7  117.50    7.67
  -4   2   7   83.40    7.27
  -4   2   7  100.47   22.24
   4  -2  -7  102.09    7.99
   4  -2  -7   83.03    7.09
   4  -2  -7  100.65    4.56
   4  -2  -7   91.10    7.59
   4  -2  -7   96.38    6.87
   4  -2  -7   80.86    7.20
   4  -2  -7   71.61   20.29
  -4   2   6   40.36    4.99
  -4   2   6   44.05    4.88
  -4   2   6   47.92    5.24
  -4   2   6   50.16    4.77
  -4   2   6   44.34    4.99
   4  -2  -6   45.53    5.03
   4  -2  -6   55.19    7.23
   4  -2  -6   46.69    3.44
   4  -2  -6   43.58    4.99
   4  -2  -6   42.71    4.41
   4  -2  -6   37.94    4.70
   4  -2  -6   76.81   17.21
  -4   2   5  615.34   16.31
  -4   2   5  590.17   16.13
  -4   2   5  600.84   16.96
  -4   2   5  669.66   19.20
  -4   2   5  597.01   16.49
  -4   2   5  658.60   42.28
   4  -2  -5  582.43   16.09
   4  -2  -5  680.91   13.45
   4  -2  -5  660.91   15.41
   4  -2  -5  579.90   16.49
   4  -2  -5  745.29   44.70
  -4   2   4  912.51   18.15
  -4   2   4  851.14   17.72
  -4   2   4  889.73   19.49
  -4   2   4 1019.13   18.01
  -4   2   4  859.35   18.23
  -4   2   4 1071.64   49.08
   4  -2  -4  961.55   19.17
   4  -2  -4  861.30   17.94
   4  -2  -4  996.38   16.82
   4  -2  -4 1028.38   17.97
   4  -2  -4  835.95   18.23
   4  -2  -4 1076.88   49.18
  -4   2   3  306.61    9.55
  -4   2   3  275.14    9.08
  -4   2   3  302.59    9.76
  -4   2   3  307.98   10.92
   4  -2  -3  311.85   12.59
   4  -2  -3  289.86    9.48
   4  -2  -3  321.40    9.80
   4  -2  -3  357.67    9.95
   4  -2  -3  292.36    9.84
   4  -2  -3  356.73   26.07
  -4   2   2 1111.60   20.00
  -4   2   2 1004.41   15.44
  -4   2   2 1039.34   17.72
  -4   2   2 1026.76   20.83
  -4   2   2 1060.28   16.74
  -4   2   2 1178.21   41.66
   4  -2  -2 1206.60   17.43
   4  -2  -2  993.34   15.70
   4  -2  -2 1171.16   19.02
   4  -2  -2 1056.09   19.20
   4  -2  -2 1232.68   17.72
   4  -2  -2 1017.68   16.56
   4  -2  -2 1251.45   43.04
  -4   2   1    1.77    0.80
  -4   2   1    1.92    0.80
  -4   2   1    3.80    1.45
  -4   2   1    9.48    2.17
  -4   2   1    3.36    1.12
  -4   2   1    1.48    3.94
   4  -2  -1    3.51    1.08
   4  -2  -1    2.13    0.94
   4  -2  -1    4.85    1.74
   4  -2  -1    4.63    1.12
   4  -2  -1    2.89    1.59
   4  -2  -1    0.61    0.58
   4  -2  -1    3.47    2.64
  -4   2   0    2.10    0.76
  -4   2   0    0.69    0.72
  -4   2   0    3.47    1.27
  -4   2   0    2.82    0.87
  -4   2   0    5.21    3.29
  -4   2   0    5.28    2.17
   4  -2   0    1.56    0.72
   4  -2   0    2.97    0.94
   4  -2   0    3.76    1.45
   4  -2   0    0.90    0.69
   4  -2   0    3.22    1.08
   4  -2   0    2.10    1.27
   4  -2   0    2.93    0.98
  -4   2  -1 3192.63   17.58
  -4   2  -1 2546.87   15.73
  -4   2  -1 2925.92   31.75
  -4   2  -1 3442.06   27.70
  -4   2  -1 2836.23   32.08
  -4   2  -1 3494.54   50.12
  -4   2  -1 2860.89   45.17
   4  -2   1 2584.99   18.41
   4  -2   1 2796.19   19.24
   4  -2   1 3292.77   34.97
   4  -2   1 3063.38   31.54
   4  -2   1 3468.61   27.59
   4  -2   1 2909.17   31.79
   4  -2   1 2965.19   19.67
  -4   2  -2 1376.90   11.68
  -4   2  -2 1211.49   10.96
  -4   2  -2 1316.18   22.42
  -4   2  -2 1563.33   20.90
  -4   2  -2 1260.45   30.81
   4  -2   2 1091.56   12.40
   4  -2   2 1216.95   13.13
   4  -2   2 1429.38   22.64
   4  -2   2 1283.49   21.92
   4  -2   2 1339.18   21.34
   4  -2   2 1612.08   21.05
   4  -2   2 1319.33   22.13
   4  -2   2 1298.57   12.48
   4  -2   2 1244.94   30.70
  -4   2  -3  262.52    5.93
  -4   2  -3  264.98    5.97
  -4   2  -3  296.33   11.28
  -4   2  -3  326.57   10.63
  -4   2  -3  288.16   16.82
   4  -2   3  220.50    7.31
   4  -2   3  261.94    6.84
   4  -2   3  304.80   10.70
   4  -2   3  270.51   10.67
   4  -2   3  262.12   11.68
   4  -2   3  268.31   10.49
   4  -2   3  266.06   15.88
  -4   2  -4  253.37    6.84
  -4   2  -4  279.77   10.56
  -4   2  -4  311.67   11.39
  -4   2  -4  262.34   18.30
   4  -2   4  225.60    7.20
   4  -2   4  259.59    7.78
   4  -2   4  290.55   10.63
   4  -2   4  253.95   10.96
   4  -2   4  264.08   10.38
   4  -2   4  293.73   10.96
   4  -2   4  269.43   11.10
   4  -2   4  272.25   11.32
   4  -2   4  252.86    6.69
   4  -2   4  292.47   19.49
  -4   2  -5    6.37    1.66
  -4   2  -5    5.39    1.52
  -4   2  -5    7.70    2.28
  -4   2  -5    8.06    2.68
  -4   2  -5    5.93    4.77
   4  -2   5    6.22    1.81
   4  -2   5    6.80    1.77
   4  -2   5    2.64    1.48
   4  -2   5    5.28    2.31
   4  -2   5    8.86    2.39
   4  -2   5    3.94    1.92
   4  -2   5    6.76    1.56
   4  -2   5    2.71    5.39
  -4   2  -6  125.71    6.26
  -4   2  -6  119.05    6.15
  -4   2  -6  133.48    8.28
  -4   2  -6  142.92    9.19
  -4   2  -6  116.31   18.19
   4  -2   6  106.87    6.29
   4  -2   6  117.21    6.62
   4  -2   6  131.97    7.45
   4  -2   6  125.53    7.99
   4  -2   6  121.26    8.68
   4  -2   6  120.94    5.86
  -4   2  -7   84.95    5.79
  -4   2  -7   76.96    6.62
  -4   2  -7  106.72    9.66
  -4   2  -7  114.90    8.72
  -4   2  -7   93.02   19.53
   4  -2   7   79.27    5.93
   4  -2   7   82.71    6.15
   4  -2   7   95.01    6.37
   4  -2   7   87.88    7.12
   4  -2   7   91.57    8.14
   4  -2   7   85.93    5.50
  -4   2  -8   41.84    4.59
  -4   2  -8    1.34    1.70
  -4   2  -8   56.45    8.35
  -4   2  -8   25.03   13.31
   4  -2   8   38.08    5.71
   4  -2   8   27.67    6.37
   4  -2   8   46.00    4.74
   4  -2   8   34.50    5.75
   4  -2   8   44.56    7.56
   4  -2   8   41.70    4.41
   4  -2   8    6.40   10.13
  -4   2  -9    7.38    2.28
  -4   2  -9    4.27    2.17
  -4   2  -9   20.47   14.07
   4  -2   9    0.90    3.51
   4  -2   9    5.89    2.39
   4  -2   9   10.34    2.97
   4  -2   9    9.73    3.07
   4  -2   9   10.70    3.72
   4  -2   9   13.24    2.82
   4  -2   9    8.93   13.42
  -4   2 -10   36.38    6.18
  -4   2 -10   37.68    6.40
   4  -2  10   35.33    6.37
   4  -2  10   55.51    6.18
   4  -2  10   37.43    6.80
   4  -2  10   36.56    7.09
   4  -2  10   28.28    5.32
  -4   1  11    4.70    1.77
  -4   1  11    5.50    2.75
  -4   1  11    6.87    2.64
  -4   1  11    5.42   27.56
   4  -1 -11   15.88    4.52
   4  -1 -11   17.07    4.01
   4  -1 -11    9.44    3.69
   4  -1 -11   29.87   19.35
  -4   1  10    2.13    2.78
  -4   1  10    0.14    1.88
  -4   1  10    1.45    1.92
  -4   1  10    1.99   14.54
   4  -1 -10    0.40    1.84
   4  -1 -10    0.36    1.30
   4  -1 -10    2.64    1.56
   4  -1 -10    7.31   17.94
  -4   1   9    6.47    2.28
  -4   1   9    7.99    3.33
  -4   1   9   10.34    2.97
  -4   1   9    5.93   13.34
   4  -1  -9    9.91    3.15
   4  -1  -9   11.57    6.26
   4  -1  -9   11.07    3.00
   4  -1  -9   12.01    3.29
   4  -1  -9    7.05    2.86
   4  -1  -9    8.32   12.08
  -4   1   8    8.14    3.11
  -4   1   8    9.40    3.25
  -4   1   8   10.89    3.04
  -4   1   8    9.58    2.64
  -4   1   8   16.02    9.58
   4  -1  -8   13.53    3.94
   4  -1  -8    7.63    4.34
   4  -1  -8   15.44    2.06
   4  -1  -8   14.54    3.51
   4  -1  -8   18.95    3.76
   4  -1  -8   12.19    4.63
   4  -1  -8   20.47    4.88
   4  -1  -8   27.30   13.38
  -4   1   7  128.60    8.57
  -4   1   7  112.87    8.06
  -4   1   7  119.78    8.17
  -4   1   7  139.70    8.50
  -4   1   7  118.44    8.17
  -4   1   7  131.39   23.33
   4  -1  -7  132.72    8.90
   4  -1  -7  115.73    8.21
   4  -1  -7  130.84    5.50
   4  -1  -7  123.14    8.17
   4  -1  -7  148.10    7.45
   4  -1  -7  121.30    7.85
   4  -1  -7  126.36    8.53
   4  -1  -7  121.51   23.11
  -4   1   6   51.35    5.17
  -4   1   6   55.37    5.32
  -4   1   6   52.29    5.17
  -4   1   6   61.01    5.24
  -4   1   6   52.40    5.06
  -4   1   6   55.26   17.21
   4  -1  -6   50.20    5.21
   4  -1  -6   51.97    5.17
   4  -1  -6   58.55    3.91
   4  -1  -6   63.11    4.34
   4  -1  -6   55.84    4.95
   4  -1  -6   47.12    4.88
   4  -1  -6   76.81   18.91
  -4   1   5   67.12    5.42
  -4   1   5   42.06    4.27
  -4   1   5   69.91    5.50
  -4   1   5   80.36    5.68
  -4   1   5   59.42    5.03
  -4   1   5   43.94   12.55
   4  -1  -5   67.70    5.50
   4  -1  -5   66.40    5.46
   4  -1  -5   71.21    4.56
   4  -1  -5   71.46    5.28
   4  -1  -5   58.88    5.06
   4  -1  -5   82.78   18.05
  -4   1   4  293.41   10.13
  -4   1   4  268.02    9.80
  -4   1   4  273.51   10.23
  -4   1   4  318.21   10.52
  -4   1   4  279.77    9.80
  -4   1   4  359.66   27.96
   4  -1  -4  283.93   10.27
   4  -1  -4  272.07    9.91
   4  -1  -4  314.63   10.38
   4  -1  -4  255.50    9.48
   4  -1  -4  348.92   27.16
  -4   1   3  170.59    7.12
  -4   1   3  144.66    6.58
  -4   1   3  171.64    7.70
  -4   1   3  154.75    7.49
  -4   1   3  163.83    6.76
   4  -1  -3  172.25    7.41
   4  -1  -3  158.11    6.98
   4  -1  -3  146.61    7.16
   4  -1  -3  183.54    7.59
   4  -1  -3  155.54    6.65
   4  -1  -3  204.04   19.42
  -4   1   2  233.08    9.33
  -4   1   2  182.92    6.76
  -4   1   2  222.49    8.57
  -4   1   2  222.09    8.64
  -4   1   2  228.24    6.98
  -4   1   2  254.64   20.07
   4  -1  -2  241.62    7.96
   4  -1  -2  199.12    7.20
   4  -1  -2  207.73    8.25
   4  -1  -2  252.32    8.64
   4  -1  -2  205.99    6.69
   4  -1  -2  218.98   18.48
  -4   1   1 1347.32   16.71
  -4   1   1 1065.81   14.94
  -4   1   1 1217.53   20.04
  -4   1   1 1275.17   20.51
  -4   1   1 1182.52   13.27
  -4   1   1 1380.27   42.49
  -4   1   1 1167.55   39.02
   4  -1  -1 1308.08   17.11
   4  -1  -1 1130.95   15.80
   4  -1  -1 1400.88   11.28
   4  -1  -1 1200.96   19.71
   4  -1  -1 1183.71   13.42
  -4   1   0 4497.42   28.75
  -4   1   0 3573.63   25.79
  -4   1   0 4054.91   37.29
  -4   1   0 4937.84   27.09
  -4   1   0 4146.19   37.61
  -4   1   0 4080.73   18.59
  -4   1   0 4665.16   74.14
  -4   1   0 4068.87   69.22
   4  -1   0 3750.15   27.49
   4  -1   0 4027.32   28.64
   4  -1   0 4380.83   38.59
   4  -1   0 4732.75   26.40
   4  -1   0 4430.45   50.88
   4  -1   0 4023.16   18.62
  -4   1  -1  238.72    6.58
  -4   1  -1  191.35    5.89
  -4   1  -1  192.72    9.04
  -4   1  -1  266.64    7.56
  -4   1  -1  213.99   15.84
   4  -1   1  188.78    6.18
   4  -1   1  199.70    6.44
   4  -1   1  212.61    8.79
   4  -1   1  227.59    9.04
   4  -1   1  212.47    8.75
   4  -1   1  192.11   15.19
  -4   1  -2  172.51    5.89
  -4   1  -2  155.33    9.01
  -4   1  -2  187.19    8.72
  -4   1  -2  197.64    8.64
  -4   1  -2  232.25    8.14
  -4   1  -2  172.58   15.04
   4  -1   2  159.49    6.04
   4  -1   2  175.36    6.33
   4  -1   2  192.61    8.72
   4  -1   2  181.48    8.46
   4  -1   2  190.30    8.68
   4  -1   2  155.47   14.14
  -4   1  -3   18.84    2.24
  -4   1  -3   17.76    2.17
  -4   1  -3   15.88    2.93
  -4   1  -3   17.40    3.07
  -4   1  -3   17.97    6.18
   4  -1   3   16.78    2.64
   4  -1   3   24.63    3.33
   4  -1   3   22.31    3.65
   4  -1   3   22.53    4.16
   4  -1   3   13.20    2.71
   4  -1   3   24.27    4.34
   4  -1   3   17.72    6.15
  -4   1  -4  825.53   15.33
  -4   1  -4  760.66   14.61
  -4   1  -4  815.91   20.25
  -4   1  -4  854.76   19.78
  -4   1  -4  974.64   20.61
  -4   1  -4  861.55   40.79
   4  -1   4  715.63   15.01
   4  -1   4  803.55   16.06
   4  -1   4  900.87   18.84
   4  -1   4  792.37   19.64
   4  -1   4  802.64   19.46
   4  -1   4  853.31   20.87
   4  -1   4  794.65   10.49
   4  -1   4  787.92   38.01
  -4   1  -5  414.70   11.86
  -4   1  -5  371.67   11.17
  -4   1  -5  433.04   14.90
  -4   1  -5  498.97   16.13
  -4   1  -5  472.24   31.57
   4  -1   5  327.87   11.14
   4  -1   5  378.25   12.04
   4  -1   5  453.98   13.60
   4  -1   5  416.29   15.04
   4  -1   5  397.31   14.47
   4  -1   5  413.44   15.55
   4  -1   5  398.86    9.01
   4  -1   5  371.67   29.04
  -4   1  -6  146.87    7.67
  -4   1  -6  131.71    9.01
  -4   1  -6  119.89   12.12
  -4   1  -6  155.15    9.73
  -4   1  -6  184.44   21.30
   4  -1   6  118.48    7.31
   4  -1   6  132.29    7.78
   4  -1   6  162.16    8.32
   4  -1   6  142.38    9.40
   4  -1   6  149.11    9.44
   4  -1   6  154.57   10.13
   4  -1   6  146.72    6.26
  -4   1  -7    0.94    1.23
  -4   1  -7    7.38    7.74
   4  -1   7   -0.22    1.41
   4  -1   7    1.37    1.19
   4  -1   7    0.54    1.66
   4  -1   7    0.25    1.27
   4  -1   7   -2.17    1.01
   4  -1   7    0.07    1.27
  -4   1  -8    1.34    1.56
  -4   1  -8   -0.04    1.63
  -4   1  -8   -5.28   13.09
   4  -1   8    0.72    1.70
   4  -1   8    1.66    1.66
   4  -1   8    1.99    1.59
   4  -1   8    5.75    2.13
   4  -1   8   -3.36    1.41
   4  -1   8    4.30    1.81
  -4   1  -9   28.39    5.03
  -4   1  -9   25.53    6.08
   4  -1   9   11.79    3.83
   4  -1   9   22.93    4.81
   4  -1   9   24.12    4.16
   4  -1   9   11.65    3.58
   4  -1   9    9.48    3.83
   4  -1   9   19.17    4.01
   4  -1   9   40.58   23.76
  -4   0  11   -1.41    1.41
  -4   0  11    0.43    1.84
  -4   0  11    0.33    1.41
  -4   0  11   23.58   14.10
   4   0 -11    0.11    1.30
   4   0 -11   -3.51    1.41
   4   0 -11  -16.89   13.20
  -4   0  10   10.92    2.93
  -4   0  10   11.25    3.54
  -4   0  10   15.73    3.76
  -4   0  10   -3.69   10.31
   4   0 -10    9.58    3.29
   4   0 -10   17.54    3.76
  -4   0   9   19.46    4.27
  -4   0   9   36.09    5.75
  -4   0   9   34.75    6.04
  -4   0   9   30.88   18.34
   4   0  -9   29.33    5.06
   4   0  -9   25.97    5.14
   4   0  -9   30.20    2.39
   4   0  -9    6.65    2.89
   4   0  -9   27.85    4.34
   4   0  -9   31.17    5.71
   4   0  -9   30.78    5.75
   4   0  -9   29.91   16.24
  -4   0   8  119.74    8.75
  -4   0   8  134.68    9.33
  -4   0   8  136.59    8.72
  -4   0   8  157.32    9.69
  -4   0   8  120.25    8.68
  -4   0   8  147.48   27.77
   4   0  -8  163.03   10.20
   4   0  -8  121.12    8.75
   4   0  -8  142.42    5.82
   4   0  -8  134.39    8.79
   4   0  -8  162.63    7.99
   4   0  -8  118.69   10.23
   4   0  -8  121.15    8.79
   4   0  -8  128.86   25.64
  -4   0   7   73.96    6.58
  -4   0   7   76.67    6.62
  -4   0   7   81.01    6.33
  -4   0   7   92.22    7.09
  -4   0   7   75.40    6.37
  -4   0   7  105.82   21.30
   4   0  -7   98.87    7.59
   4   0  -7   90.56    7.20
   4   0  -7   97.07    5.53
   4   0  -7   83.94    6.58
   4   0  -7   75.44    6.47
   4   0  -7   63.36   17.36
  -4   0   6  410.62   14.03
  -4   0   6  330.33   12.73
  -4   0   6  398.10   13.06
  -4   0   6  424.76   14.10
  -4   0   6  364.40   12.87
  -4   0   6  419.62   35.01
   4   0  -6  419.66   14.39
   4   0  -6  358.57   13.16
   4   0  -6  430.47    9.87
   4   0  -6  423.89   13.92
   4   0  -6  358.76   12.95
   4   0  -6  450.87   37.86
  -4   0   5  273.01   10.67
  -4   0   5  238.72   10.05
  -4   0   5  234.46    9.48
  -4   0   5  275.50   10.78
  -4   0   5  226.28    9.33
  -4   0   5  292.90   27.34
   4   0  -5  245.41   10.27
   4   0  -5  243.86   10.13
   4   0  -5  273.62    6.40
   4   0  -5  280.10   10.78
   4   0  -5  231.45    9.51
   4   0  -5  294.67   27.41
  -4   0   4    6.94    1.99
  -4   0   4    5.10    1.99
  -4   0   4    5.71    1.88
  -4   0   4    4.92    1.66
  -4   0   4   -2.39    5.10
   4   0  -4    6.04    2.03
   4   0  -4    4.67    1.84
   4   0  -4    2.71    1.16
   4   0  -4    4.88    1.74
   4   0  -4    3.25    1.19
   4   0  -4    5.42    4.81
  -4   0   3   45.89    3.83
  -4   0   3   36.38    3.44
  -4   0   3   51.93    4.16
  -4   0   3   38.84    3.15
  -4   0   3   49.51   11.75
   4   0  -3   32.01    6.26
   4   0  -3   40.50    3.69
   4   0  -3   45.53    3.91
   4   0  -3   51.61    4.30
   4   0  -3   38.30    3.11
   4   0  -3   28.06    8.57
  -4   0   2  588.73   12.87
  -4   0   2  511.91   12.08
  -4   0   2  509.56   16.64
  -4   0   2  589.88   13.78
  -4   0   2  537.70    9.80
  -4   0   2  536.98   30.45
   4   0  -2  621.24   13.56
   4   0  -2  506.78   12.12
   4   0  -2  593.83   13.71
   4   0  -2  618.06   14.47
  -4   0   1 1584.63   20.32
  -4   0   1 1296.47   18.44
  -4   0   1 1396.47   27.56
  -4   0   1 1701.16   11.57
  -4   0   1 1499.07   22.28
  -4   0   1 1439.58   12.33
  -4   0   1 1416.87   47.77
  -4   0   1 1356.43   46.58
   4   0  -1 1276.84   18.59
   4   0  -1 1345.51   19.24
   4   0  -1 1497.80   23.11
   4   0  -1 1487.50   21.99
  -4   0   0   95.91    4.95
  -4   0   0   76.42    4.45
  -4   0   0   84.88    5.82
  -4   0   0  102.09    4.05
  -4   0   0  100.50   12.44
   4   0   0   84.63    4.77
   4   0   0   82.28    4.77
   4   0   0   83.90    5.50
   4   0   0   84.05    5.42
   4   0   0   78.91   13.13
  -4   0  -1   15.33    2.53
  -4   0  -1   18.95    2.28
  -4   0  -1   22.64    3.65
  -4   0  -1   18.44    3.07
  -4   0  -1   29.26    2.71
  -4   0  -1   11.03    5.53
   4   0   1   20.61    2.50
   4   0   1   20.69    3.62
   4   0   1   20.07    3.69
   4   0   1   14.65    2.68
   4   0   1   30.23    9.01
  -4   0  -2  178.08    7.20
  -4   0  -2  190.81    7.45
  -4   0  -2  208.02    9.44
  -4   0  -2  209.61    9.44
  -4   0  -2  241.26    8.68
  -4   0  -2  195.65   19.10
   4   0   2  168.42    7.20
   4   0   2  191.24    7.78
   4   0   2  205.05    9.26
   4   0   2  196.56    9.33
   4   0   2  204.19    9.29
   4   0   2  159.85   17.32
  -4   0  -3   58.19    4.41
  -4   0  -3   56.60    4.34
  -4   0  -3   67.52    5.79
  -4   0  -3   72.22    5.89
  -4   0  -3   77.43    5.57
  -4   0  -3   56.16   12.59
   4   0   3   48.35    4.09
   4   0   3   63.79    4.88
   4   0   3   60.14    5.32
   4   0   3   64.12    5.64
   4   0   3   38.84   11.10
  -4   0  -4   89.58    5.82
  -4   0  -4   83.07    5.53
  -4   0  -4   95.29    7.20
  -4   0  -4   96.38    7.20
  -4   0  -4  107.77    7.23
  -4   0  -4   86.11   16.56
   4   0   4   73.52    5.50
   4   0   4   90.63    6.11
   4   0   4   84.92    6.65
   4   0   4   92.65    7.16
   4   0   4   81.01    6.80
   4   0   4   84.92    3.40
   4   0   4   80.14   17.43
  -4   0  -5    2.86    1.37
  -4   0  -5    0.87    2.60
  -4   0  -5    0.76    2.10
  -4   0  -5    1.37    1.48
  -4   0  -5   -3.98    6.11
   4   0   5    3.44    1.48
   4   0   5    0.83    1.12
   4   0   5    1.66    1.70
   4   0   5    4.67    1.95
   4   0   5   -0.36    0.61
   4   0   5    2.75    1.52
   4   0   5   -0.65    0.65
   4   0   5    9.69    6.37
  -4   0  -6   60.94    5.75
  -4   0  -6   68.89    6.84
  -4   0  -6   38.44   12.26
   4   0   6   47.67    7.49
   4   0   6   62.35    6.04
   4   0   6   57.61    4.99
   4   0   6    0.83    1.45
   4   0   6   50.78    6.04
   4   0   6   49.11    6.08
   4   0   6   45.89    3.69
  -4   0  -7   -0.18    1.37
  -4   0  -7    0.47    1.12
  -4   0  -7   10.23   11.57
   4   0   7    3.07    1.99
   4   0   7   -0.58    0.87
   4   0   7    1.27    1.63
   4   0   7   -1.12    1.59
   4   0   7   -1.23    1.30
   4   0   7    0.47    1.23
   4   0   7    7.52   10.23
  -4   0  -8   74.68    8.14
  -4   0  -8   92.73    8.82
  -4   0  -8   69.07   21.99
   4   0   8   67.27    7.20
   4   0   8   68.82    7.05
   4   0   8   70.45    5.71
   4   0   8   80.90    8.21
   4   0   8   81.26    8.64
   4   0   8   70.45    5.75
   4   0   8   72.11   23.83
  -4   0  -9   19.42    4.41
  -4   0  -9   18.05    4.99
   4   0   9   10.20    4.70
   4   0   9   28.35    6.94
  -4  -1  12    3.36    2.71
  -4  -1  12   10.42    3.62
  -4  -1  12   13.06    4.23
  -4  -1  12   35.30   20.11
   4   1 -12    5.39    3.22
   4   1 -12    7.27    2.57
   4   1 -12    5.32   25.13
  -4  -1  11    2.93    1.59
  -4  -1  11   -2.28    1.56
  -4  -1  11    0.54    1.45
  -4  -1  11  -15.98   11.93
   4   1 -11   -2.24    2.03
   4   1 -11    2.10    1.45
   4   1 -11   28.39   21.84
  -4  -1  10   68.64    6.55
  -4  -1  10   95.98    8.50
  -4  -1  10   93.38   24.95
   4   1 -10   93.88    9.44
   4   1 -10   79.71    3.98
   4   1 -10   -3.47    1.59
   4   1 -10   83.25    6.58
   4   1 -10   47.23   22.17
  -4  -1   9  170.84   11.10
  -4  -1   9  148.82   10.31
  -4  -1   9  175.62    9.87
  -4  -1   9  186.00   11.36
  -4  -1   9  198.80   32.48
   4   1  -9  206.54   12.12
   4   1  -9  148.64   10.31
   4   1  -9  187.30    8.93
   4   1  -9  180.50   16.74
   4   1  -9  206.97   34.65
  -4  -1   8   66.43    6.98
  -4  -1   8   70.63    6.84
  -4  -1   8   73.34    6.08
  -4  -1   8   86.83    7.38
  -4  -1   8   70.30    6.73
  -4  -1   8   94.53   22.93
   4   1  -8   97.21    7.88
   4   1  -8   70.96    6.87
   4   1  -8   78.08    6.37
   4   1  -8   96.31    5.86
   4   1  -8   81.19    7.23
   4   1  -8   78.62   19.93
  -4  -1   7  252.94   13.92
  -4  -1   7  124.66    8.43
  -4  -1   7  156.70    8.17
  -4  -1   7  166.83    9.66
  -4  -1   7  147.62    8.79
  -4  -1   7  137.46   24.56
   4   1  -7  172.94    9.95
   4   1  -7  128.75    8.46
   4   1  -7  179.09    6.80
   4   1  -7  188.31   10.09
   4   1  -7  129.36   24.85
  -4  -1   6   -0.87    0.87
  -4  -1   6    1.41    0.98
  -4  -1   6    1.01    1.23
  -4  -1   6    0.43    0.90
  -4  -1   6    0.36    0.87
  -4  -1   6  -13.49    5.32
   4   1  -6   11.50    2.93
   4   1  -6    0.29    1.12
   4   1  -6    0.54    0.61
   4   1  -6    1.01    1.16
   4   1  -6    0.61    7.74
  -4  -1   5  298.03   11.39
  -4  -1   5  238.76   10.31
  -4  -1   5  275.14    9.76
  -4  -1   5  314.24   11.93
  -4  -1   5  272.10   10.02
  -4  -1   5  322.77   33.42
   4   1  -5  255.72   10.60
   4   1  -5  311.99    5.57
   4   1  -5  323.60   11.97
   4   1  -5  347.22   30.56
  -4  -1   4  337.53   11.43
  -4  -1   4  253.88   10.05
  -4  -1   4  314.45   10.09
  -4  -1   4  274.67    9.11
  -4  -1   4  360.45   29.62
  -4  -1   4  286.17   25.60
   4   1  -4  277.28   10.52
   4   1  -4  298.18    9.73
   4   1  -4  337.60   11.75
  -4  -1   3 3510.99   35.22
  -4  -1   3 2761.19   31.57
  -4  -1   3 3048.48   34.90
  -4  -1   3 3246.63   31.93
  -4  -1   3 3014.88   26.65
  -4  -1   3 3695.29   89.83
  -4  -1   3 3111.48   82.49
   4   1  -3 3315.95   35.01
   4   1  -3 2856.70   32.11
   4   1  -3 3160.52   31.21
   4   1  -3 3537.28   37.07
  -4  -1   2   43.00    3.83
  -4  -1   2   37.14    3.62
  -4  -1   2   34.14    3.69
  -4  -1   2   34.75    3.40
  -4  -1   2   38.33    2.60
  -4  -1   2   55.22   12.69
  -4  -1   2   40.90   10.38
   4   1  -2   31.64    3.40
   4   1  -2   38.70    3.76
   4   1  -2   36.45    7.78
   4   1  -2   37.11    3.51
   4   1  -2   44.34    4.20
  -4  -1   1  180.53    7.67
  -4  -1   1  133.01    6.62
  -4  -1   1  147.44    7.59
  -4  -1   1  181.51    4.88
  -4  -1   1  155.40    3.98
  -4  -1   1  158.51   17.76
   4   1  -1  145.24    7.02
   4   1  -1  140.79    6.94
   4   1  -1  171.24    8.17
   4   1  -1  142.27   17.29
  -4  -1   0   24.99    3.91
  -4  -1   0   26.54    4.34
  -4  -1   0   30.81    3.69
  -4  -1   0   27.12    2.42
  -4  -1   0   32.55    9.51
   4   1   0   21.08    3.25
   4   1   0   23.90    3.47
   4   1   0   28.61    3.44
   4   1   0   21.88    3.94
   4   1   0   24.63    2.97
   4   1   0   36.42   10.74
  -4  -1  -1  103.47    6.08
  -4  -1  -1  103.79    6.08
  -4  -1  -1  112.07    6.84
  -4  -1  -1  123.76    7.45
  -4  -1  -1  134.39    6.18
  -4  -1  -1   93.56   16.27
   4   1   1   86.25    5.68
   4   1   1   95.98    6.04
   4   1   1  111.75    6.80
   4   1   1  103.11    6.87
   4   1   1  102.06    6.51
   4   1   1   80.29   16.02
  -4  -1  -2   14.68    2.82
  -4  -1  -2   14.43    3.00
  -4  -1  -2   13.63    2.93
  -4  -1  -2   17.68    3.76
  -4  -1  -2   22.42    4.52
  -4  -1  -2   14.50    8.17
   4   1   2   13.09    2.89
   4   1   2   15.01    3.18
   4   1   2   13.34    2.97
   4   1   2   18.81    4.23
   4   1   2   15.26    7.45
  -4  -1  -3    5.82    1.95
  -4  -1  -3   10.85    2.68
  -4  -1  -3   10.38    2.78
  -4  -1  -3   16.17    3.65
  -4  -1  -3    8.64    2.60
  -4  -1  -3   26.00    8.39
   4   1   3   11.90    2.82
   4   1   3   11.57    3.11
   4   1   3   15.77    3.76
   4   1   3    9.19    2.82
   4   1   3   20.76   13.31
  -4  -1  -4  218.65   10.31
  -4  -1  -4  212.97   10.13
  -4  -1  -4  238.51   11.43
  -4  -1  -4  239.66   12.04
  -4  -1  -4  260.89   11.83
  -4  -1  -4  256.55   26.91
   4   1   4  178.58   11.32
   4   1   4  213.01   10.42
   4   1   4  221.73   10.96
   4   1   4  235.72   12.08
   4   1   4  230.41   11.93
   4   1   4  212.40    5.79
   4   1   4  203.86   30.16
  -4  -1  -5   22.17    4.27
  -4  -1  -5   27.52    5.06
  -4  -1  -5   -2.78    7.09
   4   1   5   27.59    4.92
   4   1   5   27.85    5.03
   4   1   5   19.60    5.53
   4   1   5   28.79    5.89
   4   1   5   27.09    5.61
   4   1   5   25.21    2.42
  -4  -1  -6   66.72    7.12
  -4  -1  -6   83.76    7.74
  -4  -1  -6   95.08   22.53
   4   1   6   54.54    6.47
   4   1   6   69.15    6.84
   4   1   6   64.74    7.34
   4   1   6   63.69    7.34
   4   1   6   68.64    4.67
   4   1   6   79.85   21.55
  -4  -1  -7   47.38    6.98
  -4  -1  -7   37.00    6.47
  -4  -1  -7   20.65   14.57
   4   1   7   22.53    4.85
   4   1   7   27.20    5.64
   4   1   7   46.69    4.88
   4   1   7   39.31    7.63
   4   1   7   27.45    5.75
   4   1   7   24.19    3.76
   4   1   7    3.91   14.65
  -4  -1  -8    1.63    2.57
  -4  -1  -8    1.05    2.10
   4   1   8    8.75    3.44
   4   1   8    0.43    2.28
   4   1   8   -3.04    1.99
   4   1   8   -2.53    1.88
   4   1   8    1.99    2.68
   4   1   8   -1.45    1.92
  -4  -2  12   10.52    4.56
  -4  -2  12   11.83    3.40
  -4  -2  12   11.43    3.76
  -4  -2  12   17.54   18.48
   4   2 -12   11.17    4.38
   4   2 -12    1.45    4.95
   4   2 -12   17.03   17.97
  -4  -2  11  147.15   11.36
  -4  -2  11  158.87    9.95
  -4  -2  11  174.64   12.26
  -4  -2  11  179.27   36.13
   4   2 -11  162.85   12.04
   4   2 -11  194.46   10.31
   4   2 -11  159.70   32.91
  -4  -2  10   34.50    7.49
  -4  -2  10   18.15    4.09
  -4  -2  10   15.66    3.80
  -4  -2  10   22.46   19.96
   4   2 -10   25.71    5.57
   4   2 -10   29.29    4.99
   4   2 -10   19.24    3.69
   4   2 -10   14.94   14.83
  -4  -2   9    0.83    2.21
  -4  -2   9    2.42    1.45
  -4  -2   9    4.52    1.84
  -4  -2   9    5.17    2.03
  -4  -2   9   -3.25   11.17
   4   2  -9    1.45    1.74
   4   2  -9    4.59    2.42
   4   2  -9    2.78    1.59
   4   2  -9    3.54    1.52
   4   2  -9   26.76   14.32
  -4  -2   8    8.21    3.25
  -4  -2   8    2.71    1.74
  -4  -2   8   11.65    2.97
  -4  -2   8    7.56    2.93
  -4  -2   8    2.86    2.13
  -4  -2   8   11.39    9.37
   4   2  -8    6.22    2.68
   4   2  -8    0.80    3.25
   4   2  -8    7.74    1.95
   4   2  -8   10.52    3.29
  -4  -2   7   43.40    4.92
  -4  -2   7   19.10    3.25
  -4  -2   7   44.92    4.23
  -4  -2   7   41.05    4.85
  -4  -2   7   42.96    4.70
  -4  -2   7   32.77   14.47
   4   2  -7   36.24    5.68
   4   2  -7   39.64    3.07
   4   2  -7   39.17    6.08
   4   2  -7   39.13   12.98
  -4  -2   6   15.91    3.25
  -4  -2   6   18.41    4.27
  -4  -2   6   14.90    3.07
  -4  -2   6   10.31    2.64
  -4  -2   6   16.06    3.54
  -4  -2   6   -1.19    5.89
   4   2  -6   23.15    4.48
   4   2  -6    9.73    2.71
   4   2  -6   17.00    3.65
  -4  -2   5  444.83   14.39
  -4  -2   5  329.39   12.51
  -4  -2   5  403.09   11.25
  -4  -2   5  375.86   11.83
  -4  -2   5  447.68   35.73
  -4  -2   5  466.24   36.13
   4   2  -5  419.69   14.21
   4   2  -5  322.19   12.30
   4   2  -5  382.91   10.85
   4   2  -5  450.43   14.68
  -4  -2   4   53.99    4.85
  -4  -2   4   44.08    4.52
  -4  -2   4   52.62    4.05
  -4  -2   4   49.29    3.98
  -4  -2   4   80.14   21.12
  -4  -2   4   29.08   10.96
   4   2  -4   41.81    4.41
   4   2  -4   49.44    4.45
   4   2  -4   51.72    4.01
   4   2  -4   60.36    5.28
  -4  -2   3  208.89    9.29
  -4  -2   3  170.63    8.46
  -4  -2   3  198.91    9.26
  -4  -2   3  230.62    4.38
  -4  -2   3  184.37    6.80
  -4  -2   3  252.39   25.24
  -4  -2   3  203.93   22.21
   4   2  -3  168.53    8.39
   4   2  -3  194.17    9.11
   4   2  -3  216.56    9.29
   4   2  -3  205.27    7.92
   4   2  -3  226.79    9.91
  -4  -2   2   75.26    5.50
  -4  -2   2   68.03    5.32
  -4  -2   2   69.65    5.42
  -4  -2   2   77.21    3.83
  -4  -2   2   77.25   15.73
   4   2  -2   69.04    5.46
   4   2  -2   65.28    5.24
   4   2  -2   74.68    5.53
   4   2  -2   65.31    4.70
   4   2  -2   74.07    5.68
  -4  -2   1  455.13   13.49
  -4  -2   1  371.99   12.33
  -4  -2   1  415.93   13.24
  -4  -2   1  411.77    7.70
  -4  -2   1  413.62   31.10
   4   2  -1  348.74   11.93
   4   2  -1  359.91   12.30
   4   2  -1  409.89   13.38
   4   2  -1  412.82   12.19
   4   2  -1  405.48   31.93
  -4  -2   0   98.91    6.55
  -4  -2   0   90.34    6.04
  -4  -2   0  112.76    6.94
  -4  -2   0  110.23    7.16
  -4  -2   0  102.67    3.29
  -4  -2   0  106.29   20.04
   4   2   0   86.72    6.15
   4   2   0   99.53    6.62
   4   2   0  111.24    7.34
   4   2   0  106.36    6.55
   4   2   0  118.62   21.41
  -4  -2  -1  705.83   17.72
  -4  -2  -1  786.87   18.52
  -4  -2  -1  805.79   19.02
  -4  -2  -1  841.92   20.61
  -4  -2  -1  695.85   43.18
   4   2   1  686.01   18.73
   4   2   1  734.25   18.48
   4   2   1  798.09   18.73
   4   2   1  755.70   19.78
   4   2   1  785.14   18.91
   4   2   1  768.61   45.71
  -4  -2  -2   59.85    5.46
  -4  -2  -2   60.79    5.53
  -4  -2  -2   71.64    5.89
  -4  -2  -2   85.02    6.98
  -4  -2  -2   99.38   20.58
   4   2   2   58.12    5.35
   4   2   2   57.29    5.50
   4   2   2   60.68    5.50
   4   2   2   79.35    6.69
   4   2   2   43.58   13.13
  -4  -2  -3   23.18    4.41
  -4  -2  -3   18.15    3.83
  -4  -2  -3   27.99    4.77
  -4  -2  -3   34.21    5.35
  -4  -2  -3   24.99    1.99
  -4  -2  -3   27.49   11.83
   4   2   3   19.85    3.87
   4   2   3   22.78    4.38
   4   2   3   23.00    4.20
   4   2   3   19.42    4.01
   4   2   3   16.74   10.52
  -4  -2  -4    8.39    2.57
  -4  -2  -4   11.54    2.89
  -4  -2  -4    6.98    1.66
  -4  -2  -4    9.08   10.42
   4   2   4    2.31    1.70
   4   2   4    9.87    3.29
   4   2   4    9.40    3.11
   4   2   4   10.38    3.11
   4   2   4    2.28    1.74
   4   2   4    6.94    7.85
  -4  -2  -5   69.04    7.02
  -4  -2  -5   79.09    8.82
  -4  -2  -5   55.73   19.75
   4   2   5   47.23    6.80
   4   2   5   65.82    6.98
   4   2   5   28.90    5.57
   4   2   5   66.18    7.45
   4   2   5   74.39    7.52
   4   2   5   74.61    4.45
   4   2   5    5.46   12.15
  -4  -2  -6  140.79   10.38
  -4  -2  -6  186.00   12.12
  -4  -2  -6   90.74   24.77
   4   2   6  142.92   10.20
   4   2   6  146.03   10.52
   4   2   6  151.31   11.61
   4   2   6  150.08   11.39
   4   2   6  126.94    6.55
   4   2   6  185.67   33.60
  -4  -2  -7   14.10    4.09
  -4  -2  -7   14.32    4.09
  -4  -2  -7   46.25   23.94
   4   2   7   10.05    4.38
   4   2   7    6.65    3.11
   4   2   7   18.30    3.80
   4   2   7   11.21    4.05
   4   2   7   16.27    4.85
   4   2   7    6.91    2.57
   4   2   7    2.50   16.20
  -4  -3  12    8.28    3.62
  -4  -3  12    6.73    2.64
  -4  -3  12   13.71    4.48
  -4  -3  12   61.52   24.45
   4   3 -12   17.00    5.24
   4   3 -12   15.84    3.87
   4   3 -12   21.01   18.77
  -4  -3  11   50.92    8.72
  -4  -3  11   60.97    5.61
  -4  -3  11   46.72    7.56
  -4  -3  11  -18.41   15.70
   4   3 -11   40.54    6.37
   4   3 -11   46.33    5.61
   4   3 -11   49.65    5.28
   4   3 -11   35.44   17.25
  -4  -3  10    2.53    1.74
  -4  -3  10    3.94    1.88
  -4  -3  10    7.23    2.60
  -4  -3  10  -11.57   15.04
   4   3 -10    7.74    2.75
   4   3 -10    6.15    2.39
   4   3 -10    5.39    2.31
   4   3 -10   20.43   15.48
  -4  -3   9   -0.07    2.21
  -4  -3   9    2.21    1.84
  -4  -3   9    6.91    2.06
  -4  -3   9   -4.48   10.16
   4   3  -9    0.72    1.45
   4   3  -9    7.20    2.21
   4   3  -9   10.70    8.90
  -4  -3   8   48.35    6.94
  -4  -3   8   42.93    4.01
  -4  -3   8   44.95    5.53
  -4  -3   8   45.86    6.58
  -4  -3   8   56.56   17.94
   4   3  -8   48.03    5.68
   4   3  -8   38.66    5.68
  -4  -3   7    9.37    2.86
  -4  -3   7   11.46    3.40
  -4  -3   7   17.79    3.15
  -4  -3   7   20.07    4.45
  -4  -3   7   12.37    3.15
  -4  -3   7   25.50   10.81
  -4  -3   7   19.57    9.76
   4   3  -7   10.67    2.71
   4   3  -7   10.74    3.07
  -4  -3   6   76.85    6.47
  -4  -3   6   65.89    6.18
  -4  -3   6   81.73    3.94
  -4  -3   6   84.59    5.06
  -4  -3   6   64.99    5.42
  -4  -3   6  107.45   22.39
  -4  -3   6   76.81   19.35
   4   3  -6   81.80    6.80
   4   3  -6   67.59    6.18
   4   3  -6   80.97    5.82
   4   3  -6   83.18    6.84
  -4  -3   5   55.08    5.53
  -4  -3   5   55.91    5.53
  -4  -3   5   72.19    3.33
  -4  -3   5   63.14    4.27
  -4  -3   5   53.81    4.63
  -4  -3   5   70.63   18.12
  -4  -3   5   62.96   16.35
   4   3  -5   58.37    6.94
   4   3  -5   57.14    5.50
   4   3  -5   63.43    5.14
   4   3  -5   62.64    4.23
   4   3  -5   64.84    5.89
  -4  -3   4  171.64    9.29
  -4  -3   4  130.41    8.10
  -4  -3   4  183.28    5.32
  -4  -3   4  152.29    7.16
  -4  -3   4  218.62   25.50
  -4  -3   4  137.79   24.56
   4   3  -4  139.38    8.39
   4   3  -4  147.23    8.61
   4   3  -4  162.31    8.21
   4   3  -4  145.93    6.51
   4   3  -4  161.15    8.97
  -4  -3   3  366.93   13.24
  -4  -3   3  311.81   12.37
  -4  -3   3  338.36   12.55
  -4  -3   3  375.10   32.77
  -4  -3   3  389.35   33.56
   4   3  -3  318.00   12.37
   4   3  -3  314.85   12.51
   4   3  -3  361.00   12.44
   4   3  -3  350.73   10.42
   4   3  -3  396.33   13.85
  -4  -3   2   12.22    3.11
  -4  -3   2    7.49    2.42
  -4  -3   2   10.60    2.86
  -4  -3   2   10.81    7.02
   4   3  -2    4.88    1.84
   4   3  -2   10.49    2.97
   4   3  -2   12.84    3.00
   4   3  -2   13.02    2.53
   4   3  -2    8.10    2.35
   4   3  -2   17.43    9.87
  -4  -3   1 1127.22   23.62
  -4  -3   1 1236.62   23.58
  -4  -3   1 1347.32   25.39
  -4  -3   1 1210.22   15.80
  -4  -3   1 1262.98   61.30
   4   3  -1 1079.38   23.07
   4   3  -1 1140.53   24.01
   4   3  -1 1184.47   24.12
   4   3  -1 1263.78   22.24
   4   3  -1 1159.12   58.51
  -4  -3   0  147.30    8.79
  -4  -3   0  152.33    8.82
  -4  -3   0  156.81    8.53
  -4  -3   0  186.21    9.91
  -4  -3   0  163.65    5.50
  -4  -3   0  205.24   30.16
   4   3   0  129.40    8.32
   4   3   0  163.43    9.26
   4   3   0  158.29    9.29
   4   3   0  170.23    8.75
   4   3   0  135.22   23.76
  -4  -3  -1   28.90    4.88
  -4  -3  -1   29.11    4.52
  -4  -3  -1   49.65   10.89
  -4  -3  -1   31.97    2.46
  -4  -3  -1    9.98    8.43
   4   3   1   21.08    3.94
   4   3   1   24.95    4.41
   4   3   1   20.83    4.01
   4   3   1   37.47   14.94
  -4  -3  -2  136.59    9.04
  -4  -3  -2  162.99    9.22
  -4  -3  -2  156.56   10.31
  -4  -3  -2  152.80    5.46
  -4  -3  -2  118.40   25.79
   4   3   2  128.78    8.75
   4   3   2  163.32    9.98
   4   3   2  166.86    9.08
   4   3   2  159.20   10.27
   4   3   2  137.25   26.91
  -4  -3  -3  142.78    9.58
  -4  -3  -3  152.87    9.15
  -4  -3  -3  127.30    5.39
  -4  -3  -3  191.96   32.48
   4   3   3  112.51    8.57
   4   3   3  137.17   10.34
   4   3   3  151.28    9.08
   4   3   3  141.40   10.13
   4   3   3  116.20   23.94
  -4  -3  -4  603.23   20.54
  -4  -3  -4  722.10   22.13
  -4  -3  -4  607.61   12.77
  -4  -3  -4  633.21   50.88
   4   3   4  542.29   19.53
   4   3   4  568.55   20.51
   4   3   4  552.38   21.59
   4   3   4  649.48   22.78
   4   3   4  618.24   21.52
   4   3   4    0.94    9.58
  -4  -3  -5   16.93    4.23
  -4  -3  -5    7.41    2.89
  -4  -3  -5   14.18    2.68
  -4  -3  -5   28.86   15.73
   4   3   5    9.11    4.70
   4   3   5   15.30    4.23
   4   3   5   16.24    4.70
   4   3   5   16.42    4.20
   4   3   5   23.58   11.39
  -4  -3  -6   35.22    6.47
  -4  -3  -6   42.10    7.41
  -4  -3  -6   60.54   21.34
   4   3   6   29.91    6.26
   4   3   6   41.66    7.52
   4   3   6   37.25    6.73
   4   3   6   17.18   21.08
  -4  -4  12   -0.18    2.39
  -4  -4  12   -1.16    1.74
  -4  -4  12   -1.34    2.39
  -4  -4  12   -1.30   13.13
   4   4 -12    0.14    2.64
   4   4 -12   -4.12    2.24
   4   4 -12    2.42    1.95
  -4  -4  11   -0.69    1.34
  -4  -4  11   -0.29    1.30
  -4  -4  11    1.92    1.81
   4   4 -11   -3.18    1.16
   4   4 -11    4.63    2.68
   4   4 -11   -0.11    1.23
  -4  -4  10    0.54    1.19
  -4  -4  10    1.92    1.05
  -4  -4  10    0.29    1.56
  -4  -4  10    7.92   10.09
  -4  -4  10   -4.09   12.33
   4   4 -10    1.23    1.19
   4   4 -10    0.00    1.95
  -4  -4   9   81.62   13.38
  -4  -4   9   52.37   12.33
  -4  -4   9   81.30    7.96
  -4  -4   9   67.12   23.25
  -4  -4   9   52.22   19.31
   4   4  -9   83.18    7.92
  -4  -4   8  115.62    8.97
  -4  -4   8   88.21    7.88
  -4  -4   8  108.24    6.08
  -4  -4   8  100.79    5.46
  -4  -4   8  108.10    8.79
  -4  -4   8   71.24    6.73
  -4  -4   8   71.14   23.15
  -4  -4   8   63.25   17.14
   4   4  -8  105.82    8.57
   4   4  -8  101.48    8.35
   4   4  -8  116.16    7.12
  -4  -4   7   -0.94    1.52
  -4  -4   7    2.17    1.52
  -4  -4   7    4.01    1.34
  -4  -4   7    5.32    1.66
  -4  -4   7    4.34    1.70
  -4  -4   7   10.13    6.22
   4   4  -7    7.05    2.97
   4   4  -7    0.72    1.52
   4   4  -7    4.12    1.84
   4   4  -7    4.05    2.24
  -4  -4   6   78.33    6.94
  -4  -4   6   68.60    6.62
  -4  -4   6   92.15    4.70
  -4  -4   6   71.46    5.97
  -4  -4   6  102.20   22.49
  -4  -4   6   49.00   18.41
   4   4  -6   73.20    6.62
   4   4  -6   73.99    6.87
   4   4  -6   72.84    5.61
   4   4  -6   98.48    7.78
  -4  -4   5   18.84    4.01
  -4  -4   5   14.32    3.58
  -4  -4   5   21.45    2.93
  -4  -4   5   20.22    3.98
  -4  -4   5   25.97    9.19
  -4  -4   5   32.30   12.19
   4   4  -5   16.74    3.83
   4   4  -5   18.37    4.34
   4   4  -5   16.78    3.40
   4   4  -5   15.08    2.57
   4   4  -5   18.59    4.30
  -4  -4   4  350.84   14.10
  -4  -4   4  294.27   13.02
  -4  -4   4  325.05   13.02
  -4  -4   4  388.48    9.66
  -4  -4   4  362.05   35.19
  -4  -4   4  328.23   33.16
   4   4  -4  276.77   12.48
   4   4  -4  306.57   13.34
   4   4  -4  341.40   12.33
   4   4  -4  332.46    9.80
   4   4  -4  369.17   14.10
  -4  -4   3  870.13   21.99
  -4  -4   3  667.31   19.53
  -4  -4   3  785.54   19.75
  -4  -4   3  766.91   50.67
   4   4  -3  629.67   18.88
   4   4  -3  744.85   20.76
   4   4  -3  761.52   19.10
   4   4  -3  861.81   21.45
   4   4  -3  735.67   50.41
  -4  -4   2 1813.09   32.01
  -4  -4   2 1478.24   29.15
  -4  -4   2 1650.92   28.28
  -4  -4   2 1639.50   22.31
  -4  -4   2 1648.03   75.04
   4   4  -2 1460.12   28.82
   4   4  -2 2508.39   48.89
   4   4  -2 1696.35   29.47
   4   4  -2 1674.00   25.03
   4   4  -2 1912.29   32.11
   4   4  -2 1636.24   74.90
  -4  -4   1   94.35    7.59
  -4  -4   1  110.77    8.06
  -4  -4   1  111.39    7.38
  -4  -4   1  106.07    7.67
  -4  -4   1  109.11    5.57
  -4  -4   1   83.47   22.49
   4   4  -1   98.84    7.56
   4   4  -1  110.12    8.06
   4   4  -1  105.78    7.70
   4   4  -1  127.41    7.38
   4   4  -1   69.44   16.74
  -4  -4   0   52.33    5.71
  -4  -4   0   28.21    4.48
  -4  -4   0   48.06    4.95
  -4  -4   0   53.92    5.82
  -4  -4   0   47.77    3.69
  -4  -4   0   51.97   16.64
   4   4   0   39.35    6.15
   4   4   0   35.22    5.86
   4   4   0   44.95    5.35
   4   4   0   50.74    5.14
   4   4   0   42.20   15.73
  -4  -4  -1   46.04    5.61
  -4  -4  -1   53.02    5.17
  -4  -4  -1   46.91    7.16
  -4  -4  -1   51.64    3.83
  -4  -4  -1   64.77   19.10
   4   4   1   46.22    5.53
   4   4   1   46.25    5.75
   4   4   1   37.68    6.15
   4   4   1   15.62    9.84
  -4  -4  -2   52.37    7.78
  -4  -4  -2   50.99    5.32
  -4  -4  -2   50.49    3.94
  -4  -4  -2   41.66   13.42
   4   4   2   33.74    8.32
   4   4   2   38.08    6.37
   4   4   2   48.35    6.00
   4   4   2   26.47   13.24
  -4  -4  -3   16.49    4.27
  -4  -4  -3   10.96    3.07
  -4  -4  -3    7.49    1.99
  -4  -4  -3   15.04   12.73
   4   4   3    7.20    3.40
   4   4   3    4.74    2.89
   4   4   3   13.24    3.07
   4   4   3    9.33    2.64
  -4  -4  -4    2.21    2.89
  -4  -4  -4    1.19   15.51
   4   4   4    1.59    1.81
   4   4   4    2.82    2.13
   4   4   4   -2.89    1.77
   4   4   4    3.25    2.21
   4   4   4   52.01   15.59
  -4  -4  -5    5.42    3.44
  -4  -4  -5   14.00    3.94
  -4  -4  -5   13.60    3.15
  -4  -4  -5   48.32   21.26
   4   4   5    6.04    3.07
   4   4   5   18.62    4.85
   4   4   5    5.17    3.29
   4   4   5  -18.41   12.01
  -4  -5  11   17.36    4.56
  -4  -5  11   28.79    6.00
  -4  -5  11   57.10   25.21
  -4  -5  11    5.24   19.75
   4   5 -11   23.87    5.35
   4   5 -11   26.47    4.23
   4   5 -11   27.96    4.67
  -4  -5  10   11.17    3.80
  -4  -5  10   13.09    2.39
  -4  -5  10    5.93    3.18
  -4  -5  10   -4.27   16.64
  -4  -5  10    8.97   13.16
   4   5 -10   13.89    3.15
   4   5 -10    9.29    2.53
  -4  -5   9   34.68    6.44
  -4  -5   9   39.53    4.34
  -4  -5   9   30.31    2.75
  -4  -5   9   36.42    6.18
  -4  -5   9   55.62   22.82
  -4  -5   9   20.29   12.91
   4   5  -9   29.58    6.11
   4   5  -9   38.70    4.34
  -4  -5   8   23.15    5.82
  -4  -5   8   27.45    6.73
  -4  -5   8   30.67    4.16
  -4  -5   8   36.71   14.86
   4   5  -8   30.74    6.08
   4   5  -8   30.38    4.41
  -4  -5   7    1.81    1.99
  -4  -5   7    2.53    1.99
  -4  -5   7    3.22    2.24
  -4  -5   7    5.82    8.06
  -4  -5   7    7.88    9.22
   4   5  -7    0.69    1.34
   4   5  -7    5.46    1.95
  -4  -5   6  553.11   19.28
  -4  -5   6  481.17   18.23
  -4  -5   6  614.66   13.74
  -4  -5   6  666.55   52.37
  -4  -5   6  504.64   44.45
   4   5  -6  466.02   17.76
   4   5  -6  529.81   19.10
   4   5  -6  561.35   15.73
   4   5  -6    3.40    2.21
  -4  -5   5  755.85   22.24
  -4  -5   5  577.15   19.67
  -4  -5   5  781.41   15.62
  -4  -5   5  765.72   55.33
  -4  -5   5  621.20   49.69
   4   5  -5  594.01   19.67
   4   5  -5  645.54   20.79
   4   5  -5  722.47   18.30
   4   5  -5  680.88   13.02
   4   5  -5  734.62   21.16
  -4  -5   4  638.60   20.36
  -4  -5   4  510.61   18.34
  -4  -5   4  563.09   17.68
  -4  -5   4  655.23   15.23
  -4  -5   4  635.42   49.44
  -4  -5   4  513.61   44.16
   4   5  -4  495.53   17.83
   4   5  -4  547.17   19.10
   4   5  -4  590.90   17.07
   4   5  -4  597.15   13.24
   4   5  -4  676.25   20.11
  -4  -5   3    2.21    1.84
  -4  -5   3    3.51    1.88
  -4  -5   3    0.58    1.23
  -4  -5   3    1.52    1.23
   4   5  -3    3.07    1.52
   4   5  -3    4.12    1.59
   4   5  -3   -1.37    1.05
   4   5  -3   -0.29    1.08
   4   5  -3    2.24    1.77
  -4  -5   2   20.47    4.23
  -4  -5   2   16.96    4.23
  -4  -5   2   17.61    3.65
  -4  -5   2   30.23    6.84
  -4  -5   2   20.90    3.76
  -4  -5   2   58.62   16.74
   4   5  -2   12.26    3.33
   4   5  -2    9.48    3.04
   4   5  -2   14.07    3.44
   4   5  -2   18.91    3.58
   4   5  -2   27.27    4.70
   4   5  -2   54.61   16.67
  -4  -5   1  140.57    9.76
  -4  -5   1  139.74    8.46
  -4  -5   1  151.13    9.62
  -4  -5   1  105.96   24.63
   4   5  -1  132.36    9.44
   4   5  -1  128.20    9.51
   4   5  -1  159.85   10.05
   4   5  -1  138.80    8.10
  -4  -5   0    3.91    2.24
  -4  -5   0    7.12    2.13
  -4  -5   0    7.23    2.28
  -4  -5   0   13.78   12.08
   4   5   0    4.85    2.60
   4   5   0   12.51    4.16
   4   5   0   10.23    3.40
   4   5   0    8.72    3.33
   4   5   0    2.28    6.69
  -4  -5  -1   73.85    7.59
  -4  -5  -1   93.78    7.09
  -4  -5  -1   59.38   20.76
   4   5   1   70.56    7.96
   4   5   1   95.04    8.50
   4   5   1   89.62    8.53
   4   5   1   62.24   21.12
  -4  -5  -2   -3.87    1.37
  -4  -5  -2    1.19    1.34
  -4  -5  -2    0.36    1.12
  -4  -5  -2   45.93   19.53
   4   5   2    4.59    2.78
   4   5   2    3.04    2.35
  -4  -5  -3   23.54    6.37
  -4  -5  -3   27.88    3.94
  -4  -5  -3   47.48   20.18
   4   5   3   38.59    6.58
   4   5   3   32.44    6.37
   4   5   3   34.32    5.89
   4   5   3   58.19   26.69
  -4  -6  11    6.33    2.71
  -4  -6  11    3.25    2.46
  -4  -6  11   20.90   22.46
  -4  -6  11   30.63   22.96
   4   6 -11    5.75    2.35
   4   6 -11    1.56    2.21
   4   6 -11   -3.76    1.92
  -4  -6  10   31.43    6.29
  -4  -6  10   36.02    5.14
  -4  -6  10   26.07    5.93
  -4  -6  10   32.51   19.53
  -4  -6  10   10.78   12.73
   4   6 -10   19.24    4.77
   4   6 -10   31.21    4.45
  -4  -6   9    2.57    1.66
  -4  -6   9    3.22    2.06
  -4  -6   9    0.51   20.32
  -4  -6   9   42.60   20.51
   4   6  -9   -2.21    1.59
   4   6  -9    7.49    2.24
  -4  -6   8   23.47    4.92
  -4  -6   8   33.89    3.94
  -4  -6   8   67.99   22.64
  -4  -6   8   -1.30   16.60
   4   6  -8   24.59    5.50
   4   6  -8   28.97    4.67
  -4  -6   7    0.94    1.41
  -4  -6   7   -1.27    1.41
  -4  -6   7   -5.64   10.05
  -4  -6   7   -4.30   11.93
   4   6  -7    3.29    1.52
   4   6  -7   -0.33    1.16
  -4  -6   6   17.43    3.29
  -4  -6   6    5.82   11.97
  -4  -6   6   32.11   17.18
   4   6  -6   18.01    4.56
   4   6  -6   19.60    3.69
  -4  -6   5    5.68    2.46
  -4  -6   5    3.18    1.77
  -4  -6   5    7.56    2.35
  -4  -6   5   -9.37    9.95
  -4  -6   5   15.33   12.73
   4   6  -5    8.10    2.97
   4   6  -5    8.50    2.60
   4   6  -5    7.78    1.70
  -4  -6   4   84.84    8.10
  -4  -6   4  100.03    7.63
  -4  -6   4  119.49    7.12
  -4  -6   4  102.20    7.16
  -4  -6   4   57.50   19.71
   4   6  -4  105.78    8.82
   4   6  -4  114.24    7.74
   4   6  -4  101.23    5.53
  -4  -6   3   -1.37    1.37
  -4  -6   3    1.37    1.45
  -4  -6   3   -1.74    1.01
   4   6  -3    4.05    2.42
   4   6  -3    0.76    1.12
   4   6  -3    1.52    1.19
   4   6  -3    4.16   12.95
  -4  -6   2   29.69    6.15
  -4  -6   2   36.06    4.48
  -4  -6   2   32.91    5.75
  -4  -6   2   33.27    3.98
  -4  -6   2   85.24   26.04
   4   6  -2   22.17    4.59
   4   6  -2   28.32    5.35
   4   6  -2   29.55    4.45
   4   6  -2   48.75   20.76
  -4  -6   1    0.11    0.87
  -4  -6   1    2.24    1.63
  -4  -6   1    2.13    1.66
  -4  -6   1  -10.63   12.84
   4   6  -1   -1.08    1.27
   4   6  -1    1.34    1.77
   4   6  -1   -4.63   10.96
  -4  -6   0   28.46    6.29
  -4  -6   0   22.60    4.27
  -4  -6   0   18.15    3.62
  -4  -6   0   17.72   16.17
   4   6   0   15.59    4.74
   4   6   0   16.93    4.09
   4   6   0    1.12    1.99
   4   6   0    1.92    9.15
  -4  -6  -1    2.60    2.21
  -4  -6  -1    1.30    1.41
  -4  -6  -1    0.69    1.84
  -4  -6  -1  -25.53   18.23
   4   6   1    3.62    1.88
   4   6   1   -2.21    2.21
   4   6   1  -10.96   14.76
  -4  -6  -2    1.81    3.33
  -4  -6  -2    2.68    1.95
  -4  -6  -2  -24.74   19.46
   4   6   2   -0.65    2.82
   4   6   2   -0.51    2.21
  -4  -7  10    6.94    2.86
  -4  -7  10   -5.46   18.12
  -4  -7  10    3.58   14.43
   4   7 -10   11.10    3.80
   4   7 -10    3.47    2.17
  -4  -7   9   65.57    8.06
  -4  -7   9   98.30    7.27
  -4  -7   9  101.84   29.69
  -4  -7   9   97.97   25.35
   4   7  -9   66.04    8.06
   4   7  -9   64.34    5.28
  -4  -7   8   65.13    9.80
  -4  -7   8   72.58    6.33
  -4  -7   8   57.25   23.90
   4   7  -8   53.38    8.06
   4   7  -8   74.07    6.00
  -4  -7   7    3.11    2.13
  -4  -7   7    3.58    1.77
  -4  -7   7   25.17   16.27
  -4  -7   7  -12.55   16.38
   4   7  -7   -0.54    1.48
   4   7  -7    0.76    1.84
  -4  -7   6  107.77    9.66
  -4  -7   6   98.87    8.21
  -4  -7   6  111.10    7.41
  -4  -7   6   93.02   26.83
  -4  -7   6   48.32   19.53
   4   7  -6  109.07    9.66
   4   7  -6  110.63    7.56
  -4  -7   5   50.96    8.06
  -4  -7   5   53.81    6.08
  -4  -7   5   61.30    5.89
  -4  -7   5   53.63    5.75
  -4  -7   5   54.36   24.12
  -4  -7   5   33.31   20.43
   4   7  -5   44.59    7.67
   4   7  -5   48.82    5.35
  -4  -7   4   93.16    9.33
  -4  -7   4   98.04    7.81
  -4  -7   4  118.04    8.14
  -4  -7   4   95.48   28.39
   4   7  -4  102.42    9.62
   4   7  -4  108.78    8.14
  -4  -7   3    9.19    3.36
  -4  -7   3    4.41    2.13
  -4  -7   3    2.13    2.21
  -4  -7   3  -21.01   16.78
   4   7  -3    1.99    2.21
   4   7  -3    6.26    2.53
   4   7  -3    3.76    1.92
   4   7  -3   14.54   14.79
  -4  -7   2  124.15   10.42
  -4  -7   2  105.89    7.81
  -4  -7   2  111.89    7.85
  -4  -7   2  140.65   33.92
   4   7  -2  117.93   10.38
   4   7  -2  113.27    9.08
   4   7  -2  111.46    7.70
   4   7  -2   76.89   27.02
  -4  -7   1   21.45    4.88
  -4  -7   1   26.62    4.70
  -4  -7   1   27.92    4.88
  -4  -7   1    7.70   24.16
   4   7  -1   13.38    4.27
   4   7  -1   22.86    5.17
   4   7  -1   26.15    4.59
  -4  -7   0   -1.84    2.13
  -4  -7   0    3.36    2.39
  -4  -7   0   -1.37    2.13
  -4  -7   0   36.45   20.43
   4   7   0    8.39    3.36
   4   7   0    4.77    2.89
   4   7   0   13.27   22.02
  -4  -8   7   11.07    4.05
  -4  -8   7    9.95    3.15
  -4  -8   7   29.69    4.74
  -4  -8   7    1.19   15.23
  -4  -8   7  -37.14   25.42
   4   8  -7   11.07    4.27
   4   8  -7   19.42    3.94
  -4  -8   6    9.84    4.09
  -4  -8   6   22.71    4.85
  -4  -8   6    7.27    3.44
  -4  -8   6   16.27    3.91
  -4  -8   6    5.86   13.92
  -4  -8   6   22.17   22.75
   4   8  -6   10.13    3.36
   4   8  -6   10.05    3.18
  -4  -8   5   19.78    5.86
  -4  -8   5   32.04    5.93
  -4  -8   5   30.09    5.39
  -4  -8   5   23.25   17.65
  -4  -8   5   50.31   18.15
   4   8  -5   29.22    6.26
   4   8  -5   19.89    4.30
  -4  -8   4  135.51   11.86
  -4  -8   4  153.12   12.30
  -4  -8   4  184.19   39.09
   4   8  -4  115.29   10.85
   4   8  -4  157.61   10.92
  -5  11  -3   68.46    5.42
  -5  11  -3   98.48   10.20
  -5  11  -3   88.93    7.34
  -5  11  -3   57.79   17.32
   5 -11   3   90.67    6.91
   5 -11   3   86.40    6.94
   5 -11   3   89.04    6.65
   5 -11   3   91.03    9.51
   5 -11   3   57.00   20.29
  -5  11  -4    6.18    3.87
  -5  11  -4    4.27    2.28
   5 -11   4    4.56    2.10
   5 -11   4    0.54    1.84
   5 -11   4    2.03    1.81
   5 -11   4    7.96    2.28
   5 -11   4    2.75    2.50
   5 -11   4   -8.35   12.01
  -5  10   1   46.07    6.62
  -5  10   1   61.41    7.45
  -5  10   1   70.23    7.09
  -5  10   1   -1.56   20.14
   5 -10  -1   80.97    7.70
   5 -10  -1   57.79    6.94
   5 -10  -1   78.44    9.40
   5 -10  -1   82.49   26.54
  -5  10   0   93.70    7.20
  -5  10   0  120.50   10.34
  -5  10   0   99.42    8.64
  -5  10   0   88.46   22.13
   5 -10   0  107.52    8.50
   5 -10   0  121.26   10.89
   5 -10   0  137.75   27.27
  -5  10  -1  181.40    8.97
  -5  10  -1  218.80   13.78
  -5  10  -1  198.47   11.17
  -5  10  -1  160.72   27.23
   5 -10   1  200.24   10.49
   5 -10   1  161.73    9.73
   5 -10   1  187.15   10.52
   5 -10   1  213.44   14.00
   5 -10   1  166.43   27.23
  -5  10  -2   -0.90    1.48
  -5  10  -2   -0.43    1.66
  -5  10  -2   -2.78    1.37
  -5  10  -2    3.00    8.57
   5 -10   2    1.41    1.45
   5 -10   2    0.29    1.95
   5 -10   2    2.21    1.95
   5 -10   2   -0.22    1.66
   5 -10   2  -17.61    9.37
  -5  10  -3   20.83    2.89
  -5  10  -3   17.50    2.60
  -5  10  -3   12.15    3.91
  -5  10  -3   32.11    4.95
  -5  10  -3   18.66   10.52
   5 -10   3   26.76    4.38
   5 -10   3   18.48    3.33
   5 -10   3   20.94    3.15
   5 -10   3   19.46    3.51
   5 -10   3   19.20    4.56
  -5  10  -4  115.80   10.27
  -5  10  -4   81.91    6.47
   5 -10   4   91.10    5.61
   5 -10   4   92.44    5.79
   5 -10   4   96.85    6.40
   5 -10   4   86.29    5.42
   5 -10   4  111.93    9.62
   5 -10   4   97.36   14.68
   5 -10   4   97.39   15.98
  -5  10  -5    4.41    3.25
   5 -10   5    7.45    2.03
   5 -10   5    7.38    1.84
   5 -10   5    9.69    2.86
   5 -10   5    5.28    3.07
   5 -10   5   13.06    5.86
   5 -10   5    0.14    6.18
  -5  10  -6  158.98   12.30
   5 -10   6  155.07    5.97
   5 -10   6  133.05    5.53
   5 -10   6  139.38    9.15
   5 -10   6  166.18    6.84
   5 -10   6  163.21   11.83
  -5  10  -7    8.50    3.15
   5 -10   7    5.79    2.21
   5 -10   7    2.78    2.53
  -5   9   3   28.93    6.00
  -5   9   3   28.97    5.82
  -5   9   3   29.84    6.40
  -5   9   3   39.02   22.02
   5  -9  -3   37.65    6.73
   5  -9  -3   24.09    6.00
   5  -9  -3   23.25    6.04
   5  -9  -3    8.21   16.89
  -5   9   2    4.70    2.60
  -5   9   2    2.17    2.21
  -5   9   2    5.68    2.68
  -5   9   2   -1.27   15.70
   5  -9  -2    4.63    2.68
   5  -9  -2    2.93    3.11
   5  -9  -2    7.31    3.11
   5  -9  -2   -1.34   16.02
  -5   9   1  119.89    7.99
  -5   9   1  124.70    9.84
  -5   9   1  115.11    9.01
  -5   9   1  119.85   24.45
   5  -9  -1  122.24    8.53
   5  -9  -1  129.43   10.81
   5  -9  -1  129.80   10.74
   5  -9  -1  113.20   24.09
  -5   9   0    2.71    2.10
  -5   9   0    6.91    2.57
  -5   9   0    3.80    2.03
  -5   9   0   21.30   13.24
   5  -9   0    6.47    2.28
   5  -9   0    5.71    2.42
   5  -9   0    3.15    2.39
   5  -9   0    1.84    1.70
   5  -9   0    9.84   11.90
  -5   9  -1    3.36    1.59
  -5   9  -1    4.30    1.84
  -5   9  -1   -2.17    1.23
  -5   9  -1    4.85    7.34
   5  -9   1   -0.25    1.23
   5  -9   1    0.40    1.16
   5  -9   1   -0.25    1.63
   5  -9   1   -1.77    1.30
   5  -9   1   -5.32    8.28
  -5   9  -2   -0.51    1.01
  -5   9  -2   -0.43    1.05
  -5   9  -2   -0.29    1.74
  -5   9  -2    1.52    1.63
  -5   9  -2   21.63    8.32
   5  -9   2    2.50    1.27
   5  -9   2    3.69    1.52
   5  -9   2    0.87    0.98
   5  -9   2    7.59    2.10
   5  -9   2    4.05    2.21
   5  -9   2   -0.80    8.03
  -5   9  -3   82.75    8.10
  -5   9  -3   80.65    6.47
   5  -9   3   52.80    4.20
   5  -9   3   60.76    4.38
   5  -9   3   60.07    4.88
   5  -9   3   71.71    5.42
   5  -9   3   64.19    7.05
   5  -9   3   51.75   11.79
  -5   9  -4  138.91   10.63
  -5   9  -4  132.44    8.14
   5  -9   4  126.25    5.57
   5  -9   4  112.83    5.24
   5  -9   4  110.09    7.31
   5  -9   4  125.28    7.09
   5  -9   4  120.97    9.48
   5  -9   4  121.55   10.81
   5  -9   4  131.13   11.50
  -5   9  -5   37.39    6.91
   5  -9   5   35.37    2.64
   5  -9   5   37.68    2.60
   5  -9   5   42.46    4.85
   5  -9   5   39.38    3.15
   5  -9   5   41.92    3.25
   5  -9   5   42.93    3.47
   5  -9   5   37.29    6.62
  -5   9  -6    0.36    1.19
   5  -9   6   -2.64    1.52
   5  -9   6   -0.94    1.37
   5  -9   6    2.21    1.88
  -5   9  -7   28.90    5.64
   5  -9   7   25.35    4.41
   5  -9   7   38.30    5.21
   5  -9   7   28.53    5.53
  -5   9  -8   14.10    4.45
   5  -9   8   21.16    4.16
   5  -9   8   18.99    4.16
   5  -9   8    9.62    3.44
  -5   8   5    9.98    3.94
  -5   8   5   19.38    3.80
  -5   8   5    7.31    4.20
  -5   8   5   -8.17   19.13
   5  -8  -5   24.12    5.50
   5  -8  -5   11.79    3.80
   5  -8  -5   22.13    5.68
   5  -8  -5   43.00   22.35
  -5   8   4    5.50    3.18
  -5   8   4    5.82    2.50
  -5   8   4    8.06    3.91
   5  -8  -4    9.84    3.29
   5  -8  -4    9.98    3.62
   5  -8  -4    2.46    2.21
   5  -8  -4   20.47   16.17
  -5   8   3   14.07    3.58
  -5   8   3   20.07    4.77
  -5   8   3   17.40    4.05
  -5   8   3    9.87   12.69
   5  -8  -3   21.66    4.56
   5  -8  -3   11.54    3.58
   5  -8  -3   16.02    4.27
   5  -8  -3   18.55   12.19
  -5   8   2   16.60    3.80
  -5   8   2   21.45    4.77
  -5   8   2   20.98    5.10
  -5   8   2   37.79   15.98
   5  -8  -2   23.15    4.81
   5  -8  -2   15.23    3.72
   5  -8  -2   24.34    5.53
   5  -8  -2    9.51   11.25
  -5   8   1  162.34    8.46
  -5   8   1  215.29   11.97
  -5   8   1  189.76   11.07
  -5   8   1  174.86   28.53
   5  -8  -1  193.95    9.91
   5  -8  -1  175.40    9.48
   5  -8  -1  186.57   10.56
   5  -8  -1  202.74   12.40
   5  -8  -1  193.37   29.58
  -5   8   0    3.07    1.52
  -5   8   0   -0.47    1.05
  -5   8   0    2.89    1.70
  -5   8   0   -1.08    1.30
  -5   8   0   12.51   11.28
   5  -8   0    2.10    1.37
   5  -8   0    3.25    1.74
   5  -8   0   -0.33    1.59
   5  -8   0    4.52    2.64
   5  -8   0  -12.59    7.23
  -5   8  -1  142.42    6.00
  -5   8  -1  161.91    6.44
  -5   8  -1  231.89   12.84
  -5   8  -1  196.77   10.34
  -5   8  -1  174.42   19.17
   5  -8   1  188.09    8.21
   5  -8   1  175.98    7.92
   5  -8   1  198.83    9.69
   5  -8   1  211.93   11.79
   5  -8   1  203.28   11.75
   5  -8   1  202.78   20.83
  -5   8  -2   38.15    2.39
  -5   8  -2   39.64    2.42
  -5   8  -2   40.83    6.84
  -5   8  -2   37.97    4.56
  -5   8  -2   26.26    7.41
   5  -8   2   46.33    3.69
   5  -8   2   46.04    3.80
   5  -8   2   44.99    3.98
   5  -8   2   38.23    4.16
   5  -8   2   47.27    5.86
   5  -8   2   50.74    5.71
   5  -8   2   41.63    9.37
  -5   8  -3    0.90    2.78
  -5   8  -3    3.87    1.84
   5  -8   3    1.92    0.98
   5  -8   3    4.88    1.99
   5  -8   3    0.36    1.19
   5  -8   3    6.04    2.46
   5  -8   3    2.53    2.21
   5  -8   3    0.83    2.89
   5  -8   3    1.27    4.48
  -5   8  -4  101.12    8.64
  -5   8  -4   90.77    6.65
   5  -8   4   92.47    6.55
   5  -8   4  105.64    5.75
   5  -8   4  105.42    8.72
   5  -8   4  112.69    9.19
   5  -8   4   95.84    6.80
   5  -8   4  102.53    5.03
   5  -8   4   83.76    7.45
  -5   8  -5  834.90   24.88
   5  -8   5  739.25   20.07
   5  -8   5  773.96   14.36
   5  -8   5  728.76   18.70
   5  -8   5  719.82   21.77
   5  -8   5  772.73   22.35
  -5   8  -6  182.99   11.65
   5  -8   6  165.20   10.02
   5  -8   6  154.82    5.93
   5  -8   6  147.48    8.61
   5  -8   6  172.83    8.75
   5  -8   6  162.71   10.52
  -5   8  -7    1.27    1.77
   5  -8   7   -0.22    1.74
   5  -8   7    2.42    1.56
   5  -8   7   -2.21    1.23
  -5   8  -8   21.92    4.41
   5  -8   8   18.41    4.27
  -5   8  -9    2.03    2.97
   5  -8   9    5.97    2.78
   5  -8   9    3.40    2.31
  -5   7   6   16.56    4.09
  -5   7   6    3.22    2.13
  -5   7   6    4.05   14.03
   5  -7  -6    3.51    2.71
   5  -7  -6   12.37    4.95
   5  -7  -6    3.22   15.59
  -5   7   5    8.68    3.76
  -5   7   5   11.54    2.93
  -5   7   5    6.84    2.93
  -5   7   5    0.98   15.55
   5  -7  -5   10.13    3.18
   5  -7  -5    6.22    2.78
   5  -7  -5    8.64    4.16
   5  -7  -5    1.81   13.27
  -5   7   4    1.59    1.81
  -5   7   4    3.83    1.81
  -5   7   4   -0.25   11.54
   5  -7  -4   -0.65    1.59
   5  -7  -4   -4.09    1.77
   5  -7  -4    1.59    1.45
   5  -7  -4   -0.76   11.50
  -5   7   3   13.38    3.36
  -5   7   3   17.68    3.98
  -5   7   3    8.53    4.09
  -5   7   3    1.92    8.97
   5  -7  -3   22.60    5.71
   5  -7  -3    9.98    3.15
   5  -7  -3   12.12    3.76
   5  -7  -3   18.26    9.48
  -5   7   2    1.12    1.30
  -5   7   2    2.68    1.45
  -5   7   2   -0.98    1.19
  -5   7   2    2.06    1.37
  -5   7   2    7.45    8.50
   5  -7  -2    3.25    1.88
   5  -7  -2    0.83    1.23
   5  -7  -2    4.85    2.17
   5  -7  -2    2.71    2.17
   5  -7  -2   -7.16    4.74
  -5   7   1    8.82    2.13
  -5   7   1   12.08    2.64
  -5   7   1   12.33    3.40
  -5   7   1   12.95    3.18
  -5   7   1    2.03    1.37
  -5   7   1   -9.62    6.18
   5  -7  -1   13.85    3.04
   5  -7  -1    7.05    2.31
   5  -7  -1   15.51    3.58
   5  -7  -1    2.39    1.70
   5  -7  -1   16.56    9.11
  -5   7   0   21.05    2.53
  -5   7   0    1.59    0.65
  -5   7   0   15.80    3.87
  -5   7   0   17.97    3.76
  -5   7   0    6.44    7.27
   5  -7   0   19.42    3.44
   5  -7   0   17.11    3.00
   5  -7   0   17.21    3.47
   5  -7   0   11.68    2.89
   5  -7   0   29.84    9.87
  -5   7  -1   72.29    3.47
  -5   7  -1   77.39    3.65
  -5   7  -1   98.80    7.96
  -5   7  -1   82.64    6.55
  -5   7  -1   88.93   13.45
   5  -7   1  101.73    5.28
   5  -7   1   89.76    4.92
   5  -7   1   93.81    5.39
   5  -7   1  113.09    7.05
   5  -7   1  111.86    7.85
   5  -7   1   89.94    7.12
   5  -7   1  103.11   14.97
  -5   7  -2  281.15   11.75
  -5   7  -2  280.57   14.65
   5  -7   2  292.28    7.41
   5  -7   2  253.23    6.87
   5  -7   2  274.17   10.09
   5  -7   2  314.53   13.24
   5  -7   2  266.79   11.32
   5  -7   2  266.97   12.19
   5  -7   2  329.79   16.17
  -5   7  -3  418.57   16.38
  -5   7  -3  379.30   13.49
   5  -7   3  343.86   12.12
   5  -7   3  406.17   15.33
   5  -7   3  347.72   12.84
   5  -7   3  388.81    9.51
   5  -7   3  375.50   14.32
  -5   7  -4   49.62    7.09
   5  -7   4   54.43    5.06
   5  -7   4   58.48    4.38
   5  -7   4   51.72    5.82
   5  -7   4   44.12    4.67
   5  -7   4   49.91    4.12
   5  -7   4   61.81    5.89
  -5   7  -5   73.49    7.05
   5  -7   5   50.12    5.46
   5  -7   5   63.29    4.38
   5  -7   5   67.01    6.98
   5  -7   5   56.89    5.32
   5  -7   5   72.98    5.42
   5  -7   5   70.77    6.33
  -5   7  -6   89.58    7.92
   5  -7   6   64.52    6.73
   5  -7   6   68.82    4.52
   5  -7   6   73.20    6.18
   5  -7   6   79.82    6.29
   5  -7   6   64.45    6.04
  -5   7  -7   39.20    8.93
   5  -7   7   34.83    3.36
   5  -7   7   43.94    6.44
   5  -7   7   33.42    5.35
  -5   7  -8   32.95    5.64
   5  -7   8   48.57    3.94
   5  -7   8   43.43    5.21
   5  -7   8   58.62    6.29
  -5   7  -9   67.48    7.78
   5  -7   9   39.06    2.86
   5  -7   9   49.15    4.59
   5  -7   9   55.19    6.55
  -5   6   7    0.87    2.35
  -5   6   7    4.30    1.63
  -5   6   7   -1.66    2.24
  -5   6   7    0.43    1.88
  -5   6   7  -28.61   14.36
   5  -6  -7    1.37    2.57
   5  -6  -7    5.28    2.50
   5  -6  -7   -3.51   16.06
  -5   6   6  186.54   11.97
  -5   6   6  188.17    7.27
  -5   6   6  209.90   13.38
  -5   6   6  224.66    8.75
  -5   6   6  125.49   31.39
   5  -6  -6  200.97   12.48
   5  -6  -6  170.23   11.65
   5  -6  -6  177.10    7.78
   5  -6  -6  194.82   13.13
   5  -6  -6  170.55   33.49
  -5   6   5  155.54   10.13
  -5   6   5  163.28    6.47
  -5   6   5  156.38   11.07
  -5   6   5  131.50   26.29
   5  -6  -5  181.40   11.17
   5  -6  -5  136.23    9.80
   5  -6  -5  162.09    6.51
   5  -6  -5  163.72   11.61
   5  -6  -5  166.32   31.83
  -5   6   4   42.17    5.03
  -5   6   4   32.19    4.88
  -5   6   4   30.45    3.04
  -5   6   4   48.71    9.58
  -5   6   4   -9.87    8.53
   5  -6  -4   38.91    5.97
   5  -6  -4   17.72    3.47
   5  -6  -4   30.70    2.64
   5  -6  -4   36.82    6.26
   5  -6  -4   30.67   15.41
  -5   6   3    4.41    1.84
  -5   6   3    2.35    1.56
  -5   6   3    1.63    1.63
  -5   6   3    0.69    1.08
  -5   6   3    1.08    0.87
  -5   6   3    1.34    1.16
  -5   6   3  -13.60    5.61
   5  -6  -3   -1.37    1.16
   5  -6  -3    0.54    1.16
   5  -6  -3    1.95    1.88
   5  -6  -3   -1.48    1.01
   5  -6  -3   -3.07    8.14
  -5   6   2  155.80    7.74
  -5   6   2  163.28    7.92
  -5   6   2  204.01   10.42
  -5   6   2  189.65    6.98
  -5   6   2  177.89   10.27
  -5   6   2  179.78   13.31
  -5   6   2  155.51   19.35
   5  -6  -2  186.00    8.93
   5  -6  -2  165.45    8.35
   5  -6  -2  200.21   10.52
   5  -6  -2  178.00   10.34
   5  -6  -2  189.25   22.86
  -5   6   1  254.09    8.61
  -5   6   1  271.49    8.93
  -5   6   1  328.38   13.31
  -5   6   1  305.20    9.19
  -5   6   1  290.48   12.59
  -5   6   1  281.98   12.26
  -5   6   1  312.39   24.45
   5  -6  -1  298.47   10.20
   5  -6  -1  263.10    9.55
   5  -6  -1  313.48   12.80
   5  -6  -1  340.71   12.98
   5  -6  -1  290.22   12.62
   5  -6  -1  348.56   26.69
  -5   6   0    3.76    1.12
  -5   6   0    2.21    0.90
  -5   6   0    7.56    2.78
  -5   6   0    5.03    1.66
  -5   6   0    3.44    1.95
   5  -6   0    4.27    1.41
   5  -6   0    2.39    1.30
   5  -6   0    2.21    1.70
   5  -6   0    6.55    2.31
   5  -6   0    5.28    2.35
   5  -6   0    2.93    4.63
  -5   6  -1  363.31   14.25
  -5   6  -1  316.08   17.61
  -5   6  -1  320.71   12.48
  -5   6  -1  296.41   16.35
   5  -6   1  335.72    7.99
   5  -6   1  281.40    7.27
   5  -6   1  351.52   13.85
   5  -6   1  326.79   10.60
   5  -6   1  368.16   13.13
   5  -6   1  293.12   11.83
   5  -6   1  323.46    7.31
   5  -6   1  328.27   12.55
   5  -6   1  375.25   18.66
  -5   6  -2   92.44    7.31
  -5   6  -2   87.52    6.47
   5  -6   2   84.92    7.09
   5  -6   2   86.22    5.93
   5  -6   2   90.70    6.73
   5  -6   2   84.08    6.29
   5  -6   2   76.60    4.27
   5  -6   2   87.95    6.44
  -5   6  -3  704.93   20.22
  -5   6  -3  655.81   17.61
   5  -6   3  628.69   18.88
   5  -6   3  620.99   16.64
   5  -6   3  684.60   16.27
   5  -6   3  708.07   18.95
   5  -6   3  609.67   16.82
   5  -6   3  659.47   14.07
   5  -6   3  641.67   16.96
  -5   6  -4   61.81    6.26
   5  -6   4   50.09    5.61
   5  -6   4   49.29    5.06
   5  -6   4   54.93    4.41
   5  -6   4   56.63    5.79
   5  -6   4   51.72    4.95
   5  -6   4   55.15    4.67
   5  -6   4   51.75    5.03
  -5   6  -5  159.70    9.84
   5  -6   5  113.30   10.42
   5  -6   5  128.20    8.61
   5  -6   5  132.65    6.73
   5  -6   5  146.50    8.50
   5  -6   5  142.34    8.14
   5  -6   5  127.41    7.74
  -5   6  -6   91.39    7.56
  -5   6  -6   90.56    7.81
   5  -6   6   69.29    6.73
   5  -6   6   76.56    7.16
   5  -6   6   77.14    7.34
   5  -6   6   64.41    6.04
   5  -6   6   68.13    6.26
  -5   6  -7   37.18    6.44
   5  -6   7   27.88    4.70
   5  -6   7   21.95    3.69
   5  -6   7   25.68    6.69
   5  -6   7   28.79    5.32
  -5   6  -8    4.67    2.06
   5  -6   8    5.97    1.41
   5  -6   8    3.72    1.27
   5  -6   8    5.35    2.03
   5  -6   8    3.83    2.39
   5  -6   8    8.06    3.15
   5  -6   8    8.03    3.58
  -5   6  -9    4.34    2.31
   5  -6   9    3.36    1.56
   5  -6   9    3.25    1.41
   5  -6   9    5.61    2.21
   5  -6   9   11.14    3.44
   5  -6   9   -3.80    2.06
   5  -6   9   15.95    9.55
   5  -6   9   -1.30    5.82
  -5   6 -10    9.98    3.94
   5  -6  10    6.08    2.28
   5  -6  10   15.55    2.82
   5  -6  10   13.27    3.33
   5  -6  10   11.25    4.59
   5  -6  10   10.85   10.99
  -5   5   8  228.31   14.18
  -5   5   8  208.92   14.54
  -5   5   8  255.83   11.61
  -5   5   8  198.22   39.64
   5  -5  -8  270.73   15.59
   5  -5  -8  223.03   14.57
   5  -5  -8  174.60   36.56
  -5   5   7  239.30   13.56
  -5   5   7  244.76    9.91
  -5   5   7  245.74   14.47
  -5   5   7  283.13   11.39
  -5   5   7  223.10   39.28
   5  -5  -7  255.90   14.50
   5  -5  -7  180.21   12.04
   5  -5  -7  222.05   10.09
   5  -5  -7  244.62   14.61
   5  -5  -7  215.18   38.48
  -5   5   6   62.38    6.69
  -5   5   6   51.75    4.56
  -5   5   6   68.82    7.27
  -5   5   6   67.70    5.21
  -5   5   6   69.40   18.52
   5  -5  -6   57.61    6.62
   5  -5  -6   51.79    6.22
   5  -5  -6   59.78    4.99
   5  -5  -6   28.86   15.48
  -5   5   5   22.53    4.63
  -5   5   5   26.69    3.29
  -5   5   5   28.28    6.00
  -5   5   5   15.80   11.86
   5  -5  -5   30.23    5.39
   5  -5  -5   29.00    5.06
   5  -5  -5   31.43    4.63
   5  -5  -5   29.87    5.42
   5  -5  -5   23.98   12.37
  -5   5   4   16.82    3.47
  -5   5   4   18.08    3.76
  -5   5   4   16.02    2.86
  -5   5   4   17.07    3.62
  -5   5   4   15.77    3.62
  -5   5   4    4.88    6.44
   5  -5  -4   22.10    4.23
   5  -5  -4   12.40    3.25
   5  -5  -4   25.57    4.74
   5  -5  -4   17.03    2.60
   5  -5  -4   11.68    2.89
   5  -5  -4   13.16    8.75
  -5   5   3   97.83    6.33
  -5   5   3  109.36    6.73
  -5   5   3  117.35    5.97
  -5   5   3  124.12    8.46
  -5   5   3  116.27    7.96
  -5   5   3  116.05   21.66
   5  -5  -3  114.50    7.23
   5  -5  -3  114.82    7.09
   5  -5  -3  123.79    7.56
   5  -5  -3  126.47    8.50
   5  -5  -3  117.83    5.06
   5  -5  -3  113.09    7.99
   5  -5  -3  139.38   22.57
  -5   5   2   50.31    4.16
  -5   5   2   57.76    4.34
  -5   5   2   67.12    5.71
  -5   5   2   51.86    4.09
  -5   5   2   54.79    5.61
  -5   5   2   44.84    4.88
  -5   5   2   53.74   12.44
   5  -5  -2   68.93    5.06
   5  -5  -2   49.58    4.38
   5  -5  -2   62.49    5.46
   5  -5  -2   69.69    3.62
   5  -5  -2   54.93    5.39
   5  -5  -2   64.05   14.10
  -5   5   1  385.55    9.58
  -5   5   1  385.23    9.55
  -5   5   1  492.24   15.48
  -5   5   1  463.99   12.12
  -5   5   1  466.49   15.30
  -5   5   1  422.48   13.71
  -5   5   1  395.53   25.75
   5  -5  -1  467.47   11.61
   5  -5  -1  417.92   10.89
   5  -5  -1  499.87   15.41
   5  -5  -1  542.87    9.91
   5  -5  -1  463.63   14.57
   5  -5  -1  590.35   30.92
  -5   5   0   64.45    4.48
  -5   5   0   59.71    2.93
  -5   5   0   68.32    5.93
  -5   5   0   60.68    4.70
  -5   5   0   71.75    6.00
  -5   5   0   61.08    5.03
  -5   5   0   63.79    9.80
   5  -5   0   74.21    4.01
   5  -5   0   60.43    5.53
   5  -5   0   57.21    5.35
   5  -5   0   81.08    5.64
   5  -5   0   67.30    5.61
   5  -5   0   71.82    3.83
   5  -5   0   64.77    5.32
   5  -5   0   91.79   10.60
  -5   5  -1  549.78   16.71
  -5   5  -1  531.26   14.18
  -5   5  -1  524.72   15.55
  -5   5  -1  489.06   14.79
   5  -5   1  554.08    8.32
   5  -5   1  464.54    7.56
   5  -5   1  539.65   16.38
   5  -5   1  490.83   13.49
   5  -5   1  566.59   14.97
   5  -5   1  493.61   14.94
   5  -5   1  521.28   14.25
   5  -5   1  573.72   16.09
  -5   5  -2    7.12    2.42
  -5   5  -2    7.67    2.35
  -5   5  -2    6.76    2.06
   5  -5   2    7.16    2.35
   5  -5   2    7.45    2.21
   5  -5   2   13.71    3.11
   5  -5   2    8.43    2.53
   5  -5   2    9.84    2.21
  -5   5  -3  278.51   12.30
   5  -5   3  274.09   11.97
   5  -5   3  246.43   10.63
   5  -5   3  297.93   11.61
   5  -5   3  239.23   10.52
   5  -5   3  262.41    9.66
   5  -5   3  239.63   11.43
  -5   5  -4  170.19    9.37
   5  -5   4  142.09    8.90
   5  -5   4  141.87    8.57
   5  -5   4  144.51    7.59
   5  -5   4  172.76    9.26
   5  -5   4  133.56    8.10
   5  -5   4  159.67    8.25
  -5   5  -5  593.03   18.34
   5  -5   5  533.54   17.18
   5  -5   5  485.51   16.74
   5  -5   5  492.46   13.81
   5  -5   5  561.28   17.61
   5  -5   5  450.51   15.26
   5  -5   5  523.92   16.09
   5  -5   5  517.92   14.14
  -5   5  -6  567.21   18.99
   5  -5   6  516.29   17.11
   5  -5   6  489.82   17.83
   5  -5   6  476.47   14.03
   5  -5   6  554.84   18.52
   5  -5   6  483.02   16.49
   5  -5   6  512.06   17.18
  -5   5  -7    9.15    4.48
   5  -5   7    7.27    1.52
   5  -5   7    9.01    1.74
   5  -5   7    9.55    3.36
   5  -5   7    7.09    2.17
   5  -5   7    9.73    3.22
   5  -5   7   10.92    3.44
   5  -5   7   12.04    2.93
   5  -5   7    9.33    3.29
  -5   5  -8   61.34    6.98
  -5   5  -8   66.69    9.98
   5  -5   8   52.80    3.98
   5  -5   8   53.99    3.80
   5  -5   8   60.61    6.18
   5  -5   8   57.65    5.28
   5  -5   8   45.42    6.98
   5  -5   8   53.05    5.35
   5  -5   8   33.96    8.50
  -5   5  -9   33.67    6.22
  -5   5  -9   21.30    9.22
   5  -5   9   21.99    3.54
   5  -5   9   29.76    4.16
   5  -5   9   30.52    5.14
   5  -5   9   32.62    6.65
   5  -5   9   29.73    5.17
   5  -5   9   37.43   10.78
  -5   5 -10    0.29    2.64
   5  -5  10    3.62    2.17
   5  -5  10    4.12    1.66
   5  -5  10   -3.04    1.70
   5  -5  10    7.16    3.11
   5  -5  10    6.62    3.98
  -5   4   9  157.57   12.12
  -5   4   9  221.94   14.65
  -5   4   9  252.03   12.59
  -5   4   9  150.81   39.35
   5  -4  -9  235.58   14.90
   5  -4  -9  188.06   13.67
   5  -4  -9  234.35   43.33
  -5   4   8   95.76    8.93
  -5   4   8  103.18    9.44
  -5   4   8  115.11    8.03
  -5   4   8  133.95   29.62
   5  -4  -8  131.21   10.38
   5  -4  -8   98.80    7.81
   5  -4  -8  114.61   10.13
   5  -4  -8  129.04   30.05
  -5   4   7   52.76    6.47
  -5   4   7   74.25    7.70
  -5   4   7   68.97    5.86
  -5   4   7   71.21   20.40
   5  -4  -7   57.83    6.58
   5  -4  -7   46.72   11.46
   5  -4  -7   57.00    5.42
   5  -4  -7   61.55    7.05
  -5   4   6   69.65    6.65
  -5   4   6   38.52    6.29
  -5   4   6   80.36    5.93
  -5   4   6   68.79   18.62
   5  -4  -6   78.59    7.12
   5  -4  -6   57.36    6.18
   5  -4  -6   66.36    5.32
   5  -4  -6   63.22    6.80
   5  -4  -6   40.00   17.58
  -5   4   5    2.28    1.52
  -5   4   5    1.77    1.27
  -5   4   5    1.59    1.19
  -5   4   5    1.56    1.23
  -5   4   5   -0.76    1.16
  -5   4   5    2.35    1.77
  -5   4   5   11.39    8.86
   5  -4  -5    1.63    1.30
   5  -4  -5    0.58    1.52
   5  -4  -5    2.78    1.34
   5  -4  -5    1.84    1.08
   5  -4  -5    3.25    1.74
   5  -4  -5    5.93    8.61
  -5   4   4   85.71    6.11
  -5   4   4   97.25    6.55
  -5   4   4   88.42    5.93
  -5   4   4  101.12    7.67
  -5   4   4   91.10    6.94
  -5   4   4   -1.23    5.32
   5  -4  -4  111.79    7.31
   5  -4  -4   93.88    6.73
   5  -4  -4   92.87    6.11
   5  -4  -4  103.07    7.81
   5  -4  -4  106.29    5.75
   5  -4  -4   86.87    6.98
   5  -4  -4   95.48   20.94
  -5   4   3   54.03    4.59
  -5   4   3   60.97    4.74
  -5   4   3   66.25    4.85
  -5   4   3   70.30    6.08
  -5   4   3   57.68    5.24
  -5   4   3   67.05   13.92
   5  -4  -3   77.57    5.57
   5  -4  -3   56.16    4.70
   5  -4  -3   70.63    5.61
   5  -4  -3   78.51    4.63
   5  -4  -3   74.61    6.00
   5  -4  -3   78.98   16.49
  -5   4   2  112.98    5.68
  -5   4   2  115.40    5.71
  -5   4   2  116.67    6.33
  -5   4   2  116.16    7.56
  -5   4   2  115.94    6.91
  -5   4   2  135.22   15.66
   5  -4  -2  125.06    6.37
   5  -4  -2  104.52    5.79
   5  -4  -2  112.00    6.98
   5  -4  -2  144.23    6.00
   5  -4  -2  125.42    7.31
   5  -4  -2  129.11   15.91
  -5   4   1  137.35    5.32
  -5   4   1    0.11    0.54
  -5   4   1  124.59    6.94
  -5   4   1  133.20    7.99
  -5   4   1  130.99    6.91
  -5   4   1  131.75   13.45
   5  -4  -1  144.91    5.97
   5  -4  -1  126.43    5.61
   5  -4  -1  143.47    7.92
   5  -4  -1  166.54    7.12
   5  -4  -1  132.18    7.78
   5  -4  -1  150.41    6.11
   5  -4  -1  155.80   14.79
  -5   4   0    5.32    0.98
  -5   4   0    5.53    0.98
  -5   4   0   10.23    2.31
  -5   4   0    4.74    1.84
  -5   4   0    7.92    2.42
  -5   4   0   10.31    4.48
   5  -4   0    6.65    1.37
   5  -4   0    6.00    1.37
   5  -4   0   10.81    2.89
   5  -4   0    5.24    1.66
   5  -4   0   12.95    2.64
   5  -4   0    8.53    2.39
   5  -4   0    9.73    2.39
   5  -4   0    9.84    4.20
  -5   4  -1  358.29   12.01
  -5   4  -1  335.65   12.30
  -5   4  -1  350.22    9.76
  -5   4  -1  334.67    9.55
   5  -4   1  386.71    6.22
   5  -4   1  339.41    5.82
   5  -4   1  390.00   13.45
   5  -4   1  341.25   11.57
   5  -4   1  422.44   14.36
   5  -4   1  359.77   12.55
   5  -4   1  376.73   10.60
  -5   4  -2    1.08    1.16
  -5   4  -2    1.16    1.01
   5  -4   2    3.69    1.84
   5  -4   2    1.05    1.37
   5  -4   2    1.45    0.98
   5  -4   2    8.72    2.28
   5  -4   2    1.95    1.12
   5  -4   2    2.60    1.27
  -5   4  -3 1735.80   29.15
  -5   4  -3 2013.59   29.08
   5  -4   3 1825.78   29.87
   5  -4   3 1652.15   28.10
   5  -4   3 1817.21   26.76
   5  -4   3 1947.66   28.32
   5  -4   3 1732.59   28.53
   5  -4   3 1774.86   26.69
   5  -4   3 1686.19   21.52
  -5   4  -4 1675.05   28.32
   5  -4   4 1544.78   27.92
   5  -4   4 1348.15   26.76
   5  -4   4 1494.66   24.81
   5  -4   4 1655.48   27.81
   5  -4   4 1398.20   26.51
   5  -4   4 1506.16   26.51
   5  -4   4 1462.43   20.40
  -5   4  -5    9.73    2.57
   5  -4   5    9.37    1.41
   5  -4   5   17.18    3.98
   5  -4   5   12.95    4.41
   5  -4   5   10.45    2.97
   5  -4   5   10.20    3.00
   5  -4   5    5.50    2.06
   5  -4   5   12.80    3.33
  -5   4  -6  118.91    8.68
  -5   4  -6  120.21   10.49
   5  -4   6   82.13    4.20
   5  -4   6  106.43    4.74
   5  -4   6  124.15    8.06
   5  -4   6    2.86    1.88
   5  -4   6   98.80    6.94
   5  -4   6  110.38    8.28
   5  -4   6  110.16    8.35
   5  -4   6  108.68    8.35
   5  -4   6   94.14    5.68
   5  -4   6  118.08   10.23
  -5   4  -7   10.81    5.35
  -5   4  -7   13.78    6.51
   5  -4   7    9.76    2.21
   5  -4   7   12.62    2.42
   5  -4   7   14.29    3.36
   5  -4   7   12.08    3.44
   5  -4   7    6.44    3.04
   5  -4   7    9.58    3.11
   5  -4   7   10.05    2.46
   5  -4   7    5.24    6.00
  -5   4  -8    0.76    0.94
  -5   4  -8    1.56    1.37
  -5   4  -8    3.54    7.59
   5  -4   8   -0.54    1.16
   5  -4   8    1.77    1.19
   5  -4   8    1.16    1.52
   5  -4   8    1.01    1.81
   5  -4   8    1.34    1.52
   5  -4   8    1.01    6.62
  -5   4  -9  200.06    7.45
  -5   4  -9    0.29    1.37
  -5   4  -9  234.75   14.36
  -5   4  -9  226.61   24.81
   5  -4   9  160.39    8.72
   5  -4   9  186.68    9.11
   5  -4   9  181.80   10.16
   5  -4   9  190.01   10.92
   5  -4   9  217.64   14.10
   5  -4   9  184.66    9.58
   5  -4   9  199.34   26.94
  -5   3  10   -1.92    1.95
  -5   3  10    3.76    2.24
  -5   3  10   -0.29    1.63
  -5   3  10  -16.96   14.79
   5  -3 -10   -2.35    1.63
   5  -3 -10    1.16    1.88
   5  -3 -10   -0.83    2.06
   5  -3 -10  -16.13   19.57
  -5   3   9   43.22    8.14
  -5   3   9   57.07    8.46
  -5   3   9   50.85    5.89
  -5   3   9   19.49   15.88
   5  -3  -9   37.11    6.15
   5  -3  -9   52.04    6.04
   5  -3  -9   38.84    7.56
   5  -3  -9   37.00   19.53
  -5   3   8   49.98    5.97
  -5   3   8   57.36    6.87
  -5   3   8   71.61    6.26
  -5   3   8   38.59   17.68
   5  -3  -8   54.57    6.80
   5  -3  -8   48.57    6.87
   5  -3  -8   66.15    6.33
   5  -3  -8   57.72    7.12
   5  -3  -8   28.06   19.89
  -5   3   7    8.75    3.18
  -5   3   7   12.33    2.93
  -5   3   7   13.56   10.23
   5  -3  -7    7.27    2.17
   5  -3  -7    9.62    3.11
   5  -3  -7    8.17    2.03
   5  -3  -7   10.81    2.97
   5  -3  -7    5.50    2.71
  -5   3   6   28.46    4.56
  -5   3   6   51.68    7.52
  -5   3   6   44.30    4.59
  -5   3   6   31.97    5.46
  -5   3   6   21.99   12.87
   5  -3  -6   25.53    4.23
   5  -3  -6   47.38    5.42
   5  -3  -6   40.14    3.80
   5  -3  -6   43.47    4.45
   5  -3  -6   42.24    5.28
   5  -3  -6   26.62   12.15
  -5   3   5    7.67    2.50
  -5   3   5   15.12    3.40
  -5   3   5   18.37    4.48
  -5   3   5   12.33    2.86
  -5   3   5   12.55    2.97
  -5   3   5   25.24   10.63
   5  -3  -5    9.95    2.78
   5  -3  -5    9.84    2.86
   5  -3  -5   15.44    2.86
   5  -3  -5   16.82    3.29
   5  -3  -5    9.91    2.71
   5  -3  -5   14.21    7.63
  -5   3   4   27.77    4.38
  -5   3   4   26.18    3.25
  -5   3   4   30.56    3.51
  -5   3   4   23.58    4.05
  -5   3   4   32.19    3.98
   5  -3  -4   29.08    4.59
   5  -3  -4   23.65    3.65
   5  -3  -4   38.08    3.94
   5  -3  -4   34.86    3.54
   5  -3  -4   25.53    4.27
   5  -3  -4   17.54    9.11
  -5   3   3    1.34    0.98
  -5   3   3    0.98    0.72
  -5   3   3    1.45    1.12
  -5   3   3    0.40    0.87
  -5   3   3   -1.34    0.54
  -5   3   3    3.80    4.05
   5  -3  -3    0.36    0.69
   5  -3  -3   -0.47    0.94
   5  -3  -3    1.23    1.16
   5  -3  -3    0.18    0.69
   5  -3  -3    0.40    3.40
  -5   3   2   58.73    3.98
  -5   3   2   49.04    3.69
  -5   3   2   58.55    4.74
  -5   3   2   54.79    5.14
  -5   3   2   53.31    4.38
  -5   3   2   56.09   11.83
   5  -3  -2   67.41    4.48
   5  -3  -2   55.01    4.05
   5  -3  -2   61.15    5.06
   5  -3  -2   63.07    4.38
   5  -3  -2   51.75    4.30
   5  -3  -2   56.89   11.28
  -5   3   1  128.82    5.06
  -5   3   1    0.80    0.51
  -5   3   1  106.69    6.40
  -5   3   1  116.09    7.16
  -5   3   1  110.59    5.68
  -5   3   1  109.72   18.05
   5  -3  -1  134.97    5.79
   5  -3  -1  119.49    5.28
   5  -3  -1  141.26    7.70
   5  -3  -1  141.51    5.68
   5  -3  -1  110.70    6.94
   5  -3  -1  149.29    6.69
   5  -3  -1  110.38    5.75
   5  -3  -1  129.04   13.31
  -5   3   0   52.58    2.64
  -5   3   0   45.28    2.42
  -5   3   0   48.82    4.45
  -5   3   0   51.72    4.74
  -5   3   0   40.54    3.18
  -5   3   0   39.17    7.52
  -5   3   0   53.85    8.53
   5  -3   0   53.52    3.07
   5  -3   0   37.43    3.25
   5  -3   0   51.10    4.74
   5  -3   0   39.93    4.01
   5  -3   0   53.85    3.65
   5  -3   0   48.89    4.59
   5  -3   0   49.87    3.58
  -5   3  -1  416.66   13.31
  -5   3  -1  514.91   18.12
  -5   3  -1  407.07   15.98
   5  -3   1  389.93    7.23
   5  -3   1  396.80    7.31
   5  -3   1  463.52   14.32
   5  -3   1  415.71   13.13
   5  -3   1  471.84   13.81
   5  -3   1  491.37   11.75
   5  -3   1  395.43   13.16
   5  -3   1  414.02    9.33
  -5   3  -2  787.38   19.06
  -5   3  -2  892.80   17.29
  -5   3  -2  849.19   19.49
  -5   3  -2  776.35   18.62
   5  -3   2  690.57    9.01
   5  -3   2  712.23    9.19
   5  -3   2  848.50   19.71
   5  -3   2  752.16   18.41
   5  -3   2  808.18   18.26
   5  -3   2  901.48   21.37
   5  -3   2  767.92   18.70
   5  -3   2  771.47   12.04
  -5   3  -3    7.88    2.64
  -5   3  -3   10.85    2.64
  -5   3  -3    9.87    3.04
  -5   3  -3    9.33    3.15
   5  -3   3    7.27    1.30
   5  -3   3   11.03    1.59
   5  -3   3    3.94    1.77
   5  -3   3    3.76    1.63
   5  -3   3   13.24    3.07
   5  -3   3    6.40    2.17
   5  -3   3    7.49    2.06
   5  -3   3   10.05    1.66
  -5   3  -4    4.20    1.70
  -5   3  -4   11.54    2.86
  -5   3  -4    7.45    3.65
   5  -3   4   10.16    1.81
   5  -3   4    8.03    1.63
   5  -3   4   15.30    3.54
   5  -3   4    5.35    1.95
   5  -3   4   10.13    2.46
   5  -3   4   10.13    2.82
   5  -3   4   12.48    3.00
   5  -3   4    6.69    2.24
   5  -3   4   10.20    1.84
   5  -3   4   11.68    5.28
  -5   3  -5  124.99    4.01
  -5   3  -5  140.65    8.75
  -5   3  -5  140.83   13.16
   5  -3   5   99.85    4.88
   5  -3   5  115.91    5.35
   5  -3   5  128.35    8.06
   5  -3   5  135.65    8.21
   5  -3   5  142.27    8.68
   5  -3   5  122.20    8.46
   5  -3   5  124.12    8.61
   5  -3   5  119.49    5.32
   5  -3   5  102.45   11.97
  -5   3  -6    4.41    1.23
  -5   3  -6   -0.33    0.87
  -5   3  -6    1.05    1.74
  -5   3  -6    3.15    1.77
  -5   3  -6   -7.05    4.09
   5  -3   6    0.94    1.01
   5  -3   6    1.84    1.19
   5  -3   6    3.11    2.06
   5  -3   6    9.76    2.89
   5  -3   6    0.87    1.56
   5  -3   6    2.50    2.13
   5  -3   6    6.98    1.77
   5  -3   6   10.78    6.44
  -5   3  -7  101.59    5.24
  -5   3  -7   97.14    5.10
  -5   3  -7  111.64    8.17
  -5   3  -7  118.80   10.96
  -5   3  -7  103.87   17.03
   5  -3   7   86.25    5.86
   5  -3   7  102.17    6.18
   5  -3   7  119.27    8.03
   5  -3   7  105.38    7.88
   5  -3   7  106.25    8.86
   5  -3   7  101.23    5.89
   5  -3   7   88.13   15.55
  -5   3  -8   -1.88    1.34
  -5   3  -8  122.96   10.02
  -5   3  -8  114.14   19.57
   5  -3   8   81.66    6.37
   5  -3   8   96.16    6.98
   5  -3   8  106.98    7.63
   5  -3   8  125.67    9.29
   5  -3   8   86.80    8.90
   5  -3   8  116.60    6.80
   5  -3   8  104.19   19.13
  -5   3  -9    0.90    1.59
  -5   3  -9    5.68    3.15
   5  -3   9    1.95    2.10
   5  -3   9    4.74    3.07
   5  -3   9   10.31    3.69
   5  -3   9    2.39    2.86
   5  -3   9    0.29    1.88
  -5   2  10    1.41    2.10
  -5   2  10   -0.14    2.03
  -5   2  10    5.64    2.39
  -5   2  10    3.33   16.56
   5  -2 -10    2.42    2.78
   5  -2 -10    2.10    1.84
   5  -2 -10    4.23    3.00
   5  -2 -10   31.64   19.24
  -5   2   9    9.11    3.25
  -5   2   9    9.62    3.58
  -5   2   9    5.42    2.31
  -5   2   9   19.28   17.94
   5  -2  -9    9.48    3.15
   5  -2  -9   15.44    3.69
   5  -2  -9    8.90    3.33
   5  -2  -9   29.47   17.29
  -5   2   8    6.55    2.82
  -5   2   8    7.34    3.22
  -5   2   8   10.70    2.78
  -5   2   8   10.96   10.16
   5  -2  -8    5.79    2.13
   5  -2  -8   12.22    3.18
   5  -2  -8    8.53    2.21
   5  -2  -8   10.56    2.86
   5  -2  -8   13.92    3.25
   5  -2  -8    1.19    1.56
  -5   2   7  156.49    9.95
  -5   2   7  176.92   10.63
  -5   2   7  197.03   10.31
  -5   2   7   -0.61    1.59
  -5   2   7  197.60   32.11
   5  -2  -7  188.38   10.99
   5  -2  -7  160.03    9.95
   5  -2  -7  178.36    7.59
   5  -2  -7   -0.18    1.52
   5  -2  -7  175.29    9.69
   5  -2  -7  150.55    9.98
   5  -2  -7  196.95   41.16
  -5   2   6   81.70    6.73
  -5   2   6   91.97    7.34
  -5   2   6   92.94    6.73
  -5   2   6   91.42    7.05
  -5   2   6  122.02   24.85
   5  -2  -6   94.06    7.45
   5  -2  -6   88.57    7.02
   5  -2  -6   95.40    5.79
   5  -2  -6  101.12    6.84
   5  -2  -6   93.81    7.31
   5  -2  -6  119.63   23.33
  -5   2   5    1.16    1.08
  -5   2   5    1.27    1.05
  -5   2   5   -0.72    0.76
  -5   2   5    1.66    1.05
  -5   2   5    1.95    1.19
  -5   2   5    2.21    5.17
   5  -2  -5    0.65    1.01
   5  -2  -5   -1.16    1.16
   5  -2  -5    0.83    0.94
   5  -2  -5    0.58    1.12
   5  -2  -5    3.94    5.93
  -5   2   4  535.13   14.39
  -5   2   4  493.25   13.96
  -5   2   4  544.82   15.19
  -5   2   4  525.76   16.06
  -5   2   4  502.47   14.29
   5  -2  -4  555.35   15.19
   5  -2  -4  509.53   14.43
   5  -2  -4  575.74   14.76
   5  -2  -4  638.45   15.59
   5  -2  -4  508.04   14.47
   5  -2  -4  601.20   38.05
  -5   2   3    5.68    1.81
  -5   2   3    2.28    1.01
  -5   2   3    2.82    1.59
  -5   2   3    1.77    1.30
  -5   2   3    0.04    1.08
  -5   2   3   -8.32    3.33
   5  -2  -3    2.10    1.41
   5  -2  -3    1.41    1.16
   5  -2  -3    2.60    1.56
   5  -2  -3    2.21    1.41
   5  -2  -3    1.81    1.05
   5  -2  -3    2.06    1.48
   5  -2  -3   -0.51    4.27
  -5   2   2  482.19   11.39
  -5   2   2  411.48   10.60
  -5   2   2  478.32   13.85
  -5   2   2  483.16   14.54
  -5   2   2  475.10   11.46
  -5   2   2  531.37   29.98
   5  -2  -2  529.96   12.55
   5  -2  -2  436.69   11.28
   5  -2  -2  512.85   14.32
   5  -2  -2  565.69    8.86
   5  -2  -2  474.45   14.21
   5  -2  -2  529.31   13.49
   5  -2  -2  469.53   11.50
   5  -2  -2  505.04   29.51
  -5   2   1  210.66    6.84
  -5   2   1  167.01    6.08
  -5   2   1  187.12    8.72
  -5   2   1  189.94    9.08
  -5   2   1  183.61    6.33
  -5   2   1  236.34   18.23
  -5   2   1  164.59   15.23
   5  -2  -1  199.70    8.79
   5  -2  -1  194.57    6.94
   5  -2  -1  195.69    9.08
   5  -2  -1  221.40    5.89
   5  -2  -1  203.14    9.22
   5  -2  -1  176.05    6.22
  -5   2   0 1421.46   25.28
  -5   2   0 1561.56   25.64
  -5   2   0 1558.81   26.04
  -5   2   0 1762.89   50.41
  -5   2   0 1527.68   42.78
   5  -2   0 1430.07   17.43
   5  -2   0 1551.58   18.30
   5  -2   0 1675.23   26.69
   5  -2   0 1527.53   25.06
   5  -2   0 1657.40   26.36
   5  -2   0 1809.62   18.91
   5  -2   0 1560.91   25.75
   5  -2   0 1517.33   15.70
  -5   2  -1  141.55    4.70
  -5   2  -1  109.69    4.12
  -5   2  -1  122.13    7.45
  -5   2  -1  137.39    5.97
  -5   2  -1  154.68   13.06
  -5   2  -1  148.96   12.84
   5  -2   1  113.49    4.77
   5  -2   1  111.82    4.74
   5  -2   1  142.16    8.03
   5  -2   1  127.92    7.56
   5  -2   1  133.45    7.63
   5  -2   1  156.81    6.33
   5  -2   1  123.18    7.41
   5  -2   1  120.39    3.69
  -5   2  -2 1040.39   12.59
  -5   2  -2 1144.36   23.51
  -5   2  -2 1341.39   20.72
  -5   2  -2 1063.25   34.50
   5  -2   2  961.62   14.07
   5  -2   2  985.13   16.31
   5  -2   2 1241.21   23.72
   5  -2   2 1104.00   22.82
   5  -2   2 1184.83   22.96
   5  -2   2 1328.99   20.47
   5  -2   2 1122.85   23.04
  -5   2  -3  250.48    6.58
  -5   2  -3  220.53    6.22
  -5   2  -3  244.26   11.46
  -5   2  -3  268.63   10.27
  -5   2  -3  229.50   17.07
   5  -2   3  189.72    6.69
   5  -2   3  216.16    7.20
   5  -2   3  252.97   10.92
   5  -2   3  221.00   10.78
   5  -2   3  237.06   10.63
   5  -2   3  228.71   10.89
   5  -2   3  198.51   16.38
  -5   2  -4  162.20    7.34
  -5   2  -4  147.44    5.64
  -5   2  -4  178.91   10.20
  -5   2  -4  205.24    9.84
  -5   2  -4  164.48   16.06
   5  -2   4  139.49    6.26
   5  -2   4  155.62    6.69
   5  -2   4  166.61    9.11
   5  -2   4  149.29    9.26
   5  -2   4  164.95    9.26
   5  -2   4  155.00    9.37
   5  -2   4  150.95    9.29
   5  -2   4  157.79    4.30
   5  -2   4  157.10   16.09
  -5   2  -5   84.16    4.70
  -5   2  -5   86.00    6.87
  -5   2  -5   98.48    7.41
  -5   2  -5   69.80   13.53
   5  -2   5   58.95    4.52
   5  -2   5   75.69    5.17
   5  -2   5   87.37    6.65
   5  -2   5   73.34    6.51
   5  -2   5   75.51    7.02
   5  -2   5   86.25    7.45
   5  -2   5   73.88    3.58
   5  -2   5   54.68   11.75
  -5   2  -6   63.14    4.48
  -5   2  -6   44.19    3.91
  -5   2  -6   71.32    6.58
  -5   2  -6   69.07    6.69
  -5   2  -6   56.02   12.22
   5  -2   6   45.82    4.52
   5  -2   6   59.60    4.95
   5  -2   6   68.28    5.97
   5  -2   6   64.41    6.15
   5  -2   6   77.03    7.56
   5  -2   6   55.48    3.58
  -5   2  -7   10.92    2.46
  -5   2  -7    0.33    1.19
  -5   2  -7   12.33    3.80
  -5   2  -7    0.87   10.27
   5  -2   7    5.97    1.99
   5  -2   7    9.58    2.50
   5  -2   7   17.58    3.62
   5  -2   7   15.95    4.38
   5  -2   7   12.33    4.01
   5  -2   7    9.55    2.21
   5  -2   7    9.29    9.22
  -5   2  -8   46.98    4.99
  -5   2  -8   57.29    6.87
  -5   2  -8   39.78   13.27
   5  -2   8   46.47    5.32
   5  -2   8   47.20    5.21
   5  -2   8   40.54    5.86
   5  -2   8   39.46    6.44
   5  -2   8   49.73    8.64
   5  -2   8   45.71    4.38
   5  -2   8   27.05   14.25
  -5   2  -9   12.51    3.44
  -5   2  -9   17.90    4.48
   5  -2   9    3.76    4.63
   5  -2   9   18.52    3.83
   5  -2   9   15.26    4.01
   5  -2   9   10.96    3.80
   5  -2   9    9.58    4.05
   5  -2   9   10.09    2.78
  -5   1  11    3.98    2.50
  -5   1  11    7.88    3.62
  -5   1  11    0.36    2.57
  -5   1  11  -16.71   21.01
   5  -1 -11   -0.43    2.39
   5  -1 -11    4.52    3.00
   5  -1 -11    2.39   22.68
  -5   1  10    7.34    3.58
  -5   1  10    6.98    3.22
  -5   1  10    3.87    2.35
  -5   1  10   44.56   18.26
   5  -1 -10    7.20    2.82
   5  -1 -10    3.54    2.28
   5  -1 -10   10.96    4.41
   5  -1 -10   -5.03   10.81
  -5   1   9  106.11    9.11
  -5   1   9  106.58    8.79
  -5   1   9  138.11    9.76
  -5   1   9   96.09   25.13
   5  -1  -9  114.46    9.62
   5  -1  -9  120.43    5.50
   5  -1  -9  126.11    7.70
   5  -1  -9   91.35    8.61
   5  -1  -9  130.92   29.98
  -5   1   8   62.64    6.51
  -5   1   8   61.48    6.37
  -5   1   8   58.66    5.93
  -5   1   8   55.80   17.90
   5  -1  -8   74.43    7.02
   5  -1  -8   44.81    7.67
   5  -1  -8   52.62    4.23
   5  -1  -8   77.61    5.57
   5  -1  -8   63.04    6.55
   5  -1  -8   53.67    6.18
   5  -1  -8   78.95   21.26
  -5   1   7  181.55   10.49
  -5   1   7  170.77    9.98
  -5   1   7  203.86   10.74
  -5   1   7  165.42    9.87
  -5   1   7  188.56   31.68
   5  -1  -7  207.88   11.36
   5  -1  -7  174.60   10.31
   5  -1  -7  185.78    7.92
   5  -1  -7  206.72    7.92
   5  -1  -7  172.07    9.76
   5  -1  -7  163.65    9.84
   5  -1  -7  203.35   32.73
  -5   1   6   10.20    2.86
  -5   1   6   11.61    2.89
  -5   1   6    8.53    2.75
  -5   1   6   10.38    2.78
  -5   1   6   11.93    3.15
  -5   1   6    6.22    5.93
   5  -1  -6    9.58    2.60
   5  -1  -6    6.80    2.39
   5  -1  -6    7.16    2.13
   5  -1  -6   12.22    2.13
   5  -1  -6    6.76    2.31
   5  -1  -6    9.44    2.35
   5  -1  -6   27.45   10.23
  -5   1   5   87.92    6.37
  -5   1   5   78.01    6.04
  -5   1   5   78.84    6.29
  -5   1   5   83.40    6.00
  -5   1   5  103.94   19.64
   5  -1  -5   88.71    6.62
   5  -1  -5   71.53    5.86
   5  -1  -5   95.11    6.04
   5  -1  -5   93.02    3.80
   5  -1  -5  101.01    6.76
   5  -1  -5   75.15    5.82
   5  -1  -5   95.19   19.42
  -5   1   4  180.64    8.43
  -5   1   4  160.50    8.03
  -5   1   4  181.62    9.08
  -5   1   4  181.08    9.08
  -5   1   4  165.96    7.78
  -5   1   4  203.25   22.21
   5  -1  -4  192.69    8.97
   5  -1  -4  166.00    8.25
   5  -1  -4  140.50    7.88
   5  -1  -4  199.59    9.15
   5  -1  -4  142.13    9.33
   5  -1  -4  190.95   21.23
  -5   1   3   88.75    5.50
  -5   1   3   77.25    5.14
  -5   1   3   71.03    5.61
  -5   1   3   85.57    6.15
  -5   1   3   80.03    4.88
  -5   1   3    3.62    4.20
   5  -1  -3   86.11    5.61
   5  -1  -3   84.05    5.50
   5  -1  -3   79.85    5.82
   5  -1  -3   94.50    6.15
   5  -1  -3   75.01    4.74
   5  -1  -3   83.29   16.02
  -5   1   2  291.24    9.29
  -5   1   2  216.92    8.06
  -5   1   2  246.25   10.31
  -5   1   2  257.67   10.45
  -5   1   2  242.99    7.38
  -5   1   2  303.46   23.94
  -5   1   2  260.60   22.13
   5  -1  -2  276.84    9.44
   5  -1  -2  229.68    8.53
   5  -1  -2  261.87   10.38
   5  -1  -2  277.96   10.34
   5  -1  -2  230.37    7.20
  -5   1   1  382.41   10.05
  -5   1   1  301.07    8.97
  -5   1   1  357.89   12.44
  -5   1   1  374.38   12.62
  -5   1   1  345.27    7.20
  -5   1   1  418.39   26.29
  -5   1   1  345.19   23.83
   5  -1  -1  286.93    9.08
   5  -1  -1  346.57   10.05
   5  -1  -1  377.31   12.84
   5  -1  -1  350.91   12.08
   5  -1  -1  340.71    7.20
  -5   1   0  650.28   12.62
  -5   1   0  538.53   11.54
  -5   1   0  596.65   16.35
  -5   1   0  728.00   11.43
  -5   1   0  662.76   32.37
  -5   1   0  568.55   29.80
   5  -1   0  514.84   11.83
   5  -1   0  571.37   12.55
   5  -1   0  581.39   15.95
   5  -1   0  638.85   16.85
   5  -1   0  584.60   15.88
  -5   1  -1  169.43    6.40
  -5   1  -1  142.42    5.89
  -5   1  -1  156.34    8.64
  -5   1  -1  200.39    7.12
  -5   1  -1  145.27   14.97
   5  -1   1  137.06    6.15
   5  -1   1  157.53    6.62
   5  -1   1  156.88    8.57
   5  -1   1  167.91    8.86
   5  -1   1  161.08    8.61
   5  -1   1  140.43   15.37
  -5   1  -2  251.85    8.03
  -5   1  -2  208.82    7.34
  -5   1  -2  219.85   10.63
  -5   1  -2  294.53    9.84
  -5   1  -2  180.25   22.49
   5  -1   2  201.91    7.70
   5  -1   2  227.30    8.21
   5  -1   2  220.28   10.49
   5  -1   2  261.98   11.39
   5  -1   2  225.23   10.63
   5  -1   2  220.24   19.49
  -5   1  -3  244.29    8.32
  -5   1  -3  231.96    8.06
  -5   1  -3  259.63   12.01
  -5   1  -3  280.86   12.04
  -5   1  -3  306.39   11.17
  -5   1  -3  242.96   21.45
   5  -1   3  202.31    8.21
   5  -1   3  242.38    8.97
   5  -1   3  260.46   11.21
   5  -1   3  234.42   11.32
   5  -1   3  257.20   11.72
   5  -1   3  257.06   11.90
   5  -1   3  229.94   20.76
  -5   1  -4  173.27    7.49
  -5   1  -4  150.99    6.98
  -5   1  -4  175.15   10.34
  -5   1  -4  181.29   10.16
  -5   1  -4  215.14   10.34
  -5   1  -4  136.92   16.89
   5  -1   4  152.72    7.63
   5  -1   4  163.03    7.88
   5  -1   4  189.54    9.84
   5  -1   4  159.78   11.72
   5  -1   4  165.71    9.84
   5  -1   4  186.25   10.70
  -5   1  -5   13.81    2.93
  -5   1  -5   13.34    3.25
  -5   1  -5   12.08    3.18
  -5   1  -5   17.07    3.91
  -5   1  -5   17.58   10.34
   5  -1   5   12.44    2.75
   5  -1   5   18.19    3.51
   5  -1   5   21.34    4.12
   5  -1   5   -2.06    1.16
   5  -1   5   12.69    3.29
   5  -1   5   17.68    4.41
  -5   1  -6   64.84    5.39
  -5   1  -6   77.25    7.27
  -5   1  -6   43.29   14.90
   5  -1   6   58.41    5.57
   5  -1   6   66.87    5.86
   5  -1   6   80.54    6.55
   5  -1   6   69.26    6.98
   5  -1   6   65.39    7.23
   5  -1   6   56.63    3.33
  -5   1  -7   72.94    6.33
  -5   1  -7   96.63    8.68
  -5   1  -7   68.53   18.48
   5  -1   7   75.44    6.73
   5  -1   7   59.42    6.08
   5  -1   7   80.58    6.84
   5  -1   7   95.55    8.61
   5  -1   7   75.44    8.25
   5  -1   7   68.86    4.38
   5  -1   7   33.89   15.70
  -5   1  -8   -2.64    1.45
  -5   1  -8    3.91    2.31
   5  -1   8    2.39    2.75
   5  -1   8    1.34    1.37
   5  -1   8   -2.42    2.06
   5  -1   8    0.98    1.88
   5  -1   8    1.59    2.39
   5  -1   8    1.56    1.70
  -5   0  11   75.44    8.28
  -5   0  11   86.40    8.21
  -5   0  11   84.19    8.72
  -5   0  11   52.22   29.84
   5   0 -11   82.31    8.93
   5   0 -11   98.15    7.56
   5   0 -11  108.64   29.76
  -5   0  10   24.30    5.06
  -5   0  10   13.34    3.94
  -5   0  10   20.69    5.06
  -5   0  10   24.63   14.57
   5   0 -10   24.52    5.24
   5   0 -10   27.99    2.93
   5   0 -10   24.74    4.23
   5   0 -10   47.12   22.13
  -5   0   9    1.41    2.17
  -5   0   9   11.21    3.51
  -5   0   9   -0.29    1.41
  -5   0   9   -8.82   12.48
   5   0  -9    1.45    1.74
   5   0  -9   -0.14    2.10
   5   0  -9    2.82    1.95
   5   0  -9    5.28    1.95
   5   0  -9   34.50   18.88
  -5   0   8  234.71   19.24
  -5   0   8  208.02   11.97
  -5   0   8  257.60   12.26
  -5   0   8  264.69   13.09
  -5   0   8    0.18    1.59
  -5   0   8  298.50   33.96
   5   0  -8  287.51   14.14
   5   0  -8  261.51    9.66
   5   0  -8  275.14    9.29
   5   0  -8  260.93   12.95
   5   0  -8  214.57   35.08
  -5   0   7  712.66   20.51
  -5   0   7  645.69   19.71
  -5   0   7  734.04   19.75
  -5   0   7  817.04   21.84
  -5   0   7  697.19   19.67
  -5   0   7  866.29   56.27
   5   0  -7  774.51   21.81
   5   0  -7  692.63   20.36
   5   0  -7  846.33   13.92
   5   0  -7  799.93   25.71
   5   0  -7  671.36   19.53
   5   0  -7  903.14   58.08
  -5   0   6  114.46    7.81
  -5   0   6   93.31    7.09
  -5   0   6  102.35    7.12
  -5   0   6  110.19    7.70
  -5   0   6  107.05    7.27
  -5   0   6  105.46   21.63
   5   0  -6  124.08    8.28
   5   0  -6  102.02    7.38
   5   0  -6  125.13    4.23
   5   0  -6  111.64    7.63
   5   0  -6   93.31    6.80
   5   0  -6  133.41   24.74
  -5   0   5   63.51    5.46
  -5   0   5   61.05    5.42
  -5   0   5   70.30    5.64
  -5   0   5   59.60    4.99
  -5   0   5   81.59   18.59
   5   0  -5   74.21    6.15
   5   0  -5   63.58    5.57
   5   0  -5   74.25    6.15
   5   0  -5   59.96    5.06
   5   0  -5   64.70   16.02
  -5   0   4    3.51    1.59
  -5   0   4    7.09    2.10
  -5   0   4    4.74    1.77
  -5   0   4    3.51    1.70
  -5   0   4    4.95    1.77
  -5   0   4   -4.20    3.76
   5   0  -4    2.93    1.63
   5   0  -4    5.53    2.21
   5   0  -4    6.18    2.17
   5   0  -4    4.70    1.88
  -5   0   3  956.31   18.84
  -5   0   3  769.59   17.11
  -5   0   3  831.76   19.67
  -5   0   3  910.20   19.42
  -5   0   3  842.28   14.72
  -5   0   3  975.44   48.68
  -5   0   3  746.70   41.23
   5   0  -3  916.74   19.06
   5   0  -3  798.38   17.61
   5   0  -3  849.19   18.55
   5   0  -3  964.30   20.51
  -5   0   2  211.31    8.50
  -5   0   2  178.47    7.92
  -5   0   2  192.87    9.44
  -5   0   2  208.92    9.37
  -5   0   2  192.32    5.93
  -5   0   2   -1.01    3.51
  -5   0   2  198.87   20.87
   5   0  -2  183.93    8.14
   5   0  -2  187.62    8.35
   5   0  -2  222.27   10.05
   5   0  -2  204.11    9.11
   5   0  -2  225.05    9.87
  -5   0   1    8.90    2.17
  -5   0   1    4.70    1.41
  -5   0   1    5.42    1.99
  -5   0   1    6.65    1.08
  -5   0   1   -6.04    2.17
  -5   0   1    6.87    5.97
   5   0  -1    5.53    1.88
   5   0  -1    7.16    2.10
   5   0  -1    5.57    2.03
   5   0  -1    3.44    1.59
  -5   0   0  195.72    7.88
  -5   0   0  147.59    6.91
  -5   0   0  181.26    9.33
  -5   0   0  202.85    6.29
  -5   0   0  179.85   19.35
   5   0   0  139.52    6.91
   5   0   0  155.11    7.38
   5   0   0  181.22    9.15
   5   0   0  174.46    9.19
   5   0   0  169.25    8.75
   5   0   0  169.32   18.66
  -5   0  -1   16.31    2.75
  -5   0  -1   15.59    2.97
  -5   0  -1   24.01    4.48
  -5   0  -1   21.34    2.50
  -5   0  -1    6.73   14.54
   5   0   1   15.23    2.93
   5   0   1   13.96    2.68
   5   0   1   14.86    3.04
   5   0   1   12.40    2.97
   5   0   1   24.59    4.38
   5   0   1    8.35    4.74
  -5   0  -2  269.17    9.76
  -5   0  -2  271.02    9.73
  -5   0  -2  333.04   13.38
  -5   0  -2  334.24   13.31
  -5   0  -2  355.65   14.07
  -5   0  -2  257.86   24.30
   5   0   2  256.99    9.91
   5   0   2  276.12   10.34
   5   0   2  310.08   12.73
   5   0   2  298.29   12.80
   5   0   2  310.76   12.80
   5   0   2  273.37   24.45
  -5   0  -3    4.81    1.74
  -5   0  -3    7.27    2.21
  -5   0  -3    6.84    2.64
  -5   0  -3    5.46    3.47
  -5   0  -3    9.98    2.86
  -5   0  -3    1.30    7.02
   5   0   3    3.87    1.48
   5   0   3    4.23    1.77
   5   0   3    4.05    2.10
   5   0   3    5.24    2.28
   5   0   3    5.79    1.95
   5   0   3   -0.61    5.53
  -5   0  -4   -2.06    0.83
  -5   0  -4    1.19    1.48
  -5   0  -4    2.78    1.63
  -5   0  -4    0.69    1.27
  -5   0  -4    0.51    1.19
  -5   0  -4   -8.86    5.50
   5   0   4   -0.54    1.08
   5   0   4    3.25    1.66
   5   0   4    1.37    1.70
   5   0   4    0.14    1.08
  -5   0  -5   47.01    4.92
  -5   0  -5   58.95    6.08
  -5   0  -5   50.52   14.83
   5   0   5   38.66    5.79
   5   0   5   43.72    5.14
   5   0   5   55.48    5.71
   5   0   5   54.28    6.51
   5   0   5   46.36    7.20
   5   0   5   13.89    8.61
  -5   0  -6   49.94    5.39
  -5   0  -6   49.40    6.11
  -5   0  -6   35.95   14.43
   5   0   6   38.08    5.50
   5   0   6   43.40    5.28
   5   0   6   41.81    6.08
   5   0   6   43.04    6.84
   5   0   6   47.27    8.32
   5   0   6   41.48   15.62
  -5   0  -7   34.14    5.57
  -5   0  -7   54.21    6.69
  -5   0  -7    7.67   16.85
   5   0   7   41.01    6.40
   5   0   7   34.03    5.64
   5   0   7   37.86    6.55
   5   0   7   35.33    6.29
   5   0   7   39.56    3.25
   5   0   7   26.91   14.50
  -5  -1  11    2.97    2.21
  -5  -1  11   10.23    3.25
  -5  -1  11    2.71    2.21
  -5  -1  11  -21.84   12.55
   5   1 -11    4.63    3.00
   5   1 -11    7.78    2.06
   5   1 -11    8.82    2.60
   5   1 -11   22.13   15.51
  -5  -1  10   15.77    3.65
  -5  -1  10   34.36    5.89
  -5  -1  10   27.92    5.17
  -5  -1  10   30.13   20.14
   5   1 -10   29.15    6.11
   5   1 -10   23.76    3.80
   5   1 -10   29.91    4.59
   5   1 -10   77.75   23.83
  -5  -1   9   86.90    8.06
  -5  -1   9   86.90    7.05
  -5  -1   9  103.79    9.01
  -5  -1   9   54.83   19.60
   5   1  -9    4.16    1.66
   5   1  -9   45.78   14.72
  -5  -1   8  135.18    9.98
  -5  -1   8  117.14    8.97
  -5  -1   8  140.21    8.61
  -5  -1   8  157.50   10.27
  -5  -1   8   93.41    7.70
  -5  -1   8  135.04   27.41
   5   1  -8  148.60    9.95
   5   1  -8  111.93    8.90
   5   1  -8  160.14    6.40
   5   1  -8  157.50   10.23
   5   1  -8  147.77   28.35
  -5  -1   7    2.57    1.77
  -5  -1   7    1.08    1.16
  -5  -1   7    0.07    1.19
  -5  -1   7   -1.30    0.98
  -5  -1   7   -0.69    1.27
  -5  -1   7   -3.87    8.86
   5   1  -7    1.37    1.41
   5   1  -7   -0.07    1.12
   5   1  -7    0.29    0.69
   5   1  -7    0.36    1.56
   5   1  -7   20.07   10.70
  -5  -1   6  137.21    8.57
  -5  -1   6   97.93    7.38
  -5  -1   6  130.01    7.67
  -5  -1   6  115.19    7.34
  -5  -1   6  115.76   23.43
   5   1  -6  132.07    8.68
   5   1  -6  115.84    8.10
   5   1  -6  136.38    8.75
   5   1  -6  103.90   23.00
  -5  -1   5 1364.82   25.89
  -5  -1   5 1141.15   23.98
  -5  -1   5 1329.64   23.62
  -5  -1   5 1209.79   21.59
  -5  -1   5 1588.87   69.33
  -5  -1   5 1149.97   58.95
   5   1  -5 1398.06   26.80
   5   1  -5 1169.43   24.23
   5   1  -5 1233.37   22.53
   5   1  -5 1459.83   27.59
  -5  -1   4   27.12    4.45
  -5  -1   4   20.25    3.87
  -5  -1   4   24.56    4.59
  -5  -1   4   17.18    3.18
  -5  -1   4   14.07    7.88
  -5  -1   4   19.20    9.29
   5   1  -4   18.52    3.40
   5   1  -4    9.11    2.50
   5   1  -4   21.45    3.80
   5   1  -4   15.70    3.18
  -5  -1   3    7.16    2.24
  -5  -1   3    3.00    1.41
  -5  -1   3    5.28    2.03
  -5  -1   3    5.10    1.84
  -5  -1   3    3.51    1.19
  -5  -1   3   18.84    9.29
  -5  -1   3   -3.51    3.62
   5   1  -3    5.50    1.84
   5   1  -3    5.75    2.24
   5   1  -3    5.32    1.81
   5   1  -3    3.91    1.77
   5   1  -3    5.89    2.13
  -5  -1   2   99.38    6.37
  -5  -1   2   76.74    5.61
  -5  -1   2   84.84    6.47
  -5  -1   2   92.11    3.91
  -5  -1   2   95.69   17.50
  -5  -1   2   78.19   15.44
   5   1  -2   73.13    5.61
   5   1  -2   87.77    6.15
   5   1  -2   98.73    7.02
   5   1  -2   90.45    6.11
   5   1  -2  104.66    7.12
  -5  -1   1    5.35    1.70
  -5  -1   1    7.81    2.21
  -5  -1   1    7.23    2.42
  -5  -1   1    8.28    1.45
  -5  -1   1    9.51    6.47
   5   1  -1   10.16    2.75
   5   1  -1    7.41    2.28
   5   1  -1    4.52    1.77
   5   1  -1    5.86    1.81
  -5  -1   0   97.36    6.29
  -5  -1   0   89.91    6.04
  -5  -1   0   98.51    7.16
  -5  -1   0  117.86    5.32
  -5  -1   0  104.62   24.30
   5   1   0   73.60    5.61
   5   1   0   97.25    6.55
   5   1   0   93.20    7.05
   5   1   0   99.60    6.87
   5   1   0  103.36   19.20
  -5  -1  -1   55.55    4.77
  -5  -1  -1   60.76    5.75
  -5  -1  -1   60.43    5.75
  -5  -1  -1   76.63    5.03
  -5  -1  -1   98.95   18.19
   5   1   1   52.37    4.92
   5   1   1   55.48    5.06
   5   1   1   56.56    5.42
   5   1   1   64.77    6.04
   5   1   1   67.70    6.00
   5   1   1   45.71   12.69
  -5  -1  -2  187.04    9.19
  -5  -1  -2  204.19    9.91
  -5  -1  -2  199.59   10.63
  -5  -1  -2  236.45    9.87
  -5  -1  -2  233.77   25.28
   5   1   2  176.34    9.15
   5   1   2  187.30    9.51
   5   1   2  219.70   10.96
   5   1   2  205.81   11.17
   5   1   2  214.64   11.03
   5   1   2  209.83   24.30
  -5  -1  -3    6.55    2.24
  -5  -1  -3    4.45    2.06
  -5  -1  -3   11.93    3.44
  -5  -1  -3    8.79    2.78
  -5  -1  -3   16.09   10.27
   5   1   3    8.43    2.68
   5   1   3    6.73    2.35
   5   1   3    3.51    3.54
   5   1   3    7.56    2.86
   5   1   3   -0.47    0.98
   5   1   3    7.92    7.23
  -5  -1  -4   72.55    6.47
  -5  -1  -4   79.45    7.23
  -5  -1  -4   95.37    7.38
  -5  -1  -4   62.60   19.42
   5   1   4   59.27    6.15
   5   1   4   85.64    7.34
   5   1   4   75.66   15.01
   5   1   4    4.09    9.40
  -5  -1  -5    7.78    2.57
  -5  -1  -5    0.18    9.62
   5   1   5   10.27    3.54
   5   1   5    7.12    2.82
   5   1   5    6.37    3.29
   5   1   5    7.52    3.00
   5   1   5  -19.17    8.57
  -5  -1  -6    5.46    2.93
  -5  -1  -6   10.31    3.40
  -5  -1  -6   30.52   14.65
   5   1   6    6.62    3.15
   5   1   6    5.06    2.24
   5   1   6   16.13    3.25
   5   1   6    2.39    2.35
   5   1   6   11.50    4.01
   5   1   6   -2.03   12.12
  -5  -1  -7   50.59    7.31
  -5  -1  -7   55.69    8.86
   5   1   7   39.75    6.69
   5   1   7   44.37    7.09
   5   1   7   66.43    6.91
   5   1   7   54.75    9.62
   5   1   7   45.46    7.74
  -5  -2  11    4.99    2.75
  -5  -2  11    9.37    3.58
  -5  -2  11    6.62    2.89
  -5  -2  11    3.91   14.47
   5   2 -11    8.06    3.51
   5   2 -11   11.10    3.15
   5   2 -11  -15.37   19.28
  -5  -2  10   -1.81    2.64
  -5  -2  10    1.77    1.27
  -5  -2  10    1.34    2.13
  -5  -2  10    4.41    9.44
   5   2 -10    0.83    1.81
   5   2 -10    4.12    1.59
   5   2 -10    6.69   10.85
  -5  -2   9    2.10    1.66
  -5  -2   9    5.68    2.28
  -5  -2   9    3.36    2.10
  -5  -2   9    8.61   13.34
   5   2  -9    9.08    1.99
   5   2  -9   10.31    9.98
  -5  -2   8    9.22    3.98
  -5  -2   8    7.31    2.28
  -5  -2   8   14.94    3.22
  -5  -2   8   14.00    3.65
  -5  -2   8   16.67    3.94
  -5  -2   8   21.23   11.90
   5   2  -8   11.93    3.62
   5   2  -8    7.20    2.78
   5   2  -8    2.35    6.91
  -5  -2   7  380.06   15.51
  -5  -2   7  303.93   13.96
  -5  -2   7  384.14   12.98
  -5  -2   7  332.07   13.34
  -5  -2   7  383.49   37.94
  -5  -2   7  399.51   38.01
   5   2  -7  361.61   15.30
   5   2  -7  335.10   14.61
   5   2  -7  405.01   16.09
  -5  -2   6  163.72    9.84
  -5  -2   6  129.58    8.79
  -5  -2   6  161.77    8.21
  -5  -2   6  146.83    8.21
  -5  -2   6  202.38   25.21
  -5  -2   6  124.48   24.63
   5   2  -6  177.32   10.34
   5   2  -6  147.77    9.29
   5   2  -6  178.36   10.42
  -5  -2   5    4.88    1.81
  -5  -2   5    6.51    2.64
  -5  -2   5    8.61    2.46
  -5  -2   5   10.09    2.53
  -5  -2   5  -15.98    5.93
  -5  -2   5    6.51    5.64
   5   2  -5    6.26    2.42
   5   2  -5    7.20    2.21
   5   2  -5    5.97    1.77
   5   2  -5    4.63    1.84
  -5  -2   4    5.28    2.10
  -5  -2   4    3.47    1.77
  -5  -2   4    5.71    2.03
  -5  -2   4   10.31    2.71
  -5  -2   4    6.51    2.31
  -5  -2   4    9.33    8.90
  -5  -2   4    0.22    6.18
   5   2  -4   10.27    2.82
   5   2  -4    2.42    1.45
   5   2  -4    5.35    1.95
   5   2  -4    6.51    1.84
   5   2  -4   11.21    3.44
  -5  -2   3  111.64    7.45
  -5  -2   3   94.53    7.27
  -5  -2   3  108.21    7.59
  -5  -2   3   95.91    4.95
  -5  -2   3  152.62   25.50
  -5  -2   3   99.56   20.25
   5   2  -3   98.22    7.02
   5   2  -3   98.33    7.09
   5   2  -3  107.41    7.38
   5   2  -3  108.60    6.62
   5   2  -3  117.35    7.96
  -5  -2   2    1.66    1.59
  -5  -2   2    1.16    1.37
  -5  -2   2    1.59    1.37
  -5  -2   2    2.13    0.83
  -5  -2   2    3.18    1.05
  -5  -2   2    0.51    4.16
  -5  -2   2    4.85    5.86
   5   2  -2    4.09    1.63
   5   2  -2    3.91    1.92
   5   2  -2    4.99    2.24
   5   2  -2    2.28    1.30
   5   2  -2    2.57    1.59
  -5  -2   1  325.23   12.40
  -5  -2   1  273.04   11.54
  -5  -2   1  320.49   13.06
  -5  -2   1  369.97    9.11
  -5  -2   1  314.56   30.02
   5   2  -1  263.28   11.32
   5   2  -1  286.75   12.04
   5   2  -1  332.57   13.56
   5   2  -1  300.13   11.75
   5   2  -1  295.86   29.73
  -5  -2   0  492.38   15.70
  -5  -2   0  624.82   18.41
  -5  -2   0  690.57   14.50
  -5  -2   0  586.85   41.44
   5   2   0  525.80   16.35
   5   2   0  564.89   17.14
   5   2   0  584.60   18.52
   5   2   0  583.23   17.18
   5   2   0  604.42   43.00
  -5  -2  -1   70.41    6.04
  -5  -2  -1   85.64    6.73
  -5  -2  -1   95.44    7.34
  -5  -2  -1   87.16    7.45
  -5  -2  -1  100.29    6.26
  -5  -2  -1   79.45   17.83
   5   2   1   77.07    6.58
   5   2   1   85.02    6.94
   5   2   1   80.14    6.73
   5   2   1   78.91    7.05
   5   2   1   74.39    6.58
   5   2   1   83.94   19.53
  -5  -2  -2   71.79    6.80
  -5  -2  -2   60.83    6.11
  -5  -2  -2   89.87    6.58
  -5  -2  -2   78.33   20.29
   5   2   2   58.88    5.89
   5   2   2   57.39    6.08
   5   2   2   77.94    8.21
   5   2   2   65.39    6.65
   5   2   2   12.37    3.51
   5   2   2   -4.59    6.29
  -5  -2  -3   48.53    5.61
  -5  -2  -3   52.04    5.79
  -5  -2  -3   54.43    5.50
  -5  -2  -3   21.08   17.79
   5   2   3   33.63    5.32
   5   2   3   49.11    5.75
   5   2   3   -1.52    1.34
   5   2   3   54.50    6.37
  -5  -2  -4  257.17   13.02
  -5  -2  -4  293.30   19.13
  -5  -2  -4  315.47   14.39
  -5  -2  -4  267.58   32.77
   5   2   4  204.26   11.90
   5   2   4  199.99   11.86
   5   2   4  271.71   14.86
   5   2   4  250.88   14.14
   5   2   4  266.97   32.95
  -5  -2  -5   68.60    7.67
  -5  -2  -5   87.16    8.03
  -5  -2  -5   79.82   22.31
   5   2   5   42.28    6.40
   5   2   5   51.25    7.78
   5   2   5   60.29    8.82
   5   2   5   72.47    7.96
   5   2   5   72.19   20.43
  -5  -2  -6  208.06   12.91
  -5  -2  -6  275.94   15.30
   5   2   6  172.72   12.22
   5   2   6  198.65   13.06
   5   2   6  219.88   14.79
   5   2   6  253.05   15.66
  -5  -3  11   33.02    7.45
  -5  -3  11   32.55    5.17
  -5  -3  11   26.65    5.28
  -5  -3  11   36.38   23.69
   5   3 -11   34.03    7.31
   5   3 -11   47.41    4.63
   5   3 -11   16.56   13.85
  -5  -3  10    1.45    1.99
  -5  -3  10   -0.11    1.41
  -5  -3  10   -2.35    1.41
  -5  -3  10  -16.46    8.46
   5   3 -10    1.56    1.81
   5   3 -10    1.99    1.88
  -5  -3   9   22.21    6.00
  -5  -3   9   52.01    4.88
  -5  -3   9   46.51    7.99
  -5  -3   9   43.18   19.31
  -5  -3   9   22.21   18.41
   5   3  -9   56.27    6.62
  -5  -3   8   56.60    6.47
  -5  -3   8   72.87    5.57
  -5  -3   8   13.53    3.65
  -5  -3   8   96.31   27.77
  -5  -3   8   28.90   17.40
   5   3  -8   66.22    6.98
   5   3  -8   59.09    6.94
  -5  -3   7    6.76    2.75
  -5  -3   7    4.81    2.28
  -5  -3   7    8.46    2.50
  -5  -3   7    7.16    2.82
  -5  -3   7  -17.72   10.20
  -5  -3   7    4.27   13.63
   5   3  -7   10.23    2.89
   5   3  -7   14.10    3.47
  -5  -3   6  129.25    9.11
  -5  -3   6  107.01    8.35
  -5  -3   6  112.47    6.55
  -5  -3   6  105.78    7.09
  -5  -3   6   74.54   19.60
  -5  -3   6  113.59   23.87
   5   3  -6   95.26    7.81
   5   3  -6  111.93    8.53
   5   3  -6  113.70    7.74
  -5  -3   5  139.09    9.19
  -5  -3   5  109.80    8.25
  -5  -3   5  127.92    8.86
  -5  -3   5  125.31    7.12
  -5  -3   5   91.10   23.07
  -5  -3   5  123.29   24.01
   5   3  -5  126.07    8.64
   5   3  -5  210.01   14.83
   5   3  -5  130.41    8.32
   5   3  -5  133.34    7.05
  -5  -3   4   20.61    3.87
  -5  -3   4   15.37    3.40
  -5  -3   4   18.95    4.34
  -5  -3   4   22.64    3.51
  -5  -3   4   22.86    8.57
  -5  -3   4   19.02   11.36
   5   3  -4   17.47    3.87
   5   3  -4   14.61    3.91
   5   3  -4   19.10    4.01
   5   3  -4   19.71    3.54
   5   3  -4   20.51    3.98
  -5  -3   3  135.55    8.82
  -5  -3   3  115.15    8.10
  -5  -3   3  133.99    8.75
  -5  -3   3  116.78    5.68
  -5  -3   3  143.54   26.07
  -5  -3   3  147.08   31.64
   5   3  -3  117.54    8.14
   5   3  -3  141.84    9.15
   5   3  -3  124.55    8.28
   5   3  -3  142.02    7.63
   5   3  -3  143.14    9.26
  -5  -3   2    5.46    2.24
  -5  -3   2    2.82    1.52
  -5  -3   2    4.74    1.41
  -5  -3   2    2.78    1.12
  -5  -3   2    0.54    9.15
   5   3  -2    5.39    2.06
   5   3  -2    2.42    1.41
   5   3  -2    2.57    1.59
   5   3  -2    6.98    2.39
   5   3  -2    0.87    1.74
   5   3  -2    2.13    6.40
  -5  -3   1    4.20    1.77
  -5  -3   1    4.05    1.92
  -5  -3   1    4.77    1.23
  -5  -3   1    5.17    1.23
  -5  -3   1  -12.48    6.33
   5   3  -1    0.80    1.52
   5   3  -1    3.22    1.84
   5   3  -1    3.00    1.63
   5   3  -1    1.70    1.37
   5   3  -1    4.20    7.85
  -5  -3   0   52.80    5.57
  -5  -3   0   70.49    6.29
  -5  -3   0   68.89    6.80
  -5  -3   0   60.18   15.88
   5   3   0   45.17    5.42
   5   3   0   63.79    6.29
   5   3   0   73.16    6.87
   5   3   0   53.89    5.64
   5   3   0   56.20   15.95
  -5  -3  -1   22.21    4.70
  -5  -3  -1   41.26    6.40
  -5  -3  -1   31.61   14.68
   5   3   1   27.05    5.17
   5   3   1   21.55    4.77
   5   3   1   22.78    4.63
   5   3   1   24.66    4.23
   5   3   1    5.68    7.23
  -5  -3  -2  364.94   15.55
  -5  -3  -2  394.96   15.73
  -5  -3  -2  445.41   15.62
  -5  -3  -2  427.61   40.58
   5   3   2  340.20   15.12
   5   3   2  374.52   16.09
   5   3   2  373.84   16.96
  -5  -3  -3   52.84    6.58
  -5  -3  -3   49.69    7.05
  -5  -3  -3   74.39    7.05
  -5  -3  -3  106.32   26.69
   5   3   3   56.89    6.62
   5   3   3   44.34    6.87
   5   3   3   74.72    7.96
   5   3   3   41.12   18.48
  -5  -3  -4  112.51    9.51
  -5  -3  -4  131.31    9.69
  -5  -3  -4  124.55   26.58
   5   3   4   81.73    8.46
   5   3   4  115.15    9.73
   5   3   4  120.10   10.60
   5   3   4  105.35    9.73
   5   3   4  102.89   29.33
  -5  -3  -5    4.81    3.36
  -5  -3  -5   12.01    3.44
   5   3   5    2.82    2.46
   5   3   5    8.64    3.47
   5   3   5    4.20    3.11
  -5  -4  11    1.95    2.35
  -5  -4  11   -0.69    1.66
  -5  -4  11   -0.69    1.74
  -5  -4  11  -15.30   18.88
   5   4 -11    2.89    2.39
  -5  -4  10   21.84    5.06
  -5  -4  10   31.39    4.56
  -5  -4  10   35.19    7.23
  -5  -4  10   16.06   21.70
  -5  -4  10  -45.10   20.87
   5   4 -10   36.78    6.76
  -5  -4   9   -0.69    1.52
  -5  -4   9    0.90    1.37
  -5  -4   9    4.27   15.73
   5   4  -9    0.40    1.34
  -5  -4   8  141.66   10.52
  -5  -4   8  161.69    7.59
  -5  -4   8  153.92   33.85
  -5  -4   8  181.44   46.44
   5   4  -8  160.97    9.29
  -5  -4   7  136.45    9.98
  -5  -4   7  154.03    5.21
  -5  -4   7  136.78   10.56
  -5  -4   7  141.51   30.88
  -5  -4   7  109.62   28.75
   5   4  -7  115.80    9.84
   5   4  -7  114.43    9.26
   5   4  -7  143.54    8.72
  -5  -4   6   59.85    6.58
  -5  -4   6   71.68    3.47
  -5  -4   6   60.07    5.61
  -5  -4   6   73.41   20.32
  -5  -4   6   35.41   12.37
   5   4  -6   41.16    6.15
   5   4  -6   69.87    7.12
   5   4  -6   70.05    6.18
   5   4  -6   56.16    4.63
  -5  -4   5  252.39   13.13
  -5  -4   5  183.61   11.21
  -5  -4   5  223.39   12.08
  -5  -4   5  281.43    7.05
  -5  -4   5  212.25    9.69
  -5  -4   5  298.50   35.30
   5   4  -5  195.62   11.57
   5   4  -5  226.68   12.44
   5   4  -5  231.09   11.28
   5   4  -5  225.96    9.08
  -5  -4   4 1282.84   28.93
  -5  -4   4  990.66   25.68
  -5  -4   4 1172.36   27.02
  -5  -4   4 1393.50   17.18
  -5  -4   4 1107.91   20.51
  -5  -4   4 1499.43   77.21
  -5  -4   4 1068.85   65.31
   5   4  -4 1038.26   26.29
   5   4  -4 1186.32   28.24
   5   4  -4 1234.85   26.44
   5   4  -4 1201.65   21.59
   5   4  -4    2.39    2.31
  -5  -4   3   29.26    5.35
  -5  -4   3   28.82    5.21
  -5  -4   3   28.03    5.03
  -5  -4   3   27.45    3.11
  -5  -4   3   23.11   13.63
   5   4  -3   31.28    5.71
   5   4  -3   24.99    5.03
   5   4  -3   41.81    6.51
   5   4  -3   28.75    4.38
   5   4  -3    2.57    2.57
  -5  -4   2  173.84   10.85
  -5  -4   2  194.93   10.81
  -5  -4   2  195.40    7.45
  -5  -4   2  195.94   34.43
   5   4  -2  164.73   10.38
   5   4  -2  195.18   11.54
   5   4  -2  197.35   11.17
   5   4  -2  206.03    9.91
   5   4  -2  158.47   30.81
  -5  -4   1   59.96    6.51
  -5  -4   1   74.32    6.65
  -5  -4   1   67.85    4.09
  -5  -4   1   45.17   19.17
   5   4  -1   67.01    6.91
   5   4  -1   76.81   13.24
   5   4  -1   80.83    7.31
   5   4  -1   66.15    6.11
   5   4  -1   65.78   20.32
  -5  -4   0   32.58    5.24
  -5  -4   0   45.68    5.32
  -5  -4   0   45.35    3.15
  -5  -4   0   34.65   15.91
   5   4   0   29.15    4.85
   5   4   0   37.47    7.70
   5   4   0   40.50    5.97
   5   4   0    5.64    9.15
  -5  -4  -1  123.25    9.58
  -5  -4  -1  142.42    9.44
  -5  -4  -1  114.79   26.91
   5   4   1  114.35    9.19
   5   4   1  138.80   10.13
   5   4   1  139.42   10.45
   5   4   1   83.18   31.68
  -5  -4  -2   40.00    7.02
  -5  -4  -2   36.60    5.79
  -5  -4  -2   65.13   23.58
   5   4   2   30.49    5.50
   5   4   2   36.71    6.58
   5   4   2   39.13    6.87
   5   4   2    3.11   14.29
  -5  -4  -3   34.25    6.98
  -5  -4  -3   31.72    5.35
  -5  -4  -3   34.90    6.00
  -5  -4  -3   57.03   22.78
   5   4   3   34.75    6.22
   5   4   3   42.46    7.63
   5   4   3    1.92   17.61
  -5  -5  10    1.19    2.35
  -5  -5  10   53.34   23.76
   5   5 -10   14.90    4.52
   5   5 -10    4.92    2.50
  -5  -5   9   32.44    6.55
  -5  -5   9   40.29   18.77
  -5  -5   9   37.39   22.53
   5   5  -9   35.66    6.44
   5   5  -9   38.77    5.86
  -5  -5   8   17.50    3.72
  -5  -5   8   25.06    3.00
  -5  -5   8   23.83   14.57
  -5  -5   8   -9.37    7.38
   5   5  -8   20.00    4.63
   5   5  -8   23.04    4.16
  -5  -5   7  156.38   13.06
  -5  -5   7  192.11    6.98
  -5  -5   7  123.07    8.90
  -5  -5   7  228.67   39.49
  -5  -5   7  170.01   34.36
   5   5  -7  168.78   11.68
   5   5  -7  169.36    9.66
  -5  -5   6  533.76   20.51
  -5  -5   6  610.61   21.08
  -5  -5   6  730.71   13.53
  -5  -5   6  566.02   17.58
  -5  -5   6  690.46   56.27
  -5  -5   6  615.45   52.08
   5   5  -6  567.93   21.34
   5   5  -6  649.85   19.06
  -5  -5   5   12.87    3.36
  -5  -5   5   17.97    4.81
  -5  -5   5   21.66    3.11
  -5  -5   5   20.25    3.91
  -5  -5   5   14.47   15.95
  -5  -5   5   30.41   19.31
   5   5  -5    9.04    3.11
   5   5  -5   12.01    3.33
   5   5  -5   15.55    3.07
  -5  -5   4  269.68   14.21
  -5  -5   4  328.38   14.76
  -5  -5   4  318.87   14.07
  -5  -5   4  292.32   44.45
  -5  -5   4  329.03   38.62
   5   5  -4  261.00   14.83
   5   5  -4  318.94   15.62
   5   5  -4  331.60   14.25
   5   5  -4  318.00   11.14
  -5  -5   3   16.09    4.38
  -5  -5   3   36.63    6.33
  -5  -5   3   25.89    4.12
  -5  -5   3   33.31   15.19
   5   5  -3   17.79    3.98
   5   5  -3   31.21    5.93
   5   5  -3   31.50    5.86
   5   5  -3   34.94    4.85
  -5  -5   2    1.37    1.41
  -5  -5   2   10.99   13.74
   5   5  -2   -1.88    1.81
   5   5  -2   -0.43    1.30
   5   5  -2    0.22    1.66
   5   5  -2   -1.81    1.52
   5   5  -2   10.34   14.07
  -5  -5   1  181.08   11.90
  -5  -5   1  200.57   11.28
  -5  -5   1  188.31    7.70
  -5  -5   1  146.29   33.38
   5   5  -1  178.62   11.97
   5   5  -1  193.48   12.19
   5   5  -1  192.90   10.89
  -5  -5   0   28.17    4.77
  -5  -5   0   53.38    6.08
  -5  -5   0   65.71    4.41
  -5  -5   0   48.28   21.74
   5   5   0   65.68    7.45
   5   5   0   63.11    7.49
   5   5   0   91.71   24.05
  -5  -5  -1   15.62    4.77
  -5  -5  -1   17.40    4.52
  -5  -5  -1   22.24    3.07
  -5  -5  -1   14.54   19.42
   5   5   1   12.80    3.65
   5   5   1   16.17    4.67
   5   5   1   -2.53   18.34
  -5  -5  -2    9.95    3.36
  -5  -5  -2    9.33    3.29
  -5  -5  -2   15.19    2.46
  -5  -5  -2   22.35   23.25
   5   5   2   13.67    4.05
   5   5   2   11.57    3.65
   5   5   2   55.77   25.97
  -5  -6   9    2.50    2.31
  -5  -6   9   -3.54    1.48
  -5  -6   9   16.02   19.78
   5   6  -9   -1.34    1.99
   5   6  -9   -1.52    1.70
  -5  -6   8  205.16   13.74
  -5  -6   8  256.26    9.22
  -5  -6   8  261.69   45.60
  -5  -6   8  257.53   43.36
   5   6  -8  214.24   14.00
   5   6  -8  234.20   11.28
  -5  -6   7   73.99    8.32
  -5  -6   7   87.08    8.43
  -5  -6   7   99.06    5.93
  -5  -6   7   67.01   24.52
  -5  -6   7  121.44   32.01
   5   6  -7   95.69    9.37
   5   6  -7   84.16    7.12
  -5  -6   6   -1.37    1.19
  -5  -6   6    2.35    2.24
  -5  -6   6    0.22    1.37
  -5  -6   6   -1.12    2.03
  -5  -6   6    9.73   17.87
   5   6  -6   -2.06    1.16
   5   6  -6    0.58    1.48
  -5  -6   5   -3.69    1.84
  -5  -6   5    2.39    1.70
  -5  -6   5    0.25   15.33
  -5  -6   5   43.83   19.82
   5   6  -5    2.35    1.52
   5   6  -5    2.17    1.77
   5   6  -5    5.50    1.88
  -5  -6   4   30.96    5.79
  -5  -6   4   53.23    5.97
  -5  -6   4   36.89    4.52
  -5  -6   4   41.84    4.77
  -5  -6   4   42.75   19.06
  -5  -6   4   36.27   16.74
   5   6  -4   38.23    6.65
   5   6  -4   41.34    5.06
   5   6  -4   43.61    4.48
  -5  -6   3    8.93    3.51
  -5  -6   3   14.76    4.92
  -5  -6   3    7.92    2.53
  -5  -6   3   11.86   15.91
   5   6  -3   10.13    3.22
   5   6  -3    9.11    3.18
   5   6  -3   10.81    3.04
  -5  -6   2    1.12    1.59
  -5  -6   2   45.46   20.32
   5   6  -2   -0.51    1.70
   5   6  -2   -0.69    1.48
   5   6  -2    2.39    2.64
  -5  -6   1    3.00    1.99
  -5  -6   1    7.88    3.18
  -5  -6   1   10.78    2.71
  -5  -6   1   -8.68   12.37
   5   6  -1    3.29    2.31
   5   6  -1    7.63    3.15
   5   6  -1    5.71   11.03
  -5  -6   0    1.95    1.56
  -5  -6   0   -1.08    1.74
  -5  -6   0    2.35    1.74
  -5  -6   0    3.33   23.40
   5   6   0    4.70    2.28
   5   6   0   -3.29    1.48
   5   6   0   54.10   22.89
  -5  -7   7    2.39    2.17
  -5  -7   7    2.06    1.70
  -5  -7   7    2.93    2.28
   5   7  -7    6.22    3.22
   5   7  -7    3.04    2.21
  -5  -7   6   22.53    5.61
  -5  -7   6   35.88    6.69
  -5  -7   6   32.87    4.92
  -5  -7   6   42.75   25.35
  -5  -7   6    3.51   19.71
   5   7  -6   24.56    5.06
   5   7  -6   23.72    4.67
  -5  -7   5   -1.37    1.99
  -5  -7   5    1.84    1.48
  -5  -7   5   -1.74    1.95
  -5  -7   5    2.89    1.52
  -5  -7   5  -15.33   13.74
  -5  -7   5    1.74   17.07
   5   7  -5    1.88    1.99
   5   7  -5    6.76    2.50
   5   7  -5    3.07    1.63
  -5  -7   4   39.24    7.74
  -5  -7   4   25.50    4.88
  -5  -7   4   36.38    5.68
  -5  -7   4   33.74    5.50
  -5  -7   4    2.06   19.46
  -5  -7   4   93.23   29.40
   5   7  -4   36.56    7.92
   5   7  -4   36.13    6.44
   5   7  -4   27.12    4.16
  -5  -7   3    1.70    1.99
  -5  -7   3    1.70    2.03
  -5  -7   3    0.58    1.88
  -5  -7   3   -4.63   21.52
   5   7  -3    0.04    2.57
   5   7  -3    1.12    1.88
   5   7  -3   -2.57    2.17
   5   7  -3   22.86   18.37
  -6  10   0   -0.58    1.70
  -6  10   0   -1.08    1.48
  -6  10   0  -32.19   12.08
   6 -10   0    5.28    1.70
   6 -10   0    4.09    2.46
   6 -10   0    2.64    1.95
   6 -10   0   15.70   16.17
  -6  10  -1   26.80    3.58
  -6  10  -1   21.05    4.92
  -6  10  -1   28.21    5.28
  -6  10  -1  -14.76   11.32
   6 -10   1   24.41    4.23
   6 -10   1   26.58    4.34
   6 -10   1   19.35    4.74
   6 -10   1   26.44    6.40
   6 -10   1   21.05   17.47
  -6  10  -2   66.07    7.99
  -6  10  -2   58.08    6.18
  -6  10  -2   51.43   13.16
   6 -10   2   46.91    4.67
   6 -10   2   53.74    6.91
   6 -10   2   68.60    7.81
   6 -10   2   67.38   14.32
  -6  10  -3   33.78    6.15
  -6  10  -3   37.50    6.37
   6 -10   3   47.85    3.72
   6 -10   3   36.60    4.88
   6 -10   3   47.56    6.11
   6 -10   3   46.65    8.06
   6 -10   3   42.75    7.96
   6 -10   3   58.41    9.44
  -6  10  -4   42.31    7.63
  -6  10  -4   55.95    5.93
   6 -10   4   55.44    5.64
   6 -10   4   53.81    4.74
   6 -10   4   52.91    5.03
   6 -10   4   52.87    8.21
  -6  10  -5   28.32    6.37
   6 -10   5   17.72    4.05
   6 -10   5   18.12    3.11
   6 -10   5   17.07    3.07
   6 -10   5    4.27    3.18
  -6  10  -6   11.68    4.34
   6 -10   6   10.23    3.44
   6 -10   6   13.78    4.20
   6 -10   6    6.98    3.47
  -6   9   3  104.70    8.39
  -6   9   3  107.08    9.11
  -6   9   3  103.94    9.80
  -6   9   3  141.08   31.64
   6  -9  -3  114.35    9.37
   6  -9  -3  114.43    9.80
   6  -9  -3  103.47   10.49
   6  -9  -3   80.21   24.66
  -6   9   2   12.04    3.15
  -6   9   2   18.84    4.38
  -6   9   2   16.56    4.45
  -6   9   2   20.61   17.79
   6  -9  -2   21.59    4.52
   6  -9  -2   14.29    4.12
   6  -9  -2   15.30    4.48
   6  -9  -2    7.70   12.80
  -6   9   1   -0.80    1.56
  -6   9   1    4.20    2.53
  -6   9   1    8.25    2.53
  -6   9   1   -9.84   12.12
   6  -9  -1    2.39    1.84
   6  -9  -1    3.69    1.88
   6  -9  -1    1.01    2.17
   6  -9  -1   -3.62    9.11
  -6   9   0   34.97    4.05
  -6   9   0   54.86    6.80
  -6   9   0   37.29    6.69
  -6   9   0   57.36   15.23
   6  -9   0   59.02    5.14
   6  -9   0   45.78    4.92
   6  -9   0   43.69    8.35
   6  -9   0   42.39    7.41
   6  -9   0   64.55   16.67
  -6   9  -1   15.66    2.21
  -6   9  -1   16.56    2.42
  -6   9  -1   11.50    3.58
  -6   9  -1   20.07    5.28
   6  -9   1   14.65    2.97
   6  -9   1   22.93    3.80
   6  -9   1   20.32    3.94
   6  -9   1   14.03    3.83
   6  -9   1   35.51   10.70
  -6   9  -2  101.23    9.37
  -6   9  -2  102.67    8.06
  -6   9  -2  110.70   12.04
   6  -9   2   94.57    5.21
   6  -9   2   73.63    4.81
   6  -9   2   79.27    5.71
   6  -9   2   84.08    6.69
   6  -9   2   83.69    8.06
   6  -9   2   91.24   12.73
  -6   9  -3   22.82    5.35
  -6   9  -3   29.51    5.03
   6  -9   3   18.99    2.13
   6  -9   3   22.13    3.51
   6  -9   3   20.51    3.69
   6  -9   3   26.62    5.89
  -6   9  -4    6.22    2.60
   6  -9   4    4.01    2.28
   6  -9   4    7.85    2.21
   6  -9   4    7.12    2.42
   6  -9   4    9.69    2.97
   6  -9   4    5.75    1.45
   6  -9   4   -1.56    1.88
  -6   9  -5    1.63    1.66
   6  -9   5    5.03    2.50
   6  -9   5    1.16    1.45
   6  -9   5    9.44    2.24
   6  -9   5    3.91    2.03
   6  -9   5    2.46    1.99
   6  -9   5   -2.86    2.03
  -6   9  -6   10.70    3.58
   6  -9   6   16.53    2.60
   6  -9   6   10.20    3.04
   6  -9   6    7.78    2.35
   6  -9   6    9.91    3.07
  -6   9  -7    2.24    2.71
   6  -9   7    2.46    1.45
   6  -9   7   -0.07    2.24
   6  -9   7    1.12    1.92
   6  -9   7    1.41    1.95
  -6   8   4   -0.83    2.50
  -6   8   4    1.08    1.99
  -6   8   4    2.75    1.92
  -6   8   4    1.27   11.39
   6  -8  -4    3.87    1.56
   6  -8  -4    3.51    2.50
   6  -8  -4   -3.98    1.41
   6  -8  -4  -20.36   14.36
  -6   8   3   27.67    4.88
  -6   8   3   42.53    7.09
  -6   8   3   28.17    5.82
  -6   8   3    1.88   21.05
   6  -8  -3   41.01    6.33
   6  -8  -3   29.19    4.99
   6  -8  -3   41.59    7.99
   6  -8  -3    5.57   17.79
  -6   8   2   61.12    5.71
  -6   8   2   77.68    7.41
  -6   8   2   69.29    7.41
  -6   8   2   33.99   16.09
   6  -8  -2   71.86    6.55
   6  -8  -2   67.09    6.29
   6  -8  -2   96.23    8.75
   6  -8  -2   61.15   18.95
  -6   8   1    3.07    1.52
  -6   8   1   11.28    2.60
  -6   8   1   17.90    4.81
  -6   8   1   14.32    3.87
  -6   8   1    4.67    9.15
   6  -8  -1    8.21    2.71
   6  -8  -1   13.96    3.29
   6  -8  -1   14.36    4.01
   6  -8  -1    7.09    2.39
   6  -8  -1   31.14   12.12
  -6   8   0   41.37    3.58
  -6   8   0   54.14    3.76
  -6   8   0   49.58    7.96
  -6   8   0   47.41    5.68
  -6   8   0   58.37   12.95
   6  -8   0   55.95    4.63
   6  -8   0   47.34    4.52
   6  -8   0   67.38    6.33
   6  -8   0   54.17    6.47
   6  -8   0   64.01   13.45
  -6   8  -1   14.50    3.87
  -6   8  -1   11.28    3.33
   6  -8   1   12.91    2.57
   6  -8   1   11.28    2.35
   6  -8   1   14.86    3.54
   6  -8   1   14.21    3.80
   6  -8   1   12.55    3.44
   6  -8   1   12.91    6.65
  -6   8  -2  173.01   11.72
  -6   8  -2  153.19    9.69
   6  -8   2  163.03    5.53
   6  -8   2  140.32    5.21
   6  -8   2  146.47    7.99
   6  -8   2  175.25   10.92
   6  -8   2  156.05   10.09
  -6   8  -3  121.66    9.87
  -6   8  -3  120.79    8.43
   6  -8   3  108.68    7.34
   6  -8   3   99.85    7.70
   6  -8   3  122.71    5.24
   6  -8   3  110.99    8.57
  -6   8  -4  121.33    9.91
   6  -8   4  103.36    7.99
   6  -8   4  125.96    7.12
   6  -8   4  108.13    8.03
   6  -8   4  121.37    6.37
   6  -8   4  118.80    8.75
  -6   8  -5   -1.59    1.81
   6  -8   5   -0.14    2.03
   6  -8   5    2.31    1.52
   6  -8   5   -2.03    1.23
   6  -8   5    0.87    1.27
   6  -8   5    1.59    1.56
  -6   8  -6  161.77   11.61
   6  -8   6  150.45    7.38
   6  -8   6  141.87    9.48
   6  -8   6  152.94    8.86
   6  -8   6  143.47    9.76
  -6   8  -7   66.98    7.67
   6  -8   7   68.53    6.62
   6  -8   7   57.03    6.91
   6  -8   7   52.33    5.79
   6  -8   7   41.48    7.09
   6  -8   8  106.94    8.68
   6  -8   8   85.78    7.99
  -6   7   6    9.11    3.94
  -6   7   6    6.73    1.92
  -6   7   6    8.86    3.25
  -6   7   6   12.40   19.17
   6  -7  -6    7.20    3.29
   6  -7  -6   10.20    4.01
   6  -7  -6    6.51    3.47
   6  -7  -6   23.58   20.90
  -6   7   5   76.49    7.34
  -6   7   5   66.33    4.23
  -6   7   5   76.74    8.14
  -6   7   5   60.36   21.95
   6  -7  -5   68.39    7.41
   6  -7  -5   46.83    6.69
   6  -7  -5   58.95    9.22
   6  -7  -5   74.28   21.52
  -6   7   4   -1.74    1.23
  -6   7   4    2.03    1.08
  -6   7   4    0.87    1.16
  -6   7   4    3.94   12.55
   6  -7  -4    2.35    1.37
   6  -7  -4    5.46    2.60
   6  -7  -4    1.70    2.06
   6  -7  -4   12.69   13.89
  -6   7   3   41.88    4.63
  -6   7   3   64.48    6.26
  -6   7   3   50.02    3.83
  -6   7   3   50.02    6.04
  -6   7   3    7.12   12.59
   6  -7  -3   42.96    5.24
   6  -7  -3   51.39    5.68
   6  -7  -3   36.96    5.82
   6  -7  -3   47.67   15.88
  -6   7   2   13.02    2.71
  -6   7   2  113.02    6.87
  -6   7   2  147.84    9.91
  -6   7   2  138.73    6.65
  -6   7   2  139.56   13.27
  -6   7   2  118.77   21.59
   6  -7  -2  133.99    8.14
   6  -7  -2  110.74    7.23
   6  -7  -2  142.81   10.34
   6  -7  -2  146.40   10.23
   6  -7  -2  125.60   21.01
  -6   7   1   57.10    4.27
  -6   7   1   94.53    8.06
  -6   7   1   66.07    7.20
  -6   7   1   79.78    7.31
  -6   7   1   -0.94    1.56
  -6   7   1   79.63   15.70
   6  -7  -1   86.22    5.79
   6  -7  -1   74.50    5.50
   6  -7  -1   81.01    7.31
   6  -7  -1   81.44    7.59
   6  -7  -1   92.65   17.11
  -6   7   0  181.08    5.75
  -6   7   0  187.95    5.82
  -6   7   0  228.24   12.59
  -6   7   0  223.50    9.29
  -6   7   0  219.85   11.68
  -6   7   0  185.89   18.23
   6  -7   0  234.71    8.50
   6  -7   0  188.49    7.59
   6  -7   0  250.88   11.93
   6  -7   0  207.80   11.32
   6  -7   0  232.76   19.93
  -6   7  -1  237.53   12.95
  -6   7  -1  235.29   11.86
   6  -7   1  234.78    7.02
   6  -7   1  186.54    6.26
   6  -7   1  208.78    9.29
   6  -7   1  245.31   11.75
   6  -7   1  187.23   14.00
   6  -7   1  212.76    5.97
   6  -7   1  241.94    6.33
   6  -7   1  219.63   11.36
   6  -7   1  220.35   14.00
  -6   7  -2    9.01    2.82
  -6   7  -2    9.91    3.07
   6  -7   2    6.80    2.13
   6  -7   2   14.25    3.87
   6  -7   2    9.40    2.82
   6  -7   2    9.22    2.03
   6  -7   2    5.17    2.28
  -6   7  -3   23.76    4.16
   6  -7   3   39.89    5.79
   6  -7   3   37.29    4.09
   6  -7   3   44.37    6.33
   6  -7   3   29.58    5.10
   6  -7   3   26.44    3.11
   6  -7   3   31.75    4.95
  -6   7  -4   97.75    8.53
   6  -7   4   91.21    6.18
   6  -7   4  109.54    8.50
   6  -7   4   92.40    6.15
   6  -7   4   89.00    6.94
  -6   7  -5   -1.48    1.48
   6  -7   5   -4.09    1.37
   6  -7   5    0.40    0.94
   6  -7   5   -1.74    1.70
   6  -7   5    0.72    1.48
   6  -7   5    3.04    1.63
   6  -7   6   86.22    5.97
   6  -7   6   78.08    7.34
   6  -7   6   86.43    7.02
   6  -7   6   75.80    6.55
   6  -7   7   40.76    4.38
   6  -7   7   49.37    7.20
   6  -7   7   34.68    5.50
  -6   7  -8   78.30    8.28
   6  -7   8   51.50    4.77
   6  -7   8   74.50    7.59
   6  -7   8   54.68    5.61
  -6   6   7   -1.70    3.25
  -6   6   7   13.02    3.18
  -6   6   7    7.63    3.44
  -6   6   7   16.85   12.30
   6  -6  -7    8.68    3.47
   6  -6  -7    0.61    2.39
   6  -6  -7   12.40    3.83
   6  -6  -7   51.39   25.42
  -6   6   6    7.41    3.18
  -6   6   6    7.85    2.39
  -6   6   6    5.53    2.89
  -6   6   6    3.18   14.39
   6  -6  -6    8.53    2.93
   6  -6  -6    6.98    3.51
   6  -6  -6    5.86    2.24
   6  -6  -6    4.09    2.39
   6  -6  -6    2.93   13.78
  -6   6   5    2.28    1.66
  -6   6   5   -0.04    1.37
  -6   6   5    3.98    2.17
  -6   6   5   -4.48   11.97
   6  -6  -5    0.04    1.56
   6  -6  -5    0.80    2.24
   6  -6  -5    1.34    1.30
   6  -6  -5    1.37    1.77
   6  -6  -5   21.41   11.79
  -6   6   4   73.56    6.62
  -6   6   4   76.09    5.32
  -6   6   4   87.45    8.03
  -6   6   4   74.46   17.83
   6  -6  -4   74.68    6.80
   6  -6  -4   60.83    6.44
   6  -6  -4   76.13    4.38
   6  -6  -4   80.03    8.35
   6  -6  -4  106.65   21.70
  -6   6   3  280.28   11.17
  -6   6   3  310.26   10.52
  -6   6   3  306.53   17.03
  -6   6   3  221.65   26.87
   6  -6  -3  337.02   13.06
   6  -6  -3  280.57   11.83
   6  -6  -3  319.12   13.56
   6  -6  -3  305.56   15.95
   6  -6  -3  312.03    8.03
   6  -6  -3  313.55   14.54
  -6   6   2  103.03    6.00
  -6   6   2  102.20    6.08
  -6   6   2  109.15    6.47
  -6   6   2  119.09    8.90
  -6   6   2  118.77    8.61
  -6   6   2  126.76   20.36
   6  -6  -2  128.20    7.31
   6  -6  -2  110.81    6.84
   6  -6  -2  108.42    9.87
   6  -6  -2  122.20    4.85
   6  -6  -2  124.80    8.72
   6  -6  -2  168.20   19.85
  -6   6   1  322.74    8.90
  -6   6   1  406.64   12.66
  -6   6   1  409.10   15.95
  -6   6   1  374.96   14.29
  -6   6   1  369.50   26.04
   6  -6  -1  418.17   11.79
   6  -6  -1  345.63   10.67
   6  -6  -1  435.64   14.43
   6  -6  -1  451.59    9.48
   6  -6  -1  415.10   15.23
   6  -6  -1  501.14   30.13
  -6   6   0   75.91    7.02
  -6   6   0   68.93    5.42
  -6   6   0   67.41    6.40
  -6   6   0   46.87    9.19
   6  -6   0   74.17    4.38
   6  -6   0   60.29    3.98
   6  -6   0   76.81    7.27
   6  -6   0   75.66    6.15
   6  -6   0   74.75    6.55
   6  -6   0   82.06    4.34
   6  -6   0   78.37    6.47
   6  -6   0   65.46   10.96
  -6   6  -1  623.73   19.93
  -6   6  -1  567.17   16.09
  -6   6  -1  584.71   18.37
  -6   6  -1  494.77    9.40
   6  -6   1  626.19    9.48
   6  -6   1  499.29    8.46
   6  -6   1  595.20   20.00
   6  -6   1  528.01   15.37
   6  -6   1  639.29   17.58
   6  -6   1  550.25   17.61
   6  -6   1  558.89   12.37
   6  -6   1  588.29   16.85
  -6   6  -2  120.28    7.81
  -6   6  -2  113.09    8.03
   6  -6   2  116.09    7.49
   6  -6   2  121.88    7.85
   6  -6   2   93.56    7.38
   6  -6   2  112.40    6.11
   6  -6   2  111.64    7.27
   6  -6   3  104.30    8.35
   6  -6   3  109.51    7.63
   6  -6   3  114.17    7.31
   6  -6   3  117.68    7.96
   6  -6   3  102.82    7.52
   6  -6   3   99.31    6.33
   6  -6   3  103.36    6.87
   6  -6   4   49.94    7.16
   6  -6   4   42.82    5.28
   6  -6   4   42.67    4.45
   6  -6   4   38.26    6.18
   6  -6   4   41.26    4.59
   6  -6   4   50.85    4.74
   6  -6   5   24.77    5.35
   6  -6   5   21.59    4.67
   6  -6   5   24.30    4.01
   6  -6   5   28.06    5.32
   6  -6   5   21.84    4.70
   6  -6   5   25.82    4.70
   6  -6   5   24.92    4.12
  -6   6  -6  138.51    9.91
   6  -6   6  131.93    7.92
   6  -6   6  126.83    9.01
   6  -6   6  143.97    9.44
   6  -6   6  124.44    7.70
  -6   6  -7    2.42    1.41
   6  -6   7    0.25    1.37
   6  -6   7   -4.77    2.71
   6  -6   7    0.07    1.08
  -6   6  -8   17.43    4.20
   6  -6   8   14.57    3.25
   6  -6   8   15.95    4.12
   6  -6   8   17.87    4.12
  -6   6  -9   14.39    4.38
   6  -6   9   12.37    3.69
   6  -6   9   12.08    4.23
   6  -6   9   18.37    4.38
  -6   5   8   10.85    4.20
  -6   5   8   15.15    3.25
  -6   5   8    8.75    3.98
  -6   5   8   13.42    3.58
  -6   5   8    7.92   12.91
   6  -5  -8   21.81    5.93
   6  -5  -8   16.46    3.91
   6  -5  -8    8.10    4.05
   6  -5  -8  -21.63   14.25
  -6   5   7   11.93    3.58
  -6   5   7    5.42    2.24
  -6   5   7    8.72    3.98
  -6   5   7  -19.93   13.34
   6  -5  -7    5.97    3.29
   6  -5  -7   13.38    3.33
   6  -5  -7    0.43    2.50
   6  -5  -7   12.59    4.05
   6  -5  -7  -14.32   12.44
  -6   5   6    4.20    2.06
  -6   5   6    2.42    1.70
  -6   5   6    3.94    2.13
  -6   5   6    4.67   11.28
   6  -5  -6    4.27    2.35
   6  -5  -6    2.42    2.17
   6  -5  -6    2.39    1.99
   6  -5  -6    0.22    1.41
   6  -5  -6    4.88   13.78
  -6   5   5    9.95    3.36
  -6   5   5   17.90    3.58
  -6   5   5   13.38    3.18
  -6   5   5  -13.24    7.41
   6  -5  -5   12.44    3.11
   6  -5  -5   16.89    4.41
   6  -5  -5   17.25    3.69
   6  -5  -5   12.40    2.71
   6  -5  -5   21.52    5.24
   6  -5  -5   34.72   13.63
  -6   5   4   -0.72    1.12
  -6   5   4    4.74    1.81
  -6   5   4    4.48    1.88
  -6   5   4    1.01    1.27
  -6   5   4    1.66    1.77
  -6   5   4    6.15    9.66
   6  -5  -4    7.67    2.42
   6  -5  -4    2.71    1.99
   6  -5  -4    6.22    2.17
   6  -5  -4    6.98    3.62
   6  -5  -4    3.36    1.59
   6  -5  -4    3.22    1.52
   6  -5  -4    4.67    6.98
  -6   5   3  190.91    8.86
  -6   5   3  191.57    8.75
  -6   5   3  224.22    9.58
  -6   5   3  227.77   12.19
  -6   5   3  191.28   10.81
  -6   5   3  210.84   24.59
   6  -5  -3  260.93   10.78
   6  -5  -3  198.58    9.40
   6  -5  -3  237.71   11.28
   6  -5  -3  254.67    8.57
   6  -5  -3  237.06   11.75
   6  -5  -3  215.58   24.16
  -6   5   2   23.80    3.36
  -6   5   2   13.71    2.42
  -6   5   2   16.24    3.29
  -6   5   2   16.20    3.54
  -6   5   2   17.32    4.05
  -6   5   2   44.95   10.89
   6  -5  -2   16.38    2.86
   6  -5  -2   21.30    3.47
   6  -5  -2   17.54    3.69
   6  -5  -2   19.96    3.11
   6  -5  -2   13.96    3.40
   6  -5  -2   26.83    9.80
  -6   5   1  270.30    7.59
  -6   5   1  271.09    7.63
  -6   5   1  302.84   11.39
  -6   5   1  306.50   13.38
  -6   5   1  304.76   11.79
  -6   5   1  285.88   21.26
   6  -5  -1  351.85   10.09
   6  -5  -1  270.62    8.79
   6  -5  -1  308.16   13.06
   6  -5  -1  340.60   11.43
   6  -5  -1  303.75   13.16
   6  -5  -1  360.93   10.09
   6  -5  -1  307.65   12.01
   6  -5  -1  360.89   23.47
  -6   5   0    6.58    2.31
  -6   5   0    5.24    2.39
  -6   5   0   -1.63    3.47
   6  -5   0    7.16    1.63
   6  -5   0    4.59    1.37
   6  -5   0    6.29    2.21
   6  -5   0    7.20    2.13
   6  -5   0    9.84    2.53
   6  -5   0    4.41    2.35
   6  -5   0    6.40    1.81
   6  -5   0    7.12    2.24
   6  -5   0    4.99    3.51
  -6   5  -1  213.88   10.16
  -6   5  -1  192.65   10.34
   6  -5   1  181.33   10.31
   6  -5   1  183.50    9.33
   6  -5   1  219.99    9.58
   6  -5   1  196.45   10.34
   6  -5   1  190.37    8.64
  -6   5  -2   42.71    4.95
  -6   5  -2   37.86    4.67
   6  -5   2   57.90    9.04
   6  -5   2   37.21    5.75
   6  -5   2   32.95    4.05
   6  -5   2   49.04    4.70
   6  -5   2   26.98    4.16
  -6   5  -3  107.92    7.92
   6  -5   3  106.18    8.28
   6  -5   3  103.61    7.67
   6  -5   3  106.14    7.12
   6  -5   3  119.24    7.67
   6  -5   3   89.87    7.23
   6  -5   3  128.31    7.67
   6  -5   3   96.27    5.86
  -6   5  -4   35.12    5.24
   6  -5   4   45.28    5.50
   6  -5   4   47.92    7.12
   6  -5   4   35.01    4.16
   6  -5   4   39.93    5.97
   6  -5   4   45.39    7.41
   6  -5   4   33.09    5.32
   6  -5   4   32.62    3.51
  -6   5  -5   23.62    4.70
   6  -5   5   17.36    4.12
   6  -5   5   14.36    4.16
   6  -5   5   17.76    3.80
   6  -5   5   15.48    3.87
   6  -5   5   11.90    2.78
   6  -5   5   21.16    4.41
   6  -5   5   15.77    3.65
  -6   5  -6   58.80    6.73
   6  -5   6   54.57    6.51
   6  -5   6   64.16    5.75
   6  -5   6   55.22    6.58
   6  -5   6   54.90    6.18
   6  -5   6   60.79    4.74
  -6   5  -7   -1.30    1.34
   6  -5   7   -0.40    1.27
   6  -5   7    3.15    1.92
   6  -5   7    4.27    1.95
  -6   5  -8   18.91    4.81
   6  -5   8   17.61    2.57
   6  -5   8   17.00    2.50
   6  -5   8   19.71    3.91
   6  -5   8   17.25    4.59
   6  -5   8   18.66    3.91
  -6   4   9   11.50    4.05
  -6   4   9    6.08    3.15
   6  -4  -9    3.72    2.60
   6  -4  -9    8.28    3.72
   6  -4  -9   35.91   25.35
  -6   4   8   13.96    3.65
  -6   4   8   12.62    3.65
  -6   4   8   15.19    4.27
  -6   4   8   16.06    3.51
  -6   4   8    5.21   19.49
   6  -4  -8   11.79    4.23
   6  -4  -8   17.43    3.58
   6  -4  -8   10.96    4.01
   6  -4  -8   31.75   19.28
  -6   4   7    4.52    2.82
  -6   4   7   -0.43    1.23
  -6   4   7   -2.13    1.27
  -6   4   7    3.18    1.66
  -6   4   7   -3.83   13.16
   6  -4  -7   -2.39    0.83
   6  -4  -7    2.28    2.13
   6  -4  -7    1.81    1.66
   6  -4  -7    1.16    1.59
   6  -4  -7    0.33    1.05
   6  -4  -7  -10.49    8.82
  -6   4   6   83.90    7.34
  -6   4   6   90.59    6.87
  -6   4   6   95.84    8.46
  -6   4   6   91.97   22.75
   6  -4  -6  110.05    8.53
   6  -4  -6   90.48    7.96
   6  -4  -6  100.57    6.84
   6  -4  -6   98.26    6.80
   6  -4  -6   83.79    8.28
   6  -4  -6  124.23   27.34
  -6   4   5   88.35    6.98
  -6   4   5   96.74    6.76
  -6   4   5   87.12    7.92
  -6   4   5   52.08    5.86
  -6   4   5   -1.45    5.93
   6  -4  -5   84.59    7.12
   6  -4  -5   93.59    7.38
   6  -4  -5   92.69    6.73
   6  -4  -5   95.95    6.33
   6  -4  -5   89.98    7.67
   6  -4  -5  132.04   23.65
  -6   4   4   39.64    4.48
  -6   4   4   59.53    5.28
  -6   4   4   51.21    4.88
  -6   4   4   48.10    5.57
  -6   4   4   51.17    5.39
  -6   4   4   54.03   13.89
   6  -4  -4   56.53    5.39
   6  -4  -4   44.59    4.74
   6  -4  -4   45.97    5.03
   6  -4  -4   60.58    4.88
   6  -4  -4   44.81    5.10
   6  -4  -4   74.68   17.36
  -6   4   3  127.59    6.84
  -6   4   3  114.50    6.62
  -6   4   3  129.65    7.67
  -6   4   3  131.93    8.97
  -6   4   3  131.86    7.96
  -6   4   3   93.38   16.78
   6  -4  -3  138.91    7.59
   6  -4  -3  116.99    6.94
   6  -4  -3  137.61    8.39
   6  -4  -3  142.71    7.09
   6  -4  -3  131.93    8.10
   6  -4  -3  140.36   22.78
  -6   4   2   -0.33    0.58
  -6   4   2   -0.61    0.90
  -6   4   2    1.99    1.08
  -6   4   2    1.08    0.94
  -6   4   2   -1.08    3.98
   6  -4  -2   -0.58    0.61
   6  -4  -2   -1.05    0.83
   6  -4  -2    1.74    1.34
   6  -4  -2    0.61    0.65
   6  -4  -2    0.43    1.19
   6  -4  -2    0.14    0.90
   6  -4  -2    0.33    0.98
   6  -4  -2   -9.48    3.65
  -6   4   1  131.17    5.17
  -6   4   1  114.46    5.35
  -6   4   1  120.61    7.41
  -6   4   1  128.17    8.50
  -6   4   1  130.52    7.02
  -6   4   1  149.29   14.50
   6  -4  -1  150.63    6.40
   6  -4  -1  125.35    5.86
   6  -4  -1  143.94    8.79
   6  -4  -1  154.24    6.87
   6  -4  -1  129.58    8.46
   6  -4  -1  155.40    7.27
   6  -4  -1  129.76    7.12
   6  -4  -1  140.97   14.39
  -6   4   0    2.89    0.76
  -6   4   0    2.64    1.56
  -6   4   0    2.78    1.74
  -6   4   0    1.74    3.91
  -6   4   0    1.92    3.07
   6  -4   0    2.24    1.01
   6  -4   0    0.98    0.90
   6  -4   0   -0.04    1.08
   6  -4   0    1.19    1.48
   6  -4   0    0.94    1.05
   6  -4   0    3.36    2.13
   6  -4   0    3.07    1.48
  -6   4  -1 1032.33   22.89
  -6   4  -1 1057.86   24.16
  -6   4  -1 1058.73   21.01
   6  -4   1 1026.43   11.83
   6  -4   1 1033.05   11.90
   6  -4   1 1126.90   24.92
   6  -4   1 1017.97   22.42
   6  -4   1 1147.11   23.80
   6  -4   1 1211.23   20.65
   6  -4   1 1017.50   23.43
   6  -4   1 1062.56   17.65
  -6   4  -2  526.78   17.00
   6  -4   2  535.64   17.43
   6  -4   2  505.73   16.38
   6  -4   2  546.34   16.46
   6  -4   2  565.91   14.97
   6  -4   2  473.94   16.27
   6  -4   2  496.11   11.43
  -6   4  -3   39.53    6.15
  -6   4  -3   44.66    4.63
   6  -4   3   41.34    6.08
   6  -4   3   50.09    5.46
   6  -4   3   28.24    4.70
   6  -4   3   52.80    4.92
   6  -4   3   45.13    5.14
   6  -4   3   34.36    5.10
   6  -4   3   41.16    3.22
  -6   4  -4  287.58   12.30
   6  -4   4  231.74   12.33
   6  -4   4  237.68   12.44
   6  -4   4  263.82   11.72
   6  -4   4  282.12   12.01
   6  -4   4  232.11   11.86
   6  -4   4  248.38   11.90
   6  -4   4  237.28    7.70
  -6   4  -5   10.56    3.22
   6  -4   5   10.05    1.59
   6  -4   5    7.31    1.48
   6  -4   5   13.89    3.69
   6  -4   5   10.05    2.68
   6  -4   5   15.51    4.12
   6  -4   5    7.45    2.82
   6  -4   5    9.33    1.99
   6  -4   5    9.84    2.13
  -6   4  -6  151.53   10.13
  -6   4  -6  136.31    9.44
   6  -4   6  109.00    4.99
   6  -4   6  125.13    5.32
   6  -4   6  116.34    8.86
   6  -4   6  145.42    9.19
   6  -4   6  151.39   15.08
   6  -4   6  126.87    6.08
   6  -4   6  122.89    6.08
   6  -4   6  126.97    9.19
  -6   4  -7  107.95    9.08
  -6   4  -7   83.79   12.51
   6  -4   7   65.13    4.52
   6  -4   7   82.60    4.92
   6  -4   7   81.91    7.96
   6  -4   7   96.13    7.67
   6  -4   7   86.51    8.35
   6  -4   7   72.04    5.03
   6  -4   7   55.91    9.84
  -6   4  -8  210.12   13.49
  -6   4  -8  193.59   20.76
   6  -4   8  165.71    7.74
   6  -4   8  170.44    9.58
   6  -4   8  200.28   11.90
   6  -4   8  242.63   14.68
   6  -4   8  183.61    8.43
   6  -4   8  165.82   18.23
  -6   3   9    0.29    2.10
  -6   3   9   -1.48    1.92
  -6   3   9    2.17    1.88
  -6   3   9   -3.80   21.63
   6  -3  -9   -2.35    2.24
   6  -3  -9    4.85    1.99
   6  -3  -9    1.81    1.52
   6  -3  -9   -4.59   11.93
  -6   3   8    4.12    1.92
  -6   3   8   17.68    4.45
  -6   3   8   15.77    4.23
  -6   3   8   30.45   18.48
   6  -3  -8   15.91    3.98
   6  -3  -8    9.08    3.98
   6  -3  -8   16.64    3.33
   6  -3  -8   18.99    3.65
   6  -3  -8   16.74    4.30
   6  -3  -8   13.67    3.98
   6  -3  -8   29.47   12.12
  -6   3   7    2.03    1.59
  -6   3   7    0.07    2.42
  -6   3   7    4.12    2.06
  -6   3   7    7.88   13.63
   6  -3  -7    3.22    1.95
   6  -3  -7    2.03    2.57
   6  -3  -7   -0.43    1.41
   6  -3  -7    2.50    2.03
   6  -3  -7    4.77    2.31
   6  -3  -7   21.99   14.47
  -6   3   6   14.47    3.47
  -6   3   6   22.21    4.20
  -6   3   6   20.00    4.95
  -6   3   6   -1.84    1.66
  -6   3   6   20.07   12.12
   6  -3  -6   27.49    5.32
   6  -3  -6   13.45    3.80
   6  -3  -6   26.36    4.20
   6  -3  -6   17.76    3.58
   6  -3  -6   17.94    4.23
   6  -3  -6   12.33   10.92
  -6   3   5   11.10    2.75
  -6   3   5    9.55    2.89
  -6   3   5    7.63    2.35
  -6   3   5   18.91    4.56
  -6   3   5   10.38    3.22
   6  -3  -5    5.14    2.24
   6  -3  -5    7.05    2.42
   6  -3  -5   15.70    3.44
   6  -3  -5   11.90    2.97
   6  -3  -5    7.16    2.28
   6  -3  -5   24.92   11.86
  -6   3   4   -0.94    1.12
  -6   3   4    0.33    0.94
  -6   3   4   -0.11    0.90
  -6   3   4    0.58    0.94
  -6   3   4    1.34    1.45
  -6   3   4    8.21    7.85
   6  -3  -4    2.21    1.30
   6  -3  -4   -0.83    0.87
   6  -3  -4    0.47    1.16
   6  -3  -4    0.83    1.48
   6  -3  -4    3.18    1.84
   6  -3  -4    5.71    5.89
  -6   3   3   -0.07    0.94
  -6   3   3   -0.69    0.61
  -6   3   3    0.94    1.27
  -6   3   3   -0.43    1.01
  -6   3   3   -1.70    0.72
  -6   3   3    1.92    4.01
   6  -3  -3    1.23    0.90
   6  -3  -3   -0.04    0.87
   6  -3  -3    3.40    2.06
   6  -3  -3    2.10    0.80
   6  -3  -3    0.00    0.94
   6  -3  -3    2.03    1.37
   6  -3  -3   -0.69    0.69
   6  -3  -3   -3.44    5.17
  -6   3   2  294.78    9.26
  -6   3   2  246.93    8.50
  -6   3   2  281.83   11.61
  -6   3   2  288.81   12.62
  -6   3   2  281.54    9.91
  -6   3   2  351.56   25.89
   6  -3  -2  324.15   10.38
   6  -3  -2  265.81    9.48
   6  -3  -2  317.60   12.62
   6  -3  -2  342.81    8.50
   6  -3  -2  266.64   11.97
   6  -3  -2  330.62   11.36
   6  -3  -2  266.03    9.87
   6  -3  -2  280.49   23.69
  -6   3   1 1128.70   15.91
  -6   3   1 1116.52   23.33
  -6   3   1 1177.82   25.21
  -6   3   1 1109.46   17.97
  -6   3   1 1451.84   47.27
  -6   3   1 1104.87   40.90
   6  -3  -1 1215.43   18.37
   6  -3  -1 1045.56   16.93
   6  -3  -1 1207.51   24.92
   6  -3  -1 1327.32   17.32
   6  -3  -1 1120.78   24.19
   6  -3  -1 1287.47   22.60
   6  -3  -1 1103.93   18.12
  -6   3   0 1004.41   12.69
  -6   3   0  850.71   11.68
  -6   3   0 1032.94   22.86
  -6   3   0 1010.23   23.36
  -6   3   0 1125.02   37.32
  -6   3   0  932.00   33.56
   6  -3   0  931.17   14.57
   6  -3   0  948.06   14.79
   6  -3   0 1011.42   23.04
   6  -3   0  980.14   21.99
   6  -3   0 1082.20   23.51
   6  -3   0 1130.40   17.18
   6  -3   0  978.19   22.71
   6  -3   0  970.70   15.30
  -6   3  -1  771.22   20.29
  -6   3  -1  772.84   20.65
  -6   3  -1  929.22   30.16
  -6   3  -1  724.85   26.33
   6  -3   1  702.57   11.72
   6  -3   1  730.86   11.97
   6  -3   1  845.86   21.41
   6  -3   1  747.20   19.71
   6  -3   1  847.31   20.87
   6  -3   1  911.17   16.74
   6  -3   1  770.20   20.40
   6  -3   1  751.22   12.01
  -6   3  -2   63.14    6.26
  -6   3  -2   85.35    5.75
  -6   3  -2   65.46    7.99
  -6   3  -2   67.16    7.88
   6  -3   2   57.18    3.36
   6  -3   2   68.32    3.62
   6  -3   2   71.82    6.51
   6  -3   2   66.98    6.22
   6  -3   2   73.41    6.26
   6  -3   2   83.87    5.42
   6  -3   2   70.09    6.33
   6  -3   2   69.80    3.33
  -6   3  -3  282.45   13.20
  -6   3  -3  313.69   11.68
  -6   3  -3  281.25   15.70
  -6   3  -3  252.36   14.68
   6  -3   3  225.38    6.65
   6  -3   3  251.71    7.09
   6  -3   3  253.95   12.12
   6  -3   3  217.78   13.71
   6  -3   3  283.13   12.40
   6  -3   3  311.45   11.61
   6  -3   3  240.06   18.73
  -6   3  -4   49.58    5.86
  -6   3  -4   80.68    6.40
  -6   3  -4   68.21    8.32
   6  -3   4   47.30    3.36
   6  -3   4   57.94    3.76
   6  -3   4   59.31    5.93
   6  -3   4   59.82    6.44
   6  -3   4   61.73    6.26
  -6   3  -5   71.50    6.58
  -6   3  -5   56.60    9.80
   6  -3   5   46.47    3.80
   6  -3   5   54.61    4.01
   6  -3   5   66.83    6.58
   6  -3   5   51.32    5.39
   6  -3   5   67.63    6.76
   6  -3   5   49.33    2.86
   6  -3   5   48.79    9.51
  -6   3  -6   47.20    3.00
  -6   3  -6   63.40    6.65
  -6   3  -6   40.65   10.38
   6  -3   6   46.80    3.94
   6  -3   6   52.69    4.23
   6  -3   6   64.12    6.15
   6  -3   6   55.22    6.22
   6  -3   6   63.18    7.02
   6  -3   6   48.42    3.04
   6  -3   6   44.95    3.04
   6  -3   6   44.41   10.09
  -6   3  -7   11.68    2.21
  -6   3  -7    8.25    2.28
  -6   3  -7   10.38    3.11
  -6   3  -7    9.51    9.76
   6  -3   7    8.35    2.46
   6  -3   7   11.97    3.44
   6  -3   7   14.90    3.83
   6  -3   7   11.21    3.62
   6  -3   7   13.53    3.72
   6  -3   7   10.45    2.06
   6  -3   7   10.74    9.40
  -6   3  -8   43.98    3.98
  -6   3  -8   29.51    5.42
   6  -3   8   24.74    4.30
   6  -3   8   31.79    4.95
   6  -3   8   38.08    6.40
   6  -3   8   48.35    8.28
   6  -3   8   28.28    5.32
  -6   2  10   -2.10    2.31
  -6   2  10    2.71    2.31
  -6   2  10    2.24    1.92
  -6   2  10   -1.92   22.17
   6  -2 -10   -1.88    2.10
   6  -2 -10  -10.38   21.52
  -6   2   9    6.44    2.42
  -6   2   9   15.59    3.83
  -6   2   9   16.31    3.94
  -6   2   9   -3.54   14.72
   6  -2  -9   11.46    3.51
   6  -2  -9    4.63    2.10
   6  -2  -9   13.67    2.97
   6  -2  -9    9.22    2.97
   6  -2  -9    1.30   17.58
  -6   2   8    3.87    2.39
  -6   2   8    0.98    1.84
  -6   2   8    7.16    2.57
  -6   2   8  -10.13   10.42
   6  -2  -8    0.65    1.37
   6  -2  -8    2.28    2.28
   6  -2  -8    0.47    1.52
   6  -2  -8    1.63    1.41
   6  -2  -8    3.29    2.39
   6  -2  -8    3.87    2.64
   6  -2  -8   20.79   18.05
  -6   2   7   31.57    5.82
  -6   2   7   31.57    6.33
  -6   2   7   29.40    4.81
  -6   2   7   41.30   15.88
   6  -2  -7   31.43    6.37
   6  -2  -7   28.46    5.32
   6  -2  -7   26.04    4.23
   6  -2  -7   31.28    3.29
   6  -2  -7   29.08    4.99
   6  -2  -7   30.70    5.50
   6  -2  -7   32.26   11.43
  -6   2   6   45.13    5.21
  -6   2   6   48.57    5.42
  -6   2   6   48.03    5.71
  -6   2   6   35.66    7.78
  -6   2   6   40.22   12.84
   6  -2  -6   52.66    5.82
   6  -2  -6   42.02    5.14
   6  -2  -6   51.25    5.10
   6  -2  -6   56.67    3.80
   6  -2  -6   47.88    5.32
   6  -2  -6   48.24    5.24
   6  -2  -6   48.42   16.74
  -6   2   5   25.82    4.05
  -6   2   5   24.45    4.30
  -6   2   5   27.34    4.74
  -6   2   5   24.63    5.14
  -6   2   5   32.30    5.32
  -6   2   5   27.70   12.77
   6  -2  -5   33.05    5.24
   6  -2  -5   21.59    3.91
   6  -2  -5   24.81    4.38
   6  -2  -5   38.99    5.64
   6  -2  -5   23.80    4.20
   6  -2  -5   27.88   10.92
  -6   2   4  356.15   12.33
  -6   2   4  311.09   11.61
  -6   2   4  334.52   13.20
  -6   2   4  348.05   14.07
  -6   2   4  350.94   12.19
  -6   2   4  440.42   34.28
   6  -2  -4  361.68   12.98
   6  -2  -4  333.95   12.30
   6  -2  -4  364.32   13.24
   6  -2  -4  393.29    7.09
   6  -2  -4  319.95   13.31
   6  -2  -4  406.38   13.67
   6  -2  -4  324.07   11.86
   6  -2  -4  359.12   32.08
  -6   2   3  362.37   11.54
  -6   2   3  316.95   10.81
  -6   2   3  331.52   13.02
  -6   2   3  357.53   14.00
  -6   2   3  339.84   10.96
  -6   2   3  393.51   30.49
   6  -2  -3  398.50   12.69
   6  -2  -3  309.93   11.14
   6  -2  -3  377.20   13.63
   6  -2  -3  333.77   13.31
   6  -2  -3  400.74   13.34
   6  -2  -3  337.38   11.72
   6  -2  -3  362.99   29.19
  -6   2   2  866.11   16.42
  -6   2   2  683.41   14.68
  -6   2   2  786.84   19.96
  -6   2   2  796.35   20.58
  -6   2   2  802.61   15.04
  -6   2   2  947.48   43.40
  -6   2   2  785.90   39.78
   6  -2  -2  862.75   17.43
   6  -2  -2  744.27   16.06
   6  -2  -2  878.73   21.05
   6  -2  -2  925.89   10.20
   6  -2  -2  737.04   19.53
   6  -2  -2  866.04   19.53
   6  -2  -2  759.82   14.79
  -6   2   1   34.83    3.22
  -6   2   1   27.05    2.71
  -6   2   1   37.18    5.64
  -6   2   1   24.63    4.27
  -6   2   1   25.39    2.39
  -6   2   1   24.92    8.39
   6  -2  -1   28.61    3.11
   6  -2  -1   28.71    3.15
   6  -2  -1   30.45    4.77
   6  -2  -1   37.65    4.59
   6  -2  -1   34.32    2.50
   6  -2  -1   14.79    2.75
   6  -2  -1   33.24    2.78
  -6   2   0  769.73   13.31
  -6   2   0   -0.11    0.51
  -6   2   0  745.68   19.93
  -6   2   0  748.40   20.11
  -6   2   0  849.87   36.74
  -6   2   0  643.16   31.83
   6  -2   0  664.60   13.63
   6  -2   0  716.46   14.21
   6  -2   0  832.98   21.01
   6  -2   0  753.49   19.85
   6  -2   0  783.26   20.36
   6  -2   0  846.62   13.56
   6  -2   0  746.55   19.85
   6  -2   0  704.93    9.98
  -6   2  -1 1158.14   15.48
  -6   2  -1  927.30   21.55
  -6   2  -1 1066.14   24.38
  -6   2  -1 1265.48   19.06
  -6   2  -1 1322.95   44.16
  -6   2  -1 1031.67   39.09
   6  -2   1  952.51   15.98
   6  -2   1 1001.04   16.46
   6  -2   1 1150.91   25.06
   6  -2   1 1067.04   24.09
   6  -2   1 1113.59   24.52
   6  -2   1 1119.59   24.77
  -6   2  -2    6.76    1.48
  -6   2  -2    6.26    1.37
  -6   2  -2    3.22    1.88
  -6   2  -2    5.21    1.77
  -6   2  -2   15.95    6.08
  -6   2  -2    9.91    5.68
   6  -2   2    3.69    1.41
   6  -2   2    8.28    1.99
   6  -2   2    6.00    2.71
   6  -2   2    3.22    2.03
   6  -2   2    9.51    2.97
   6  -2   2    6.80    1.99
  -6   2  -3   90.70    4.41
  -6   2  -3   88.24    4.34
  -6   2  -3   96.27    7.85
  -6   2  -3  108.31    6.91
  -6   2  -3   73.52   12.44
   6  -2   3   72.19    4.67
   6  -2   3   74.39    4.81
   6  -2   3   98.69    7.70
   6  -2   3   86.18    7.20
   6  -2   3   79.42   13.81
  -6   2  -4   25.35    2.60
  -6   2  -4   20.98    2.42
  -6   2  -4   26.29    5.50
  -6   2  -4   35.98    5.61
  -6   2  -4   25.57    8.03
   6  -2   4   19.75    3.25
   6  -2   4   22.78    3.47
   6  -2   4   21.37    4.30
   6  -2   4   18.81    4.01
   6  -2   4   22.57    4.81
   6  -2   4   30.23    8.57
  -6   2  -5  218.33    9.55
  -6   2  -5  245.09   12.15
  -6   2  -5  190.34   20.07
   6  -2   5  187.95    8.68
   6  -2   5  201.00    8.82
   6  -2   5  230.88   11.90
   6  -2   5  203.21   11.79
   6  -2   5  205.16   12.37
   6  -2   5  164.59   20.14
  -6   2  -6   50.59    4.30
  -6   2  -6  118.15    9.37
  -6   2  -6   90.38   18.23
   6  -2   6   89.18    6.37
   6  -2   6   88.68    6.80
   6  -2   6  100.83    8.06
   6  -2   6  106.04    8.79
   6  -2   6  110.19    9.76
  -6   2  -7    0.22    1.45
  -6   2  -7   16.31    4.27
  -6   2  -7    6.62   10.63
   6  -2   7   12.91    3.51
   6  -2   7   28.06    4.81
   6  -2   7   21.52    5.32
   6  -2   7   21.88    5.17
   6  -2   7   23.80    5.97
   6  -2   7   21.84   13.60
  -6   1  10   47.01    6.94
  -6   1  10   62.46    7.20
  -6   1  10   80.76    8.03
  -6   1  10   72.51   30.52
   6  -1 -10   62.53    9.22
   6  -1 -10   65.82    5.89
   6  -1 -10   47.38    7.96
   6  -1 -10   79.16   27.77
  -6   1   9   45.24    7.16
  -6   1   9   66.43    7.09
  -6   1   9   57.07    6.69
  -6   1   9   25.97   18.15
   6  -1  -9   51.90    8.06
   6  -1  -9   44.92    4.70
   6  -1  -9   64.41    5.03
   6  -1  -9   39.82    6.40
   6  -1  -9   46.76   23.72
  -6   1   8    0.43    1.08
  -6   1   8    0.43    2.42
  -6   1   8    1.27    1.63
  -6   1   8   24.74   13.42
   6  -1  -8    2.50    1.63
   6  -1  -8    6.37    2.53
   6  -1  -8    0.14    1.01
   6  -1  -8    6.69    3.33
   6  -1  -8   10.52   12.59
  -6   1   7   29.62    5.39
  -6   1   7   27.30    5.10
  -6   1   7   22.93    4.41
  -6   1   7   15.66   13.63
   6  -1  -7   37.72    6.58
   6  -1  -7   33.05    6.15
   6  -1  -7   32.95    5.03
   6  -1  -7   34.32    2.71
   6  -1  -7   41.81    5.14
   6  -1  -7   24.45    5.03
   6  -1  -7    8.25   11.75
  -6   1   6   18.30    3.65
  -6   1   6   11.50    3.11
  -6   1   6   17.94    3.80
   6  -1  -6   24.81    4.92
   6  -1  -6   20.18    4.30
   6  -1  -6   21.01    3.76
   6  -1  -6   26.54    4.88
   6  -1  -6   21.77    4.45
   6  -1  -6   24.41   10.38
  -6   1   5   72.15    6.15
  -6   1   5   66.51    5.89
  -6   1   5   73.70    6.58
  -6   1   5   84.73    6.98
  -6   1   5   69.26    5.79
  -6   1   5  106.43   20.61
   6  -1  -5   87.08    6.91
   6  -1  -5   81.23    6.47
   6  -1  -5   95.15    7.16
   6  -1  -5   81.26    6.15
   6  -1  -5   99.53   20.36
  -6   1   4  124.95    7.49
  -6   1   4  108.02    6.94
  -6   1   4  107.05    7.70
  -6   1   4  118.48    8.03
  -6   1   4  132.83    7.09
   6  -1  -4  135.94    8.03
   6  -1  -4  111.28    7.31
   6  -1  -4  117.72    7.92
   6  -1  -4  142.38    8.43
   6  -1  -4  108.64    6.47
  -6   1   3   27.63    4.12
  -6   1   3   27.77    3.40
  -6   1   3   37.54    5.89
  -6   1   3   23.94    4.23
  -6   1   3   28.61    3.07
  -6   1   3   45.64   13.67
  -6   1   3   27.56    9.40
   6  -1  -3   30.60    3.80
   6  -1  -3   31.28    3.76
   6  -1  -3   32.04    5.17
   6  -1  -3   31.50    5.21
   6  -1  -3   31.43    3.22
  -6   1   2  329.53   10.78
  -6   1   2  260.86    9.69
  -6   1   2  266.39   12.01
  -6   1   2  291.31   12.33
  -6   1   2  279.99    7.85
  -6   1   2  336.66   27.27
  -6   1   2  232.03   23.76
   6  -1  -2  259.45    9.95
   6  -1  -2  293.44   10.74
   6  -1  -2  309.90   13.02
   6  -1  -2  283.60   11.97
   6  -1  -2  334.71   12.80
   6  -1  -2  278.07    7.92
  -6   1   1   49.76    4.12
  -6   1   1   38.01    3.58
  -6   1   1   50.81    5.39
  -6   1   1   54.72    5.46
  -6   1   1   45.35    2.42
  -6   1   1   51.86   13.31
  -6   1   1   61.26   13.02
   6  -1  -1   42.31    3.98
   6  -1  -1   46.04    4.12
   6  -1  -1   53.09    5.42
   6  -1  -1   45.24    4.92
  -6   1   0   40.11    3.65
  -6   1   0   35.26    3.33
  -6   1   0   32.84    5.28
  -6   1   0   38.15    2.82
  -6   1   0   34.68    9.22
  -6   1   0   41.63   10.74
   6  -1   0   29.69    3.40
   6  -1   0   37.47    3.76
   6  -1   0   36.42    5.61
   6  -1   0   42.49    4.99
   6  -1   0   43.11    4.92
  -6   1  -1   37.21    3.54
  -6   1  -1   30.52    3.22
  -6   1  -1   44.74    5.10
  -6   1  -1   41.26    3.54
  -6   1  -1   30.74    9.95
  -6   1  -1   28.10    8.97
   6  -1   1   33.09    3.58
   6  -1   1   33.78    3.51
   6  -1   1   30.49    5.03
   6  -1   1   42.42    5.06
   6  -1   1   25.64    4.05
  -6   1  -2   61.91    4.41
  -6   1  -2   56.60    4.23
  -6   1  -2   68.57    6.58
  -6   1  -2   71.28    5.14
  -6   1  -2   36.92   10.92
   6  -1   2   44.12    4.12
   6  -1   2   46.87    4.27
   6  -1   2   62.78    6.29
  -6   1  -3   54.61    4.27
  -6   1  -3   56.02    4.45
  -6   1  -3   56.20    6.26
  -6   1  -3   62.38    5.46
  -6   1  -3   41.41   10.49
   6  -1   3   47.99    4.67
   6  -1   3   50.74    4.52
   6  -1   3   60.61    6.51
   6  -1   3   55.37    6.11
  -6   1  -4  118.73    6.62
  -6   1  -4  121.73    6.65
  -6   1  -4  125.67    9.84
  -6   1  -4  152.98    9.11
  -6   1  -4   94.35   17.61
   6  -1   4   90.23    6.40
   6  -1   4  112.44    7.09
   6  -1   4  130.41    8.97
   6  -1   4  144.15   10.05
  -6   1  -5   70.27    5.57
  -6   1  -5   95.91    7.81
  -6   1  -5   96.45   20.32
   6  -1   5   75.95    6.00
   6  -1   5   89.76    7.63
   6  -1   5   78.84    7.88
   6  -1   5   72.44    7.88
   6  -1   5   45.78   13.89
  -6   1  -6    9.22    2.89
  -6   1  -6   19.57    4.45
  -6   1  -6   21.16   12.98
   6  -1   6    6.73    2.71
   6  -1   6   11.14    3.15
   6  -1   6   11.46    3.62
   6  -1   6   10.05    3.76
   6  -1   6   11.32    4.05
   6  -1   6   -5.93   12.22
  -6   1  -7   39.89    5.79
  -6   1  -7   30.23    5.50
   6  -1   7   25.50    5.28
   6  -1   7   44.59    5.39
   6  -1   7   30.23    6.26
   6  -1   7   32.51    6.04
   6   0 -11    0.00    2.64
  -6   0  10    6.00    3.33
  -6   0  10   13.89    3.87
  -6   0  10    6.11    2.82
  -6   0  10   20.69   17.36
   6   0 -10    7.09    3.00
   6   0 -10    4.16    2.53
   6   0 -10    9.58    2.50
   6   0 -10   -3.62   12.01
  -6   0   9  153.01   11.07
  -6   0   9  191.85   11.43
  -6   0   9  192.54   12.19
  -6   0   9  225.38   40.61
   6   0  -9  180.82   12.19
   6   0  -9  192.32    9.33
   6   0  -9  197.39    7.56
   6   0  -9  175.11   33.45
  -6   0   8   67.81    7.12
  -6   0   8   78.01    7.23
  -6   0   8   92.37    8.61
  -6   0   8  109.07   25.93
   6   0  -8   74.07    7.67
   6   0  -8   74.68    7.78
   6   0  -8   88.60    4.23
   6   0  -8  106.72   28.64
  -6   0   7  135.26    9.40
  -6   0   7  147.62    9.33
  -6   0   7  144.30    9.15
  -6   0   7  123.39   26.94
   6   0  -7  170.23   10.70
   6   0  -7  118.87    9.08
   6   0  -7  172.00   10.63
   6   0  -7  144.04   27.52
  -6   0   6  107.99    8.03
  -6   0   6  112.69    8.03
  -6   0   6  112.94    7.56
  -6   0   6   83.18   20.07
   6   0  -6  116.99    8.53
   6   0  -6  109.47    8.10
   6   0  -6  126.90    8.79
   6   0  -6  108.35   22.96
  -6   0   5    7.63    2.71
  -6   0   5    7.41    2.89
  -6   0   5    7.49    2.31
  -6   0   5   13.06    2.82
  -6   0   5    5.71    7.67
  -6   0   5   13.49    8.35
   6   0  -5   10.05    2.68
   6   0  -5   10.34    3.18
   6   0  -5    8.68    2.97
   6   0  -5   13.45    3.58
  -6   0   4  418.03   14.07
  -6   0   4  350.11   13.02
  -6   0   4  411.81   15.55
  -6   0   4  393.55   14.29
  -6   0   4  373.80   11.25
  -6   0   4  414.92   35.12
  -6   0   4  432.97   35.22
   6   0  -4  404.97   14.32
   6   0  -4  343.20   13.06
   6   0  -4  383.35   13.96
   6   0  -4  436.91   15.44
  -6   0   3   54.68    5.03
  -6   0   3   49.87    4.77
  -6   0   3   59.45    5.93
  -6   0   3   53.81    5.32
  -6   0   3   57.25    3.91
  -6   0   3   48.61   12.40
   6   0  -3   57.65    5.24
   6   0  -3   65.57    5.57
   6   0  -3   64.16    6.11
   6   0  -3   56.85    5.32
   6   0  -3   64.34    6.04
  -6   0   2  438.28   13.38
  -6   0   2  345.59   11.97
  -6   0   2  396.80   15.08
  -6   0   2  415.39   14.68
  -6   0   2  408.74    8.35
  -6   0   2  453.18   34.28
  -6   0   2  438.03   33.31
   6   0  -2  384.18   12.95
   6   0  -2  403.31   13.42
   6   0  -2  437.09   15.73
   6   0  -2  412.97   14.50
   6   0  -2  477.27   16.09
  -6   0   1   38.05    3.91
  -6   0   1   34.97    3.80
  -6   0   1   22.89    4.05
  -6   0   1   38.12    2.13
  -6   0   1   37.14   11.43
  -6   0   1   42.17   12.30
   6   0  -1   25.46    3.98
   6   0  -1   33.67    5.06
   6   0  -1   29.91    5.35
   6   0  -1   29.26    5.03
  -6   0   0  275.21   10.31
  -6   0   0  235.69    9.62
  -6   0   0  258.40   12.40
  -6   0   0  294.96    8.06
  -6   0   0  314.09   28.03
  -6   0   0  300.13   26.51
   6   0   0  216.70    9.48
   6   0   0  242.23   10.23
   6   0   0  247.37   12.15
   6   0   0  246.75   11.68
  -6   0  -1    4.74    1.81
  -6   0  -1    5.61    1.92
  -6   0  -1    9.84    3.33
  -6   0  -1    5.68    1.92
  -6   0  -1    7.70    7.99
   6   0   1    4.30    1.81
   6   0   1   10.16    2.64
   6   0   1    7.88    2.89
   6   0   1    5.32    2.03
   6   0   1   10.02    7.45
  -6   0  -2   16.60    3.22
  -6   0  -2    4.01    1.77
  -6   0  -2    7.12    2.89
  -6   0  -2   10.67    2.57
  -6   0  -2   34.21   12.19
   6   0   2   10.60    2.75
   6   0   2   10.96    2.68
   6   0   2   -1.27    1.16
   6   0   2    9.19    3.04
   6   0   2    0.47    1.27
  -6   0  -3  122.71    7.45
  -6   0  -3  151.71   11.46
  -6   0  -3  169.11    9.01
  -6   0  -3  101.33   21.01
   6   0   3  110.41    7.49
   6   0   3  130.99    8.25
   6   0   3  148.75   10.74
  -6   0  -4   29.76    4.67
  -6   0  -4   24.19    5.68
  -6   0  -4   32.69    5.39
  -6   0  -4    4.63   10.85
   6   0   4   31.10    5.17
   6   0   4   20.98    4.30
   6   0   4   28.14    5.71
   6   0   4   19.06   10.78
  -6   0  -5   69.83    6.26
  -6   0  -5   54.65   16.74
   6   0   5   48.89    5.93
   6   0   5   79.24    7.09
   6   0   5   64.16    7.45
   6   0   5   93.85    9.15
   6   0   5  101.98   22.42
  -6   0  -6   18.84    4.27
  -6   0  -6   27.34    5.21
   6   0   6   16.60    4.59
   6   0   6   15.08    3.98
   6   0   6   18.05    4.74
   6   0   6   21.37    5.71
  -6  -1  11   -3.72    1.56
  -6  -1  11    1.52    2.24
  -6  -1  11    1.70    1.70
  -6  -1  11  -11.54   25.17
   6   1 -11    0.40    2.10
   6   1 -11   -0.33    2.53
   6   1 -11    1.30    1.70
   6   1 -11   97.54   31.07
  -6  -1  10   -0.04    1.45
  -6  -1  10    3.72    1.95
  -6  -1  10    4.63    2.28
  -6  -1  10    6.37   21.08
   6   1 -10    0.14    1.84
   6   1 -10    3.62    1.37
   6   1 -10  -38.12   13.49
  -6  -1   9    1.16    2.03
  -6  -1   9    0.47    1.88
  -6  -1   9    1.56    1.77
  -6  -1   9   -3.00   11.50
   6   1  -9    0.11    1.45
   6   1  -9    1.84    0.90
   6   1  -9  -12.48   16.13
  -6  -1   8   24.38    4.41
  -6  -1   8   40.76    6.69
  -6  -1   8   63.22   18.37
   6   1  -8   53.67    6.47
   6   1  -8   36.89    6.33
   6   1  -8   65.49   22.78
  -6  -1   7   48.03    5.86
  -6  -1   7   43.47    5.03
  -6  -1   7   56.02    6.80
  -6  -1   7   59.53   18.73
   6   1  -7   59.78    6.47
   6   1  -7   50.63    5.89
  -6  -1   6    8.06    2.60
  -6  -1   6   10.31    2.93
  -6  -1   6    1.81    1.66
  -6  -1   6   -5.42   11.65
  -6  -1   6    2.53    6.15
   6   1  -6    7.59    2.97
   6   1  -6    6.11    2.93
   6   1  -6    5.50    2.78
  -6  -1   5    0.80    1.01
  -6  -1   5    1.27    1.30
  -6  -1   5    0.98    1.52
  -6  -1   5    2.39    1.37
  -6  -1   5   -5.21    6.76
   6   1  -5    3.00    1.88
   6   1  -5    6.98    2.68
   6   1  -5    1.34    1.08
   6   1  -5    5.24    2.17
  -6  -1   4  135.76    8.68
  -6  -1   4  123.32    8.75
  -6  -1   4  126.50    8.03
  -6  -1   4  119.27    6.26
  -6  -1   4  126.07   25.57
  -6  -1   4  124.23   23.15
   6   1  -4  110.85    7.85
   6   1  -4  121.59    8.21
   6   1  -4  130.16    8.79
   6   1  -4  134.64    8.17
   6   1  -4  133.56    9.04
  -6  -1   3    7.05    2.21
  -6  -1   3    7.09    2.24
  -6  -1   3    7.05    2.57
  -6  -1   3    6.08    1.56
  -6  -1   3   -2.21    5.50
  -6  -1   3   -9.40    6.84
   6   1  -3    5.82    2.03
   6   1  -3    3.62    2.28
   6   1  -3    4.23    2.35
   6   1  -3    9.91    3.04
   6   1  -3    4.38    1.77
  -6  -1   2  167.23   11.97
  -6  -1   2  142.31    8.35
  -6  -1   2  159.96    9.84
  -6  -1   2  164.44    4.77
  -6  -1   2  180.35   22.10
   6   1  -2  141.22    8.35
   6   1  -2  172.51    9.40
   6   1  -2  199.49   10.92
   6   1  -2  176.30    9.58
   6   1  -2  174.71   10.27
  -6  -1   1   82.20    6.29
  -6  -1   1   58.66    5.50
  -6  -1   1   52.76    5.89
  -6  -1   1   81.26    3.69
  -6  -1   1    6.94    6.26
  -6  -1   1   79.96   17.29
   6   1  -1   57.97    6.47
   6   1  -1   73.05    6.08
   6   1  -1   74.75    6.80
   6   1  -1   69.44    6.15
  -6  -1   0   23.43    3.91
  -6  -1   0   19.06    4.12
  -6  -1   0   16.24    3.98
  -6  -1   0   26.00    2.78
  -6  -1   0    5.42    8.82
   6   1   0   18.48    3.69
   6   1   0   24.09    4.99
   6   1   0   23.15    5.03
   6   1   0    3.83    6.91
  -6  -1  -1    1.19    1.01
  -6  -1  -1   -1.88    0.98
  -6  -1  -1    0.18    1.08
  -6  -1  -1    2.24    1.34
  -6  -1  -1   -2.24    7.12
   6   1   1    3.98    1.70
   6   1   1   -1.30    0.87
   6   1   1   -1.56    1.19
   6   1   1    1.63    1.08
  -6  -1  -2  219.27   10.78
  -6  -1  -2  242.38   12.95
  -6  -1  -2  301.98   11.72
  -6  -1  -2  269.97   30.70
   6   1   2  224.48   11.21
   6   1   2  247.73   11.97
   6   1   2  250.12   16.09
   6   1   2    2.97    7.85
  -6  -1  -3   47.16    5.42
  -6  -1  -3   49.33    7.67
  -6  -1  -3   57.79    5.79
  -6  -1  -3   41.01   15.26
   6   1   3   36.09    5.89
   6   1   3   50.31    5.57
   6   1   3   49.55    7.88
   6   1   3   30.92   13.06
  -6  -1  -4   19.46    4.45
  -6  -1  -4   21.01    4.92
  -6  -1  -4   31.54    5.35
  -6  -1  -4   10.31   14.00
   6   1   4   31.83    5.50
   6   1   4   18.34    4.23
   6   1   4   21.81    5.53
   6   1   4   -7.27   11.57
  -6  -1  -5    6.94    4.34
  -6  -1  -5    7.99    3.18
  -6  -1  -5   32.62   20.32
   6   1   5    8.10    3.15
   6   1   5    8.25    3.29
   6   1   5    8.50    3.54
   6   1   5    3.76    2.89
   6   1   5  -13.45   13.60
  -6  -2  11   21.95    5.42
  -6  -2  11   27.27    5.06
  -6  -2  11   37.79    6.98
  -6  -2  11   11.39   30.38
   6   2 -11   30.99    7.02
   6   2 -11   -1.63   21.74
  -6  -2  10    6.26    2.35
  -6  -2  10   24.12    5.39
  -6  -2  10   18.08    4.45
  -6  -2  10   -8.06   14.57
   6   2 -10   16.53    4.99
  -6  -2   9  167.01    9.73
  -6  -2   9  198.76   37.11
  -6  -2   9  137.64   35.59
   6   2  -9  163.68   11.65
  -6  -2   8   86.22    8.03
  -6  -2   8  114.03    7.74
  -6  -2   8   -0.18    2.64
  -6  -2   8  129.25   29.26
  -6  -2   8  107.26   23.72
   6   2  -8  117.14    9.58
   6   2  -8  100.83   11.65
  -6  -2   7    1.08    1.56
  -6  -2   7   -1.12    1.12
  -6  -2   7   -0.58    1.52
  -6  -2   7   -8.46   11.50
  -6  -2   7   -5.06    5.82
   6   2  -7    1.27    1.37
   6   2  -7    1.77    2.10
  -6  -2   6    6.55    2.60
  -6  -2   6    4.95    2.93
  -6  -2   6    9.01    2.86
  -6  -2   6    8.35    2.31
  -6  -2   6    0.69    9.29
  -6  -2   6   24.45   12.33
   6   2  -6    6.22    2.57
   6   2  -6    7.12    2.42
   6   2  -6    5.03    1.81
  -6  -2   5   20.43    4.09
  -6  -2   5   20.43    4.92
  -6  -2   5   21.88    3.94
  -6  -2   5   20.76    3.58
  -6  -2   5   11.93   10.99
  -6  -2   5   17.50   10.09
   6   2  -5   11.90    3.47
   6   2  -5   18.95    3.98
   6   2  -5   22.46    4.34
   6   2  -5   22.49    4.38
  -6  -2   4   27.56    5.03
  -6  -2   4   18.23    4.52
  -6  -2   4   31.03    3.33
  -6  -2   4   18.26   13.20
  -6  -2   4   44.19   16.17
   6   2  -4   23.51    4.74
   6   2  -4   13.38    3.07
   6   2  -4   32.26    5.24
   6   2  -4   32.91    5.21
  -6  -2   3   63.58    6.11
  -6  -2   3   62.53    6.47
  -6  -2   3   69.22    4.12
  -6  -2   3   83.25   20.54
  -6  -2   3   79.09   19.17
   6   2  -3   68.97    6.55
   6   2  -3   64.23    6.22
   6   2  -3   87.92    7.34
   6   2  -3   79.63    6.37
  -6  -2   2  187.15   10.27
  -6  -2   2  205.56   11.61
  -6  -2   2  254.53    5.61
  -6  -2   2  209.21    5.39
  -6  -2   2  256.95   30.05
  -6  -2   2  228.85   28.10
   6   2  -2  202.85   10.81
   6   2  -2  201.76   10.96
   6   2  -2  207.33   11.54
   6   2  -2  211.46   10.60
  -6  -2   1   46.44    5.28
  -6  -2   1   53.27    5.89
  -6  -2   1   57.94    3.72
  -6  -2   1   36.85   16.82
   6   2  -1   50.85    5.68
   6   2  -1   53.85    5.86
   6   2  -1   51.57    5.75
   6   2  -1   44.81    5.32
  -6  -2   0  223.50   11.83
  -6  -2   0  237.39   12.59
  -6  -2   0  281.98    9.66
  -6  -2   0  195.25   31.46
   6   2   0  201.26   10.92
   6   2   0  212.29   11.50
   6   2   0  246.68   13.31
   6   2   0   81.08    7.23
  -6  -2  -1   22.53    4.52
  -6  -2  -1   22.28    4.70
  -6  -2  -1   30.92    3.87
  -6  -2  -1   41.16   15.08
   6   2   1   27.56    5.14
   6   2   1   16.46    4.01
   6   2   1   29.66    5.86
   6   2   1    1.70    9.44
  -6  -2  -2   94.25    7.78
  -6  -2  -2   84.41    7.85
  -6  -2  -2  112.15    7.70
  -6  -2  -2   77.65   23.22
   6   2   2   69.00    7.02
   6   2   2   70.16    7.16
   6   2   2   84.95    8.28
   6   2   2   78.15   20.11
  -6  -2  -3   50.67    6.29
  -6  -2  -3   54.72    7.70
  -6  -2  -3   62.57    6.18
  -6  -2  -3   31.68   15.59
   6   2   3   42.42    6.91
   6   2   3   46.25    7.16
   6   2   3   50.41    8.79
   6   2   3  -15.59   12.26
  -6  -2  -4  294.13   14.76
  -6  -2  -4  353.01   16.78
  -6  -2  -4  433.58   17.54
  -6  -2  -4  388.37   42.75
   6   2   4  266.17   14.57
   6   2   4  312.86   15.70
   6   2   4  353.26   18.41
   6   2   4  379.80   18.84
   6   2   4  345.27   40.54
  -6  -3  10   48.82    8.32
  -6  -3  10   45.24    5.35
  -6  -3  10   36.31   20.25
  -6  -3  10   29.26   24.45
   6   3 -10   37.47    7.12
  -6  -3   9    5.89    2.68
  -6  -3   9    7.38    2.50
  -6  -3   9    5.71   10.99
  -6  -3   9   -0.58    8.79
   6   3  -9    4.77    2.97
  -6  -3   8   52.55    6.26
  -6  -3   8   38.12    4.34
  -6  -3   8   75.95   23.22
  -6  -3   8   38.08   17.58
   6   3  -8   48.75    5.57
  -6  -3   7   61.05    8.72
  -6  -3   7   61.08    5.39
  -6  -3   7   56.74    7.05
  -6  -3   7  108.02   25.03
  -6  -3   7   34.65   17.40
   6   3  -7   45.78    6.55
   6   3  -7   53.78    6.55
   6   3  -7   54.68    6.00
  -6  -3   6    5.68    2.28
  -6  -3   6    2.21    1.95
  -6  -3   6    8.46    2.46
  -6  -3   6    5.39    9.69
  -6  -3   6  -10.96    6.26
   6   3  -6    6.22    2.17
   6   3  -6   -1.59    1.12
   6   3  -6    2.53    1.66
   6   3  -6    3.98    1.77
  -6  -3   5   15.37    3.69
  -6  -3   5   23.72    5.35
  -6  -3   5   22.31    3.83
  -6  -3   5   39.96   15.41
  -6  -3   5    6.15   11.10
   6   3  -5   27.16    8.43
   6   3  -5   24.59    5.10
   6   3  -5   19.64    3.91
  -6  -3   4    4.88    2.31
  -6  -3   4    5.53    2.57
  -6  -3   4    9.66    2.13
  -6  -3   4    9.37    9.19
  -6  -3   4   -8.43    7.52
   6   3  -4    4.77    2.35
   6   3  -4    8.03    3.22
   6   3  -4    9.62    2.75
   6   3  -4    4.95    1.95
  -6  -3   3  127.73    9.26
  -6  -3   3  153.56   10.31
  -6  -3   3  147.05    6.15
  -6  -3   3  138.62   29.73
   6   3  -3  145.17    9.91
   6   3  -3  162.96   15.95
   6   3  -3  163.94   10.45
   6   3  -3  160.57    9.08
  -6  -3   2    7.63    3.07
  -6  -3   2   15.77    4.23
  -6  -3   2   12.73    2.28
  -6  -3   2    9.98    1.63
  -6  -3   2    6.40   12.59
   6   3  -2    8.28    3.07
   6   3  -2   10.81    3.54
   6   3  -2    8.46    3.04
   6   3  -2   11.65    2.82
  -6  -3   1    7.56    2.68
  -6  -3   1   16.89    4.34
  -6  -3   1   13.20    2.71
  -6  -3   1    5.79   11.50
   6   3  -1    9.84    3.29
   6   3  -1    9.11    2.97
   6   3  -1    3.36    1.92
   6   3  -1    8.68    2.60
  -6  -3   0   86.51    7.70
  -6  -3   0   81.19    8.53
  -6  -3   0  110.66    6.80
  -6  -3   0  106.87   27.16
   6   3   0   83.83    7.85
   6   3   0   99.20    8.50
   6   3   0  115.91    9.58
   6   3   0   68.71   22.24
  -6  -3  -1   26.65    5.61
  -6  -3  -1   24.48    4.95
  -6  -3  -1   28.06    4.59
  -6  -3  -1   44.95   16.31
   6   3   1   25.03    5.35
   6   3   1   20.58    5.39
   6   3   1   22.24    5.32
   6   3   1   -1.23   13.34
  -6  -3  -2  184.98   12.01
  -6  -3  -2  247.44   13.63
  -6  -3  -2  243.21   12.08
  -6  -3  -2  215.04   37.11
   6   3   2  186.90   11.90
   6   3   2  214.02   13.20
   6   3   2  217.39   13.96
   6   3   2  212.72   36.78
  -6  -3  -3    3.29    2.46
  -6  -3  -3    4.12    2.42
  -6  -3  -3    4.34    2.97
  -6  -3  -3   -5.53   18.12
   6   3   3    1.30    3.87
   6   3   3   -1.52    2.10
   6   3   3   10.60    3.36
   6   3   3   13.67   17.18
  -6  -4  10   26.47    6.04
  -6  -4  10   32.66    4.77
  -6  -4  10   53.13   27.99
  -6  -4  10   10.16   23.36
   6   4 -10   40.47    7.59
   6   4 -10   38.77    6.44
  -6  -4   9   65.46    7.52
  -6  -4   9   58.26    5.24
  -6  -4   9   82.35   48.35
  -6  -4   9   91.46   30.02
   6   4  -9   56.67    8.39
   6   4  -9   75.84    6.91
  -6  -4   8   -2.60    2.03
  -6  -4   8    9.19   18.70
  -6  -4   8  -22.24   11.36
   6   4  -8    0.98    1.99
   6   4  -8    1.63    1.52
  -6  -4   7   41.08    6.91
  -6  -4   7   43.18    6.65
  -6  -4   7   43.90    6.18
  -6  -4   7   54.83   21.45
  -6  -4   7   33.20   17.11
   6   4  -7   49.11    8.32
   6   4  -7   48.32    5.71
  -6  -4   6  102.74    9.11
  -6  -4   6  115.84    9.48
  -6  -4   6  113.09    7.70
  -6  -4   6  132.58   31.54
  -6  -4   6  118.22   25.82
   6   4  -6  118.44    9.76
   6   4  -6  129.98    9.22
   6   4  -6  102.20    6.91
  -6  -4   5  132.29   10.23
  -6  -4   5  143.54   10.42
  -6  -4   5  125.06    7.49
  -6  -4   5  195.58   35.59
  -6  -4   5  150.16   29.19
   6   4  -5  109.25    9.62
   6   4  -5  131.53   10.13
   6   4  -5  132.15    9.29
   6   4  -5  143.72    8.17
  -6  -4   4  162.85   10.96
  -6  -4   4  146.54   10.56
  -6  -4   4  164.15    7.78
  -6  -4   4  186.43   35.33
  -6  -4   4  147.26   29.00
   6   4  -4  166.32   11.32
   6   4  -4  164.80   11.36
   6   4  -4  185.81   11.28
   6   4  -4  173.88    9.33
  -6  -4   3   62.20    6.76
  -6  -4   3   74.83    7.45
  -6  -4   3   67.52    4.59
  -6  -4   3   42.35   18.55
  -6  -4   3   76.16   20.61
   6   4  -3   61.05    6.69
   6   4  -3   60.94    7.09
   6   4  -3   52.29    8.86
   6   4  -3   62.53    6.00
  -6  -4   2  127.81    9.95
  -6  -4   2  158.37   10.67
  -6  -4   2  149.00    5.68
  -6  -4   2  147.12    5.71
  -6  -4   2  127.55   29.26
   6   4  -2  129.98   10.16
   6   4  -2  141.22   10.63
   6   4  -2  143.79   10.42
   6   4  -2  149.58    9.48
  -6  -4   1   51.10    6.22
  -6  -4   1   52.91    6.51
  -6  -4   1   66.72    5.32
  -6  -4   1   81.05   21.19
   6   4  -1   35.22    5.75
   6   4  -1   37.03    6.04
   6   4  -1   66.25    7.27
   6   4  -1   64.19   21.55
  -6  -4   0  142.78   10.74
  -6  -4   0  173.41   11.43
  -6  -4   0  185.13    9.66
  -6  -4   0  145.56   29.58
   6   4   0  133.59   10.60
   6   4   0  163.79   11.79
   6   4   0  182.05   12.30
   6   4   0  150.81   33.20
  -6  -4  -1   62.71    7.45
  -6  -4  -1   73.34    7.85
  -6  -4  -1   86.51    7.02
  -6  -4  -1   48.61   17.14
   6   4   1   90.23    9.01
   6   4   1   91.24    9.29
   6   4   1   23.36   21.26
  -6  -4  -2   21.74    5.79
  -6  -4  -2    8.43    2.89
  -6  -4  -2   15.48    4.34
   6   4   2   25.86    5.79
   6   4   2   12.19    4.45
   6   4   2   26.87   21.95
  -6  -5   9   13.81    4.01
  -6  -5   9   38.73   25.86
  -6  -5   9   -0.22   20.00
   6   5  -9   27.38    6.76
   6   5  -9   29.80    6.55
  -6  -5   8  176.45   13.02
  -6  -5   8  194.46   13.34
  -6  -5   8  261.11   45.39
  -6  -5   8  162.52   37.54
   6   5  -8  176.45   13.09
   6   5  -8  184.26   10.96
  -6  -5   7   67.09    7.99
  -6  -5   7  105.02    9.37
  -6  -5   7   75.37   27.20
  -6  -5   7  151.06   33.81
   6   5  -7   80.61    8.64
   6   5  -7   81.66    7.31
  -6  -5   6  166.79   12.33
  -6  -5   6  193.77   12.77
  -6  -5   6  162.20   11.39
  -6  -5   6  179.34   37.79
  -6  -5   6  187.77   37.54
   6   5  -6  164.69   12.12
   6   5  -6  191.67   17.54
   6   5  -6  187.70    8.97
  -6  -5   5    9.69    3.22
  -6  -5   5    8.21    3.11
  -6  -5   5   15.15    2.13
  -6  -5   5    7.02    3.07
  -6  -5   5   15.08   17.90
  -6  -5   5   21.92   16.49
   6   5  -5   13.96    4.05
   6   5  -5    5.75    2.21
   6   5  -5    7.85    2.78
  -6  -5   4   25.32    5.28
  -6  -5   4   26.33    3.07
  -6  -5   4   26.80    4.05
  -6  -5   4   25.42    4.09
  -6  -5   4   22.02   18.70
  -6  -5   4   22.86   17.68
   6   5  -4   21.99    5.21
   6   5  -4   21.95    4.88
   6   5  -4   20.65    4.01
  -6  -5   3   40.65    8.03
  -6  -5   3   66.87    7.12
  -6  -5   3   56.49    4.92
  -6  -5   3   52.01    4.63
  -6  -5   3   79.09   25.42
  -6  -5   3   64.12   25.75
   6   5  -3   48.68    7.41
   6   5  -3   69.91    7.34
   6   5  -3   57.72    8.28
  -6  -5   2   17.29    5.39
  -6  -5   2   36.13    6.47
  -6  -5   2   31.64    3.29
  -6  -5   2   29.44    3.11
  -6  -5   2   23.72   18.44
   6   5  -2   30.41    6.29
   6   5  -2   17.50    4.81
   6   5  -2   52.66   22.31
  -6  -5   1   21.19    6.69
  -6  -5   1   23.22    4.99
  -6  -5   1  -42.89   18.52
   6   5  -1    9.04    3.25
   6   5  -1   17.14    4.77
  -6  -5   0   23.33    5.24
  -6  -5   0   12.84    3.87
  -6  -5   0   19.71   20.79
   6   5   0   10.56    4.05
   6   5   0   21.01    5.10
   6   5   0   50.49   24.30
  -6  -6   7   47.63    8.43
  -6  -6   7   60.76    7.45
  -6  -6   7   25.50   18.77
  -6  -6   7   99.45   29.47
   6   6  -7   77.57    9.08
   6   6  -7   59.64    6.73
  -6  -6   6    4.59    2.82
  -6  -6   6    4.99    2.78
  -6  -6   6    4.99    2.03
  -6  -6   6   -1.01    3.36
  -6  -6   6   68.42   27.74
  -6  -6   6   30.02   23.33
   6   6  -6    6.04    3.00
   6   6  -6    4.81    2.39
   6   6  -6    0.43    2.03
  -6  -6   5   18.30    4.63
  -6  -6   5   36.24    6.73
  -6  -6   5   27.59    3.98
  -6  -6   5   26.51    4.85
  -6  -6   5   22.75    5.10
  -6  -6   5   -0.11   23.36
  -6  -6   5   -1.92   12.30
   6   6  -5   17.65    4.70
   6   6  -5   27.92    5.42
   6   6  -5   34.47    4.88
  -6  -6   4    5.42    2.86
  -6  -6   4    5.03    2.93
  -6  -6   4    5.32    2.35
  -6  -6   4   10.85    3.33
  -6  -6   4    3.58    3.00
  -6  -6   4   34.10   19.89
  -6  -6   4    2.42   13.06
   6   6  -4   21.01    5.03
   6   6  -4   17.58    4.01
   6   6  -4    8.79    2.97
  -7  10  -2    0.69    2.68
  -7  10  -2   -4.09    1.41
   7 -10   2    3.15    1.16
   7 -10   2    3.33    1.56
   7 -10   2    4.95    2.28
  -7  10  -3   53.09    9.55
  -7  10  -3   38.88    6.33
   7 -10   3   46.47    5.53
   7 -10   3   40.76    5.86
   7 -10   3   39.09    6.62
  -7   9   2   56.53    5.71
  -7   9   2   64.12    7.34
  -7   9   2   63.11    7.41
  -7   9   2   73.09   22.64
   7  -9  -2   73.88    6.65
   7  -9  -2   40.00    6.18
   7  -9  -2   44.37    7.41
   7  -9  -2   22.17   19.71
  -7   9   1    1.23    1.77
  -7   9   1    2.86    2.17
  -7   9   1   -0.33    1.59
   7  -9  -1    3.11    1.88
   7  -9  -1   -4.09    1.88
   7  -9  -1   -2.06    1.84
   7  -9  -1   15.80   16.74
  -7   9   0   65.35    7.67
  -7   9   0   83.47    8.17
  -7   9   0   40.94   14.32
   7  -9   0   63.04    5.14
   7  -9   0   62.31    5.17
   7  -9   0   81.88    8.43
   7  -9   0   89.11   16.42
  -7   9  -1   11.72    4.09
  -7   9  -1    8.86    2.60
  -7   9  -1    7.78    5.89
   7  -9   1    8.39    1.99
   7  -9   1    9.29    2.21
   7  -9   1   12.48    4.05
   7  -9   1    1.12    6.55
  -7   9  -2   72.51    8.50
  -7   9  -2   65.10    6.91
   7  -9   2   67.56    5.93
   7  -9   2   65.71    6.44
   7  -9   2   68.06    7.34
  -7   9  -3   65.75   10.42
  -7   9  -3   57.57    6.65
   7  -9   3   43.33    5.14
   7  -9   3   56.13    5.71
   7  -9   3   54.83    6.51
  -7   9  -4   32.11    6.87
   7  -9   4   16.17    6.33
   7  -9   4   31.39    5.06
   7  -9   4   21.26    3.18
   7  -9   4   18.08    4.27
  -7   9  -5    4.59    2.28
   7  -9   5    4.95    1.84
   7  -9   5    9.37    2.42
   7  -9   5    6.65    3.11
   7  -9   6  124.66    7.31
   7  -9   6  129.98    8.25
   7  -9   6  123.76    9.51
  -7   8   4   23.07    4.88
  -7   8   4   27.88    3.40
  -7   8   4   27.81    6.04
  -7   8   4   -0.72   18.66
   7  -8  -4   25.53    5.06
   7  -8  -4    9.80    4.34
   7  -8  -4   31.28    6.44
   7  -8  -4   31.17   20.94
  -7   8   3    6.47    2.64
  -7   8   3    4.09    1.74
  -7   8   3    2.68    2.42
  -7   8   3   14.21   13.13
   7  -8  -3    1.92    1.84
   7  -8  -3    0.80    2.82
   7  -8  -3    1.84    2.78
   7  -8  -3   -5.32   11.97
  -7   8   2   45.71    4.63
  -7   8   2   46.47    4.41
  -7   8   2   54.36    8.61
  -7   8   2   55.44   16.82
   7  -8  -2   56.02    5.35
   7  -8  -2   49.76    5.61
   7  -8  -2   66.36    7.38
   7  -8  -2   40.03   16.89
  -7   8   1    2.53    1.52
  -7   8   1   -0.69    1.27
  -7   8   1    1.66    1.48
  -7   8   1   12.15   10.99
   7  -8  -1    4.27    2.39
   7  -8  -1    1.52    1.41
   7  -8  -1    1.08    1.77
   7  -8  -1   28.50   11.86
  -7   8   0    1.92    2.13
  -7   8   0    0.90    1.81
  -7   8   0   -8.46    7.20
   7  -8   0    0.33    1.27
   7  -8   0   -0.90    1.84
   7  -8   0   -1.77    7.20
  -7   8  -1   -1.74    1.41
  -7   8  -1   -2.46    1.92
   7  -8   1    3.00    1.01
   7  -8   1   -1.30    0.90
  -7   8  -2  115.87   10.09
  -7   8  -2  111.75    8.68
   7  -8   2  110.92    7.81
   7  -8   2  122.49    5.42
   7  -8   2  120.36    5.28
   7  -8   2  110.88    8.57
  -7   8  -3   13.16    4.01
   7  -8   3   13.20    4.05
   7  -8   3   14.79    3.54
   7  -8   3   16.53    2.89
   7  -8   3   14.57    3.94
   7  -8   4  124.84    8.03
   7  -8   4  116.02    7.12
   7  -8   4  122.85    8.75
   7  -8   5  131.57    8.03
   7  -8   5  100.83    7.31
   7  -8   5  104.05    8.03
   7  -8   6   82.56    6.51
   7  -8   6  111.86    8.21
   7  -8   6  101.66    7.96
   7  -8   7    2.35    1.77
   7  -8   7    0.18    1.88
   7  -8   7    5.14    3.15
  -7   7   5    6.47    2.31
  -7   7   5    0.76    2.82
  -7   7   5    9.44   15.98
   7  -7  -5    5.35    2.39
   7  -7  -5    1.45    3.18
   7  -7  -5    6.29    3.07
   7  -7  -5   -9.04   16.20
  -7   7   4    6.62    2.64
  -7   7   4    7.70    2.42
  -7   7   4    2.57    2.13
  -7   7   4   13.20   15.04
   7  -7  -4    8.53    2.60
   7  -7  -4    4.16    2.86
   7  -7  -4    4.05    2.42
   7  -7  -4    8.68   13.71
  -7   7   3   30.78    4.63
  -7   7   3   27.09    4.30
  -7   7   3   32.98    6.00
  -7   7   3   25.71   14.72
   7  -7  -3   29.29    4.67
   7  -7  -3   21.66    4.16
   7  -7  -3   20.90    5.03
   7  -7  -3   35.77   13.63
  -7   7   2    1.19    1.48
  -7   7   2   -0.98    0.94
  -7   7   2    2.06    1.88
  -7   7   2    5.89    2.71
  -7   7   2   -0.04   10.31
   7  -7  -2    2.89    1.92
   7  -7  -2    2.28    2.17
   7  -7  -2    3.98    2.24
   7  -7  -2   -1.52    1.01
   7  -7  -2    4.63   10.38
  -7   7   1  227.37    7.20
  -7   7   1  235.40    7.31
  -7   7   1  271.67   11.36
  -7   7   1  281.40   14.57
  -7   7   1  247.84   22.13
   7  -7  -1  306.21   10.56
   7  -7  -1  249.57    9.58
   7  -7  -1  303.97    7.52
   7  -7  -1  317.31   14.72
   7  -7  -1  277.53   23.94
  -7   7   0   18.01    3.94
  -7   7   0   12.95    3.44
  -7   7   0   17.21    5.86
   7  -7   0   23.11    2.57
   7  -7   0   13.27    2.68
   7  -7   0   22.64    5.17
   7  -7   0   19.78    2.46
   7  -7   0   17.21    2.60
   7  -7   0   16.31    3.83
  -7   7  -1    0.04    1.05
  -7   7  -1   -1.77    0.94
   7  -7   1   -2.71    1.23
   7  -7   1   -0.80    2.42
   7  -7   1   -1.48    0.83
   7  -7   1    0.47    0.94
   7  -7   1    2.13    1.27
   7  -7   2   43.36    4.95
   7  -7   2   33.38    5.24
   7  -7   2   40.22    4.85
   7  -7   2   30.31    4.81
   7  -7   3    9.22    2.89
   7  -7   3    6.76    2.17
   7  -7   3    5.46    2.50
   7  -7   3    0.36    1.34
   7  -7   3    3.98    1.99
   7  -7   4  234.89   11.21
   7  -7   4  250.59   11.21
   7  -7   4  230.51   10.99
   7  -7   5   -0.29    1.23
   7  -7   5   -2.42    1.37
   7  -7   5    2.46    1.56
   7  -7   6    7.67    3.00
   7  -7   6    9.33    2.78
   7  -7   6    6.44    2.13
   7  -7   7   66.87    6.26
   7  -7   7   89.47    8.28
   7  -7   7   75.01    6.44
  -7   6   6   -0.54    1.88
  -7   6   6    5.75    2.60
  -7   6   6    1.34    1.63
  -7   6   6   17.65   16.24
   7  -6  -6    6.51    2.75
   7  -6  -6    2.89    3.18
   7  -6  -6    0.11    1.92
   7  -6  -6    0.80    1.77
   7  -6  -6  -10.23   15.59
  -7   6   5   17.79    4.41
  -7   6   5   20.40    3.83
  -7   6   5   13.16    3.58
  -7   6   5   16.64   14.18
   7  -6  -5   25.35    5.14
   7  -6  -5   17.07    4.34
   7  -6  -5   23.33    3.62
   7  -6  -5   19.06    5.21
   7  -6  -5    8.86   15.62
  -7   6   4   89.69    6.98
  -7   6   4   94.90    6.87
  -7   6   4   82.78    8.46
  -7   6   4   74.61   22.28
   7  -6  -4  109.69    8.10
   7  -6  -4   97.65    5.68
   7  -6  -4   86.51    8.14
   7  -6  -4   95.22   23.65
  -7   6   3  290.01   11.03
  -7   6   3  330.22   12.55
  -7   6   3  297.24   15.41
  -7   6   3  320.13   30.34
   7  -6  -3  360.74   14.39
   7  -6  -3  293.15   12.12
   7  -6  -3  341.14   13.89
   7  -6  -3  296.95   14.39
   7  -6  -3  380.78   34.57
  -7   6   2    3.04    1.92
  -7   6   2    1.63    1.45
  -7   6   2    0.40    1.27
  -7   6   2   -0.22    1.34
  -7   6   2   16.67    9.55
   7  -6  -2    2.35    1.59
   7  -6  -2    1.99    1.52
   7  -6  -2    0.72    1.56
   7  -6  -2    2.60    1.77
   7  -6  -2   -2.03    1.30
   7  -6  -2   -1.05    8.93
  -7   6   1   39.56    2.97
  -7   6   1   42.24    2.89
  -7   6   1   36.31    5.32
  -7   6   1   35.80    8.25
  -7   6   1   41.41    6.87
  -7   6   1   34.47    9.84
   7  -6  -1   47.67    3.98
   7  -6  -1   36.24    3.76
   7  -6  -1   50.20    5.03
   7  -6  -1   55.08    5.68
   7  -6  -1   28.43   10.02
  -7   6   0   99.02    7.27
  -7   6   0   99.74    8.06
  -7   6   0   69.80    8.53
   7  -6   0  105.85    4.92
   7  -6   0   85.17    4.52
   7  -6   0  115.94    7.52
   7  -6   0  106.51    8.57
   7  -6   0  103.25    5.97
   7  -6   0   91.71    7.05
  -7   6  -1   48.14    5.10
  -7   6  -1   34.75    5.39
   7  -6   1   48.93    5.32
   7  -6   1   52.33    5.14
   7  -6   1   46.83    5.86
   7  -6   1   42.60    4.74
  -7   6  -2  189.03   10.74
  -7   6  -2  166.32   10.56
   7  -6   2  156.16    9.58
   7  -6   2  169.83    9.80
   7  -6   2  195.18   10.13
   7  -6   2  165.71   10.56
   7  -6   2  174.53    8.79
   7  -6   2  168.13    8.75
   7  -6   3   27.85    5.28
   7  -6   3   21.59    3.94
   7  -6   3   30.31    5.28
   7  -6   3   29.47    4.67
   7  -6   3   24.48    4.23
   7  -6   4  176.41    9.95
   7  -6   4  197.89   11.14
   7  -6   4  166.68    9.66
   7  -6   4  146.21    7.81
   7  -6   5    7.12    2.57
   7  -6   5    5.28    2.42
   7  -6   5    4.48    2.06
  -7   6  -6    0.51    2.06
   7  -6   6    3.69    1.74
   7  -6   6    9.69    3.40
   7  -6   6    7.49    2.35
  -7   6  -7    2.13    1.84
   7  -6   7    1.81    2.03
   7  -6   7   -0.83    1.45
   7  -6   7    1.88    1.52
   7  -6   7    4.45    2.35
  -7   5   7    1.84    2.57
  -7   5   7    3.87    1.81
  -7   5   7    2.75    2.17
  -7   5   7   39.42   17.11
   7  -5  -7    2.97    2.13
   7  -5  -7    7.99    3.62
   7  -5  -7   -3.04    2.50
   7  -5  -7    1.56    1.77
   7  -5  -7   -8.79   11.97
  -7   5   6    2.68    2.13
  -7   5   6   -0.58    1.30
  -7   5   6    0.65    2.31
  -7   5   6   -8.43   12.22
   7  -5  -6    4.23    2.35
   7  -5  -6    0.00    2.31
   7  -5  -6   -0.33    1.84
   7  -5  -6   -2.93    1.66
   7  -5  -6   -1.30    1.77
   7  -5  -6  -11.28   10.49
  -7   5   5  154.42    9.48
  -7   5   5  162.81    9.29
  -7   5   5  175.87   12.04
  -7   5   5  172.18   29.66
   7  -5  -5  182.74   10.85
   7  -5  -5  152.87    9.95
   7  -5  -5  184.01   10.60
   7  -5  -5  175.29    8.75
   7  -5  -5  189.90   11.79
   7  -5  -5  181.19   31.72
  -7   5   4   29.62    4.59
  -7   5   4   45.93    5.10
  -7   5   4   40.40    6.47
  -7   5   4   41.59   14.50
   7  -5  -4   44.95    5.28
   7  -5  -4   48.06    6.58
   7  -5  -4   47.52    4.52
   7  -5  -4   36.42    5.75
   7  -5  -4   44.08   21.81
  -7   5   3   66.80    5.35
  -7   5   3   67.66    5.28
  -7   5   3   85.67    6.62
  -7   5   3   86.33    7.81
  -7   5   3   78.95    6.91
  -7   5   3   75.55   17.43
   7  -5  -3   87.45    6.33
   7  -5  -3   65.78    5.75
   7  -5  -3    4.88    2.50
   7  -5  -3   82.78    5.82
   7  -5  -3   93.59    6.15
   7  -5  -3   91.82    7.38
   7  -5  -3  116.34   20.79
  -7   5   2    7.52    1.92
  -7   5   2   -0.14    0.83
  -7   5   2    7.67    2.42
  -7   5   2    3.83    2.13
  -7   5   2    4.63    1.88
  -7   5   2    1.52    7.20
   7  -5  -2    3.58    1.52
   7  -5  -2    2.46    1.56
   7  -5  -2    1.37    1.63
   7  -5  -2    6.22    2.10
   7  -5  -2    5.24    2.50
   7  -5  -2    6.40    2.24
   7  -5  -2    5.21    2.03
   7  -5  -2  -13.92    4.88
  -7   5   1   60.79    3.47
  -7   5   1   53.02    3.22
  -7   5   1   63.22    5.97
  -7   5   1   74.28    7.20
  -7   5   1   69.00    5.57
  -7   5   1   61.88   12.15
   7  -5  -1   76.96    4.88
   7  -5  -1   64.55    4.52
   7  -5  -1    2.82    2.24
   7  -5  -1   87.92    5.79
   7  -5  -1   75.91    7.23
   7  -5  -1   72.55    5.35
   7  -5  -1   70.77    5.82
  -7   5   0   22.53    4.45
  -7   5   0   12.91    3.91
  -7   5   0   14.50    4.70
  -7   5   0   18.66    5.03
   7  -5   0   21.74    2.24
   7  -5   0   16.38    2.42
   7  -5   0   20.43    3.69
   7  -5   0   13.96    3.76
   7  -5   0   19.89    3.62
   7  -5   0   19.93    3.69
  -7   5  -1    1.30    1.19
  -7   5  -1    0.65    1.01
   7  -5   1   -0.65    0.94
   7  -5   1   -1.56    0.69
   7  -5   1    1.92    1.56
   7  -5   1   -0.47    0.90
  -7   5  -2  161.91   10.05
   7  -5   2  151.96    9.66
   7  -5   2  170.73    9.98
   7  -5   2  172.22    8.90
   7  -5   2  143.32    9.91
   7  -5   2  149.29    7.63
  -7   5  -3   47.34    5.68
   7  -5   3   30.52    5.24
   7  -5   3   44.19    5.32
   7  -5   3   47.23    5.14
   7  -5   3   46.44    5.14
   7  -5   3   39.49    3.54
   7  -5   4   33.96    5.86
   7  -5   4   25.57    5.50
   7  -5   4   26.33    4.74
   7  -5   4   31.93    3.15
  -7   5  -5   11.86    3.22
   7  -5   5   11.17    3.18
   7  -5   5   12.73    3.04
   7  -5   5   11.17    3.44
   7  -5   5   12.04    2.39
  -7   5  -6  132.58    9.80
   7  -5   6  102.38    8.35
   7  -5   6  112.87    9.48
   7  -5   6  118.95    5.93
   7  -5   6   96.78    5.75
  -7   5  -7   51.32    6.40
   7  -5   7   55.19    6.37
   7  -5   7   51.46    7.70
   7  -5   7   40.54    4.12
  -7   4   8   32.58    5.71
  -7   4   8   26.18    5.10
  -7   4   8   24.34    5.42
  -7   4   8   14.50   18.95
   7  -4  -8   26.26    6.22
   7  -4  -8   27.74    4.92
   7  -4  -8   32.77    6.40
   7  -4  -8    0.43   21.95
  -7   4   7  100.47    8.86
  -7   4   7  106.83    8.03
  -7   4   7  121.04   10.38
  -7   4   7  108.46   26.69
   7  -4  -7  103.97    9.33
   7  -4  -7   87.70    8.79
   7  -4  -7  115.29    8.17
   7  -4  -7  116.67    8.03
   7  -4  -7   96.96    8.86
   7  -4  -7  131.50   30.13
  -7   4   6   16.06    3.62
  -7   4   6   12.08    3.40
  -7   4   6   16.53    4.16
   7  -4  -6   23.47    4.88
   7  -4  -6   20.00    4.56
   7  -4  -6   22.49    4.41
   7  -4  -6   17.07    3.72
   7  -4  -6    9.40    3.65
   7  -4  -6   23.11   15.33
  -7   4   5   64.19    6.18
  -7   4   5   66.33    6.15
  -7   4   5   67.92    7.38
  -7   4   5   34.54   14.14
   7  -4  -5   65.57    6.40
   7  -4  -5   71.24    6.65
   7  -4  -5   79.78    6.29
   7  -4  -5   65.17    6.62
   7  -4  -5   58.37   18.37
  -7   4   4    0.69    1.45
  -7   4   4   -0.43    1.45
  -7   4   4   -1.01    1.08
  -7   4   4    0.22    2.28
  -7   4   4    7.81    8.39
   7  -4  -4    4.12    1.66
   7  -4  -4    2.39    1.70
   7  -4  -4    3.44    2.21
   7  -4  -4    1.63    1.01
   7  -4  -4    1.41    1.56
   7  -4  -4    0.00    1.16
   7  -4  -4   -3.80    9.40
  -7   4   3   31.64    3.51
  -7   4   3   27.70    4.95
  -7   4   3   40.25    6.87
  -7   4   3   33.89    4.16
  -7   4   3    5.42   10.23
   7  -4  -3   32.55    3.91
   7  -4  -3   34.83    4.09
   7  -4  -3   43.36    5.28
   7  -4  -3   38.37    3.47
   7  -4  -3   39.35    5.50
   7  -4  -3   22.78    4.12
   7  -4  -3   16.17    9.66
  -7   4   2    4.20    1.45
  -7   4   2    0.00    0.98
  -7   4   2   -0.36    1.01
  -7   4   2    2.21    1.66
  -7   4   2    0.25    1.30
  -7   4   2    3.58    5.97
   7  -4  -2    1.41    1.16
   7  -4  -2    0.58    1.37
   7  -4  -2    1.12    1.70
   7  -4  -2   -0.29    0.80
   7  -4  -2    1.01    1.63
   7  -4  -2    1.66    1.30
  -7   4   1  117.93    4.99
  -7   4   1  116.34    4.95
  -7   4   1  130.34    8.64
  -7   4   1  131.86    9.26
  -7   4   1  123.79    6.76
  -7   4   1  107.23   16.67
  -7   4   1  116.09   13.85
   7  -4  -1  138.29    6.51
   7  -4  -1  121.04    6.08
   7  -4  -1    2.86    2.06
   7  -4  -1  151.21    6.76
   7  -4  -1  144.70    8.10
   7  -4  -1  123.76    6.98
  -7   4   0   39.71    4.85
  -7   4   0   35.55    6.04
  -7   4   0   43.58    7.92
  -7   4   0   14.57    6.04
   7  -4   0   33.24    2.93
   7  -4   0   27.49    2.75
   7  -4   0   30.60    5.10
   7  -4   0   26.83    4.70
   7  -4   0   35.91    5.21
   7  -4   0    5.42    2.03
   7  -4   0   34.68    3.40
  -7   4  -1    8.10    2.60
  -7   4  -1   15.04    4.20
  -7   4  -1   11.75    3.62
   7  -4   1    9.22    1.77
   7  -4   1   11.28    1.92
   7  -4   1    3.98    2.10
   7  -4   1   16.13    3.72
   7  -4   1   11.36    2.46
   7  -4   1    9.95    3.25
   7  -4   1   10.89    2.21
  -7   4  -2  122.31    8.79
   7  -4   2   98.04    3.76
   7  -4   2   99.20    3.76
   7  -4   2  125.56    9.62
   7  -4   2  102.24    8.17
   7  -4   2  107.37    8.06
   7  -4   2  120.25    7.23
   7  -4   2  109.36    8.64
   7  -4   2  107.55    4.88
  -7   4  -3   -0.40    1.01
   7  -4   3   -0.87    1.27
   7  -4   3    0.51    1.19
   7  -4   3   -0.65    0.72
  -7   4  -4  166.72   11.36
  -7   4  -4  196.38   10.49
   7  -4   4  168.02   10.56
   7  -4   4  170.23    9.80
   7  -4   4  158.37   10.49
  -7   4  -5    4.23    1.66
   7  -4   5   -0.76    0.83
   7  -4   5    3.04    0.87
   7  -4   5    0.33    0.98
   7  -4   5    3.22    2.35
  -7   4  -6  214.10   12.48
   7  -4   6  150.63    5.89
   7  -4   6  179.34    6.40
   7  -4   6  169.43   11.14
   7  -4   6  225.31   13.56
  -7   4  -7   18.66    4.30
  -7   4  -7    3.98    5.03
   7  -4   7   11.36    2.28
   7  -4   7   17.50    2.86
   7  -4   7   10.60    3.62
   7  -4   7   13.85    4.67
  -7   3   9    5.17    3.11
  -7   3   9    8.64    2.97
  -7   3   9   11.25    3.87
  -7   3   9   30.23   24.12
   7  -3  -9   17.65    4.63
   7  -3  -9    7.16    2.89
   7  -3  -9   14.18    3.00
   7  -3  -9   11.93    4.05
   7  -3  -9   -9.66   10.92
  -7   3   8    0.40    2.31
  -7   3   8    7.67    2.68
  -7   3   8    2.35    1.92
  -7   3   8   -5.35   18.23
   7  -3  -8    3.54    2.42
   7  -3  -8    1.56    2.97
   7  -3  -8    3.36    2.53
   7  -3  -8    6.94    2.17
   7  -3  -8    6.73    3.29
   7  -3  -8   -8.72   13.02
  -7   3   7    8.35    3.07
  -7   3   7    7.85    2.86
  -7   3   7    6.22    2.60
  -7   3   7   28.75   16.74
   7  -3  -7   14.18    3.72
   7  -3  -7    5.39    2.64
   7  -3  -7    8.68    2.78
   7  -3  -7    8.64    2.28
   7  -3  -7   13.96    3.65
   7  -3  -7   14.03    3.98
   7  -3  -7   26.00   14.50
  -7   3   6    6.22    2.78
  -7   3   6    8.35    2.71
  -7   3   6    5.82    3.07
   7  -3  -6    2.17    1.95
   7  -3  -6    7.12    3.15
   7  -3  -6    8.79    3.15
   7  -3  -6    9.44    3.25
   7  -3  -6    5.57    2.68
   7  -3  -6   -3.25   10.42
  -7   3   5   19.06    4.05
  -7   3   5   18.23    4.01
  -7   3   5   20.98    5.10
  -7   3   5   18.01    4.23
  -7   3   5   14.57   11.86
   7  -3  -5   27.88    5.24
   7  -3  -5   15.12    3.98
   7  -3  -5   15.70    3.44
   7  -3  -5   22.10    2.86
   7  -3  -5   19.89    4.01
   7  -3  -5   12.51    3.11
   7  -3  -5   31.14   14.36
  -7   3   4   53.34    5.14
  -7   3   4   93.12    6.55
  -7   3   4   98.04    7.56
  -7   3   4  106.94    8.68
  -7   3   4   92.94    6.76
  -7   3   4   76.05   18.23
   7  -3  -4  116.78    7.81
   7  -3  -4   94.28    7.12
   7  -3  -4  106.29    9.87
   7  -3  -4  120.86    4.77
   7  -3  -4  114.39    7.74
   7  -3  -4   95.26    7.05
   7  -3  -4  103.83   21.34
  -7   3   3  530.00   15.26
  -7   3   3  473.36   13.56
  -7   3   3  597.05   18.81
  -7   3   3  577.88   19.60
  -7   3   3  542.87   15.19
  -7   3   3  619.68   41.44
   7  -3  -3  625.00   16.67
   7  -3  -3  548.40   15.48
   7  -3  -3  603.48   23.76
   7  -3  -3  667.82   10.63
   7  -3  -3  662.76   18.08
   7  -3  -3  535.82   15.23
  -7   3   2  706.19   15.04
  -7   3   2  645.40   14.43
  -7   3   2  719.75   20.65
  -7   3   2  765.25   22.31
  -7   3   2  682.97   15.51
  -7   3   2  838.23   42.86
  -7   3   2  710.28   38.95
   7  -3  -2  804.09   17.54
   7  -3  -2  689.66   16.17
   7  -3  -2  779.53   21.81
   7  -3  -2  819.39   12.26
   7  -3  -2  854.47   20.54
  -7   3   1  252.54    8.03
  -7   3   1  260.06   12.55
  -7   3   1  263.06   12.98
  -7   3   1  249.47    8.35
  -7   3   1  274.89   22.68
  -7   3   1  233.88   20.79
   7  -3  -1  244.08    9.01
   7  -3  -1  254.78    9.26
   7  -3  -1  301.54   13.71
   7  -3  -1  274.89   13.16
   7  -3  -1  281.11    7.88
   7  -3  -1  290.37   12.08
   7  -3  -1  250.22    8.50
  -7   3   0    4.20    1.05
  -7   3   0    2.97    1.05
  -7   3   0    2.75    2.06
  -7   3   0    4.41    2.31
  -7   3   0   -0.33    4.92
  -7   3   0    4.16    3.98
   7  -3   0    2.42    1.08
   7  -3   0    1.34    0.98
   7  -3   0    0.65    1.56
   7  -3   0    8.06    2.86
   7  -3   0    2.10    1.12
   7  -3   0    1.70    0.76
  -7   3  -1  219.41    5.39
  -7   3  -1  180.72    4.88
  -7   3  -1  219.20   11.90
  -7   3  -1  240.68   17.94
  -7   3  -1  187.08   16.02
   7  -3   1  189.18    7.02
   7  -3   1  204.55    7.31
   7  -3   1  203.83   11.43
   7  -3   1  221.15   11.83
   7  -3   1  242.70    9.51
  -7   3  -2   47.12    5.82
  -7   3  -2   57.10    4.95
  -7   3  -2   27.74    7.20
  -7   3  -2   39.75    8.10
   7  -3   2   36.89    3.22
   7  -3   2   36.02    3.07
   7  -3   2   45.31    7.05
   7  -3   2   30.13    5.28
   7  -3   2   33.74    5.39
  -7   3  -3  269.86   14.07
  -7   3  -3  310.48   12.22
  -7   3  -3  243.82   17.43
   7  -3   3  214.49    7.45
   7  -3   3  244.40    7.85
   7  -3   3  272.68   13.49
  -7   3  -4   93.92    8.75
  -7   3  -4  135.94    8.64
  -7   3  -4  117.86   12.51
  -7   3  -4  101.33   12.59
   7  -3   4   85.71    4.99
   7  -3   4   92.33    5.10
   7  -3   4  116.49    9.19
   7  -3   4  105.10    8.93
  -7   3  -5   52.62    5.68
  -7   3  -5   30.31   10.27
   7  -3   5   29.51    3.25
   7  -3   5   29.87    3.36
   7  -3   5   49.87    7.34
   7  -3   5   42.10    7.20
  -7   3  -6   55.51    6.22
  -7   3  -6   25.71   10.09
   7  -3   6   35.04    7.02
   7  -3   6   27.41    5.57
   7  -3   6   27.56    5.75
   7  -3   6   18.66   10.45
  -7   3  -7    5.61    2.75
   7  -3   7   -2.10    1.88
   7  -3   7    5.61    1.45
   7  -3   7   -4.77    1.59
   7  -3   7    5.97    3.94
  -7   2   9    2.75    2.31
   7  -2  -9   -0.98    1.95
   7  -2  -9    1.05    2.06
   7  -2  -9    0.22    1.30
   7  -2  -9   -1.23    1.56
   7  -2  -9  -34.07   16.60
  -7   2   8    4.63    2.53
  -7   2   8   10.52    3.47
  -7   2   8    9.62    3.54
   7  -2  -8    7.96    3.04
   7  -2  -8   -2.03    2.82
   7  -2  -8    9.26    2.89
   7  -2  -8   12.15    2.28
   7  -2  -8   10.34    3.62
   7  -2  -8  -23.65   12.62
  -7   2   7   59.74    6.62
  -7   2   7   72.33    7.02
  -7   2   7   68.32    7.49
  -7   2   7   77.68   24.16
   7  -2  -7   73.27    7.49
   7  -2  -7   62.75    7.02
   7  -2  -7   63.51    6.29
   7  -2  -7   80.21    4.05
   7  -2  -7   68.35    6.98
   7  -2  -7   99.45   24.92
  -7   2   6    3.91    1.84
  -7   2   6    6.65    2.64
  -7   2   6    5.21    2.28
  -7   2   6    4.09    2.06
  -7   2   6   -2.10    8.43
   7  -2  -6    7.34    2.78
   7  -2  -6    7.27    2.78
   7  -2  -6    7.02    2.64
   7  -2  -6    7.27    2.75
   7  -2  -6    5.17    2.03
   7  -2  -6   12.55   11.46
  -7   2   5  157.28    9.29
  -7   2   5  189.72   11.10
  -7   2   5  194.75   11.65
  -7   2   5  176.34    9.58
  -7   2   5   64.74   17.11
   7  -2  -5  214.17   11.21
   7  -2  -5  181.58   10.38
   7  -2  -5  193.48   12.84
   7  -2  -5  205.89   11.17
   7  -2  -5  186.97    9.87
   7  -2  -5  142.34   27.30
  -7   2   4  491.73   15.15
  -7   2   4  583.74   16.67
  -7   2   4  685.43   20.72
  -7   2   4  720.01   21.84
  -7   2   4  693.21   17.36
  -7   2   4  757.76   47.52
   7  -2  -4  746.48   19.75
   7  -2  -4  656.36   18.30
   7  -2  -4   -0.07    1.34
   7  -2  -4  790.64   21.08
   7  -2  -4  670.64   17.21
  -7   2   3  147.84    7.81
  -7   2   3  157.32    9.87
  -7   2   3  177.86   10.70
  -7   2   3  168.46    7.70
  -7   2   3  202.85   23.83
  -7   2   3  142.02   22.68
   7  -2  -3  190.66    9.44
   7  -2  -3  146.07    8.25
   7  -2  -3  211.42   11.46
   7  -2  -3    9.55    2.97
   7  -2  -3  193.45   10.38
   7  -2  -3  178.15    9.84
  -7   2   2   12.40    2.53
  -7   2   2    9.15    2.21
  -7   2   2    3.11    1.88
  -7   2   2   10.89    3.11
  -7   2   2   10.45    2.13
  -7   2   2    5.97    5.21
   7  -2  -2   14.50    3.18
   7  -2  -2   12.19    2.64
   7  -2  -2    8.97    3.11
   7  -2  -2    5.39    2.24
   7  -2  -2   20.51    4.67
   7  -2  -2   10.16    3.07
   7  -2  -2   12.91    2.35
  -7   2   1  451.95   11.97
  -7   2   1  355.21   10.63
  -7   2   1  425.80   16.46
  -7   2   1  468.59   17.32
  -7   2   1  528.62   33.85
  -7   2   1  402.77   29.15
   7  -2  -1  401.79   12.26
   7  -2  -1  419.80   12.62
   7  -2  -1  472.86   17.50
   7  -2  -1  428.63    9.04
  -7   2   0   66.15    4.34
  -7   2   0    1.37    1.01
  -7   2   0   55.51    6.47
  -7   2   0   55.44   13.78
  -7   2   0   44.05   10.70
   7  -2   0   57.18    4.56
   7  -2   0   57.79    4.67
   7  -2   0   68.42    6.73
  -7   2  -1  260.03    8.17
  -7   2  -1  213.23   11.61
  -7   2  -1  256.59   13.09
  -7   2  -1  302.05    9.76
  -7   2  -1  259.70   22.57
  -7   2  -1  250.91   21.48
   7  -2   1  216.01    8.57
   7  -2   1  234.46    8.97
   7  -2   1  267.55   13.53
   7  -2   1  257.89   13.13
  -7   2  -2   74.93    4.34
  -7   2  -2   58.44    3.87
  -7   2  -2   65.02    9.62
  -7   2  -2   79.16    5.71
  -7   2  -2   77.03   14.21
  -7   2  -2   49.62   11.50
   7  -2   2   65.96    4.92
   7  -2   2   72.29    5.06
   7  -2   2   84.81    8.10
   7  -2   2   60.18    6.69
  -7   2  -3  149.51    6.11
  -7   2  -3  136.52    5.79
  -7   2  -3  138.15   10.27
  -7   2  -3  174.60    9.22
  -7   2  -3  168.60   18.84
  -7   2  -3  134.79   16.13
   7  -2   3  123.68    6.80
   7  -2   3  125.28    6.69
  -7   2  -4   87.08    4.88
  -7   2  -4   97.57    9.04
  -7   2  -4  124.62    8.39
  -7   2  -4   92.18   17.58
   7  -2   4   75.58    5.50
   7  -2   4   90.74    5.82
   7  -2   4  109.90    9.08
   7  -2   4  110.45    9.29
   7  -2   4   90.99   17.65
  -7   2  -5    8.10    1.88
  -7   2  -5   38.37    3.69
  -7   2  -5   50.67    7.34
  -7   2  -5   57.76   13.67
   7  -2   5   36.24    4.30
   7  -2   5   48.21    4.45
   7  -2   5   38.48    6.58
   7  -2   5   52.22    8.61
   7  -2   5   54.21   14.72
  -7   2  -6   90.01    5.64
  -7   2  -6  103.07    8.75
   7  -2   6   74.43    6.58
   7  -2   6   86.18    6.62
   7  -2   6   84.84    8.64
   7  -2   6  102.89   10.20
  -7   1   9   -1.99    1.77
  -7   1   9    2.35    2.21
  -7   1   9   11.46   20.47
   7  -1  -9    1.88    2.24
   7  -1  -9    0.47    2.75
   7  -1  -9    3.25    1.34
   7  -1  -9  -13.96   17.25
  -7   1   8   -0.83    1.52
  -7   1   8    1.77    1.70
  -7   1   8    3.29    2.24
  -7   1   8   -3.22   11.68
   7  -1  -8   -1.56    1.74
   7  -1  -8   -1.34    2.31
   7  -1  -8   -0.72    2.17
   7  -1  -8   -4.27   11.68
  -7   1   7   73.99    7.34
  -7   1   7   95.80    8.46
  -7   1   7  104.84    8.86
  -7   1   7   -2.86    2.06
  -7   1   7   89.07   22.57
   7  -1  -7  112.87    9.11
   7  -1  -7   84.26    8.21
   7  -1  -7   91.14    7.67
   7  -1  -7   68.79   22.89
  -7   1   6  523.63   18.12
  -7   1   6  524.90   25.17
  -7   1   6  617.66   20.54
  -7   1   6  530.32   17.03
  -7   1   6  580.77   47.09
   7  -1  -6  635.67   20.54
   7  -1  -6  549.42   18.95
   7  -1  -6  601.96   21.41
   7  -1  -6  612.31   20.69
   7  -1  -6  539.40   17.36
   7  -1  -6  546.99   46.62
  -7   1   5   18.19    4.01
  -7   1   5   11.72    3.36
  -7   1   5   17.58    4.45
  -7   1   5   14.79    3.25
  -7   1   5   27.52   13.31
   7  -1  -5   11.97    3.33
   7  -1  -5   12.44    3.29
   7  -1  -5    1.74    1.34
   7  -1  -5   15.04    3.69
   7  -1  -5   15.51    3.40
  -7   1   4   11.21    2.86
  -7   1   4   12.48    3.25
  -7   1   4   12.04    3.47
  -7   1   4    9.95    2.57
  -7   1   4   11.65    9.15
  -7   1   4   19.89   10.16
   7  -1  -4   11.61    3.18
   7  -1  -4    9.95    3.25
   7  -1  -4    1.88    1.63
   7  -1  -4   16.71    4.09
  -7   1   3   -1.70    0.72
  -7   1   3    0.58    0.98
  -7   1   3    1.66    1.16
  -7   1   3   -0.72    1.01
  -7   1   3   -1.81    0.76
  -7   1   3  -12.04    5.32
  -7   1   3  -14.79    6.29
   7  -1  -3    2.21    1.37
   7  -1  -3    1.16    1.08
   7  -1  -3    0.98    0.80
   7  -1  -3    0.51    1.19
   7  -1  -3    2.78    2.35
  -7   1   2  100.50    7.81
  -7   1   2   81.41    5.93
  -7   1   2   95.08    7.99
  -7   1   2   98.08    7.92
  -7   1   2  100.29    4.56
  -7   1   2  111.10   19.57
  -7   1   2   76.52   17.40
   7  -1  -2   92.15    6.62
   7  -1  -2   97.14    6.76
   7  -1  -2  109.94    8.50
   7  -1  -2   73.74    6.87
   7  -1  -2  125.60    8.72
  -7   1   1   58.70    4.99
  -7   1   1   46.94    4.45
  -7   1   1   52.58    5.93
  -7   1   1   65.71   17.03
  -7   1   1   68.68   13.71
   7  -1  -1   53.63    4.95
   7  -1  -1   49.73    4.85
   7  -1  -1   59.20    6.15
   7  -1  -1   -0.65    1.41
  -7   1   0    2.28    1.27
  -7   1   0    0.22    1.08
  -7   1   0    0.00    1.27
  -7   1   0    0.87    0.83
  -7   1   0   12.84    7.81
  -7   1   0    3.54    5.57
   7  -1   0   -0.69    0.90
   7  -1   0    3.65    1.56
   7  -1   0    1.27    1.63
  -7   1  -1   57.39    5.53
  -7   1  -1   46.22    4.20
  -7   1  -1   50.96   13.24
  -7   1  -1   58.41    4.34
  -7   1  -1   42.64   11.83
  -7   1  -1   56.24   13.89
   7  -1   1   48.97    4.74
   7  -1   1   41.70    4.34
   7  -1   1   44.27    7.02
  -7   1  -2   47.59    4.23
  -7   1  -2   35.30    3.54
  -7   1  -2   42.46    7.34
  -7   1  -2   52.11    4.77
  -7   1  -2   25.03   10.85
   7  -1   2   33.34    4.88
   7  -1   2   37.79    4.20
   7  -1   2   40.50    7.09
  -7   1  -3   -0.14    1.34
  -7   1  -3   58.80    4.88
  -7   1  -3   68.10    7.63
  -7   1  -3   97.32    7.02
  -7   1  -3   59.89   15.80
   7  -1   3   57.83    5.39
   7  -1   3   68.60    5.75
   7  -1   3   81.73    7.92
   7  -1   3   60.65   15.59
  -7   1  -4   45.50    4.59
  -7   1  -4   55.87    6.84
  -7   1  -4   43.72    5.14
  -7   1  -4   31.28   11.61
   7  -1   4   40.29    4.77
   7  -1   4   39.49    5.75
   7  -1   4   56.06    8.72
   7  -1   4   14.00   10.96
  -7   1  -5   30.38    4.45
  -7   1  -5   46.18    5.46
   7  -1   5   29.55    5.10
   7  -1   5   35.98    5.35
   7  -1   5   20.87    4.70
   7  -1   5   17.47    4.59
  -7   0  10    6.18    3.04
  -7   0  10    6.33    2.93
  -7   0  10  -41.66   14.61
   7   0 -10    9.76    3.54
   7   0 -10   18.52    4.01
   7   0 -10  -10.52   27.23
  -7   0   9   33.13    6.44
  -7   0   9   41.48    7.16
  -7   0   9   34.61   23.94
   7   0  -9   24.99    4.95
   7   0  -9   41.19    6.11
   7   0  -9   61.66   21.88
  -7   0   8  160.64   11.14
  -7   0   8  217.06   12.48
  -7   0   8  193.48   36.74
   7   0  -8  178.62   12.12
   7   0  -8  179.12   12.22
   7   0  -8  195.69   10.60
   7   0  -8  166.83   33.45
  -7   0   7   51.46    6.33
  -7   0   7   69.18    7.59
  -7   0   7   67.95    6.94
  -7   0   7   56.89    6.29
  -7   0   7   88.21   21.95
   7   0  -7   72.00    7.49
   7   0  -7   48.61    9.40
  -7   0   6  104.19    8.28
  -7   0   6  101.88    8.72
  -7   0   6  106.69    8.32
  -7   0   6  108.24    7.59
  -7   0   6  138.01   25.89
  -7   0   6   68.03   17.40
   7   0  -6  117.17    8.97
   7   0  -6  114.57    8.75
  -7   0   5   21.88    4.70
  -7   0   5   20.32    4.95
  -7   0   5   25.60    5.17
  -7   0   5   22.31    3.83
  -7   0   5  -12.55    4.59
  -7   0   5   40.25   15.30
   7   0  -5   15.91    4.30
   7   0  -5   15.84    3.47
   7   0  -5   15.04    3.15
  -7   0   4  247.44   11.72
  -7   0   4  284.58   14.61
  -7   0   4  313.30   13.85
  -7   0   4  261.98    9.48
  -7   0   4  259.01   29.44
   7   0  -4  265.67   12.40
   7   0  -4  268.52   12.55
   7   0  -4  293.55   14.25
   7   0  -4  265.74   12.59
   7   0  -4  313.15   14.32
  -7   0   3   -2.10    1.05
  -7   0   3   76.16    6.44
  -7   0   3   74.54    7.31
  -7   0   3  106.72    8.14
  -7   0   3   88.86    4.74
  -7   0   3   96.23   22.17
  -7   0   3   91.79   20.47
   7   0  -3   80.72    6.73
   7   0  -3   81.73    6.91
   7   0  -3   97.65    8.17
   7   0  -3   88.53    7.56
   7   0  -3   98.73    8.25
  -7   0   2    0.11    1.08
  -7   0   2   38.48    4.45
  -7   0   2   50.49    6.04
  -7   0   2   75.91   18.12
  -7   0   2   58.70   14.97
   7   0  -2   43.00    5.03
   7   0  -2   44.74    4.95
   7   0  -2   47.77    5.68
   7   0  -2   14.50    3.25
   7   0  -2   56.63    6.55
  -7   0   1    2.28    1.48
  -7   0   1    2.24    1.70
  -7   0   1    6.18    2.46
  -7   0   1    2.78    7.74
  -7   0   1    1.34   10.70
   7   0  -1    8.68    2.75
   7   0  -1    4.77    2.13
   7   0  -1    2.46    2.21
   7   0  -1    2.46    1.92
  -7   0   0   -0.69    1.27
  -7   0   0   16.60    3.44
  -7   0   0   31.39    6.15
  -7   0   0   22.28    2.50
  -7   0   0   27.99   13.09
  -7   0   0    5.82    6.37
   7   0   0   18.08    3.62
   7   0   0   22.75    3.98
   7   0   0   28.57    9.37
  -7   0  -1  124.26    7.67
  -7   0  -1  130.27   10.02
  -7   0  -1  124.95   22.71
   7   0   1  120.90    8.14
   7   0   1  125.67    8.28
   7   0   1  146.03   10.56
  -7   0  -2   11.39    3.00
  -7   0  -2    6.73    2.86
  -7   0  -2    7.56    2.50
  -7   0  -2    1.08   11.28
   7   0   2    0.11    2.06
   7   0   2    5.17    2.42
   7   0   2    3.58    2.35
   7   0   2   -9.58    8.46
  -7   0  -3   89.44    6.76
  -7   0  -3  105.46    9.19
  -7   0  -3  105.35    7.59
  -7   0  -3  123.43   24.77
   7   0   3   84.16    7.34
   7   0   3   96.05    7.63
   7   0   3   94.21    9.04
   7   0   3   73.99   17.14
  -7   0  -4    0.33    1.88
  -7   0  -4    8.97    2.82
  -7   0  -4    6.11    2.53
  -7   0  -4   29.98   16.60
   7   0   4    4.27    2.50
   7   0   4    5.57    2.31
   7   0   4    2.13    2.71
   7   0   4   -4.05    8.93
  -7   0  -5   55.95    6.18
  -7   0  -5   77.75    7.81
   7   0   5   43.11    6.65
   7   0   5   52.80    6.29
   7   0   5   40.14    7.45
   7   0   5   51.72    8.68
  -7  -1  10    6.44    2.13
  -7  -1  10    2.86    1.99
  -7  -1  10   -6.11   15.95
   7   1 -10    5.53    2.89
  -7  -1   9   -2.42    1.30
  -7  -1   9    3.07    2.06
  -7  -1   9  -13.27   17.50
  -7  -1   9  -11.83    9.51
   7   1  -9   -0.80    1.45
  -7  -1   8   11.54    3.83
  -7  -1   8    6.08    4.20
  -7  -1   8   49.55   21.45
  -7  -1   8   -2.24    8.06
   7   1  -8    7.67    3.00
  -7  -1   7    9.44    3.54
  -7  -1   7    5.97    2.46
  -7  -1   7    9.37    2.82
  -7  -1   7   15.04    3.47
  -7  -1   7   -1.92   12.33
  -7  -1   7    2.71   13.78
   7   1  -7   17.76    4.74
   7   1  -7   19.64    4.16
  -7  -1   6   22.39    4.30
  -7  -1   6   41.05    7.20
  -7  -1   6   46.00    7.05
  -7  -1   6   38.44    4.63
  -7  -1   6   37.18   16.17
  -7  -1   6  -21.66   12.77
   7   1  -6   26.91    5.42
   7   1  -6   39.49    9.19
   7   1  -6   17.11    3.87
  -7  -1   5    1.37    1.92
  -7  -1   5    5.03    2.57
  -7  -1   5   -0.14    1.41
  -7  -1   5   -0.47    1.30
  -7  -1   5   28.46   11.25
  -7  -1   5    4.23    9.08
   7   1  -5    4.12    2.31
   7   1  -5   -0.61    1.01
   7   1  -5   -0.65    1.27
   7   1  -5   -0.61    1.52
  -7  -1   4   52.37    5.79
  -7  -1   4   70.30    7.20
  -7  -1   4   59.13    4.59
  -7  -1   4   43.25   16.78
  -7  -1   4   54.68   16.64
   7   1  -4   65.21    6.37
   7   1  -4   40.36    6.73
   7   1  -4   65.53    6.69
   7   1  -4   77.21    6.87
  -7  -1   3   38.88    7.63
  -7  -1   3   28.61    5.21
  -7  -1   3   35.69    2.89
  -7  -1   3   34.57   18.37
  -7  -1   3   21.30   13.09
   7   1  -3   33.63    5.39
   7   1  -3   34.61    9.69
   7   1  -3   31.90    5.24
   7   1  -3   28.64    4.88
  -7  -1   2    0.07    1.23
  -7  -1   2   11.83    3.72
  -7  -1   2   -7.67    5.71
  -7  -1   2   30.49   11.68
   7   1  -2    2.89    2.10
   7   1  -2    0.36    1.48
  -7  -1   1   32.98    5.32
  -7  -1   1   36.56    6.08
  -7  -1   1   52.19    2.82
  -7  -1   1   47.27   15.41
  -7  -1   1   52.58   14.65
   7   1  -1   28.06    4.88
   7   1  -1   47.81    5.64
   7   1  -1   28.53    5.17
  -7  -1   0  247.11   11.79
  -7  -1   0  263.86   14.21
  -7  -1   0  319.15    9.40
  -7  -1   0  216.27   33.34
  -7  -1   0  215.47   32.15
   7   1   0  221.47   11.65
   7   1   0  251.96   12.40
   7   1   0  266.93   14.54
  -7  -1  -1  114.68    8.21
  -7  -1  -1  134.50   10.23
  -7  -1  -1  154.60    7.78
  -7  -1  -1  116.85   24.48
   7   1   1   99.56    7.99
   7   1   1  119.89    8.64
   7   1   1  136.96   10.67
   7   1   1   99.34   24.48
  -7  -1  -2   45.75    5.39
  -7  -1  -2   41.84    7.56
  -7  -1  -2   47.70    5.21
  -7  -1  -2   53.52   18.01
   7   1   2   39.71    6.29
   7   1   2   52.37    5.93
   7   1   2   40.72    7.31
   7   1   2   80.39   20.83
  -7  -1  -3    8.82    3.15
  -7  -1  -3   12.08    3.25
  -7  -1  -3   16.20    3.69
  -7  -1  -3  -14.14   15.77
   7   1   3   10.20    3.69
   7   1   3   18.59    4.16
   7   1   3   10.02    3.65
   7   1   3   -2.10   12.01
  -7  -1  -4   14.72    4.16
  -7  -1  -4    9.62    3.76
  -7  -1  -4    4.74    3.36
   7   1   4    9.98    3.98
   7   1   4   11.36    3.15
   7   1   4   15.41    4.52
   7   1   4    6.84    3.22
  -7  -2   9    1.12    1.59
  -7  -2   9    0.47    2.82
  -7  -2   9  -35.77   19.60
  -7  -2   9  -30.41   16.02
   7   2  -9    2.57    1.88
  -7  -2   8    7.88    3.44
  -7  -2   8   10.34    3.94
  -7  -2   8   14.07    3.72
  -7  -2   8  -23.36   16.85
  -7  -2   8    9.62   16.96
   7   2  -8   15.62    3.80
  -7  -2   7   -3.91    1.56
  -7  -2   7    6.00    2.68
  -7  -2   7    6.58    2.42
  -7  -2   7    7.85    2.39
  -7  -2   7   -0.72   16.46
  -7  -2   7   24.92   14.25
   7   2  -7    7.41    3.44
   7   2  -7    4.16    2.71
   7   2  -7    0.14    1.56
  -7  -2   6   13.27    3.72
  -7  -2   6   17.36    4.09
  -7  -2   6   33.63    5.86
  -7  -2   6   23.18    3.87
  -7  -2   6   -0.61    7.99
  -7  -2   6   20.22   11.86
   7   2  -6   24.81    4.92
   7   2  -6   17.61    4.09
   7   2  -6   26.54    4.88
   7   2  -6   17.36    3.91
  -7  -2   5   82.35    7.59
  -7  -2   5   77.03    7.85
  -7  -2   5   61.91    5.21
  -7  -2   5  100.29   24.56
  -7  -2   5   75.69   18.81
   7   2  -5   63.04    6.98
   7   2  -5   72.80    7.38
   7   2  -5   88.78    7.88
   7   2  -5   83.65    7.23
  -7  -2   4    9.69    2.64
  -7  -2   4    7.74    2.68
  -7  -2   4   15.19    8.53
  -7  -2   4    2.57    8.79
   7   2  -4    9.33    2.97
   7   2  -4    4.70    2.10
   7   2  -4   16.89    4.05
   7   2  -4   12.26    2.93
  -7  -2   3    4.74    2.78
  -7  -2   3   -0.47    1.48
  -7  -2   3    7.74    1.37
  -7  -2   3    2.78   11.50
   7   2  -3    0.07    1.92
   7   2  -3    1.45    1.84
   7   2  -3    0.98    1.48
   7   2  -3   -1.52    1.56
  -7  -2   2  111.24    8.68
  -7  -2   2  146.43   10.70
  -7  -2   2  108.35   27.23
  -7  -2   2   98.51   24.09
   7   2  -2  113.27    9.11
   7   2  -2  134.10    9.73
   7   2  -2  131.21   10.13
  -7  -2   1   20.87    3.94
  -7  -2   1   40.25    6.44
  -7  -2   1   43.72    3.25
  -7  -2   1   47.38   17.25
  -7  -2   1   19.75   14.76
   7   2  -1   24.27    5.10
   7   2  -1   27.41    5.14
   7   2  -1   38.62    7.02
  -7  -2   0   32.69    6.22
  -7  -2   0   41.05    7.63
  -7  -2   0   33.60    3.80
  -7  -2   0   54.90   17.97
   7   2   0   31.17    5.53
   7   2   0   33.34    6.04
   7   2   0   37.03    6.73
   7   2   0    8.57   16.42
  -7  -2  -1   24.16    4.88
  -7  -2  -1   44.92    7.67
  -7  -2  -1   38.80    4.45
  -7  -2  -1    4.48   14.68
   7   2   1   26.83    5.39
   7   2   1   29.08    5.79
   7   2   1   33.89    6.08
   7   2   1   38.33   19.35
  -7  -2  -2   76.78    7.74
  -7  -2  -2  105.89    9.40
  -7  -2  -2  119.89    7.85
  -7  -2  -2  147.84   44.37
   7   2   2   72.29    7.70
   7   2   2   97.03    8.82
   7   2   2   92.62    9.69
   7   2   2   59.49   19.82
  -7  -3   9    5.86    3.11
  -7  -3   9   12.87    3.33
  -7  -3   9   34.36   28.79
  -7  -3   9    3.65   25.60
   7   3  -9    8.43    3.04
   7   3  -9   11.79    3.62
  -7  -3   8    3.54    2.39
  -7  -3   8    5.61    2.68
  -7  -3   8    3.44    1.88
  -7  -3   8   -0.54   18.23
   7   3  -8    0.40    1.48
   7   3  -8    1.37    1.27
  -7  -3   7   66.54    9.26
  -7  -3   7   69.47    7.92
  -7  -3   7   73.13    6.65
  -7  -3   7   55.44   22.10
  -7  -3   7   76.85   22.24
   7   3  -7   67.77    7.74
   7   3  -7   67.81    7.34
  -7  -3   6   42.57    7.31
  -7  -3   6   39.56    7.41
  -7  -3   6   48.93    5.03
  -7  -3   6   30.09   16.53
  -7  -3   6   35.95   18.08
   7   3  -6   40.50    6.94
   7   3  -6   34.75    5.75
   7   3  -6   34.90    5.53
  -7  -3   5   48.97    7.52
  -7  -3   5   45.06    7.12
  -7  -3   5   51.75    4.99
  -7  -3   5   90.01   23.36
  -7  -3   5   50.92   18.66
   7   3  -5   60.40    7.23
   7   3  -5   56.27    6.65
   7   3  -5   62.53    7.09
   7   3  -5   58.59    5.86
  -7  -3   4   -0.36    1.70
  -7  -3   4    1.16    1.70
  -7  -3   4    4.01    2.75
  -7  -3   4    4.09   12.37
  -7  -3   4    3.25   12.80
   7   3  -4   -2.60    2.57
   7   3  -4   -2.89    1.23
   7   3  -4   10.38    3.69
   7   3  -4   -1.88    1.92
  -7  -3   3   65.46    7.09
  -7  -3   3   62.60    7.31
  -7  -3   3   61.12   23.51
  -7  -3   3  127.52   26.36
   7   3  -3   82.46    8.14
   7   3  -3   69.62    7.59
   7   3  -3   66.90    7.56
  -7  -3   2  129.69    9.87
  -7  -3   2  164.19   11.72
  -7  -3   2  184.22    5.68
  -7  -3   2  136.81   31.46
  -7  -3   2  215.18   35.51
   7   3  -2  125.82    9.95
   7   3  -2  142.24   10.63
   7   3  -2  148.10   11.17
  -7  -3   1   15.37    4.48
  -7  -3   1   17.54    4.95
  -7  -3   1   30.27    3.44
   7   3  -1   15.80    4.92
   7   3  -1   21.52    5.21
   7   3  -1   25.86    5.97
  -7  -3   0  145.02   10.63
  -7  -3   0  160.46   11.75
  -7  -3   0  178.00    8.61
  -7  -3   0  138.37   27.45
   7   3   0  128.31   10.56
   7   3   0  143.36   10.99
   7   3   0  162.42   12.15
   7   3   0  159.45   35.12
  -7  -3  -1    4.48    2.78
  -7  -3  -1    6.73    2.97
  -7  -3  -1    9.22    2.71
   7   3   1    5.46    4.05
   7   3   1   11.03    3.58
   7   3   1    5.71    4.16
  -7  -4   8    9.80    3.15
  -7  -4   8   10.42    3.83
  -7  -4   8   10.74   22.64
  -7  -4   8   -5.14   13.67
   7   4  -8   13.74    4.88
   7   4  -8   17.76    4.27
  -7  -4   7   27.74    5.57
  -7  -4   7   22.96    5.28
  -7  -4   7    4.81    3.07
  -7  -4   7   -0.80   20.72
  -7  -4   7   23.83   19.46
   7   4  -7   14.68    4.23
   7   4  -7   30.41    6.04
  -7  -4   6    6.15    2.86
  -7  -4   6    9.04    3.87
  -7  -4   6   11.97    3.22
  -7  -4   6   42.75   23.69
  -7  -4   6  -14.39   15.66
   7   4  -6   17.07    5.21
   7   4  -6   11.97    3.58
   7   4  -6   15.70    4.23
  -7  -4   5   34.18    6.55
  -7  -4   5   24.81    5.17
  -7  -4   5   38.41    4.63
  -7  -4   5   56.02   24.85
  -7  -4   5   51.21   22.78
   7   4  -5   29.73    6.29
   7   4  -5   38.15    7.16
   7   4  -5   30.16    5.03
  -7  -4   4  204.22   13.31
  -7  -4   4  243.71   14.39
  -7  -4   4  230.62    8.64
  -7  -4   4  230.44    8.61
  -7  -4   4  226.07   42.75
  -7  -4   4  237.39   40.79
   7   4  -4  234.31   14.32
   7   4  -4  272.07   14.90
  -7  -4   3   29.22    6.11
  -7  -4   3   23.07    5.68
  -7  -4   3   12.59   13.24
  -7  -4   3   18.48   18.34
   7   4  -3    6.84    3.15
   7   4  -3   27.05    5.82
  -7  -4   2  117.61   10.02
  -7  -4   2  139.09   10.78
  -7  -4   2  159.99    6.84
  -7  -4   2  147.77   34.72
  -7  -4   2  113.45   30.70
   7   4  -2  125.09   10.92
   7   4  -2  146.50   11.65
  -7  -4   1   88.21    8.64
  -7  -4   1   80.97    8.57
  -7  -4   1   84.92    6.18
  -7  -4   1   76.16   27.45
   7   4  -1   78.88    8.90
   7   4  -1   83.40    9.29
  -8   9  -1    3.25    2.64
   8  -9   1    4.92    2.68
  -8   9  -2    5.75    2.86
   8  -9   2    9.95    3.25
   8  -9   2    5.57    2.78
   8  -9   3    6.18    3.15
   8  -9   3   10.23    2.28
   8  -9   3    9.04    3.40
  -8   8   2   21.12    3.25
  -8   8   2   17.36    3.76
  -8   8   2   18.23    4.99
  -8   8   2   13.20   15.73
   8  -8  -2   21.55    4.20
   8  -8  -2   16.17    3.83
   8  -8  -2   24.99    5.79
   8  -8  -2    9.91   13.96
  -8   8   1    1.41    1.88
  -8   8   1   -1.84    1.95
  -8   8   1   -2.64    8.82
   8  -8  -1   -1.63    1.16
   8  -8  -1   -2.28    1.41
   8  -8  -1    7.63    9.98
  -8   8   0   81.33    6.87
  -8   8   0   74.46    8.14
  -8   8   0   81.62    6.84
  -8   8   0   56.53    6.44
   8  -8   0   87.81    4.88
   8  -8   0   67.59    4.52
   8  -8   0   93.59    8.32
  -8   8  -1   10.74    3.58
   8  -8   1    5.28    1.81
   8  -8   1   12.08    2.68
   8  -8   1   11.61    3.72
  -8   8  -2   19.78    4.45
   8  -8   2   26.62    7.70
   8  -8   2   20.36    3.29
   8  -8   2   26.69    4.01
   8  -8   2   20.25    4.41
   8  -8   3   23.69    4.95
   8  -8   3   27.70    4.27
   8  -8   3   26.51    4.74
   8  -8   4   34.25    5.53
   8  -8   4   27.09    4.74
   8  -8   4   27.81    5.06
   8  -8   5    6.11    1.81
   8  -8   5   -0.83    1.70
   8  -8   5    0.07    1.66
  -8   7   4   -0.40    1.81
  -8   7   4   -2.89    1.92
  -8   7   4   -4.63   15.84
   8  -7  -4    2.68    2.03
   8  -7  -4    7.27    3.47
   8  -7  -4    5.10    2.60
   8  -7  -4   -0.69    1.99
   8  -7  -4    0.54    2.10
   8  -7  -4   17.87   16.13
  -8   7   3   75.55    5.79
  -8   7   3   87.27    6.80
  -8   7   3   72.33    8.21
  -8   7   3   83.36   19.49
   8  -7  -3   97.28    7.27
   8  -7  -3   82.46    7.02
   8  -7  -3   80.36    7.31
   8  -7  -3   75.30    4.95
   8  -7  -3   91.61    8.57
   8  -7  -3   54.39   19.75
  -8   7   2    1.48    1.56
  -8   7   2  116.05    6.00
  -8   7   2  142.89    9.15
  -8   7   2  167.48   12.08
   8  -7  -2  153.38    8.43
   8  -7  -2  111.50    7.34
   8  -7  -2  148.28    9.26
   8  -7  -2  133.12    8.68
   8  -7  -2  155.07   10.52
   8  -7  -2  138.51   22.24
  -8   7   1   -2.53    1.23
  -8   7   1    0.43    1.56
  -8   7   1  -11.61    6.15
   8  -7  -1    2.68    1.27
   8  -7  -1    2.57    1.66
   8  -7  -1    2.71    2.24
   8  -7  -1    0.83    1.63
   8  -7  -1   -2.17    0.98
  -8   7   0   56.89    5.97
  -8   7   0   35.98    6.08
   8  -7   0   51.21    3.36
   8  -7   0   33.63    3.07
   8  -7   0   41.88    6.15
   8  -7   0   44.66    4.12
   8  -7   0   43.69    4.27
   8  -7   0   52.04    6.00
  -8   7  -1    1.92    2.13
  -8   7  -1    3.11    1.81
   8  -7   1    3.07    2.17
   8  -7   1    3.40    2.57
   8  -7   1    1.92    1.81
   8  -7   1   -2.10    1.41
   8  -7   1    3.36    2.50
  -8   7  -2  296.30   14.36
  -8   7  -2  312.03   15.80
   8  -7   2  276.23   16.06
   8  -7   2  326.64   14.39
   8  -7   2  282.16   11.50
   8  -7   2  298.97   12.80
   8  -7   3    5.10    2.13
   8  -7   3    7.45    2.64
   8  -7   3    6.04    2.31
   8  -7   4    4.77    2.39
   8  -7   4    7.09    2.60
   8  -7   4    9.22    2.75
   8  -7   5  168.31   10.70
   8  -7   5  133.34    8.03
  -8   6   5   39.31    6.00
  -8   6   5   39.31    5.97
  -8   6   5   27.70    5.86
  -8   6   5   58.12   21.88
   8  -6  -5   44.52    7.05
   8  -6  -5   24.56    5.03
   8  -6  -5   35.51    4.92
   8  -6  -5   35.04    6.37
   8  -6  -5   14.39   14.00
  -8   6   4    4.56    2.17
  -8   6   4    0.11    1.45
  -8   6   4   -2.31    1.95
  -8   6   4  -13.89    9.76
   8  -6  -4    1.16    1.48
   8  -6  -4   -2.50    2.17
   8  -6  -4   -2.24    1.56
   8  -6  -4    3.07    1.92
   8  -6  -4    0.22    1.52
   8  -6  -4    9.62   16.89
  -8   6   3    1.70    1.52
  -8   6   3    2.97    1.84
  -8   6   3   -2.13    1.37
  -8   6   3  -12.95   11.21
   8  -6  -3    1.92    1.34
   8  -6  -3   -0.61    1.56
   8  -6  -3   -0.25    1.84
   8  -6  -3   -4.20    1.59
   8  -6  -3    3.25    3.04
   8  -6  -3   -8.86   10.09
  -8   6   2   47.70    3.69
  -8   6   2   50.09    4.05
  -8   6   2   50.45    5.61
  -8   6   2   67.59    7.49
  -8   6   2   -0.11    1.77
  -8   6   2   76.96   15.08
   8  -6  -2   61.23    5.17
   8  -6  -2   46.04    4.74
   8  -6  -2   70.59    5.79
   8  -6  -2   64.48    5.35
   8  -6  -2   57.79    6.11
   8  -6  -2   63.47   15.44
  -8   6   1    2.35    1.88
  -8   6   1    5.89    2.24
  -8   6   1    3.36    7.41
  -8   6   1   -0.11    6.65
   8  -6  -1    3.40    1.41
   8  -6  -1    5.46    1.74
   8  -6  -1    5.06    2.31
   8  -6  -1    5.35    2.06
   8  -6  -1    4.23    1.92
  -8   6   0  227.51   12.19
  -8   6   0  240.68   13.89
  -8   6   0  180.75    7.52
  -8   6   0  190.95    8.06
   8  -6   0  205.27    6.69
   8  -6   0  241.87   10.81
   8  -6   0  226.39   10.13
   8  -6   0  207.77   10.31
  -8   6  -1   -1.92    1.23
   8  -6   1   -0.90    1.34
   8  -6   1   -1.37    1.16
  -8   6  -2   23.25    5.10
   8  -6   2   19.64    4.95
   8  -6   2   37.90    4.74
   8  -6   2   28.71    4.63
   8  -6   2   28.50    4.41
  -8   6  -3   57.90    7.05
   8  -6   3   55.55   11.17
   8  -6   3   59.56    6.29
   8  -6   3   57.54    5.82
   8  -6   3   50.20    4.74
   8  -6   4   12.84    4.01
   8  -6   4   22.28    4.85
   8  -6   4   11.72    2.75
   8  -6   5    5.61    2.39
   8  -6   5    5.57    2.68
   8  -6   5    5.17    1.81
  -8   5   6   87.81    8.14
  -8   5   6   84.52    7.92
  -8   5   6   83.65    8.93
  -8   5   6  106.43   28.03
   8  -5  -6   94.72    8.57
   8  -5  -6   74.43    8.06
   8  -5  -6   91.14    7.45
   8  -5  -6   88.60    8.35
   8  -5  -6   47.38   19.78
  -8   5   5   16.06    4.01
  -8   5   5   18.62    4.05
  -8   5   5   21.66    5.46
  -8   5   5   43.40   21.01
   8  -5  -5   21.88    4.23
   8  -5  -5   13.34    4.16
   8  -5  -5   21.48    3.87
   8  -5  -5   16.46    4.01
   8  -5  -5   19.02    4.92
   8  -5  -5   16.02   14.54
  -8   5   4   18.84    4.05
  -8   5   4   28.75    4.95
  -8   5   4   18.73    4.48
  -8   5   4   18.19   14.00
   8  -5  -4   19.60    3.94
   8  -5  -4   16.64    4.16
   8  -5  -4   21.19    3.40
   8  -5  -4   18.59    3.87
   8  -5  -4   28.46    5.53
   8  -5  -4   35.51   13.31
  -8   5   3   12.19    2.78
  -8   5   3   16.09    3.36
  -8   5   3   17.14    4.95
  -8   5   3   13.31    3.65
  -8   5   3   -5.86    8.25
   8  -5  -3   13.96    3.72
   8  -5  -3    9.11    3.00
   8  -5  -3   15.37    3.00
   8  -5  -3   23.80    4.30
   8  -5  -3   14.43    3.72
   8  -5  -3   25.68   12.22
  -8   5   2   26.40    3.11
  -8   5   2   41.55    6.44
  -8   5   2   32.84    5.61
  -8   5   2   24.81   10.20
  -8   5   2   31.17   10.52
   8  -5  -2   52.87    4.67
   8  -5  -2   42.17    4.48
   8  -5  -2   43.54    4.09
   8  -5  -2   40.90    4.70
   8  -5  -2   43.51    4.85
  -8   5   1    7.34    3.07
  -8   5   1    4.30    2.64
  -8   5   1   -8.28    6.65
  -8   5   1   -7.52    5.86
   8  -5  -1    4.77    1.45
   8  -5  -1    4.52    1.81
   8  -5  -1    4.77    2.24
   8  -5  -1    5.57    2.03
  -8   5   0  140.57   12.33
  -8   5   0  138.95   10.45
  -8   5   0  140.17   11.36
  -8   5   0  121.88   10.99
   8  -5   0  126.03    5.64
   8  -5   0  129.65    5.53
   8  -5   0  138.84   12.33
   8  -5   0  165.53    8.25
   8  -5   0  169.40    9.55
   8  -5   0  131.93    7.31
  -8   5  -1   15.30    4.38
  -8   5  -1   12.04    3.33
   8  -5   1   15.55    3.25
   8  -5   1   12.04    2.68
  -8   5  -2   31.57    5.75
   8  -5   2   49.22   10.56
   8  -5   2   36.45    4.99
   8  -5   2   47.27    3.91
  -8   5  -3   -1.59    1.63
   8  -5   3    0.11    1.12
   8  -5   3    2.10    2.28
   8  -5   3    2.10    1.66
   8  -5   3    0.33    0.98
   8  -5   4   60.25    6.94
   8  -5   4   70.12    7.02
   8  -5   4   53.99    7.96
   8  -5   4   64.37    3.72
  -8   5  -5  114.10    9.08
   8  -5   5  114.21    9.40
   8  -5   5   98.22    9.26
  -8   4   7    6.73    2.97
  -8   4   7    5.89    2.53
  -8   4   7   14.32    4.48
  -8   4   7  -11.54   14.61
   8  -4  -7    6.51    2.86
   8  -4  -7   21.81    8.57
   8  -4  -7   15.44    3.87
   8  -4  -7   -4.99   15.80
  -8   4   6   -1.16    1.77
  -8   4   6    0.00    1.34
  -8   4   6    1.19    2.42
  -8   4   6  -25.06   10.52
   8  -4  -6    4.85    2.24
   8  -4  -6    5.75    2.57
   8  -4  -6   -1.81    2.17
   8  -4  -6   -2.31    1.34
   8  -4  -6   34.18   18.08
  -8   4   5   10.52    3.07
  -8   4   5    7.12    2.68
  -8   4   5   14.61    4.77
  -8   4   5  -15.41   13.34
   8  -4  -5    6.73    2.57
   8  -4  -5    9.84    3.07
   8  -4  -5   14.14    2.68
   8  -4  -5   10.38    3.44
   8  -4  -5   12.95    3.44
   8  -4  -5   -0.72   10.16
  -8   4   4   -1.16    1.34
  -8   4   4    0.98    1.66
  -8   4   4    2.53    2.39
  -8   4   4    0.43    1.77
  -8   4   4    2.46   10.92
   8  -4  -4    1.05    1.52
   8  -4  -4   -3.15    1.59
   8  -4  -4    0.33    1.12
   8  -4  -4    5.24    2.97
   8  -4  -4   -1.77    0.87
   8  -4  -4   -4.01   11.50
  -8   4   3   -1.66    1.16
  -8   4   3    0.76    1.41
  -8   4   3    2.75    1.34
  -8   4   3    4.38    2.24
  -8   4   3    1.92    2.13
  -8   4   3   16.49    9.95
  -8   4   3    4.34    8.43
   8  -4  -3    1.92    1.81
   8  -4  -3    5.03    1.74
   8  -4  -3    2.21    1.23
   8  -4  -3    2.46    1.99
   8  -4  -3    3.98    2.31
  -8   4   2   -1.05    1.37
  -8   4   2    0.72    1.56
  -8   4   2   -1.37    1.30
  -8   4   2   -0.87    1.30
  -8   4   2   10.52    7.96
   8  -4  -2    3.58    1.41
   8  -4  -2    0.00    1.41
   8  -4  -2    0.40    0.98
   8  -4  -2    2.53    1.27
  -8   4   1   85.71    4.38
  -8   4   1   75.44    4.09
  -8   4   1   60.97   12.51
  -8   4   1  103.65    9.04
  -8   4   1  103.11   15.88
  -8   4   1   74.28   14.54
   8  -4  -1   91.42    5.82
   8  -4  -1  100.90    5.82
   8  -4  -1  103.00    8.79
   8  -4  -1   99.96    5.42
   8  -4  -1  107.70   10.92
   8  -4  -1   90.74    5.79
  -8   4   0   54.75    6.18
  -8   4   0   27.59    5.24
  -8   4   0   45.89    9.58
   8  -4   0   44.41    3.76
   8  -4   0   39.85    3.54
   8  -4   0   44.23    7.41
   8  -4   0   48.89    4.23
   8  -4   0   43.51    3.72
  -8   4  -1   15.98    4.12
  -8   4  -1   12.48    4.74
  -8   4  -1   12.22    5.14
   8  -4   1   17.72    2.64
   8  -4   1   13.06    2.24
   8  -4   1   15.44    3.51
   8  -4   1   19.02    3.44
   8  -4   1   12.26    2.24
  -8   4  -2    6.55    2.28
   8  -4   2    6.11    1.48
   8  -4   2    7.85    1.74
   8  -4   2    8.39    3.04
   8  -4   2    5.24    2.13
  -8   4  -3    0.72    1.48
   8  -4   3    0.61    2.21
  -8   4  -4  280.49   15.80
  -8   4  -4  288.27   13.24
   8  -4   4  262.20   14.39
   8  -4   4  257.49   14.43
  -8   4  -5   18.23    4.70
   8  -4   5   10.45    4.01
   8  -4   5   12.80    3.91
  -8   3   8    5.03    2.64
  -8   3   8    0.58    1.70
  -8   3   8    1.45    2.78
  -8   3   8    5.24   18.88
   8  -3  -8   -0.36    2.28
   8  -3  -8    1.88    1.34
   8  -3  -8   -0.65    2.17
   8  -3  -8   -9.80   15.44
  -8   3   7    6.80    3.25
  -8   3   7    6.94    2.53
  -8   3   7   16.06    4.77
   8  -3  -7   19.17    5.03
   8  -3  -7    5.50    3.76
   8  -3  -7   16.06    3.94
   8  -3  -7   13.02   16.31
  -8   3   6    2.93    2.24
  -8   3   6    1.84    1.66
  -8   3   6    4.34    2.50
  -8   3   6    6.47    9.98
   8  -3  -6    7.78    2.75
   8  -3  -6   -1.08    2.75
   8  -3  -6    0.40    1.66
   8  -3  -6    1.99   10.81
  -8   3   5   52.91    5.71
  -8   3   5   64.55    6.98
  -8   3   5   84.16    8.53
  -8   3   5   52.19    5.75
  -8   3   5   39.46   17.29
   8  -3  -5   73.20    6.76
   8  -3  -5   57.39    6.51
   8  -3  -5  156.96   10.13
   8  -3  -5   53.74    5.82
   8  -3  -5   64.08   19.35
  -8   3   4   82.85    6.51
  -8   3   4  106.94    8.79
  -8   3   4  133.67   10.38
  -8   3   4  100.50    7.27
  -8   3   4  116.78   24.12
   8  -3  -4  121.69    8.28
   8  -3  -4  101.98    7.74
   8  -3  -4  124.48    8.72
   8  -3  -4  115.94    7.78
  -8   3   3   -0.07    1.12
  -8   3   3    1.01    1.34
  -8   3   3   -1.59    1.45
  -8   3   3   -0.11    1.34
  -8   3   3  -11.07    8.10
  -8   3   3   -5.32    7.67
   8  -3  -3   -0.83    1.05
   8  -3  -3    1.92    1.30
   8  -3  -3    3.80    2.24
   8  -3  -3    0.22    1.37
  -8   3   2  112.65    6.47
  -8   3   2   84.66    5.71
  -8   3   2  100.54    8.53
  -8   3   2  120.97    9.73
  -8   3   2   93.27    5.64
  -8   3   2  137.17   21.88
  -8   3   2  107.74   18.48
   8  -3  -2   93.20    6.55
   8  -3  -2  110.05    6.98
   8  -3  -2  106.79    9.26
   8  -3  -2  121.59    8.68
  -8   3   1   38.19    3.51
  -8   3   1   32.77    4.70
  -8   3   1   27.34    5.32
  -8   3   1   20.61    4.20
  -8   3   1   18.91   10.56
  -8   3   1    3.98    8.79
   8  -3  -1   32.15    3.98
   8  -3  -1   33.49    4.77
   8  -3  -1   28.64    5.17
   8  -3  -1   48.28    7.09
   8  -3  -1   31.90    3.04
  -8   3   0   21.52    2.50
  -8   3   0   20.04    2.46
  -8   3   0   21.70    4.70
  -8   3   0   29.76    8.57
  -8   3   0   13.78    7.96
   8  -3   0   16.60    3.07
   8  -3   0   21.48    3.51
   8  -3   0   18.34    4.38
  -8   3  -1  363.53   16.85
  -8   3  -1  429.96   28.35
  -8   3  -1  348.01   23.18
   8  -3   1  356.48   10.78
   8  -3   1  396.84   17.47
  -8   3  -2  427.94   18.84
  -8   3  -2  460.41   26.80
  -8   3  -2  346.78   22.82
   8  -3   2  369.64   10.70
   8  -3   2  380.16   10.85
   8  -3   2  449.53   18.73
  -8   3  -3   31.03    6.37
  -8   3  -3   33.92    5.32
  -8   3  -3   55.22   10.38
  -8   3  -3   36.45   10.56
   8  -3   3   24.85    3.44
   8  -3   3   29.44    3.40
   8  -3   3   28.10    5.53
  -8   3  -4   26.54    6.04
  -8   3  -4   29.51    4.99
  -8   3  -4   29.29    9.11
  -8   3  -4   25.53    9.40
   8  -3   4   27.16    3.29
   8  -3   4   26.76    3.65
   8  -3   4   15.91    3.91
   8  -3   4   22.96    5.50
  -8   3  -5    9.08    3.44
  -8   3  -5    4.27    8.57
   8  -3   5    9.37    2.50
   8  -3   5   14.10    2.86
   8  -3   5   16.49    4.48
   8  -3   5    7.67    3.18
  -8   2   8   -3.11    1.66
  -8   2   8   -1.27    1.81
  -8   2   8    0.83    1.74
  -8   2   8    8.53   17.61
   8  -2  -8    2.57    2.03
   8  -2  -8   -1.74    1.45
   8  -2  -8   16.20   20.54
  -8   2   7   36.71    6.26
  -8   2   7   21.23    4.88
  -8   2   7   22.71    5.28
  -8   2   7   32.33   21.12
   8  -2  -7   21.01    5.21
   8  -2  -7   37.18    9.51
   8  -2  -7   26.40    5.10
   8  -2  -7    9.80   14.61
  -8   2   6  250.55   12.80
  -8   2   6  283.75   15.08
  -8   2   6  283.39   15.30
  -8   2   6    4.56    2.50
  -8   2   6   -3.25   11.39
   8  -2  -6  304.98   14.90
   8  -2  -6  290.95   14.21
   8  -2  -6  255.22   12.55
  -8   2   5  260.24   12.44
  -8   2   5  279.74   14.68
  -8   2   5  273.73   14.65
  -8   2   5  273.44   11.90
  -8   2   5  320.96   36.31
  -8   2   5  264.29   31.86
   8  -2  -5  295.39   13.81
   8  -2  -5  272.57   13.06
   8  -2  -5  257.75   11.72
  -8   2   4   74.57    6.40
  -8   2   4   93.31    8.53
  -8   2   4   89.11    8.43
  -8   2   4  100.57    6.51
  -8   2   4   70.59   18.62
  -8   2   4   65.31   19.24
   8  -2  -4  105.49    7.88
   8  -2  -4  100.29    7.56
   8  -2  -4   89.22    6.33
  -8   2   3   93.74    6.58
  -8   2   3   84.26    8.03
  -8   2   3   92.22    8.50
  -8   2   3   95.40    5.79
  -8   2   3   92.80   20.04
  -8   2   3   90.88   20.18
   8  -2  -3  105.96    7.49
   8  -2  -3   96.99   11.46
   8  -2  -3  111.60    9.29
  -8   2   2    2.39    1.23
  -8   2   2   43.04    4.34
  -8   2   2   55.44    6.69
  -8   2   2   47.38    7.63
  -8   2   2   42.49    3.40
  -8   2   2   84.37   16.96
  -8   2   2   46.04   12.33
   8  -2  -2   51.21    5.03
   8  -2  -2   54.46    5.14
   8  -2  -2   53.09    8.17
  -8   2   1  188.38    8.28
  -8   2   1  135.40    7.02
  -8   2   1  170.52   11.54
  -8   2   1  217.53   25.03
  -8   2   1  171.49   21.19
   8  -2  -1  142.53    8.06
   8  -2  -1  161.26    8.53
   8  -2  -1  173.52   11.72
  -8   2   0  120.18    6.26
  -8   2   0   -0.90    1.05
  -8   2   0  123.90    9.84
  -8   2   0  114.21   20.04
  -8   2   0  112.58   18.55
   8  -2   0  110.09    6.98
   8  -2   0  132.07    7.56
   8  -2   0  134.75   10.42
  -8   2  -1   28.97    3.15
  -8   2  -1   26.33    3.15
  -8   2  -1   25.10    5.82
  -8   2  -1   11.54    9.04
  -8   2  -1   35.62   11.83
   8  -2   1   26.54    4.23
   8  -2   1   21.77    3.65
   8  -2   1   33.16    5.93
  -8   2  -2   58.80    4.09
  -8   2  -2   46.58    3.87
  -8   2  -2   56.34    7.02
  -8   2  -2   52.51    4.95
  -8   2  -2   84.08   16.02
  -8   2  -2   57.83   14.47
   8  -2   2   41.95    4.56
   8  -2   2   44.01    4.52
   8  -2   2   31.86    6.37
  -8   2  -3   31.32    3.25
  -8   2  -3   21.41    3.00
  -8   2  -3   21.37    5.14
  -8   2  -3   24.88    4.34
  -8   2  -3    6.91    9.08
   8  -2   3   17.61    3.44
   8  -2   3   29.73    4.59
   8  -2   3   32.55    6.91
  -8   2  -4   86.80    5.17
  -8   2  -4  103.50   10.38
  -8   2  -4  116.63    8.28
  -8   2  -4   74.46   16.78
   8  -2   4   63.11    6.08
   8  -2   4   90.45    6.62
   8  -2   4  109.47    9.91
   8  -2   4  109.47   10.09
  -8   1   8  344.14   16.89
  -8   1   8  416.69   19.42
  -8   1   8  436.29   19.28
  -8   1   8  506.31   54.54
   8  -1  -8  456.44   19.96
  -8   1   7  107.99    9.15
  -8   1   7  122.20   10.34
  -8   1   7  151.64   11.07
  -8   1   7  136.56   32.04
  -8   1   7  114.57   29.15
   8  -1  -7  133.41   10.34
   8  -1  -7  120.39   10.02
  -8   1   6    1.19    1.48
  -8   1   6   -0.72    1.01
  -8   1   6    1.19    1.70
  -8   1   6   -0.36    1.77
  -8   1   6    9.80   19.49
  -8   1   6  -13.31   10.52
   8  -1  -6    0.36    1.45
   8  -1  -6   -1.66    2.24
  -8   1   5   75.37    7.70
  -8   1   5   74.72    7.67
  -8   1   5   81.66    7.74
  -8   1   5   75.11    6.15
  -8   1   5  115.91   22.93
  -8   1   5  114.03   24.16
   8  -1  -5   92.98    8.10
   8  -1  -5   71.46    7.16
  -8   1   4    6.15    2.57
  -8   1   4    7.74    2.86
  -8   1   4   14.25    3.47
  -8   1   4   15.23    2.89
  -8   1   4   11.57   10.81
  -8   1   4   11.65    9.98
   8  -1  -4   18.08    4.30
   8  -1  -4   11.07    2.97
   8  -1  -4   16.06    4.59
  -8   1   3   47.30    5.14
  -8   1   3   65.82    7.31
  -8   1   3   64.16    6.84
  -8   1   3   64.63    4.20
  -8   1   3   50.02   17.03
  -8   1   3   41.95   15.19
   8  -1  -3   59.27    6.15
   8  -1  -3   58.04    5.86
   8  -1  -3   70.88    7.31
  -8   1   2    6.44    2.35
  -8   1   2    2.21    2.03
  -8   1   2    0.54   12.30
  -8   1   2   -6.65    9.08
   8  -1  -2   10.85    2.82
   8  -1  -2    4.67    1.77
   8  -1  -2    7.27    3.29
  -8   1   1   95.62    6.65
  -8   1   1  119.13    9.76
  -8   1   1  137.75   23.90
  -8   1   1  107.01   21.77
   8  -1  -1   98.19    7.31
   8  -1  -1  105.13    7.85
   8  -1  -1  109.51    9.37
  -8   1   0   18.66    3.18
  -8   1   0   14.43    4.41
  -8   1   0  -11.83    9.40
  -8   1   0   27.05   11.07
   8  -1   0    9.26    3.11
   8  -1   0   16.38    3.54
   8  -1   0   12.12    3.83
  -8   1  -1   49.47    4.77
  -8   1  -1   57.97    7.16
  -8   1  -1   58.23    5.86
  -8   1  -1   58.77   15.77
  -8   1  -1   16.46   12.26
   8  -1   1   37.58    5.32
   8  -1   1   52.80    5.46
   8  -1   1   41.30    6.47
  -8   1  -2   34.72    4.27
  -8   1  -2   49.04    7.78
  -8   1  -2   51.75    4.81
  -8   1  -2   30.56   14.97
  -8   1  -2   11.61   10.96
   8  -1   2   32.62    4.99
   8  -1   2   44.12    5.06
   8  -1   2   38.66    7.49
  -8   1  -3   28.21    4.12
  -8   1  -3   22.53    5.28
  -8   1  -3   25.79    4.27
  -8   1  -3   -0.14   12.98
   8  -1   3   16.06    3.87
   8  -1   3   18.66    3.94
   8  -1   3   12.55    4.27
  -8   0   8    0.58    2.10
  -8   0   8   -2.17    1.23
  -8   0   8    2.10    1.81
  -8   0   8   11.86   19.28
  -8   0   8   32.98   20.07
   8   0  -8    3.25    1.84
  -8   0   7    6.65    2.71
  -8   0   7    8.46    3.62
  -8   0   7   17.90    4.67
  -8   0   7   17.79   15.30
  -8   0   7   -0.80   15.91
   8   0  -7    7.34    3.25
   8   0  -7   17.03    4.77
  -8   0   6    8.28    3.11
  -8   0   6    6.11    3.11
  -8   0   6    9.73    3.47
  -8   0   6    8.39    2.97
  -8   0   6  -11.72   11.65
  -8   0   6   -1.88   13.89
   8   0  -6    7.56    2.97
   8   0  -6    6.37    2.31
  -8   0   5   25.64    5.06
  -8   0   5   38.44    7.05
  -8   0   5   20.58    4.38
  -8   0   5   19.64    3.87
  -8   0   5   19.42   14.90
   8   0  -5   33.45    6.00
   8   0  -5   32.08    5.89
   8   0  -5   29.66    5.93
  -8   0   4    0.36    1.56
  -8   0   4    3.65    2.60
  -8   0   4    5.64    2.68
  -8   0   4    2.06    1.56
  -8   0   4    1.48   11.17
  -8   0   4   29.87   12.59
   8   0  -4    2.10    2.71
   8   0  -4    3.47    1.74
   8   0  -4   -0.25    1.16
  -8   0   3   45.93    6.65
  -8   0   3   60.61    7.12
  -8   0   3   45.24    3.00
  -8   0   3   57.00   17.32
  -8   0   3   27.34   14.32
   8   0  -3   47.88    5.89
   8   0  -3   43.51    5.24
   8   0  -3   62.17    7.02
  -8   0   2   21.26    3.98
  -8   0   2   26.69    5.86
  -8   0   2   34.10   14.57
  -8   0   2   14.43   12.98
   8   0  -2   20.98    4.52
   8   0  -2   18.12    4.30
   8   0  -2   12.91    3.91
  -8   0   1   84.05    6.87
  -8   0   1   76.60    8.21
  -8   0   1   72.29   20.29
  -8   0   1   44.77   16.71
   8   0  -1   59.20    6.18
   8   0  -1   85.42    7.16
   8   0  -1   73.38    8.10
  -8   0   0    5.17    2.46
  -8   0   0    2.06    2.03
  -8   0   0    4.12    1.27
  -8   0   0  -11.79    8.03
  -8   0   0   -3.44   11.14
   8   0   0   -0.25    2.10
   8   0   0    5.32    2.24
   8   0   0    3.94    1.99
  -8   0  -1   61.08    5.86
  -8   0  -1   73.41    8.35
  -8   0  -1   88.89    5.61
  -8   0  -1   23.40   18.41
  -8   0  -1   49.04   19.10
   8   0   1   70.77    7.20
   8   0   1   65.60    6.47
   8   0   1   63.54    7.56
  -8   0  -2   -1.84    1.63
  -8   0  -2    3.11    2.50
  -8   0  -2    1.48    1.66
  -8   0  -2   -5.39   11.28
   8   0   2   -3.18    2.35
   8   0   2   -2.35    1.34
   8   0   2    1.99    1.88
  -8   0  -3  140.93    9.22
  -8   0  -3  177.21   10.16
   8   0   3  134.46    9.55
   8   0   3  172.33   13.09
  -8  -1   8    0.90    2.31
  -8  -1   8    0.18    1.74
  -8  -1   8    4.27    2.17
  -8  -1   8   11.03   17.72
  -8  -1   8   22.35   19.49
   8   1  -8    8.03    3.00
  -8  -1   7    1.16    1.95
  -8  -1   7    0.87    1.37
  -8  -1   7   -0.04    1.05
  -8  -1   7   -3.94    2.42
  -8  -1   7    9.98   20.54
  -8  -1   7   10.60   17.83
   8   1  -7    1.27    1.95
   8   1  -7    1.48    2.10
  -8  -1   6   15.66    4.05
  -8  -1   6   10.60    3.62
  -8  -1   6   15.19    3.80
  -8  -1   6   11.65    2.93
  -8  -1   6    9.33   16.93
  -8  -1   6   10.13   12.08
   8   1  -6   13.81    3.62
   8   1  -6   12.55    3.58
   8   1  -6   11.86    3.83
  -8  -1   5    3.51    2.78
  -8  -1   5    6.08    3.15
  -8  -1   5    3.29    2.13
  -8  -1   5   13.53   13.78
  -8  -1   5  -34.86   18.19
   8   1  -5    8.72    2.93
   8   1  -5    6.04    2.64
   8   1  -5   13.85    4.59
  -8  -1   4   11.50    3.91
  -8  -1   4   12.26    3.58
  -8  -1   4   11.90    2.42
  -8  -1   4   12.80   15.98
  -8  -1   4   47.34   18.37
   8   1  -4    4.52    3.22
   8   1  -4    8.39    3.07
   8   1  -4   20.94    5.24
  -8  -1   3   69.15    6.98
  -8  -1   3   75.15    8.14
  -8  -1   3   16.85   13.96
  -8  -1   3   93.20   23.22
   8   1  -3   67.66    7.20
   8   1  -3   66.58    7.16
   8   1  -3   62.06    7.49
  -8  -1   2   48.06    7.16
  -8  -1   2   71.68    7.92
  -8  -1   2   77.03   24.01
  -8  -1   2  114.57   24.09
   8   1  -2   49.51    7.23
   8   1  -2   71.14    7.20
   8   1  -2   70.05    7.81
  -8  -1   1   80.18    8.21
  -8  -1   1  103.58    9.80
  -8  -1   1   56.45   21.74
  -8  -1   1   75.84   23.94
   8   1  -1   83.36    7.85
   8   1  -1   93.63    8.14
   8   1  -1  101.88    9.48
  -8  -1   0   23.62    4.77
  -8  -1   0   37.21    6.58
  -8  -1   0   47.38    3.69
  -8  -1   0   45.35   20.61
  -8  -1   0   21.63   16.49
   8   1   0   31.25    5.75
   8   1   0   34.43    5.68
   8   1   0   48.17    8.53
  -8  -1  -1   78.66    7.67
  -8  -1  -1  109.76   10.31
  -8  -1  -1  133.59    7.31
  -8  -1  -1   89.76   35.48
   8   1   1   72.62    8.06
   8   1   1   94.17    8.46
   8   1   1  110.77   10.42
  -8  -2   7   44.95    7.52
  -8  -2   7   54.32    8.97
  -8  -2   7   39.09    6.11
  -8  -2   7   53.02    6.37
  -8  -2   7   68.42   25.21
  -8  -2   7   91.86   26.65
   8   2  -7   33.56    5.57
   8   2  -7   50.16    7.88
  -8  -2   6    2.31    2.17
  -8  -2   6    3.04    1.95
  -8  -2   6    6.40    2.78
  -8  -2   6    8.17   13.20
  -8  -2   6  -15.19   14.00
   8   2  -6    7.16    2.89
   8   2  -6    6.11    3.07
  -8  -2   5   15.66    3.65
  -8  -2   5   26.36    6.00
  -8  -2   5   37.65    4.12
  -8  -2   5    3.22   16.09
  -8  -2   5   19.93   14.97
   8   2  -5   24.85    5.79
   8   2  -5   35.84    7.12
   8   2  -5   28.06    6.15
  -8  -2   4   56.81    8.06
  -8  -2   4   60.94    9.55
  -8  -2   4   66.54    4.09
  -8  -2   4  127.59   30.02
  -8  -2   4   38.80   21.63
   8   2  -4   40.25    6.62
   8   2  -4   52.29    8.25
   8   2  -4   67.12    7.63
  -8  -2   3    8.50    3.11
  -8  -2   3    6.08    2.86
  -8  -2   3   48.93   18.84
  -8  -2   3   29.04   18.91
   8   2  -3    6.62    3.25
   8   2  -3    6.65    3.07
   8   2  -3    2.75    1.99
  -8  -2   2   32.11    6.04
  -8  -2   2   28.57    5.75
  -8  -2   2   28.53   18.77
   8   2  -2   34.14    8.57
   8   2  -2   28.21    5.64
   8   2  -2   25.28    5.75
  -8  -2   1    2.64    2.28
  -8  -2   1    9.84    4.12
  -8  -2   1   12.77   15.70
   8   2  -1   23.00    5.50
   8   2  -1    8.17    3.15
   8   2  -1   10.49    4.12
  -8  -2   0   -0.51    2.46
  -8  -2   0    7.70    3.33
  -8  -2   0  -23.94   12.87
   8   2   0   -0.29    2.10
   8   2   0    5.61    2.57
  -8  -3   6    3.76    3.36
  -8  -3   6   25.35    6.29
  -8  -3   6   14.68    4.09
  -8  -3   6  -29.11   18.88
  -8  -3   6   -4.88   13.06
   8   3  -6    8.03    3.04
   8   3  -6   27.34    5.93
  -8  -3   5   21.30    4.92
  -8  -3   5   21.95    5.24
  -8  -3   5   22.75    3.76
  -8  -3   5  -36.96   15.73
  -8  -3   5   13.13   12.87
   8   3  -5   24.01    5.93
   8   3  -5   20.98    5.61
  -8  -3   4  120.83   10.52
  -8  -3   4  145.24   12.26
  -8  -3   4  131.78   42.89
  -8  -3   4  138.73   32.58
   8   3  -4  114.10   10.63
   8   3  -4  147.08   11.93
  -8  -3   3   18.41    4.27
  -8  -3   3    9.69    4.09
  -8  -3   3   -7.63   19.17
   8   3  -3   18.70    5.24
   8   3  -3   13.74    4.27
  -9   7   2   62.53    6.98
  -9   7   2   42.71    7.96
  -9   7   2   70.56   18.44
   9  -7  -2   66.47    5.32
   9  -7  -2   37.36    5.10
   9  -7  -2   55.84    6.44
   9  -7  -2   72.87    6.15
   9  -7  -2   59.85    6.65
  -9   7   1    9.40    3.11
  -9   7   1    9.19    3.47
  -9   7   1   12.33    7.45
  -9   7   1   15.73    7.05
   9  -7  -1    5.39    2.24
   9  -7  -1    5.06    2.28
   9  -7  -1   10.34    3.25
   9  -7  -1   12.44    3.15
   9  -7  -1    2.71    2.57
  -9   7   0   87.41    7.96
  -9   7   0   89.00    9.29
   9  -7   0   89.15    8.57
   9  -7   0   98.66    7.85
   9  -7   0   71.90    6.33
   9  -7   0   66.25    6.69
  -9   7  -1    4.85    2.60
  -9   7  -1    5.82    3.25
   9  -7   1   -0.25    1.77
   9  -7   1    0.43    2.06
   9  -7   1    3.80    2.06
  -9   7  -2    0.54    1.92
   9  -7   2    6.47    3.11
   9  -7   2    1.41    2.17
   9  -7   2    5.32    2.10
  -9   6   3    2.89    1.88
  -9   6   3    1.34    1.66
  -9   6   3    1.41    2.06
  -9   6   3   11.25   15.44
   9  -6  -3   -1.52    1.34
   9  -6  -3    1.34    2.17
   9  -6  -3   -2.28    1.88
   9  -6  -3   -0.25    2.42
   9  -6  -3   -3.33    1.77
  -9   6   2   91.39    8.25
  -9   6   2   80.14    8.90
  -9   6   2   73.20   17.07
   9  -6  -2  113.99    6.94
   9  -6  -2   83.72    6.29
   9  -6  -2   87.45    6.40
   9  -6  -2   95.80    8.32
   9  -6  -2   85.02    7.38
  -9   6   1   15.41    4.27
  -9   6   1   18.01    4.95
  -9   6   1   15.44    7.85
  -9   6   1    1.41    7.20
   9  -6  -1   10.67    2.57
   9  -6  -1   12.30    2.97
   9  -6  -1   11.46    3.51
   9  -6  -1    9.87    2.89
  -9   6   0   -0.25    2.24
  -9   6   0    6.33    2.89
   9  -6   0    5.86    1.41
   9  -6   0    5.71    1.41
   9  -6   0    6.33    2.28
   9  -6   0    5.89    2.60
   9  -6   0    7.12    2.93
   9  -6   0    5.93    2.13
  -9   6  -1  153.01   11.07
   9  -6   1  144.12   10.78
   9  -6   1  131.50    8.46
   9  -6   1  133.52    9.33
   9  -6   1  121.77    7.38
  -9   6  -2   18.55    4.52
   9  -6   2   29.37    5.89
   9  -6   2   29.91    4.77
   9  -6   2   23.47    7.45
   9  -6   2   25.42    3.94
  -9   6  -3   25.86    5.64
   9  -6   3   27.88    5.57
   9  -6   3   17.97    4.52
   9  -6   3   22.64    3.40
  -9   5   5   -0.58    2.50
  -9   5   5    1.41    2.71
  -9   5   5  -13.96   15.04
   9  -5  -5   11.03    3.29
   9  -5  -5    8.57    2.57
   9  -5  -5    1.99   19.57
  -9   5   4   44.95    5.24
  -9   5   4   35.26    5.93
  -9   5   4   61.88    7.56
  -9   5   4   76.52   20.65
   9  -5  -4   46.65    5.61
   9  -5  -4   42.31    6.00
   9  -5  -4   57.97    4.41
   9  -5  -4   51.06    6.98
   9  -5  -4   57.32    8.03
  -9   5   3   -1.88    2.06
  -9   5   3   -1.95    1.84
  -9   5   3   -4.01    2.03
  -9   5   3   42.57   14.25
   9  -5  -3    4.77    1.84
   9  -5  -3    1.41    2.17
   9  -5  -3   -1.34    1.34
   9  -5  -3   10.74    3.18
   9  -5  -3    3.58    2.24
  -9   5   2    5.86    1.92
  -9   5   2    9.15    1.99
  -9   5   2   11.03    3.62
  -9   5   2   13.45    4.45
  -9   5   2  -16.56    9.87
  -9   5   2   21.81   10.67
   9  -5  -2    6.04    2.17
   9  -5  -2   10.05    3.04
   9  -5  -2    3.07    2.03
  -9   5   1   10.52    3.76
  -9   5   1    2.31    2.24
  -9   5   1   18.77   10.13
  -9   5   1    1.56    8.17
   9  -5  -1    3.83    1.66
   9  -5  -1    4.30    1.52
   9  -5  -1    6.98    3.04
   9  -5  -1    3.51    2.03
   9  -5  -1   -1.59    2.35
   9  -5  -1    5.46    2.31
  -9   5   0   35.30    6.33
  -9   5   0   29.94    5.93
  -9   5   0   37.79    6.26
  -9   5   0   23.40    6.18
   9  -5   0   29.40    3.18
   9  -5   0   33.20    2.97
   9  -5   0   26.00    5.68
   9  -5   0   41.01    4.52
   9  -5   0   35.12    3.76
  -9   5  -1    4.67    2.50
   9  -5   1    9.22    3.18
   9  -5   1   10.52    2.64
   9  -5   1    9.08    1.84
  -9   5  -2   18.91    4.81
   9  -5   2   18.84    4.70
   9  -5   2   18.08    3.72
  -9   5  -3   33.78    6.29
   9  -5   3   40.61    6.76
   9  -5   3   39.49    6.76
  -9   4   5   -0.40    1.84
  -9   4   5    0.72    1.48
  -9   4   5    0.22    1.88
  -9   4   5   10.09   18.37
   9  -4  -5    3.18    2.93
   9  -4  -5   -1.41    1.52
  -9   4   4    9.19    2.64
  -9   4   4   10.85    3.40
  -9   4   4    9.33    4.12
  -9   4   4    1.30    2.78
  -9   4   4  -22.57   12.48
   9  -4  -4   14.10    3.51
   9  -4  -4   10.38    3.62
   9  -4  -4    4.34    2.28
  -9   4   3   62.71    5.24
  -9   4   3   79.13    7.92
  -9   4   3   96.89    9.44
  -9   4   3   70.38    6.40
  -9   4   3   60.32   17.11
  -9   4   3   24.74   14.97
   9  -4  -3   85.28    6.76
   9  -4  -3   79.13    6.65
   9  -4  -3   76.74    6.33
  -9   4   2    7.52    1.99
  -9   4   2    4.45    2.35
  -9   4   2   13.49    4.74
  -9   4   2    9.66   10.45
  -9   4   2    2.28    9.51
   9  -4  -2    7.56    2.86
   9  -4  -2   11.43    2.75
   9  -4  -2    5.46    2.78
   9  -4  -2   13.13    2.86
  -9   4   1    0.65    1.52
  -9   4   1   -0.58    1.19
  -9   4   1    0.80    1.63
  -9   4   1    1.16    2.17
  -9   4   1   15.55   10.70
  -9   4   1   -6.40    8.14
   9  -4  -1   -0.47    1.45
   9  -4  -1    0.43    2.13
   9  -4  -1   -0.98    0.83
  -9   4   0    9.01    3.33
  -9   4   0    9.66    7.74
  -9   4   0   -1.95    7.88
   9  -4   0    5.32    1.74
   9  -4   0    6.33    2.13
   9  -4   0    8.82    2.97
  -9   4  -1   -1.12    2.03
  -9   4  -1    3.40    5.61
  -9   4  -1    2.24    5.71
   9  -4   1    0.25    1.27
   9  -4   1   -0.14    1.08
  -9   4  -2  163.90   12.62
   9  -4   2  159.31    6.22
   9  -4   2  154.35    6.08
   9  -4   2  188.67   12.87
  -9   4  -3   30.56    6.80
   9  -4   3   45.35    3.18
   9  -4   3   53.38    8.28
  -9   3   6    8.93    3.54
  -9   3   6    8.43    3.11
  -9   3   6   10.56    3.58
  -9   3   6   28.50   16.27
   9  -3  -6    6.26    2.57
   9  -3  -6    7.78    4.30
   9  -3  -6    6.76    2.93
  -9   3   5   14.39    3.87
  -9   3   5   13.56    4.20
  -9   3   5    9.29    3.47
  -9   3   5    3.15    2.57
  -9   3   5   17.87   15.62
   9  -3  -5    7.59    2.42
   9  -3  -5   13.34    3.80
   9  -3  -5    8.46    2.68
  -9   3   4   13.02    3.29
  -9   3   4   20.29    4.77
  -9   3   4   21.37    5.35
  -9   3   4   15.48    3.47
  -9   3   4   10.60   13.38
  -9   3   4    9.44   14.18
   9  -3  -4   16.74    3.62
   9  -3  -4   15.41    4.74
   9  -3  -4    8.53    2.60
  -9   3   3    5.97    2.42
  -9   3   3    5.28    2.64
  -9   3   3    4.74    2.93
  -9   3   3    2.60    1.81
  -9   3   3   13.89   14.00
  -9   3   3   23.80   12.33
   9  -3  -3    5.79    2.46
   9  -3  -3    7.34    2.57
   9  -3  -3    2.86    2.35
   9  -3  -3    2.57    1.74
  -9   3   2    1.16    1.63
  -9   3   2   34.14    5.86
  -9   3   2   47.52    8.43
  -9   3   2   67.41   17.00
  -9   3   2   44.45   13.45
   9  -3  -2   33.74    5.14
   9  -3  -2   35.84    4.41
   9  -3  -2   42.71    6.94
  -9   3   1    3.65    1.99
  -9   3   1   28.35    3.44
  -9   3   1   39.46    6.51
  -9   3   1   22.21   11.54
  -9   3   1   34.50   12.59
   9  -3  -1   31.83    4.81
   9  -3  -1   36.78    4.38
   9  -3  -1   42.57    6.98
  -9   3   0  351.34    9.04
  -9   3   0  304.80    8.35
  -9   3   0  391.38   18.77
  -9   3   0  401.14   30.63
  -9   3   0  322.41   26.91
   9  -3   0  319.77   11.61
   9  -3   0  365.37   12.37
   9  -3   0  424.68   19.53
  -9   3  -1   44.16    8.03
  -9   3  -1   74.14   15.19
  -9   3  -1   51.39   12.40
   9  -3   1   45.35    4.85
   9  -3   1   44.63    4.45
   9  -3   1   58.84    7.23
  -9   3  -2   32.95    6.76
  -9   3  -2   14.57   10.38
  -9   3  -2   15.95   12.44
   9  -3   2   32.48    3.83
   9  -3   2   24.74    3.62
   9  -3   2   32.80    7.20
  -9   2   6    0.18    3.00
  -9   2   6    0.80    2.06
  -9   2   6    3.36    2.39
  -9   2   6   -5.53   19.67
   9  -2  -6   -1.08    1.45
   9  -2  -6   -6.11    2.64
  -9   2   5   52.55    6.37
  -9   2   5   67.70    7.74
  -9   2   5   64.77    9.69
  -9   2   5   60.72    8.32
  -9   2   5   66.18   20.79
   9  -2  -5   57.47    6.94
  -9   2   4   28.03    4.95
  -9   2   4   35.80    7.05
  -9   2   4   45.71    7.99
  -9   2   4   29.51    4.45
  -9   2   4   25.93   15.26
  -9   2   4    9.44   14.65
   9  -2  -4   26.54    5.21
   9  -2  -4   35.66    6.40
   9  -2  -4   34.57    6.29
  -9   2   3   25.24    4.63
  -9   2   3   31.83    5.89
  -9   2   3   23.90    5.46
  -9   2   3   30.41    4.59
  -9   2   3   21.19   15.30
  -9   2   3   24.05   13.56
   9  -2  -3   20.94    4.30
   9  -2  -3   34.10    5.82
   9  -2  -3   28.79    5.46
  -9   2   2   35.37    5.06
  -9   2   2   34.97    6.26
  -9   2   2   19.53   16.38
  -9   2   2   33.63   14.79
   9  -2  -2   25.86    4.45
   9  -2  -2   30.02    5.14
   9  -2  -2   27.88    5.82
  -9   2   1   47.74    4.63
  -9   2   1   32.87    6.26
  -9   2   1   39.24   15.66
  -9   2   1   75.11   16.67
   9  -2  -1   51.57    5.39
   9  -2  -1   49.00    5.21
   9  -2  -1   51.53    8.46
  -9   2   0   15.70    4.48
  -9   2   0   27.63    5.64
  -9   2   0   26.07   13.02
  -9   2   0   29.94   14.83
   9  -2   0   15.91    3.36
   9  -2   0   19.64    3.80
   9  -2   0   13.63    4.05
  -9   2  -1    0.90    1.74
  -9   2  -1   -1.59    2.10
  -9   2  -1   31.64   11.46
   9  -2   1    0.80    2.31
   9  -2   1    4.48    1.84
   9  -2   1    1.74    2.35
  -9   2  -2   22.71    3.40
  -9   2  -2   33.38    6.65
  -9   2  -2   10.99   13.85
   9  -2   2   28.06    4.81
   9  -2   2   30.41    4.81
   9  -2   2   34.36    7.20
  -9   1   6   11.57    3.98
  -9   1   6    3.87    3.36
  -9   1   6    8.57    3.65
  -9   1   6   15.08    4.05
  -9   1   6   21.99   18.88
   9  -1  -6    7.16    6.04
   9  -1  -6   10.31    4.41
  -9   1   5   42.71    6.55
  -9   1   5   58.15    9.29
  -9   1   5   53.92    6.65
  -9   1   5   34.25    5.03
  -9   1   5   29.58   19.75
   9  -1  -5   35.59    6.58
   9  -1  -5   37.00    6.04
   9  -1  -5   43.61    7.09
  -9   1   4    1.66    2.35
  -9   1   4   -3.07    1.99
  -9   1   4   -0.36    1.52
  -9   1   4  -12.12   14.00
  -9   1   4  -17.03   11.46
   9  -1  -4    6.84    3.11
   9  -1  -4    4.67    2.06
   9  -1  -4    1.34    1.99
  -9   1   3  127.44    8.82
  -9   1   3  141.30   11.54
  -9   1   3  165.78   31.21
  -9   1   3   91.64   27.12
   9  -1  -3  134.32    9.66
   9  -1  -3  108.86    8.53
   9  -1  -3  155.33   12.19
  -9   1   2   20.79    4.67
  -9   1   2   24.16    5.50
  -9   1   2   36.74   16.38
   9  -1  -2   20.25    4.56
   9  -1  -2   28.82    4.99
   9  -1  -2   25.32    5.57
  -9   1   1   34.72    5.24
  -9   1   1   17.97    5.10
  -9   1   1   32.15   15.55
   9  -1  -1   36.74    6.00
   9  -1  -1   30.67    5.21
   9  -1  -1   23.54    5.24
  -9   1   0   23.11    4.52
  -9   1   0   27.41    6.04
  -9   1   0   45.82   19.13
   9  -1   0   24.56    4.74
   9  -1   0   21.52    4.20
   9  -1   0   20.14    5.24
  -9   1  -1    7.92    2.71
  -9   1  -1    9.29    4.48
  -9   1  -1    5.21   17.29
   9  -1   1   -0.98    2.64
   9  -1   1   11.72    3.07
   9  -1   1    5.32    3.18
  -9   0   6   -0.94    2.50
  -9   0   6   -4.05    1.37
  -9   0   6   -0.25    2.46
   9   0  -6   -3.58    2.86
   9   0  -6    0.69    2.60
   9   0  -6   -2.78    1.30
  -9   0   5   35.55    6.44
  -9   0   5   23.00    5.64
  -9   0   5   32.95    4.52
  -9   0   5   20.11   20.11
   9   0  -5   26.51    5.97
   9   0  -5   36.13    7.20
   9   0  -5   38.23    7.38
  -9   0   4   19.13    4.77
  -9   0   4   17.47    4.77
  -9   0   4   12.40    2.28
  -9   0   4   -8.10   11.50
   9   0  -4   25.42    5.53
   9   0  -4    6.33    2.64
   9   0  -4   14.00    4.67
  -9   0   3   31.64    5.53
  -9   0   3   19.46    5.50
  -9   0   3    7.05   17.00
   9   0  -3   15.30    4.12
   9   0  -3   32.66    6.29
   9   0  -3   10.42    3.65
  -9   0   2    6.65    3.07
  -9   0   2    1.12    3.04
  -9   0   2   -5.03   15.98
   9   0  -2    1.81    3.72
   9   0  -2   11.79    3.69
   9   0  -2    6.69    3.07
  -9   0   1   18.95    4.38
  -9   0   1   44.99    8.39
  -9   0   1  -12.30   17.61
   9   0  -1   26.54    5.46
   9   0  -1   22.24    4.63
   9   0  -1   20.18    4.99
   0   0   0    0.00    0.00

_computing_structure_solution     'SHELXT 2014/5 (Sheldrick, 2014)'
;
loop_
_space_group_symop_operation_xyz
'x, y, z'
'-x, -y, -z'
loop_
_atom_site_label
_atom_site_type_symbol
_atom_site_fract_x
_atom_site_fract_y
_atom_site_fract_z
_atom_site_U_iso_or_equiv
_atom_site_adp_type
_atom_site_occupancy
_atom_site_site_symmetry_order
_atom_site_calc_flag
_atom_site_refinement_flags_posn
_atom_site_refinement_flags_adp
_atom_site_refinement_flags_occupancy
_atom_site_disorder_assembly
_atom_site_disorder_group
S1 S 0.59330(6) 0.46231(5) 0.78017(5) 0.04470(18) Uani 1 1 d . . . . .
C1 C 0.3410(2) 0.3660(2) 0.68812(16) 0.0317(3) Uani 1 1 d . . . . .
C2 C 0.2338(2) 0.4693(2) 0.68480(17) 0.0351(3) Uani 1 1 d . . . . .
H2 H 0.2964 0.5963 0.7341 0.042 Uiso 1 1 calc R U . . .
C3 C 0.0375(2) 0.3889(2) 0.61058(17) 0.0344(3) Uani 1 1 d . . . . .
H3 H -0.0335 0.4617 0.6117 0.041 Uiso 1 1 calc R U . . .
C4 C -0.0583(2) 0.20304(19) 0.53402(15) 0.0298(3) Uani 1 1 d . . . . .
C5 C 0.04792(19) 0.09514(18) 0.53799(14) 0.0277(3) Uani 1 1 d . . . . .
C6 C 0.2490(2) 0.17722(18) 0.61739(15) 0.0288(3) Uani 1 1 d . . . . .
C7 C -0.2596(2) 0.1167(2) 0.45174(17) 0.0338(3) Uani 1 1 d . . . . .
H7 H -0.3311 0.1879 0.4478 0.041 Uiso 1 1 calc R U . . .
C8 C -0.3502(2) -0.0632(2) 0.37955(16) 0.0327(3) Uani 1 1 d . . . . .
H8 H -0.4838 -0.1159 0.3255 0.039 Uiso 1 1 calc R U . . .
C9 C 0.6586(2) 0.6951(2) 0.83391(17) 0.0349(3) Uani 1 1 d . . . . .
C10 C 0.7003(2) 0.7690(2) 0.73245(17) 0.0400(4) Uani 1 1 d . . . . .
H10 H 0.6856 0.6940 0.6316 0.048 Uiso 1 1 calc R U . . .
C11 C 0.7635(2) 0.9525(2) 0.77856(18) 0.0395(4) Uani 1 1 d . . . . .
H11 H 0.7895 1.0019 0.7079 0.047 Uiso 1 1 calc R U . . .
C12 C 0.7896(2) 1.0660(2) 0.92575(17) 0.0353(3) Uani 1 1 d . . . . .
C13 C 0.7460(3) 0.9895(2) 1.02546(18) 0.0433(4) Uani 1 1 d . . . . .
H13 H 0.7610 1.0646 1.1264 0.052 Uiso 1 1 calc R U . . .
C14 C 0.6811(2) 0.8063(2) 0.98101(18) 0.0416(4) Uani 1 1 d . . . . .
H14 H 0.6519 0.7566 1.0510 0.050 Uiso 1 1 calc R U . . .
C15 C 0.8636(3) 1.2651(2) 0.9741(2) 0.0498(4) Uani 1 1 d . . . . .
H15A H 0.9370 1.2979 0.9069 0.075 Uiso 1 1 calc R U . . .
H15B H 0.9486 1.3263 1.0771 0.075 Uiso 1 1 calc R U . . .
H15C H 0.7534 1.3010 0.9699 0.075 Uiso 1 1 calc R U . . .
loop_
_atom_site_aniso_label
_atom_site_aniso_U_11
_atom_site_aniso_U_22
_atom_site_aniso_U_33
_atom_site_aniso_U_23
_atom_site_aniso_U_13
_atom_site_aniso_U_12
S1 0.0345(2) 0.0340(2) 0.0608(3) 0.0212(2) 0.00287(18) 0.01025(17)
C1 0.0326(7) 0.0336(7) 0.0309(7) 0.0162(6) 0.0103(5) 0.0121(6)
C2 0.0396(8) 0.0297(7) 0.0373(8) 0.0148(6) 0.0125(6) 0.0137(6)
C3 0.0390(8) 0.0339(7) 0.0382(8) 0.0182(6) 0.0148(6) 0.0190(6)
C4 0.0341(7) 0.0331(7) 0.0303(7) 0.0173(6) 0.0142(6) 0.0165(6)
C5 0.0319(7) 0.0322(7) 0.0267(6) 0.0167(6) 0.0142(5) 0.0151(6)
C6 0.0330(7) 0.0324(7) 0.0270(7) 0.0160(6) 0.0128(5) 0.0147(6)
C7 0.0347(7) 0.0375(8) 0.0379(8) 0.0197(6) 0.0128(6) 0.0196(6)
C8 0.0313(7) 0.0368(8) 0.0341(7) 0.0174(6) 0.0098(6) 0.0154(6)
C9 0.0314(7) 0.0331(7) 0.0383(8) 0.0162(6) 0.0073(6) 0.0100(6)
C10 0.0479(9) 0.0380(8) 0.0308(7) 0.0125(6) 0.0129(6) 0.0142(7)
C11 0.0477(9) 0.0401(8) 0.0366(8) 0.0211(7) 0.0182(7) 0.0166(7)
C12 0.0323(7) 0.0352(8) 0.0381(8) 0.0148(6) 0.0091(6) 0.0138(6)
C13 0.0555(10) 0.0440(9) 0.0299(8) 0.0130(7) 0.0139(7) 0.0212(8)
C14 0.0485(9) 0.0467(9) 0.0351(8) 0.0231(7) 0.0148(7) 0.0177(7)
C15 0.0554(10) 0.0365(9) 0.0535(10) 0.0154(8) 0.0116(8) 0.0185(8)
loop_
_atom_type_symbol
_atom_type_description
_atom_type_scat_dispersion_real
_atom_type_scat_dispersion_imag
_atom_type_scat_source
C C 0.0033 0.0016 'International Tables Vol C Tables 4.2.6.8 and 6.1.1.4'
H H 0.0000 0.0000 'International Tables Vol C Tables 4.2.6.8 and 6.1.1.4'
S S 0.1246 0.1234 'International Tables Vol C Tables 4.2.6.8 and 6.1.1.4'
loop_
_geom_angle_atom_site_label_1
_geom_angle_atom_site_label_2
_geom_angle_atom_site_label_3
_geom_angle
_geom_angle_site_symmetry_1
_geom_angle_site_symmetry_3
C1 S1 C9 103.71(7) . .
C2 C1 C6 120.11(13) . .
C2 C1 S1 122.51(12) . .
C6 C1 S1 117.37(11) . .
C3 C2 C1 120.73(14) . .
C3 C2 H2 119.6 . .
C1 C2 H2 119.6 . .
C2 C3 C4 121.27(13) . .
C2 C3 H3 119.4 . .
C4 C3 H3 119.4 . .
C3 C4 C7 122.43(13) . .
C3 C4 C5 118.82(13) . .
C7 C4 C5 118.75(13) . .
C5 C5 C6 120.26(15) 2_556 .
C5 C5 C4 119.69(15) 2_556 .
C6 C5 C4 120.05(13) . .
C1 C6 C5 118.95(12) . .
C1 C6 C8 122.79(13) . 2_556
C5 C6 C8 118.26(13) . 2_556
C8 C7 C4 121.58(13) . .
C8 C7 H7 119.2 . .
C4 C7 H7 119.2 . .
C7 C8 C6 121.46(13) . 2_556
C7 C8 H8 119.3 . .
C6 C8 H8 119.3 2_556 .
C14 C9 C10 119.52(14) . .
C14 C9 S1 119.98(12) . .
C10 C9 S1 120.36(12) . .
C11 C10 C9 119.80(14) . .
C11 C10 H10 120.1 . .
C9 C10 H10 120.1 . .
C10 C11 C12 121.46(14) . .
C10 C11 H11 119.3 . .
C12 C11 H11 119.3 . .
C11 C12 C13 117.92(14) . .
C11 C12 C15 120.47(14) . .
C13 C12 C15 121.61(14) . .
C14 C13 C12 121.39(14) . .
C14 C13 H13 119.3 . .
C12 C13 H13 119.3 . .
C13 C14 C9 119.89(14) . .
C13 C14 H14 120.1 . .
C9 C14 H14 120.1 . .
C12 C15 H15A 109.5 . .
C12 C15 H15B 109.5 . .
H15A C15 H15B 109.5 . .
C12 C15 H15C 109.5 . .
H15A C15 H15C 109.5 . .
H15B C15 H15C 109.5 . .
loop_
_geom_bond_atom_site_label_1
_geom_bond_atom_site_label_2
_geom_bond_distance
_geom_bond_site_symmetry_2
S1 C1 1.7725(15) .
S1 C9 1.7729(16) .
C1 C2 1.395(2) .
C1 C6 1.411(2) .
C2 C3 1.383(2) .
C2 H2 0.9500 .
C3 C4 1.395(2) .
C3 H3 0.9500 .
C4 C7 1.431(2) .
C4 C5 1.4238(19) .
C5 C5 1.426(3) 2_556
C5 C6 1.4236(19) .
C6 C8 1.4383(19) 2_556
C7 C8 1.349(2) .
C7 H7 0.9500 .
C8 C6 1.4383(19) 2_556
C8 H8 0.9500 .
C9 C14 1.388(2) .
C9 C10 1.387(2) .
C10 C11 1.384(2) .
C10 H10 0.9500 .
C11 C12 1.388(2) .
C11 H11 0.9500 .
C12 C13 1.387(2) .
C12 C15 1.502(2) .
C13 C14 1.383(2) .
C13 H13 0.9500 .
C14 H14 0.9500 .
C15 H15A 0.9800 .
C15 H15B 0.9800 .
C15 H15C 0.9800 .
