#------------------------------------------------------------------------------
#$Date: 2022-03-10 10:33:12 +0200 (Thu, 10 Mar 2022) $
#$Revision: 273589 $
#$URL: file:///home/coder/svn-repositories/cod/cif/8/10/47/8104712.cif $
#------------------------------------------------------------------------------
#
# This file is available in the Crystallography Open Database (COD),
# http://www.crystallography.net/
#
# All data on this site have been placed in the public domain by the
# contributors.
#
data_8104712
loop_
_publ_author_name
'Hao, Chen-Hong'
'Meng, Jiao'
'Tian, Jing'
'Luo, Xiao-Fang'
'Wang, Zong-Cheng'
_publ_section_title
;
 Synthesis and crystal structure of 4-(2,4-dinitrophenoxy)benzaldehyde,
 C13H8N2O6
;
_journal_issue                   4
_journal_name_full
'Zeitschrift f\"ur Kristallographie - New Crystal Structures'
_journal_page_first              789
_journal_page_last               790
_journal_paper_doi               10.1515/ncrs-2021-0099
_journal_volume                  236
_journal_year                    2021
_chemical_formula_moiety         'C13 H8 N2 O6'
_chemical_formula_sum            'C13 H8 N2 O6'
_chemical_formula_weight         288.21
_chemical_name_systematic        ;4-(2,4-dinitrophenoxy)benzaldehyde;
_space_group_crystal_system      triclinic
_space_group_IT_number           2
_space_group_name_Hall           '-P 1'
_space_group_name_H-M_alt        'P -1'
_atom_sites_solution_hydrogens   geom
_atom_sites_solution_primary     dual
_cell_angle_alpha                100.988(3)
_cell_angle_beta                 95.557(3)
_cell_angle_gamma                107.424(3)
_cell_formula_units_Z            2
_cell_length_a                   6.9561(5)
_cell_length_b                   7.3040(5)
_cell_length_c                   13.2883(8)
_cell_measurement_reflns_used    2809
_cell_measurement_temperature    150.0
_cell_measurement_theta_max      26.27
_cell_measurement_theta_min      3.00
_cell_volume                     623.76(7)
_computing_cell_refinement       'SAINT v8.37A (Bruker, 2015)'
_computing_data_collection       'SAINT v8.37A (Bruker, 2015)'
_computing_data_reduction        'SAINT v8.37A (Bruker, 2015)'
_computing_molecular_graphics    'Olex2 1.3 (Dolomanov et al., 2009)'
_computing_publication_material  'Olex2 1.3 (Dolomanov et al., 2009)'
_computing_structure_refinement  'SHELXL 2018/3 (Sheldrick, 2015)'
_computing_structure_solution    'SHELXT 2014/5 (Sheldrick, 2014)'
_diffrn_ambient_temperature      150.0
_diffrn_measured_fraction_theta_full 1.000
_diffrn_measured_fraction_theta_max 0.998
_diffrn_measurement_device_type  'Bruker APEX-II CCD'
_diffrn_measurement_method       '\f and \w scans'
_diffrn_radiation_type           MoK\a
_diffrn_radiation_wavelength     0.71073
_diffrn_reflns_av_R_equivalents  0.0484
_diffrn_reflns_av_unetI/netI     0.0322
_diffrn_reflns_Laue_measured_fraction_full 1.000
_diffrn_reflns_Laue_measured_fraction_max 0.998
_diffrn_reflns_limit_h_max       8
_diffrn_reflns_limit_h_min       -8
_diffrn_reflns_limit_k_max       9
_diffrn_reflns_limit_k_min       -9
_diffrn_reflns_limit_l_max       16
_diffrn_reflns_limit_l_min       -16
_diffrn_reflns_number            13473
_diffrn_reflns_point_group_measured_fraction_full 1.000
_diffrn_reflns_point_group_measured_fraction_max 0.998
_diffrn_reflns_theta_full        25.242
_diffrn_reflns_theta_max         26.436
_diffrn_reflns_theta_min         3.004
_diffrn_source_current           30.0
_diffrn_source_power             1.5
_diffrn_source_voltage           50.0
_diffrn_standards_number         0
_exptl_absorpt_coefficient_mu    0.125
_exptl_absorpt_correction_T_max  0.0276
_exptl_absorpt_correction_T_min  0.0110
_exptl_absorpt_correction_type   multi-scan
_exptl_absorpt_process_details
;
SADABS-2016/2 (Bruker,2016/2) was used for absorption correction.
wR2(int) was 0.0640 before and 0.0582 after correction.
The Ratio of minimum to maximum transmission is 0.3986.
The \l/2 correction factor is Not present.
;
_exptl_crystal_colour            colourless
_exptl_crystal_colour_primary    colourless
_exptl_crystal_density_diffrn    1.535
_exptl_crystal_description       block
_exptl_crystal_F_000             296
_exptl_crystal_size_max          0.38
_exptl_crystal_size_mid          0.17
_exptl_crystal_size_min          0.15
_refine_diff_density_max         0.172
_refine_diff_density_min         -0.203
_refine_diff_density_rms         0.036
_refine_ls_extinction_coef       .
_refine_ls_extinction_method     none
_refine_ls_goodness_of_fit_ref   1.035
_refine_ls_hydrogen_treatment    constr
_refine_ls_matrix_type           full
_refine_ls_number_parameters     190
_refine_ls_number_reflns         2562
_refine_ls_number_restraints     0
_refine_ls_restrained_S_all      1.035
_refine_ls_R_factor_all          0.0595
_refine_ls_R_factor_gt           0.0376
_refine_ls_shift/su_max          0.000
_refine_ls_shift/su_mean         0.000
_refine_ls_structure_factor_coef Fsqd
_refine_ls_weighting_details
'w=1/[\s^2^(Fo^2^)+(0.0438P)^2^+0.0861P] where P=(Fo^2^+2Fc^2^)/3'
_refine_ls_weighting_scheme      calc
_refine_ls_wR_factor_gt          0.0886
_refine_ls_wR_factor_ref         0.1008
_reflns_Friedel_coverage         0.000
_reflns_Friedel_fraction_full    .
_reflns_Friedel_fraction_max     .
_reflns_number_gt                1876
_reflns_number_total             2562
_reflns_threshold_expression     'I > 2\s(I)'
_cod_data_source_file            suppl_j_ncrs-2021-0099_suppl.cif
_cod_data_source_block           mo_1214_2_0m
_cod_database_code               8104712
_shelx_space_group_comment
;
The symmetry employed for this shelxl refinement is uniquely defined
by the following loop, which should always be used as a source of
symmetry information in preference to the above space-group names.
They are only intended as comments.
;
_exptl_absorpt_special_details   block
_olex2_refinement_description
;
1. Fixed Uiso
 At 1.2 times of:
  All C(H) groups
2.a Aromatic/amide H refined with riding coordinates:
 C2(H2), C5(H5), C8(H8), C9(H9), C10(H10), C11(H11), C12(H12), C13(H13)
;
_shelx_res_file
;
TITL mo_1214_2_0m_a.res in P-1
    mo_1214_2_0m.res
    created by SHELXL-2018/3 at 19:39:22 on 14-Dec-2020
REM Old TITL mo_1214_2_0m_a.res in P-1
REM SHELXT solution in P-1
REM R1 0.126, Rweak 0.006, Alpha 0.031, Orientation as input
REM Formula found by SHELXT: C15 N2 O4
CELL 0.71073 6.9561 7.304 13.2883 100.988 95.557 107.424
ZERR 2 0.0005 0.0005 0.0008 0.003 0.003 0.003
LATT 1
SFAC C H N O
UNIT 26 16 4 12

L.S. 10
PLAN  5
TEMP -123.15
list 4
MORE -1
fmap 2
ACTA
BOND $H
REM <olex2.extras>
REM <HklSrc "%.\\mo_1214_2_0m.hkl">
REM </olex2.extras>

WGHT    0.043800    0.086100
FVAR       1.14619
O1    4    0.246683    1.082678   -0.117913    11.00000    0.05397    0.05250 =
         0.05567    0.02246    0.01418    0.01905
O2    4    0.840463    1.028385    0.599630    11.00000    0.04072    0.03922 =
         0.05475    0.00773    0.00303    0.00753
O3    4    0.628712    0.812850    0.663139    11.00000    0.05154    0.04909 =
         0.04117    0.01188    0.00787    0.01244
PART 2
O4    4    0.022440    0.324377    0.425570    11.00000    0.04507    0.04040 =
         0.06140    0.01722    0.01906    0.01101
PART 0
O5    4    0.222678    0.518351    0.197016    11.00000    0.04954    0.04102 =
         0.03922    0.01207    0.00468    0.00526
O6    4   -0.083257    0.477598    0.318938    11.00000    0.03788    0.06766 =
         0.05569    0.01551    0.00103    0.01325
N1    3    0.051628    0.448543    0.372859    11.00000    0.03816    0.04000 =
         0.04506    0.00692    0.00821    0.00943
PART 1
N2    3    0.688034    0.883485    0.590390    11.00000    0.04008    0.03716 =
         0.04516    0.00837    0.00541    0.01421
PART 0
C1    1    0.569133    0.789246    0.486463    11.00000    0.03585    0.03472 =
         0.04042    0.00851    0.00413    0.01186
C2    1    0.376647    0.656412    0.478312    11.00000    0.03834    0.03553 =
         0.04087    0.01203    0.01020    0.01398
AFIX  43
H2    2    0.324662    0.621622    0.538031    11.00000   -1.20000
AFIX   0
C3    1    0.252055    0.816334   -0.040201    11.00000    0.03371    0.04214 =
         0.03872    0.00881    0.00423    0.00730
C4    1    0.262732    0.576175    0.380727    11.00000    0.03434    0.03254 =
         0.04510    0.01120    0.00782    0.00861
C5    1    0.269845    0.532372    0.023411    11.00000    0.03636    0.03830 =
         0.04574    0.00739    0.00551    0.01104
AFIX  43
H5    2    0.287257    0.406349    0.012922    11.00000   -1.20000
AFIX   0
C6    1    0.339808    0.618228    0.291403    11.00000    0.04246    0.03758 =
         0.03960    0.01012    0.00568    0.01282
C7    1    0.234859    0.621874    0.117807    11.00000    0.03506    0.04017 =
         0.03870    0.01114    0.00459    0.00551
C8    1    0.210889    0.899407    0.055699    11.00000    0.03856    0.03847 =
         0.04404    0.00872    0.00666    0.01046
AFIX  43
H8    2    0.189513    1.023713    0.066190    11.00000   -1.20000
AFIX   0
C9    1    0.651140    0.836763    0.400030    11.00000    0.03715    0.03809 =
         0.04771    0.01356    0.00746    0.01033
AFIX  43
H9    2    0.784099    0.929183    0.407888    11.00000   -1.20000
AFIX   0
C10   1    0.201225    0.801871    0.134894    11.00000    0.04106    0.04310 =
         0.03793    0.00583    0.00871    0.00945
AFIX  43
H10   2    0.172044    0.856929    0.200038    11.00000   -1.20000
AFIX   0
C11   1    0.278725    0.632412   -0.055527    11.00000    0.03778    0.04546 =
         0.03785    0.00543    0.00741    0.00929
AFIX  43
H11   2    0.303436    0.574478   -0.121222    11.00000   -1.20000
AFIX   0
C12   1    0.537019    0.748020    0.302670    11.00000    0.04231    0.04310 =
         0.04328    0.01531    0.01050    0.01067
AFIX  43
H12   2    0.593546    0.775753    0.242817    11.00000   -1.20000
AFIX   0
C13   1    0.270429    0.923692   -0.123835    11.00000    0.04114    0.04835 =
         0.04093    0.01028    0.00582    0.00974
AFIX  43
H13   2    0.303247    0.863968   -0.186923    11.00000   -1.20000
AFIX   0
HKLF 4




REM  mo_1214_2_0m_a.res in P-1
REM wR2 = 0.1008, GooF = S = 1.035, Restrained GooF = 1.035 for all data
REM R1 = 0.0376 for 1876 Fo > 4sig(Fo) and 0.0595 for all 2562 data
REM 190 parameters refined using 0 restraints

END

WGHT      0.0438      0.0861

REM Highest difference peak  0.172,  deepest hole -0.203,  1-sigma level  0.036
Q1    1   0.2785  0.6428  0.3441  11.00000  0.05    0.17
Q2    1   0.1878  0.5550  0.0616  11.00000  0.05    0.17
Q3    1   0.4481  0.7720  0.4829  11.00000  0.05    0.15
Q4    1   0.1820  0.8210  0.0006  11.00000  0.05    0.15
Q5    1   0.3088  0.7509 -0.0368  11.00000  0.05    0.15
;
_shelx_hkl_file
;
  -1   0   0   34.20    2.80
  -1   0   0   35.60    3.70
  -1   0   0   35.50    3.30
   1   0   0   29.70    3.10
   1   0   0   33.30    3.80
  -2   0   0 6377.46  154.88
  -2   0   0 6394.16  153.68
   2   0   0 6139.79  154.78
   2   0   0 6401.96  156.68
  -3   0   0  507.45   19.70
  -3   0   0  520.95   17.70
  -3   0   0  481.55   12.90
   3   0   0  498.35   18.90
   3   0   0  524.55   20.90
  -4   0   0  547.45   21.00
   4   0   0  549.05   23.20
   4   0   0  525.85   20.90
  -5   0   0   22.70    4.90
   5   0   0   23.80    4.80
   5   0   0   22.50    5.50
  -6   0   0   69.49    7.90
  -6   0   0   73.09    7.00
   6   0   0   79.29    8.10
   6   0   0   82.09   10.50
  -7   0   0    3.30    3.60
  -7   0   0    5.70    3.30
   7   0   0    9.90    4.70
   7   0   0    8.10    5.50
   7   0   0    9.80    4.70
  -8   0   0    6.90    3.30
   8   0   0    5.00    6.20
   8   0   0   -2.60    3.80
   8   0   0   -1.40    3.80
   8  -1   0   -0.10    3.80
   8  -1   0   -4.10    3.70
   8  -1   0    2.40    5.50
  -8   1   0    4.50    3.60
  -8   1   0    1.00    3.50
   7  -1   0  126.39   12.90
   7  -1   0  125.49   10.70
   7  -1   0  110.09   12.20
  -7   1   0  114.79    9.90
   6  -1   0   73.49   10.50
   6  -1   0   73.89    8.50
   6  -1   0   55.19    8.40
  -6   1   0   81.29    9.70
   5  -1   0   15.30    4.30
   5  -1   0   21.10    5.20
   5  -1   0   33.00    6.90
  -5   1   0   30.70    5.80
  -5   1   0   18.50    2.30
   4  -1   0   44.70    6.50
   4  -1   0   47.10    7.60
   4  -1   0   45.90    6.50
  -4   1   0   51.79    7.30
  -4   1   0   42.80    3.50
   3  -1   0  394.06   18.00
   3  -1   0  400.06   16.00
   3  -1   0  393.46   17.00
  -3   1   0  385.26   13.20
  -3   1   0  397.46   16.90
   2  -1   0 2181.38   58.79
   2  -1   0 2187.78   56.09
   2  -1   0 2090.29   58.69
  -2   1   0 2183.88   55.69
  -2   1   0 2253.87   58.79
   1  -1   0 2806.02   73.29
   1  -1   0 3129.79   76.29
   1  -1   0 3063.89   76.89
  -1   1   0 3146.59   75.99
  -1   1   0 3145.39   76.19
  -1   1   0 2943.81   73.29
  -1   1   0 3135.99   76.89
   0  -1   0  421.86   13.20
   0  -1   0  449.46   14.30
   0  -1   0  434.76   14.40
   0  -1   0  432.56   14.20
   0  -1   0  456.35   13.90
   0   1   0  444.36   13.40
   0   1   0  443.96   13.80
   0   1   0  429.96   14.20
   0   1   0  438.06   13.90
   0   1   0  470.75   14.80
  -1  -1   0   18.70    4.00
  -1  -1   0   41.20    5.50
  -1  -1   0   22.50    2.50
  -1  -1   0   25.10    4.40
  -1  -1   0   24.50    2.90
   1   1   0   18.40    2.70
   1   1   0   23.80    4.50
   1   1   0   25.80    2.60
  -2  -1   0   23.30    5.20
  -2  -1   0   17.90    2.60
  -2  -1   0   17.00    2.10
   2   1   0    9.80    3.90
   2   1   0   13.70    3.10
  -3  -1   0 2567.84   65.99
  -3  -1   0 2658.43   70.79
   3   1   0 2531.45   68.49
   3   1   0 2621.54   73.49
  -4  -1   0  132.59    7.50
  -4  -1   0  152.18   10.20
   4   1   0  137.89   11.60
   4   1   0  125.69    8.80
  -5  -1   0   37.20    4.80
   5   1   0   33.40    7.00
   5   1   0   36.70    5.30
  -6  -1   0   69.59    5.80
   6   1   0   81.29    7.80
   6   1   0   80.19   11.00
  -7  -1   0    5.50    2.50
   7   1   0    8.70    3.80
   7   1   0    1.20    4.10
   8  -2   0    6.90    5.10
   8  -2   0   12.90    6.20
   8  -2   0   10.60    4.20
  -8   2   0   13.90    4.90
   7  -2   0   49.90    8.50
   7  -2   0   30.30    6.10
  -7   2   0   33.60    8.70
   6  -2   0  111.69   10.20
   6  -2   0  104.19    9.00
   6  -2   0   78.39   12.80
  -6   2   0   97.69    9.60
  -6   2   0   81.09    5.60
   5  -2   0  261.87   13.60
   5  -2   0  260.17   16.30
   5  -2   0  285.37   15.80
  -5   2   0  253.97   11.10
  -5   2   0  266.17   15.40
   4  -2   0  542.65   22.90
   4  -2   0  541.85   23.40
  -4   2   0  523.25   18.80
  -4   2   0  570.04   22.90
   3  -2   0  327.87   12.20
   3  -2   0  323.97   16.20
   3  -2   0  332.27   16.10
  -3   2   0  334.37   14.00
  -3   2   0  352.16   16.40
   2  -2   0 8581.74  197.18
   2  -2   0 8558.84  202.58
   2  -2   0 6986.80  195.38
   2  -2   0 8571.64  204.28
  -2   2   0 8772.82  202.58
  -2   2   0 8108.69  209.18
   1  -2   0 9623.64  235.58
   1  -2   0 9999.00  233.98
  -1   2   0 9468.05  235.28
   0  -2   0  541.75   18.90
   0  -2   0  550.34   19.80
   0  -2   0  526.35   19.70
   0   2   0  550.34   18.80
   0   2   0  517.65   18.60
   0   2   0  532.65   19.50
   0   2   0  542.75   18.00
   0   2   0  526.25   19.80
  -1  -2   0   13.40    3.10
  -1  -2   0    9.30    4.20
   1   2   0   10.80    3.80
   1   2   0    8.60    2.70
   1   2   0   10.80    2.40
  -2  -2   0  151.68   11.00
  -2  -2   0  165.28   11.40
  -2  -2   0  147.69    7.80
   2   2   0  156.98   11.30
  -3  -2   0   12.40    5.10
  -3  -2   0   17.20    5.00
   3   2   0   12.40    4.50
   3   2   0   12.20    3.10
  -4  -2   0   10.90    4.90
   4   2   0    9.40    4.90
   4   2   0    4.60    2.40
   5   2   0    3.30    2.70
   5   2   0    5.40    3.70
   6   2   0    4.40    4.10
   6   2   0    1.00    3.00
  -7  -2   0    7.70    5.70
   7   2   0   12.10    5.30
   7   2   0    5.40    3.60
   8  -3   0    1.90    6.10
   8  -3   0   11.20    4.20
   8  -3   0    0.50    4.60
  -8   3   0   15.80    5.10
   7  -3   0   66.69    9.30
   7  -3   0   84.89    8.00
  -7   3   0   85.69    6.30
  -7   3   0   87.19    9.50
   6  -3   0  198.68   17.40
   6  -3   0  194.78   11.00
  -6   3   0  195.98   10.40
  -6   3   0  204.18   14.30
   5  -3   0   -1.50    3.10
   5  -3   0    1.10    2.10
   5  -3   0    2.30    3.60
  -5   3   0    5.80    3.60
  -5   3   0   -0.20    2.20
   4  -3   0   56.39    4.40
   4  -3   0   68.69    9.10
   4  -3   0   45.00    7.00
  -4   3   0   44.50    7.30
  -4   3   0   44.30    5.90
   3  -3   0    3.40    3.20
   3  -3   0    7.20    4.00
  -3   3   0    0.70    2.70
  -3   3   0   -1.50    2.30
  -3   3   0   -2.40    2.60
   2  -3   0  774.72   28.00
   2  -3   0  789.12   26.40
   2  -3   0  780.72   24.70
   2  -3   0  781.12   29.20
  -2   3   0  792.82   27.00
  -2   3   0  751.02   27.10
  -2   3   0  803.92   28.20
   1  -3   0  471.35   20.30
   1  -3   0  481.65   18.80
   1  -3   0  472.45   19.40
  -1   3   0  499.75   19.30
  -1   3   0  469.15   18.00
  -1   3   0  441.76   14.90
  -1   3   0  454.15   19.10
  -1   3   0  470.35   20.00
   0  -3   0  797.82   27.50
   0  -3   0  805.52   28.90
   0   3   0  809.92   29.20
   0   3   0  817.92   27.60
   0   3   0  799.52   27.30
   0   3   0  796.92   28.50
   0   3   0  832.52   26.60
  -1  -3   0 1129.79   38.30
  -1  -3   0 1139.69   34.90
  -1  -3   0 1115.79   37.70
   1   3   0 1079.59   34.40
   1   3   0 1134.79   37.00
   1   3   0 1120.49   37.90
   1   3   0 1139.29   36.80
   1   3   0 1142.09   32.50
  -2  -3   0   16.90    5.90
  -2  -3   0   22.80    5.80
   2   3   0   18.00    2.70
   2   3   0   20.30    5.20
   2   3   0   20.60    4.20
  -3  -3   0    0.40    3.40
  -3  -3   0    6.20    4.00
   3   3   0   10.20    3.10
   3   3   0    1.30    3.20
  -4  -3   0   26.60    6.40
  -4  -3   0   38.60    7.60
   4   3   0   30.50    4.80
   4   3   0   38.10    7.60
  -5  -3   0   20.40    5.60
   5   3   0   21.20    4.00
   5   3   0   22.00    5.70
  -6  -3   0   10.10    5.00
   6   3   0    6.60    4.90
   6   3   0    4.30    3.20
   8  -4   0   -2.30    6.40
   8  -4   0   14.90    3.90
   8  -4   0   18.30    5.90
  -8   4   0   13.70    3.80
  -8   4   0   10.90    5.20
   7  -4   0   -1.70    2.20
   7  -4   0    1.30    4.10
  -7   4   0    5.10    3.30
  -7   4   0    1.00    4.40
   6  -4   0   43.50    9.70
   6  -4   0   35.90    7.80
  -6   4   0   33.60    7.30
  -6   4   0   46.80    6.40
   5  -4   0  250.77   16.40
   5  -4   0  285.77   16.50
   5  -4   0  264.37    9.30
  -5   4   0  272.37   14.30
  -5   4   0  273.27   16.30
   4  -4   0   -0.40    2.70
   4  -4   0    2.30    3.30
   4  -4   0    0.90    3.10
  -4   4   0    2.70    2.90
  -4   4   0    6.10    4.00
  -4   4   0    2.00    3.10
   3  -4   0 2708.63   78.69
   3  -4   0 2720.63   74.49
   3  -4   0 2726.83   77.49
  -3   4   0 2636.44   75.19
  -3   4   0 2730.53   76.99
  -3   4   0 2657.13   73.99
   2  -4   0 1496.05   48.40
   2  -4   0 1453.25   44.40
   2  -4   0 1529.65   44.50
  -2   4   0 1467.85   44.30
  -2   4   0 1509.75   46.60
  -2   4   0 1436.46   37.00
  -2   4   0 1530.35   46.90
   1  -4   0  330.67   17.30
   1  -4   0  308.17   15.10
   1  -4   0  322.37   16.50
  -1   4   0  326.97   17.10
  -1   4   0  321.57   16.30
  -1   4   0  327.17   15.20
  -1   4   0  314.57   12.80
  -1   4   0  313.07   15.70
  -1   4   0  326.87   17.10
   0  -4   0   96.49    9.60
   0   4   0   89.69    9.00
   0   4   0   87.59    7.80
   0   4   0   97.29    8.80
   0   4   0   93.59    8.30
   0   4   0   86.19    7.60
   0   4   0   83.09    8.40
   0   4   0   92.89    8.00
  -1  -4   0    5.00    4.30
  -1  -4   0    7.50    4.20
   1   4   0    4.50    3.30
   1   4   0   10.80    3.60
   1   4   0   11.20    3.10
   1   4   0   11.70    4.20
   1   4   0    2.80    3.50
   1   4   0    8.60    4.00
  -2  -4   0   21.10    6.50
  -2  -4   0   26.10    6.10
   2   4   0   25.90    6.40
   2   4   0   20.00    4.30
   2   4   0   26.10    3.50
  -3  -4   0   -1.40    3.80
  -3  -4   0    3.00    3.60
   3   4   0    2.40    2.40
   3   4   0    2.40    3.80
  -4  -4   0   -1.40    3.50
  -4  -4   0    7.80    4.20
   4   4   0   16.20    5.60
   4   4   0   15.00    3.50
  -5  -4   0   43.80    8.30
   5   4   0   42.70    5.50
   5   4   0   40.30    8.00
  -6  -4   0   -0.80    4.70
   6   4   0    5.90    3.10
   6   4   0    1.00    4.70
   8  -5   0   -0.80    4.60
   8  -5   0   12.70    5.80
   8  -5   0    1.40    2.10
  -8   5   0   -0.80    4.40
  -8   5   0   -4.10    3.10
   7  -5   0    0.20    1.30
   7  -5   0   -3.10    4.20
  -7   5   0   -4.10    3.60
   6  -5   0   12.10    5.60
   6  -5   0    3.40    4.20
   6  -5   0   23.10    9.90
  -6   5   0   13.80    4.80
  -6   5   0   11.00    4.40
   5  -5   0   92.19   10.10
   5  -5   0   71.29   13.60
   5  -5   0   66.29    9.50
  -5   5   0   87.89    8.90
  -5   5   0   74.49    9.30
   4  -5   0  214.28   15.30
   4  -5   0  186.28   13.70
   4  -5   0  208.88   13.10
  -4   5   0  194.28   13.20
  -4   5   0  188.58   13.80
  -4   5   0  209.58   12.90
   3  -5   0    4.90    3.40
   3  -5   0    6.10    3.90
   3  -5   0    3.70    3.20
  -3   5   0    7.10    3.40
  -3   5   0   -1.20    2.80
  -3   5   0    5.20    3.80
   2  -5   0   37.90    7.10
   2  -5   0   32.60    5.80
   2  -5   0   37.10    6.30
  -2   5   0   42.70    7.30
  -2   5   0   35.60    3.50
  -2   5   0   42.10    7.20
  -2   5   0   45.30    6.40
   1  -5   0  256.77   16.10
   1  -5   0  267.57   15.80
  -1   5   0  244.68   13.90
  -1   5   0  265.97   12.30
  -1   5   0  271.57   14.80
  -1   5   0  256.47   15.30
  -1   5   0  269.57   16.30
  -1   5   0  269.77   16.30
   0  -5   0    9.70    5.10
   0   5   0    8.10    3.70
   0   5   0    9.00    3.20
   0   5   0    4.60    3.30
   0   5   0    3.00    2.70
   0   5   0   16.00    5.00
   0   5   0    7.20    3.30
   0   5   0   -0.90    2.50
  -1  -5   0   31.40    7.00
  -1  -5   0   28.80    7.80
   1   5   0   28.20    5.80
   1   5   0   33.60    6.90
   1   5   0   24.10    6.20
   1   5   0   31.20    5.10
   1   5   0   35.70    6.40
   1   5   0   29.90    5.00
   1   5   0   28.20    6.40
  -2  -5   0    6.70    6.60
  -2  -5   0    1.70    3.90
   2   5   0    2.80    3.00
   2   5   0    4.00    3.60
   2   5   0    0.00    1.80
  -3  -5   0   17.70    6.50
  -3  -5   0   17.10    5.70
   3   5   0   22.00    5.70
   3   5   0   12.40    5.10
   3   5   0    8.40    3.50
  -4  -5   0    3.70    4.30
   4   5   0   10.10    3.10
   4   5   0    6.70    4.90
  -5  -5   0   -1.20    4.20
   5   5   0    0.30    2.60
   5   5   0    5.00    7.70
   7  -6   0   47.70   10.60
  -7   6   0   46.00    8.70
   6  -6   0   12.90    5.10
   6  -6   0   12.00    5.40
  -6   6   0    1.00    4.00
  -6   6   0   10.10    4.30
   5  -6   0   98.29   13.30
   5  -6   0   69.09    9.00
  -5   6   0   86.19    9.20
  -5   6   0   70.29    9.90
  -5   6   0   94.09    9.80
   4  -6   0  251.57   17.50
   4  -6   0  236.18   14.30
  -4   6   0  254.07   15.80
  -4   6   0  258.87   14.60
  -4   6   0  258.17   18.60
   3  -6   0   69.19    7.90
   3  -6   0   55.89    8.40
  -3   6   0   82.39    9.30
  -3   6   0   82.39   10.50
  -3   6   0   62.99    7.60
   2  -6   0   -0.10    3.60
   2  -6   0   12.90    4.50
  -2   6   0    5.10    3.30
  -2   6   0    4.50    2.10
  -2   6   0   -1.40    3.30
  -2   6   0    4.40    4.20
   1  -6   0   12.60    5.30
  -1   6   0    1.20    3.10
  -1   6   0   13.40    4.90
  -1   6   0    8.70    3.10
  -1   6   0    8.00    3.80
  -1   6   0   10.10    5.00
   0  -6   0   26.30    7.40
   0   6   0   30.20    6.20
   0   6   0   24.30    6.30
   0   6   0   29.10    5.50
   0   6   0   21.80    4.90
   0   6   0   27.00    6.50
   0   6   0   19.00    4.90
  -1  -6   0   87.89   12.60
   1   6   0   77.09    7.10
   1   6   0   75.29    9.10
   1   6   0   88.09    9.50
   1   6   0   80.29    7.90
   1   6   0   88.89    9.70
   1   6   0   85.39   11.10
  -2  -6   0    2.00    4.40
  -2  -6   0    9.70    5.80
   2   6   0   12.80    5.00
   2   6   0   14.10    3.90
   2   6   0   13.10    5.00
   2   6   0    5.30    4.80
  -3  -6   0   -1.30    3.50
   3   6   0    6.10    2.90
   3   6   0    0.10    4.00
   3   6   0   -2.10    3.60
   3   6   0    3.00    4.20
   3   6   0   -0.80    2.60
  -4  -6   0   -9.80    3.90
   4   6   0    0.10    4.10
   4   6   0    4.30    3.00
   4   6   0    2.40    4.60
   7  -7   0    6.40    5.10
   7  -7   0    1.80    5.00
   7  -7   0    4.50    5.20
  -7   7   0   13.10    5.30
  -7   7   0   -4.50    4.60
   6  -7   0  114.19   12.80
   6  -7   0  126.59   11.20
  -6   7   0  115.89   10.20
  -6   7   0  129.39   12.10
  -6   7   0  124.49   11.20
   5  -7   0   30.40   11.40
   5  -7   0   19.50    6.40
  -5   7   0   33.00    7.10
  -5   7   0   28.90    5.60
  -5   7   0   29.00    6.80
   4  -7   0    0.20    3.20
   4  -7   0    1.70    3.80
  -4   7   0   -4.50    4.00
  -4   7   0    1.20    3.80
  -4   7   0   -2.10    3.10
   3  -7   0   34.30    8.10
   3  -7   0   28.30    5.80
  -3   7   0   25.40    6.20
  -3   7   0   27.40    5.90
  -3   7   0   20.70    6.00
   2  -7   0   -0.90    2.90
  -2   7   0    3.00    4.00
  -2   7   0   -1.10    2.50
  -2   7   0    4.70    2.30
  -2   7   0   10.60    4.60
  -2   7   0    0.60    2.70
   1  -7   0   -1.00    3.50
  -1   7   0   -3.70    3.00
  -1   7   0   -1.70    2.80
  -1   7   0    6.90    3.60
  -1   7   0   -1.60    3.60
  -1   7   0   -0.60    2.90
  -1   7   0   -0.10    3.20
  -1   7   0    3.30    2.80
   0  -7   0   61.79   10.30
   0   7   0   90.39    9.20
   0   7   0   79.59   10.20
   0   7   0   67.29    7.70
   0   7   0   68.39   10.00
   0   7   0   90.49   11.60
   0   7   0   85.59    8.50
   0   7   0   65.39    8.60
  -1  -7   0   21.60    7.10
   1   7   0   21.30    5.50
   1   7   0   28.70    5.30
   1   7   0   25.70    6.20
   1   7   0   27.50    7.00
   1   7   0   14.70    5.10
   1   7   0   22.10    5.70
   1   7   0   20.90    4.40
   2   7   0   40.00    5.70
   2   7   0   34.60    7.60
   2   7   0   35.40    7.20
   2   7   0   49.50    8.50
   2   7   0   37.60    4.40
   6  -8   0   19.20    7.30
  -6   8   0   18.60    5.80
  -6   8   0    9.80    4.30
  -6   8   0   18.60    6.80
   5  -8   0   37.80    7.20
   5  -8   0   32.10    7.00
  -5   8   0   24.40    6.80
  -5   8   0   26.50    5.50
  -5   8   0   13.40    6.60
   4  -8   0    2.10    4.00
   4  -8   0    5.30    4.20
  -4   8   0    2.80    4.00
  -4   8   0    3.80    4.90
  -4   8   0    7.90    4.90
  -4   8   0    3.10    3.90
  -4   8   0    5.40    3.70
   3  -8   0    9.30    5.10
  -3   8   0    7.50    3.90
  -3   8   0   13.80    5.40
  -3   8   0   20.10    5.90
  -3   8   0   18.20    5.30
  -3   8   0   17.10    6.10
  -2   8   0    9.50    5.50
  -2   8   0   15.80    5.80
  -2   8   0   11.90    3.10
  -2   8   0   10.70    4.90
  -2   8   0   11.20    5.30
  -2   8   0   14.00    4.60
  -1   8   0    4.90    3.60
  -1   8   0   -2.00    3.00
  -1   8   0    0.60    4.10
  -1   8   0   -0.80    2.80
  -1   8   0    2.20    4.50
  -1   8   0   -0.70    3.20
   0   8   0    6.90    4.10
   0   8   0   -1.30    4.30
   0   8   0    1.70    5.80
   0   8   0    3.90    3.50
   0   8   0    6.10    4.70
   0   8   0    3.60    3.30
   1   8   0   17.40    4.30
   1   8   0    9.90    5.60
   1   8   0   24.50    6.10
   1   8   0   21.30    5.30
   1   8   0   20.20    4.60
   1   8   0   20.00    7.00
  -2   9  -1   -0.60    5.50
  -2   9  -1    0.20    3.90
  -2   9  -1   -3.00    3.50
  -2   9  -1    0.00    2.40
  -2   9  -1  -13.60    4.40
  -2   9  -1   -1.80    3.90
  -3   9  -1   -0.20    3.80
  -3   9  -1   -1.10    4.30
  -3   9  -1    6.20    4.70
  -3   9  -1    3.10    5.40
   1   8  -1    7.40    4.30
   1   8  -1   -0.20    4.60
   1   8  -1    7.70    2.90
   1   8  -1    1.90    4.30
   1   8  -1    5.70    3.70
   1   8  -1    6.90    5.00
   0   8  -1    3.10    2.90
   0   8  -1   -5.80    3.30
   0   8  -1   -0.60    4.30
   0   8  -1  -10.10    6.70
   0   8  -1   -0.50    3.20
   0   8  -1   -1.40    3.40
  -1   8  -1   12.40    4.70
  -1   8  -1    6.10    4.20
  -1   8  -1   10.70    5.20
  -1   8  -1    6.40    3.50
  -1   8  -1   14.00    5.20
  -1   8  -1    7.40    4.10
  -2   8  -1   21.30    3.80
  -2   8  -1    7.40    4.70
  -2   8  -1   31.10    7.10
  -2   8  -1   28.30    6.50
  -2   8  -1   19.20    5.40
  -2   8  -1   21.10    6.10
  -3   8  -1   -3.20    3.70
  -3   8  -1   -1.00    4.40
  -3   8  -1   -4.70    4.10
   3  -8   1    2.30    3.30
  -4   8  -1    9.80    5.00
  -4   8  -1   -3.20    4.40
  -4   8  -1   -4.40    3.60
  -4   8  -1    6.20    5.20
   4  -8   1    2.80    4.50
   4  -8   1    2.40    4.20
  -5   8  -1  111.59   10.10
  -5   8  -1  110.09   11.50
   5  -8   1  111.79   12.60
  -6   8  -1    0.50    4.30
  -6   8  -1   15.50    4.80
  -6   8  -1   13.50    5.80
   6  -8   1   15.10    6.10
   6  -8   1   13.60    5.90
   3   7  -1   -2.30    4.10
   3   7  -1   -7.70    4.00
   3   7  -1    5.00    3.50
   3   7  -1    0.40    4.60
   2   7  -1  126.49   11.00
   2   7  -1  121.69   11.90
   2   7  -1  112.39    9.40
   2   7  -1  105.99   10.80
   1   7  -1    4.20    2.80
   1   7  -1    2.60    4.00
   1   7  -1    3.20    3.90
   1   7  -1    1.40    3.30
   1   7  -1    1.00    3.90
   1   7  -1    0.50    3.70
   0   7  -1    5.60    3.20
   0   7  -1    5.90    4.40
   0   7  -1    3.10    3.40
   0   7  -1    9.00    3.70
   0   7  -1    2.10    4.00
   0   7  -1    1.10    3.90
   0   7  -1    3.60    3.60
  -1   7  -1   12.90    5.30
  -1   7  -1   27.40    6.20
  -1   7  -1   31.30    6.20
  -1   7  -1   19.20    4.20
  -1   7  -1   23.90    5.60
  -1   7  -1   23.90    5.70
  -2   7  -1  216.38   14.80
  -2   7  -1  218.48   14.00
  -2   7  -1  217.98   16.00
  -2   7  -1  207.38   15.60
  -2   7  -1  217.18    9.80
   2  -7   1  210.78   15.80
  -3   7  -1   11.00    4.20
  -3   7  -1   14.50    5.50
  -3   7  -1   20.50    6.00
   3  -7   1   10.90    4.70
   3  -7   1   22.80    7.10
  -4   7  -1  179.58   14.10
  -4   7  -1  169.48   12.40
   4  -7   1  168.98   12.60
   4  -7   1  182.78   14.70
  -5   7  -1   24.00    6.70
  -5   7  -1   31.70    7.10
  -5   7  -1   27.30    9.00
   5  -7   1   24.70    5.70
   5  -7   1   24.40    6.60
  -6   7  -1   -0.10    3.60
  -6   7  -1    2.30    3.90
  -6   7  -1    4.40    4.70
   6  -7   1    3.80    3.90
  -7   7  -1    0.60    4.20
   7  -7   1    2.70    4.40
   7  -7   1    2.60    4.90
   4   6  -1    2.00    4.80
   4   6  -1    5.00    3.20
   4   6  -1    1.10    4.10
  -4  -6   1   -1.00    5.00
   3   6  -1   25.80    6.20
   3   6  -1   25.50    6.50
   3   6  -1   13.30    5.50
  -3  -6   1   32.60    7.60
   2   6  -1   28.90    5.80
   2   6  -1   35.40    7.20
   2   6  -1   33.80    6.70
  -2  -6   1   23.60    6.70
   1   6  -1    0.30    3.20
   1   6  -1    8.10    4.70
   1   6  -1    8.90    4.50
   1   6  -1   13.10    3.60
   1   6  -1   11.60    4.30
   1   6  -1    7.80    4.10
   0   6  -1  200.98   15.90
   0   6  -1  199.68   12.30
   0   6  -1  172.68   13.90
   0   6  -1  186.48   13.40
   0   6  -1  179.48   11.70
   0   6  -1  184.88   13.00
   0   6  -1  162.08   11.90
  -1   6  -1   55.39    8.40
  -1   6  -1   50.99    7.70
  -1   6  -1   47.80    7.50
  -1   6  -1   69.39    6.60
  -2   6  -1    2.50    3.30
  -2   6  -1    2.30    3.50
  -2   6  -1   -3.70    6.00
  -2   6  -1   -1.10    1.40
   2  -6   1    2.40    3.20
   2  -6   1    1.40    3.00
  -3   6  -1   10.10    4.40
  -3   6  -1   16.60    5.10
  -3   6  -1    8.00    4.50
   3  -6   1   16.80    4.90
   3  -6   1    7.10    3.70
  -4   6  -1  302.77   16.60
  -4   6  -1  287.47   17.10
  -4   6  -1  328.17   20.30
   4  -6   1  304.17   16.90
  -5   6  -1  123.29   10.70
  -5   6  -1  114.79   10.60
  -5   6  -1   84.09    9.80
   5  -6   1   85.89   10.60
   5  -6   1   99.09   10.00
  -6   6  -1   19.50    6.30
  -6   6  -1   13.10    4.90
  -6   6  -1   17.10    5.10
   6  -6   1   30.30    6.80
   6  -6   1   25.50    6.70
  -7   6  -1   50.89    9.80
  -7   6  -1   63.79   10.00
   7  -6   1   55.19    9.00
   7  -6   1   40.60    8.40
   7  -6   1   44.60    8.50
   5   5  -1    3.50    3.10
   5   5  -1   -3.00    4.70
  -5  -5   1    0.10    4.50
   4   5  -1    9.60    4.90
   4   5  -1    5.70    3.10
  -4  -5   1    8.50    4.80
   3   5  -1  148.09   11.30
   3   5  -1  125.59   11.70
  -3  -5   1  153.88   12.90
   2   5  -1    8.70    4.80
   2   5  -1   14.30    2.70
   2   5  -1   12.60    4.10
   2   5  -1   16.50    5.70
  -2  -5   1   11.60    5.00
   1   5  -1  104.29   10.30
   1   5  -1  104.29    9.30
   1   5  -1  107.79   10.50
   1   5  -1  116.89    9.90
   1   5  -1  106.69    7.60
   1   5  -1  102.29    9.80
  -1  -5   1  102.89   10.90
  -1  -5   1  107.99    9.50
  -1  -5   1   97.89   10.60
   0   5  -1  122.19   10.30
   0   5  -1  113.69    9.60
   0   5  -1  110.89    8.90
   0   5  -1  109.69    9.80
   0   5  -1  116.29   10.20
   0   5  -1  111.79   10.60
   0   5  -1  107.59    8.90
   0  -5   1  109.69   10.00
   0  -5   1  126.89   11.50
  -1   5  -1  123.59    8.10
  -1   5  -1  130.49   10.50
  -1   5  -1  121.59   10.50
  -1   5  -1  134.99   11.50
  -1   5  -1  117.29   10.40
  -1   5  -1  131.89   10.20
   1  -5   1  115.69   10.70
   1  -5   1  124.59   10.60
   1  -5   1  141.09   11.30
  -2   5  -1  208.78   12.80
  -2   5  -1  203.08   13.60
  -2   5  -1  213.38   13.60
  -2   5  -1  181.08    7.70
   2  -5   1  198.28   13.60
   2  -5   1  207.38   12.80
   2  -5   1  182.08   13.60
  -3   5  -1   14.60    4.80
  -3   5  -1    6.40    3.60
  -3   5  -1   12.00    4.90
   3  -5   1    9.50    4.80
   3  -5   1   -0.10    3.00
  -4   5  -1   -2.10    2.70
  -4   5  -1    3.90    3.80
  -4   5  -1   15.40    5.00
   4  -5   1    3.80    3.80
   4  -5   1    6.40    4.30
   4  -5   1   11.30    4.60
  -5   5  -1   38.80    7.20
  -5   5  -1   42.90    7.20
  -5   5  -1   27.90    7.40
   5  -5   1   30.10    6.90
   5  -5   1   33.00    7.20
  -6   5  -1   -7.90    2.80
  -6   5  -1    0.70    3.00
   6  -5   1   -6.30    3.00
   6  -5   1   -7.20    3.40
  -7   5  -1    3.20    4.10
  -7   5  -1    8.50    3.40
   7  -5   1   -0.90    4.20
   7  -5   1   -1.40    7.80
   7  -5   1   -1.70    1.40
  -8   5  -1    5.00    4.30
   8  -5   1    4.50    2.30
   8  -5   1   -0.10    5.40
   8  -5   1    1.10    5.00
   6   4  -1    6.90    3.50
   6   4  -1    7.50    5.20
  -6  -4   1   15.10    5.40
   5   4  -1    4.50    2.90
   5   4  -1    1.60    4.20
  -5  -4   1    4.40    4.10
   4   4  -1   -0.70    2.50
   4   4  -1    7.70    4.20
  -4  -4   1   10.40    4.90
   3   4  -1    4.40    2.70
   3   4  -1   -0.80    3.80
  -3  -4   1   -2.40    3.00
   2   4  -1   35.10    7.30
   2   4  -1   37.70    6.20
  -2  -4   1   43.30    9.00
  -2  -4   1   30.00    5.30
  -2  -4   1   32.40    6.80
   1   4  -1  453.25   20.60
   1   4  -1  461.55   19.60
   1   4  -1  481.05   21.70
   1   4  -1  487.75   22.70
   1   4  -1  470.05   20.40
   1   4  -1  500.25   17.40
  -1  -4   1  441.26   19.40
  -1  -4   1  478.45   22.50
  -1  -4   1  458.05   22.40
   0   4  -1   69.69    7.70
   0   4  -1   81.59    7.80
   0   4  -1   64.09    7.80
   0   4  -1   68.59    6.80
   0   4  -1   70.79    7.90
   0  -4   1   70.79    8.20
   0  -4   1   81.89    7.90
  -1   4  -1  112.69    9.10
  -1   4  -1  109.49   10.00
  -1   4  -1  112.29    7.10
  -1   4  -1  107.89    9.40
  -1   4  -1  105.09    9.50
  -1   4  -1  104.69    9.10
   1  -4   1  113.79    9.40
   1  -4   1  100.99    9.10
   1  -4   1  117.79    9.60
   1  -4   1  116.19    9.90
  -2   4  -1  429.76   19.00
  -2   4  -1  432.06   12.30
  -2   4  -1  448.26   20.00
  -2   4  -1  413.46   19.30
   2  -4   1  428.86   19.80
   2  -4   1  433.36   20.50
   2  -4   1  397.76   18.60
  -3   4  -1  912.71   32.30
  -3   4  -1  913.71   32.40
  -3   4  -1  957.60   34.00
   3  -4   1  929.01   32.80
   3  -4   1  954.50   35.30
   3  -4   1  903.51   33.70
  -4   4  -1    4.60    3.30
  -4   4  -1    4.60    3.10
  -4   4  -1    1.10    3.10
   4  -4   1    7.00    4.10
   4  -4   1   -1.20    2.90
  -5   4  -1    7.00    3.30
  -5   4  -1    0.00    3.10
  -5   4  -1   -0.60    3.50
   5  -4   1    2.50    1.70
   5  -4   1    5.40    4.00
   5  -4   1    6.40    3.90
  -6   4  -1   76.89    7.30
   6  -4   1   69.39    9.60
   6  -4   1   90.89    6.50
   6  -4   1   87.89   10.50
  -7   4  -1   -9.70    3.20
  -7   4  -1   -1.90    2.50
   7  -4   1    1.70    2.50
   7  -4   1    7.40    4.70
  -8   4  -1    4.00    4.60
   8  -4   1   13.90    5.30
   8  -4   1    9.30    3.60
   8  -4   1   14.40    6.90
   6   3  -1    6.10    3.40
   6   3  -1    5.90    4.40
  -6  -3   1    4.50    4.60
   5   3  -1  112.89   11.20
   5   3  -1  108.39    8.50
  -5  -3   1   89.79   10.30
   4   3  -1   16.30    4.20
   4   3  -1    9.90    4.70
  -4  -3   1   16.20    5.50
   3   3  -1   43.30    5.80
   3   3  -1   44.90    7.80
  -3  -3   1   52.59    5.20
  -3  -3   1   58.09    8.80
   2   3  -1  821.12   30.40
  -2  -3   1  790.52   26.00
  -2  -3   1  792.82   30.40
  -2  -3   1  763.52   30.40
   1   3  -1  271.07   13.70
   1   3  -1  272.07   13.40
   1   3  -1  286.47   11.10
   1   3  -1  294.07   16.00
   1   3  -1  304.17   15.20
  -1  -3   1  280.87   14.40
  -1  -3   1  275.37   15.40
  -1  -3   1  283.67   13.50
  -1  -3   1  289.67   15.80
   0   3  -1  257.17   12.10
   0   3  -1  238.38   12.70
   0   3  -1  250.17   14.10
   0   3  -1  271.37   13.60
   0   3  -1  255.07   12.90
   0  -3   1  231.88   14.90
   0  -3   1  256.17   13.00
   0  -3   1  251.37   13.90
  -1   3  -1  137.79    6.80
  -1   3  -1  152.08   10.20
  -1   3  -1  133.39    9.60
   1  -3   1  152.28   10.20
   1  -3   1  148.59    9.50
   1  -3   1  138.59    9.60
   1  -3   1  143.69    9.90
   1  -3   1  138.39    6.80
  -2   3  -1  469.45   20.20
  -2   3  -1  469.35   19.50
  -2   3  -1  506.55   20.10
   2  -3   1  508.35   20.20
   2  -3   1  499.75   20.80
   2  -3   1  494.85   20.00
  -3   3  -1   56.29    8.10
  -3   3  -1   59.09    7.80
  -3   3  -1   48.30    6.30
   3  -3   1   47.10    7.30
   3  -3   1   49.80    3.20
   3  -3   1   40.90    6.70
  -4   3  -1  709.03   25.20
  -4   3  -1  759.32   28.80
  -4   3  -1  709.03   28.20
   4  -3   1  733.33   29.00
   4  -3   1  745.43   22.50
   4  -3   1  753.72   28.90
  -5   3  -1  247.98   12.10
  -5   3  -1  234.88   14.50
   5  -3   1  252.37   11.70
   5  -3   1  229.38   15.00
   5  -3   1  237.68   15.70
  -6   3  -1   -0.70    1.90
  -6   3  -1    7.30    3.90
   6  -3   1    3.80    3.50
   6  -3   1   -4.60    2.10
   6  -3   1    0.20    3.40
  -7   3  -1    6.20    4.00
   7  -3   1   -3.00    2.50
   7  -3   1   -3.30    3.30
  -8   3  -1   44.90    7.60
   8  -3   1   67.49    9.50
   8  -3   1   47.40    7.00
   8  -3   1   59.29   10.80
   7   2  -1    4.80    3.80
   7   2  -1    6.30    5.10
  -7  -2   1    7.90    5.30
   6   2  -1   10.10    3.30
   6   2  -1    1.90    4.20
   5   2  -1   10.20    6.90
   5   2  -1   12.50    3.70
   4   2  -1   31.20    6.70
   4   2  -1   22.30    4.50
  -4  -2   1   28.80    3.00
   3   2  -1  215.18   11.50
   3   2  -1  216.38   14.20
  -3  -2   1  210.38    9.10
  -3  -2   1  199.78   13.70
   2   2  -1 1284.77   41.50
  -2  -2   1 1272.67   41.30
  -2  -2   1 1299.97   36.20
  -2  -2   1 1262.87   40.60
  -2  -2   1 1324.57   42.40
   1   2  -1  295.17   16.60
   1   2  -1  300.37    9.60
   1   2  -1  305.47   14.90
  -1  -2   1  313.57   12.60
  -1  -2   1  285.07   13.80
  -1  -2   1  270.57   14.30
  -1  -2   1  285.57   14.40
   0   2  -1  522.75   18.60
   0   2  -1  502.95   18.00
   0   2  -1  538.25   19.30
   0   2  -1  525.15   17.80
   0   2  -1  533.75   19.90
   0  -2   1  526.85   19.80
   0  -2   1  521.05   17.60
   0  -2   1  530.55   19.30
   0  -2   1  535.35   18.80
   0  -2   1  523.05   18.30
  -1   2  -1 8173.88  200.08
  -1   2  -1 8241.38  199.58
   1  -2   1 8171.68  199.58
   1  -2   1 7954.70  194.68
   1  -2   1 8341.57  199.88
  -2   2  -1  201.78   18.40
  -2   2  -1  249.38   12.60
  -2   2  -1  215.78   11.10
   2  -2   1  243.68   12.50
   2  -2   1  235.88   11.20
   2  -2   1  220.08   12.30
  -3   2  -1  926.51   32.00
  -3   2  -1  943.61   31.60
   3  -2   1  917.61   32.20
   3  -2   1  909.51   31.30
   3  -2   1  931.01   27.40
  -4   2  -1  171.18   11.80
  -4   2  -1  189.28   10.70
   4  -2   1  214.18   11.00
   4  -2   1  200.68   12.60
   4  -2   1  209.18   13.70
  -5   2  -1   65.59    8.50
   5  -2   1   47.70    8.20
   5  -2   1   51.29    7.70
   5  -2   1   59.19    7.00
  -6   2  -1    4.40    3.60
   6  -2   1    1.70    3.60
   6  -2   1    5.10    3.30
   6  -2   1    5.10    3.50
  -7   2  -1   -1.60    3.20
   7  -2   1   -1.40    3.60
   7  -2   1   -0.20    4.40
   7  -2   1    2.00    3.40
  -8   2  -1   42.20    6.80
   8  -2   1   35.90    7.00
   8  -2   1   44.10   12.10
   8  -2   1   44.10    6.80
   7   1  -1    1.60    3.60
   7   1  -1    8.10    4.20
  -7  -1   1    5.60    2.60
  -7  -1   1    4.90    2.30
   6   1  -1   39.60    7.60
   6   1  -1   42.70    6.60
  -6  -1   1   50.99    4.90
   5   1  -1    7.10    4.40
   5   1  -1    1.50    2.70
   4   1  -1    2.00    3.30
   4   1  -1    5.00    3.10
  -4  -1   1    6.10    1.30
  -4  -1   1    3.20    1.90
   3   1  -1 1577.74   49.00
   3   1  -1 1601.64   45.90
  -3  -1   1 1557.74   48.60
  -3  -1   1 1581.04   40.50
   2   1  -1  798.42   26.20
   2   1  -1  868.21   29.00
  -2  -1   1  843.52   28.70
   1   1  -1 3042.20   77.59
  -1  -1   1 3033.10   77.49
  -1  -1   1 2918.31   77.49
   0   1  -1   89.19    5.00
   0   1  -1  103.49    6.00
   0   1  -1   88.39    4.60
   0   1  -1   84.79    5.60
   0  -1   1   97.59    4.70
   0  -1   1   94.59    5.50
   0  -1   1   93.79    5.80
   0  -1   1   88.89    5.00
   0  -1   1   92.59    5.80
  -1   1  -1  191.28    8.20
  -1   1  -1  199.48    8.90
  -1   1  -1  202.18    9.50
   1  -1   1  191.48    8.10
   1  -1   1  191.58    8.80
   1  -1   1  198.08    9.60
  -2   1  -1  555.24   15.10
  -2   1  -1  542.75   16.70
  -2   1  -1  571.44   19.40
  -2   1  -1  563.44   20.70
   2  -1   1  532.15   19.10
   2  -1   1  563.24   16.90
  -3   1  -1   20.70    4.60
  -3   1  -1   14.60    2.40
  -3   1  -1   20.50    2.80
   3  -1   1   32.30    6.40
   3  -1   1   13.70    4.30
   3  -1   1   24.10    4.60
  -4   1  -1   24.20    4.90
  -4   1  -1   13.70    2.80
   4  -1   1   14.80    4.80
   4  -1   1   17.10    4.60
   4  -1   1    9.30    3.70
  -5   1  -1    9.60    3.70
   5  -1   1    9.00    3.60
   5  -1   1    7.40    3.50
   5  -1   1    8.30    4.70
  -6   1  -1   15.00    4.80
   6  -1   1    8.40    3.80
   6  -1   1   13.60    5.00
   6  -1   1   13.80    5.00
  -7   1  -1   45.70    7.10
  -7   1  -1   52.29    7.40
   7  -1   1   42.20    8.90
   7  -1   1   46.60    8.70
   7  -1   1   45.60    8.20
  -8   1  -1    0.10    3.20
  -8   1  -1    0.50    3.50
   8  -1   1   -1.40    3.70
   8  -1   1   -2.70    3.50
   8  -1   1   -1.70    5.40
   8   0  -1   18.90    5.70
   8   0  -1   14.10    6.80
   8   0  -1   10.90    4.80
  -8   0   1   14.00    3.90
  -8   0   1   18.20    4.10
   7   0  -1    3.00    3.70
   7   0  -1    8.10    6.20
   7   0  -1   -1.00    4.00
  -7   0   1    7.80    3.80
  -7   0   1   12.60    3.80
   6   0  -1   -0.50    2.70
   6   0  -1   -1.10    3.20
  -6   0   1    0.00    2.80
   5   0  -1   64.19    8.80
   5   0  -1   65.29    7.50
  -5   0   1   74.09    3.00
  -5   0   1   79.09    7.90
   4   0  -1  800.92   28.70
   4   0  -1  829.32   30.20
  -4   0   1  831.42   28.90
   3   0  -1 1304.27   40.30
   3   0  -1 1272.87   39.40
  -3   0   1 1344.97   39.60
  -3   0   1 1279.87   40.20
   2   0  -1 5246.58  127.89
   2   0  -1 4937.71  126.99
  -2   0   1 4936.71  127.29
  -2   0   1 5280.07  127.29
   1   0  -1 2184.38   56.39
   1   0  -1 2187.48   56.19
  -1   0   1 2270.17   56.49
  -1   0   1 2230.78   55.39
  -1   0   1 2169.58   56.19
  -1   0  -1 1118.29   29.50
  -1   0  -1 1114.19   28.30
  -1   0  -1 1074.09   30.30
   1   0   1 1089.39   28.20
  -2   0  -1 5369.56  131.99
  -2   0  -1 5531.05  131.79
   2   0   1 5247.18  131.59
  -3   0  -1  207.08   10.10
  -3   0  -1  194.78   10.00
   3   0   1  191.28   11.90
  -4   0  -1 1379.36   40.10
  -4   0  -1 1372.46   41.00
  -4   0  -1 1253.07   41.30
   4   0   1 1358.46   43.80
   4   0   1 1349.96   40.30
  -5   0  -1   24.60    4.80
  -5   0  -1   22.70    5.10
  -5   0  -1   37.60    6.00
   5   0   1   22.50    5.90
   5   0   1   16.40    5.50
   5   0   1   21.80    4.70
  -6   0  -1  482.15   19.80
  -6   0  -1  476.05   19.50
   6   0   1  488.85   24.00
   6   0   1  452.25   19.80
  -7   0  -1   12.30    4.20
  -7   0  -1   10.90    3.80
   7   0   1   12.10    5.60
   7   0   1    9.00    3.80
   7   0   1    7.90    4.50
  -8   0  -1    4.50    3.40
   8   0   1    7.00    6.90
   8   0   1    8.80    4.30
   8   0   1    3.30    4.80
   8  -1  -1    1.30    4.30
   8  -1  -1    5.10    4.10
  -8   1   1    0.50    3.60
   7  -1  -1   64.79   15.40
   7  -1  -1   64.39    9.00
   7  -1  -1   50.89   10.10
  -7   1   1   48.80   12.40
   6  -1  -1  150.98   11.30
   6  -1  -1   95.99    9.70
   6  -1  -1  101.59   11.10
  -6   1   1  109.39    9.90
  -6   1   1  108.49    5.10
   5  -1  -1  266.37   15.30
   5  -1  -1  286.27   15.20
   5  -1  -1  261.77   16.30
  -5   1   1  276.47   15.30
  -5   1   1  259.07   10.10
   4  -1  -1  129.09    9.50
   4  -1  -1  120.29    9.70
  -4   1   1  126.69    9.90
   3  -1  -1  283.87   14.50
   3  -1  -1  290.87   13.20
  -3   1   1  300.57   14.60
   2  -1  -1  654.43   21.50
   2  -1  -1  640.54   24.40
   2  -1  -1  630.54   19.70
  -2   1   1  614.34   19.60
  -2   1   1  663.03   22.50
   1  -1  -1 4672.93  111.29
   1  -1  -1 4707.83  113.89
   1  -1  -1 4643.64  114.39
   1  -1  -1 4611.24  110.59
  -1   1   1 4527.55  114.19
  -1   1   1 4690.73  113.79
  -1   1   1 4371.36  110.39
   0  -1  -1  703.93   21.40
   0  -1  -1  720.43   21.40
   0  -1  -1  721.43   19.30
   0   1   1  680.23   20.50
   0   1   1  699.53   21.20
   0   1   1  691.93   19.20
  -1  -1  -1 5231.98  128.19
  -1  -1  -1 5350.86  130.29
  -1  -1  -1 5222.78  130.69
   1   1   1 5419.46  128.39
   1   1   1 5042.70  126.99
  -2  -1  -1  308.37   14.20
  -2  -1  -1  307.17   11.90
   2   1   1  306.27    9.60
   2   1   1  307.77   15.30
   2   1   1  292.77   10.80
  -3  -1  -1 1277.67   36.40
  -3  -1  -1 1287.17   39.70
   3   1   1 1279.17   42.10
   3   1   1 1263.77   36.10
  -4  -1  -1  141.09    8.40
  -4  -1  -1  130.29    9.90
   4   1   1  144.79    8.50
   4   1   1  129.89   11.40
  -5  -1  -1  540.35   19.00
  -5  -1  -1  496.85   21.10
   5   1   1  505.95   24.30
   5   1   1  518.95   19.80
  -6  -1  -1   -3.20    1.80
   6   1   1    1.50    2.40
   6   1   1    1.20    3.80
  -7  -1  -1   32.80    4.80
   7   1   1   12.80   10.90
   7   1   1   33.20    5.70
   7   1   1   31.50    7.70
   8  -2  -1   13.70    4.90
   8  -2  -1   17.60    5.40
   8  -2  -1   14.10    6.50
  -8   2   1   22.20    6.20
   7  -2  -1   39.50    6.70
   7  -2  -1   33.70    6.90
  -7   2   1   35.70    3.90
  -7   2   1   30.70    6.70
   6  -2  -1   45.30    8.20
   6  -2  -1   32.80    6.10
   6  -2  -1   39.20    7.60
  -6   2   1   42.70    7.30
  -6   2   1   34.70    4.30
   5  -2  -1  500.45   22.90
   5  -2  -1  505.95   23.10
   5  -2  -1  539.85   20.50
  -5   2   1  495.25   22.50
  -5   2   1  503.65   18.20
   4  -2  -1    8.60    4.20
   4  -2  -1   -3.80    2.50
   4  -2  -1    2.50    2.20
  -4   2   1   -1.00    2.50
  -4   2   1   -1.30    1.80
   3  -2  -1  103.99    8.50
   3  -2  -1   91.89    3.70
   3  -2  -1   95.99    8.80
   3  -2  -1   92.79    6.00
  -3   2   1   85.09    8.20
  -3   2   1   92.79    5.70
   2  -2  -1 2348.76   58.19
   2  -2  -1 2448.66   66.99
   2  -2  -1 2427.86   65.69
   2  -2  -1 2417.16   60.19
   2  -2  -1 2401.06   62.69
  -2   2   1 2224.68   58.09
  -2   2   1 2387.96   62.49
  -2   2   1 2393.26   65.39
   1  -2  -1  322.67   11.70
   1  -2  -1  326.57   13.10
   1  -2  -1  319.47   15.00
  -1   2   1  292.27   21.90
  -1   2   1  339.07   12.00
  -1   2   1  327.27   13.70
   0  -2  -1  132.29    9.10
   0   2   1  151.48    7.60
   0   2   1  149.49    8.70
   0   2   1  145.79    9.00
   0   2   1  138.29    8.60
  -1  -2  -1  137.49   10.10
  -1  -2  -1  138.19    7.80
   1   2   1  152.08    7.90
   1   2   1  138.99    8.00
   1   2   1  139.89    9.60
   1   2   1  133.19    9.30
  -2  -2  -1   92.19    8.60
  -2  -2  -1  101.99    8.80
  -2  -2  -1   77.59    5.50
   2   2   1   74.99    5.30
   2   2   1   78.29    5.50
   2   2   1   82.59    5.70
   2   2   1   74.69    8.30
  -3  -2  -1   81.99    8.40
  -3  -2  -1   73.19    5.20
  -3  -2  -1   73.59    8.50
   3   2   1   71.99    9.60
   3   2   1   69.99    5.60
  -4  -2  -1   99.99    9.60
  -4  -2  -1  102.79    6.10
  -4  -2  -1  105.99   10.10
   4   2   1  125.19   11.40
   4   2   1  109.09    7.10
  -5  -2  -1   13.50    5.00
  -5  -2  -1    7.70    2.50
   5   2   1    7.50    2.90
   5   2   1   12.60    5.20
  -6  -2  -1    9.00    4.00
   6   2   1   -0.90    2.30
   6   2   1    4.80    4.10
  -7  -2  -1    5.10    4.40
   7   2   1    3.30    5.00
   7   2   1    6.90    3.40
   8  -3  -1   -1.40    3.10
   8  -3  -1    5.90    5.60
   8  -3  -1   -7.50    4.60
  -8   3   1   -0.50    2.20
  -8   3   1   -5.20    3.60
   7  -3  -1   15.90    5.60
   7  -3  -1   10.40    5.00
   7  -3  -1   21.40    4.70
  -7   3   1   27.00    6.50
  -7   3   1   20.60    3.80
   6  -3  -1   46.90    8.20
   6  -3  -1   34.00    7.20
   6  -3  -1   51.49    6.60
  -6   3   1   29.80    4.90
  -6   3   1   42.10    7.80
   5  -3  -1   44.90    8.00
   5  -3  -1   53.09    8.50
   5  -3  -1   40.60    7.00
  -5   3   1   39.60    5.60
  -5   3   1   43.10    7.10
   4  -3  -1  104.79    9.50
   4  -3  -1  107.69   10.00
   4  -3  -1  107.49    5.90
  -4   3   1   94.39    8.20
  -4   3   1   90.79    9.20
   3  -3  -1  923.51   30.40
   3  -3  -1  896.01   32.50
   3  -3  -1  920.41   26.30
   3  -3  -1  926.71   33.90
  -3   3   1  933.91   31.40
  -3   3   1  916.11   32.60
  -3   3   1  923.01   30.10
   2  -3  -1  131.29    8.30
   2  -3  -1  131.89    8.20
   2  -3  -1  140.59   10.20
  -2   3   1  133.69    4.70
  -2   3   1  145.39   10.30
  -2   3   1  128.09    9.70
  -2   3   1  132.19    8.40
   1  -3  -1  515.55   21.90
   1  -3  -1  513.45   18.10
   1  -3  -1  480.05   19.40
  -1   3   1  521.05   20.70
  -1   3   1  487.85   21.20
  -1   3   1  498.25   16.60
  -1   3   1  525.25   18.10
  -1   3   1  502.25   19.50
   0  -3  -1   20.80    5.40
   0   3   1   18.70    3.80
   0   3   1   18.40    4.50
   0   3   1   15.00    3.80
   0   3   1   23.90    5.00
   0   3   1   18.00    4.10
   0   3   1   23.80    5.80
  -1  -3  -1   40.80    6.60
  -1  -3  -1   50.79    8.30
   1   3   1   35.80    6.30
   1   3   1   38.90    4.90
   1   3   1   35.30    6.00
   1   3   1   39.50    5.60
  -2  -3  -1  164.78   12.00
  -2  -3  -1  155.48   12.10
   2   3   1  185.08   12.90
   2   3   1  176.98    9.60
   2   3   1  177.48    8.60
  -3  -3  -1   71.59   10.50
  -3  -3  -1   81.09    9.20
   3   3   1   85.59    9.30
   3   3   1   84.59    6.10
  -4  -3  -1    8.50    4.60
  -4  -3  -1   -0.80    3.20
   4   3   1    7.60    5.70
   4   3   1    5.70    2.40
  -5  -3  -1    5.00    4.20
  -5  -3  -1    6.70    4.50
   5   3   1   12.40    5.30
   5   3   1    4.10    2.50
  -6  -3  -1    2.60    4.20
   6   3   1    4.70    4.50
   6   3   1    2.20    2.50
   8  -4  -1   14.00    4.00
   8  -4  -1    6.80    6.20
   8  -4  -1   13.10    6.00
  -8   4   1   17.30    5.50
  -8   4   1   12.50    3.40
   7  -4  -1   61.29    9.60
   7  -4  -1   64.09    6.00
   7  -4  -1   69.49   10.20
  -7   4   1   69.09   10.50
  -7   4   1   67.99    7.20
   6  -4  -1  105.59   10.90
   6  -4  -1   88.89    9.90
   6  -4  -1   93.19    7.20
  -6   4   1   88.59    9.60
  -6   4   1   91.99    8.30
   5  -4  -1   26.60    6.00
   5  -4  -1   17.10    2.20
   5  -4  -1   17.20    5.80
   5  -4  -1   18.90    5.80
  -5   4   1   22.30    5.90
  -5   4   1   18.10    4.70
   4  -4  -1  659.03   27.40
   4  -4  -1  641.54   28.30
   4  -4  -1  626.54   24.70
  -4   4   1  639.14   25.40
  -4   4   1  678.33   25.00
  -4   4   1  627.54   26.70
   3  -4  -1   60.99    6.60
   3  -4  -1   53.39    5.50
   3  -4  -1   84.89   14.70
   3  -4  -1   51.09    7.80
  -3   4   1   68.19    8.60
  -3   4   1   42.80    6.90
  -3   4   1   52.99    6.80
   2  -4  -1   69.79    6.40
   2  -4  -1   71.49    8.60
   2  -4  -1   57.39    8.00
   2  -4  -1   69.29    7.10
  -2   4   1   74.99    8.10
  -2   4   1   65.09    8.50
  -2   4   1   64.09    4.00
  -2   4   1   67.59    6.40
   1  -4  -1  185.18   12.50
   1  -4  -1  182.48   13.20
  -1   4   1  208.48   11.10
  -1   4   1  193.48   12.50
  -1   4   1  212.78   13.70
  -1   4   1  215.68   10.30
  -1   4   1  193.08   12.90
  -1   4   1  210.38   12.00
  -1   4   1  222.58   13.40
   0  -4  -1   16.20    5.70
   0   4   1   17.50    4.10
   0   4   1   10.70    4.00
   0   4   1   20.60    5.10
   0   4   1   14.20    4.20
   0   4   1   11.90    4.50
   0   4   1   19.20    4.50
   0   4   1   16.80    3.90
  -1  -4  -1  315.37   18.00
  -1  -4  -1  332.07   17.80
   1   4   1  304.47   15.10
   1   4   1  304.87   14.10
   1   4   1  331.37   16.90
   1   4   1  319.67   13.90
   1   4   1  316.27   17.20
   1   4   1  329.77   17.70
  -2  -4  -1   43.10    8.60
  -2  -4  -1   38.00    7.00
   2   4   1   41.70    6.10
   2   4   1   34.60    4.40
   2   4   1   35.80    6.70
  -3  -4  -1  134.69   12.20
  -3  -4  -1  132.79   11.70
   3   4   1  120.79   11.80
   3   4   1  134.49    7.90
  -4  -4  -1    2.50    4.00
  -4  -4  -1    1.10    3.70
   4   4   1   -0.10    2.00
   4   4   1   -4.40    3.50
  -5  -4  -1   -4.90    3.40
   5   4   1    0.10    3.80
   5   4   1    0.70    2.10
   8  -5  -1    2.40    5.60
   8  -5  -1   -0.30    5.20
   8  -5  -1    7.10    4.30
  -8   5   1   -2.00    3.90
  -8   5   1   -0.20    3.50
   7  -5  -1    7.60    4.50
   7  -5  -1    6.00    3.90
   7  -5  -1    1.30    5.20
  -7   5   1    4.20    3.60
  -7   5   1   -2.10    4.00
   6  -5  -1   10.70    5.80
   6  -5  -1    6.60    4.60
  -6   5   1   17.00    5.60
   5  -5  -1    9.70    4.20
   5  -5  -1    3.00    4.80
  -5   5   1    6.30    3.80
   4  -5  -1  115.79    9.50
   4  -5  -1  125.69   11.90
   4  -5  -1  127.39   11.40
   4  -5  -1   95.19    8.70
  -4   5   1  117.19    9.30
  -4   5   1  123.29   10.60
  -4   5   1  129.89   11.20
   3  -5  -1   25.40    5.50
   3  -5  -1   17.80    4.30
   3  -5  -1   26.50    5.10
   3  -5  -1   25.90    6.40
  -3   5   1   22.20    5.60
  -3   5   1   18.90    5.50
  -3   5   1   31.00    5.30
   2  -5  -1   20.80    5.30
   2  -5  -1   18.50    6.10
   2  -5  -1   26.90    5.10
  -2   5   1   14.70    4.70
  -2   5   1   14.60    2.60
  -2   5   1   18.00    5.00
  -2   5   1   15.60    5.00
  -2   5   1   20.50    4.30
   1  -5  -1  332.67   18.00
  -1   5   1  300.17   14.80
  -1   5   1  346.77   17.80
  -1   5   1  306.47   14.00
  -1   5   1  313.97   17.20
  -1   5   1  345.87   16.40
  -1   5   1  301.77   17.60
  -1   5   1  297.47   17.30
   0  -5  -1   -1.30    3.20
   0   5   1   -4.20    2.00
   0   5   1   -2.20    2.80
   0   5   1   -2.70    2.40
   0   5   1   -5.10    2.40
   0   5   1    2.30    2.20
   0   5   1   -0.80    2.70
   0   5   1   -3.80    1.80
  -1  -5  -1  116.89   11.40
   1   5   1  122.29   10.10
   1   5   1  108.49    9.40
   1   5   1  126.09   11.20
   1   5   1  105.79   10.10
   1   5   1  115.59    8.40
   1   5   1  121.09    8.60
   1   5   1  111.49   10.70
  -2  -5  -1   -2.00    3.60
  -2  -5  -1    2.90    3.90
   2   5   1   -0.90    1.90
   2   5   1    6.40    2.90
   2   5   1    8.00    3.40
   2   5   1    2.30    3.90
   2   5   1    8.50    3.60
  -3  -5  -1    6.60    4.80
  -3  -5  -1    9.20    5.00
   3   5   1    6.10    3.90
   3   5   1    3.90    2.60
   3   5   1    9.40    5.10
  -4  -5  -1    1.40    4.10
  -4  -5  -1    7.40    5.00
   4   5   1    6.10    2.60
   4   5   1   -1.30    4.30
  -5  -5  -1   -0.70    4.40
   5   5   1    1.90    4.80
   5   5   1   -3.70    2.30
   7  -6  -1   29.50    7.60
   7  -6  -1   25.20    7.40
  -7   6   1   29.40    7.10
   6  -6  -1    8.10    4.20
   6  -6  -1    1.30    7.90
  -6   6   1    1.20    3.80
   5  -6  -1   70.19   10.00
   5  -6  -1   68.79    8.30
  -5   6   1   84.59   10.90
  -5   6   1   78.79    8.60
  -5   6   1   74.69    8.00
   4  -6  -1    4.70    3.80
   4  -6  -1    0.40    2.80
   4  -6  -1    3.70    3.40
  -4   6   1    4.90    3.90
  -4   6   1    1.00    2.60
  -4   6   1   -1.40    3.10
   3  -6  -1    9.20    4.30
   3  -6  -1    6.90    3.50
   3  -6  -1   10.10    4.60
  -3   6   1   20.70    5.20
  -3   6   1    8.40    4.30
  -3   6   1   15.90    4.20
   2  -6  -1   12.10    4.90
   2  -6  -1    6.70    4.50
  -2   6   1    5.60    3.80
  -2   6   1    0.30    6.60
  -2   6   1    3.80    2.80
  -2   6   1    1.40    2.00
  -2   6   1    4.00    4.10
  -2   6   1   -1.30    3.10
   1  -6  -1   69.69   11.00
  -1   6   1   76.39   12.30
  -1   6   1   74.99    7.60
  -1   6   1   60.29    8.70
  -1   6   1   71.89    6.90
  -1   6   1   70.99    8.70
  -1   6   1   60.99    8.40
   0  -6  -1    1.80    4.40
   0   6   1    6.70    4.00
   0   6   1    1.20    2.70
   0   6   1   -1.60    2.70
   0   6   1   -1.40    4.80
   0   6   1    1.30    3.40
   0   6   1    1.40    3.10
   0   6   1    0.80    2.60
  -1  -6  -1   -1.80    3.60
   1   6   1    6.90    4.60
   1   6   1    1.50    3.30
   1   6   1    2.30    4.10
   1   6   1    5.10    3.70
   1   6   1    3.20    2.60
   1   6   1   -2.20    2.90
   1   6   1    2.20    2.50
  -2  -6  -1    1.20    3.90
  -2  -6  -1   -4.20    3.30
   2   6   1    3.30    2.40
   2   6   1   -6.40    2.80
   2   6   1    6.00    4.30
   2   6   1    5.70    2.80
   2   6   1    5.50    4.50
  -3  -6  -1    2.30    4.50
  -3  -6  -1    2.50    4.20
   3   6   1    1.30    2.60
   3   6   1    5.90    2.50
   3   6   1    2.30    3.90
   3   6   1    6.70    4.50
   4   6   1    2.80    2.60
   4   6   1    3.50    4.80
   4   6   1    5.20    2.70
   7  -7  -1    7.30    5.10
   7  -7  -1    2.70    5.20
  -7   7   1    1.00    4.10
  -7   7   1    2.10    4.70
   6  -7  -1   -0.80    3.80
   6  -7  -1    2.90    4.40
   6  -7  -1    7.10    8.40
  -6   7   1    3.10    4.30
  -6   7   1    6.10    4.90
   5  -7  -1    5.70    4.60
   5  -7  -1    3.90    3.50
  -5   7   1    5.00    3.30
  -5   7   1    3.50    4.50
  -5   7   1   -1.70    4.50
   4  -7  -1   69.49    8.40
   4  -7  -1   60.29   10.00
  -4   7   1   66.89    9.40
  -4   7   1   66.29   10.40
  -4   7   1   59.59    9.00
  -4   7   1   72.79    7.50
   3  -7  -1   18.00    5.40
   3  -7  -1    8.60    3.90
  -3   7   1    4.30    3.30
  -3   7   1   12.70    4.90
  -3   7   1   17.60    5.30
  -3   7   1   12.60    4.90
   2  -7  -1   61.79   10.20
  -2   7   1   45.10    8.20
  -2   7   1   42.90    5.00
  -2   7   1   57.79   11.20
  -2   7   1   48.30    9.10
  -2   7   1   51.09    7.00
  -2   7   1   54.59    8.90
   1  -7  -1    4.20    4.30
  -1   7   1    6.90    4.20
  -1   7   1    8.10    4.90
  -1   7   1    3.60    2.70
  -1   7   1    8.00    3.50
  -1   7   1   -1.70    3.70
  -1   7   1    6.20    3.90
  -1   7   1    1.50    3.40
   0  -7  -1  106.39   11.40
   0   7   1   92.19    9.00
   0   7   1   82.99    8.60
   0   7   1   79.39    8.60
   0   7   1   91.89    9.90
   0   7   1   92.89   10.40
   0   7   1   98.19    8.50
   0   7   1   99.59   10.90
  -1  -7  -1    0.90    4.10
   1   7   1    4.70    4.10
   1   7   1    3.40    4.80
   1   7   1   -1.40    2.50
   1   7   1   -0.10    3.60
   1   7   1    4.40    3.00
   1   7   1    2.70    3.60
   1   7   1    1.80    4.10
  -2  -7  -1   -2.10    3.70
   2   7   1    4.00    2.90
   2   7   1    4.40    4.50
   2   7   1   -5.30    3.80
   2   7   1    2.70    2.30
   2   7   1   -0.10    3.80
   6  -8  -1    5.60    4.30
   6  -8  -1    9.10    5.90
  -6   8   1    0.70    5.00
  -6   8   1   -4.40    4.50
  -6   8   1    1.80    4.50
  -6   8   1    8.70    4.00
   5  -8  -1   -3.80    3.40
   5  -8  -1    0.30    3.90
  -5   8   1    2.80    3.10
  -5   8   1    7.30    4.70
  -5   8   1    7.30    5.00
  -5   8   1    5.30    4.20
   4  -8  -1    1.60    4.30
  -4   8   1   14.90    5.40
  -4   8   1   10.30    4.40
  -4   8   1    3.70    3.30
  -4   8   1   -4.50    4.60
   3  -8  -1    5.90    4.60
  -3   8   1   -1.70    3.70
  -3   8   1    5.30    3.30
  -3   8   1    2.30    4.90
  -3   8   1    7.20    4.30
  -3   8   1    5.10    4.90
   2  -8  -1   25.80    7.00
  -2   8   1   16.20    6.10
  -2   8   1   29.40    6.20
  -2   8   1   35.00    6.90
  -2   8   1   24.00    3.90
  -2   8   1   26.20    5.10
  -2   8   1   28.00    7.10
   1  -8  -1   65.49   11.20
  -1   8   1   77.59   10.10
  -1   8   1   67.59    8.40
  -1   8   1   53.89    9.20
  -1   8   1   62.19    6.90
  -1   8   1   63.49    7.70
  -1   8   1   61.39    9.30
  -1   8   1   53.09    7.70
   0  -8  -1   16.80    6.50
   0   8   1   18.70    5.00
   0   8   1   16.50    4.50
   0   8   1   23.00    5.20
   0   8   1   13.40    6.30
   0   8   1   20.30    4.80
   0   8   1   17.30    6.80
  -2   9  -2  -12.00    4.80
  -2   9  -2    3.60    4.20
  -2   9  -2    4.00    2.70
  -2   9  -2    8.90    5.00
  -2   9  -2    7.70    4.20
  -3   9  -2    6.90    6.00
  -3   9  -2    3.20    5.20
  -3   9  -2    4.80    4.20
  -3   9  -2    1.30    3.80
  -3   9  -2    0.90    4.00
   3  -9   2   -1.90    4.00
  -4   9  -2   -7.20    4.90
   1   8  -2   26.00    6.90
   1   8  -2   22.60    4.30
   1   8  -2   19.20    5.20
   1   8  -2   22.30    5.80
   1   8  -2   28.30    6.40
   1   8  -2   17.90    6.60
   0   8  -2   31.40    6.10
   0   8  -2   33.40    5.70
   0   8  -2   37.70    7.60
   0   8  -2   23.80    6.20
   0   8  -2   30.40   11.60
  -1   8  -2    5.90    4.10
  -1   8  -2   -0.40    4.20
  -1   8  -2    0.10    2.60
  -1   8  -2    6.90    4.80
  -1   8  -2   -1.60    3.50
  -2   8  -2   61.59    9.80
  -2   8  -2   88.29    6.30
  -2   8  -2   98.59   10.10
  -2   8  -2  100.29   10.20
  -2   8  -2   79.49   10.80
   2  -8   2   94.19   12.90
  -3   8  -2    1.80    3.90
  -3   8  -2   10.50    4.40
  -3   8  -2    4.60    5.10
  -3   8  -2   -0.20    4.10
   3  -8   2    0.80    3.60
   3  -8   2   -2.90    3.90
  -4   8  -2    1.40    4.60
  -4   8  -2    0.50    5.10
  -4   8  -2    9.00    4.50
  -4   8  -2    1.60    3.60
   4  -8   2   10.00    5.40
   4  -8   2   -0.70    4.10
  -5   8  -2   65.99   15.40
  -5   8  -2   71.89   10.30
  -5   8  -2   48.50    7.80
   5  -8   2   52.79    8.10
  -6   8  -2   -0.50    4.80
  -6   8  -2    1.90    4.10
  -6   8  -2    7.60    4.90
   6  -8   2   -1.80    4.60
   6  -8   2   -5.60    6.40
   3   7  -2    3.30    5.20
   3   7  -2   12.80    4.90
   3   7  -2    6.10    5.90
   2   7  -2  201.08   14.70
   2   7  -2  190.28   13.30
   2   7  -2  186.98   14.40
   1   7  -2   -1.00    3.70
   1   7  -2    1.70    3.70
   1   7  -2    1.50    2.40
   1   7  -2    0.90    3.60
   1   7  -2    3.50    3.70
   0   7  -2    0.50    5.90
   0   7  -2   16.60    5.20
   0   7  -2   13.00    6.20
   0   7  -2    8.60    3.60
   0   7  -2   22.80    5.40
   0   7  -2   18.20    5.60
  -1   7  -2    3.60    3.80
  -1   7  -2   -1.50    3.80
  -1   7  -2   -3.70    2.00
  -1   7  -2    5.60    4.10
  -2   7  -2    1.90    3.20
  -2   7  -2   -0.30    1.90
  -2   7  -2   -2.20    3.00
   2  -7   2    3.70    4.00
  -3   7  -2    6.40    4.30
  -3   7  -2    6.10    4.10
   3  -7   2    2.10    3.10
   3  -7   2    5.60    4.80
  -4   7  -2   52.39    8.80
  -4   7  -2   49.50    8.00
   4  -7   2   51.29    8.30
   4  -7   2   41.10    7.60
  -5   7  -2   20.70    6.00
  -5   7  -2   21.90    5.70
  -5   7  -2   10.20    5.20
   5  -7   2   19.80    6.00
   5  -7   2   19.20    6.10
  -6   7  -2   34.50    7.30
  -6   7  -2   34.70    7.10
  -6   7  -2   17.80    6.20
   6  -7   2   17.60    7.10
   6  -7   2   15.90    4.70
  -7   7  -2   -3.40    7.20
  -7   7  -2   -6.70    4.10
   7  -7   2   -0.40    4.50
   7  -7   2   10.10    5.40
   4   6  -2   20.10    5.20
   4   6  -2   23.90    6.10
   4   6  -2   16.50    6.30
   4   6  -2   27.20    6.80
  -4  -6   2   18.60    6.80
   3   6  -2    1.10    4.10
   3   6  -2    0.50    3.40
   3   6  -2   10.70    5.00
  -3  -6   2   -7.10    3.90
   2   6  -2   13.50    4.50
   2   6  -2   10.10    4.90
   2   6  -2    2.70    4.00
  -2  -6   2   12.90    5.50
   1   6  -2  112.89   10.40
   1   6  -2  106.69   10.80
   1   6  -2  106.79    9.70
   1   6  -2  105.19    7.80
   1   6  -2  111.09   11.60
  -1  -6   2  113.19   10.20
   0   6  -2  203.18   12.70
   0   6  -2  186.98   13.70
   0   6  -2  212.38   13.70
   0   6  -2  183.68   13.20
   0   6  -2  207.78   15.00
   0   6  -2  208.28   16.50
   0  -6   2  204.48   14.10
  -1   6  -2   49.80   10.00
  -1   6  -2   83.19   10.40
  -1   6  -2   62.79    6.30
  -1   6  -2   43.60    7.70
   1  -6   2   71.69    8.40
   1  -6   2   45.70    7.70
  -2   6  -2    1.90    1.90
  -2   6  -2    0.00    3.40
  -2   6  -2   -0.50    3.30
   2  -6   2    4.20    3.70
   2  -6   2    5.70    3.50
   2  -6   2    0.20    3.40
  -3   6  -2  288.27   17.20
  -3   6  -2  274.57   16.90
  -3   6  -2  283.37   16.30
   3  -6   2  304.27   17.90
   3  -6   2  263.37   16.00
  -4   6  -2   55.59    8.30
  -4   6  -2   70.59    9.40
  -4   6  -2   74.39   10.40
   4  -6   2   64.29    9.40
  -5   6  -2   51.79    8.20
  -5   6  -2   54.99    8.20
  -5   6  -2   58.19    8.40
   5  -6   2   40.40    7.60
   5  -6   2   35.80    5.80
  -6   6  -2   12.50    5.00
  -6   6  -2   13.70    4.60
  -6   6  -2    8.60    4.50
   6  -6   2    5.90    4.90
   6  -6   2   11.50    6.20
  -7   6  -2   59.59    8.80
   7  -6   2   81.39   11.50
   5   5  -2    3.00    4.70
   5   5  -2    6.30    5.00
  -5  -5   2    1.40    4.50
   4   5  -2   30.80    6.00
   4   5  -2   30.20    7.30
   4   5  -2   17.30    5.40
  -4  -5   2   23.40    6.40
   3   5  -2  123.19    9.90
   3   5  -2  117.09   11.60
  -3  -5   2  120.89    9.10
  -3  -5   2  132.59   12.50
   2   5  -2    5.30    3.30
   2   5  -2    3.50    3.80
   2   5  -2    3.90    3.80
  -2  -5   2    4.70    3.40
  -2  -5   2    0.50    3.80
   1   5  -2   16.50    5.40
   1   5  -2   14.70    4.00
   1   5  -2   13.20    5.00
   1   5  -2   22.00    5.20
  -1  -5   2   21.30    6.00
  -1  -5   2   22.00    5.50
   0   5  -2   14.10    4.70
   0   5  -2    5.10    4.00
   0   5  -2    8.70    3.50
   0   5  -2   14.80    4.90
   0   5  -2    8.70    3.90
   0  -5   2    6.30    3.20
   0  -5   2    6.60    3.80
  -1   5  -2    6.00    2.70
  -1   5  -2    3.50    3.70
  -1   5  -2    1.10    3.90
  -1   5  -2    5.20    3.40
  -1   5  -2    8.50    3.90
   1  -5   2    3.30    3.30
   1  -5   2    5.90    3.50
   1  -5   2    3.70    3.50
   1  -5   2    7.70    2.50
  -2   5  -2    2.00    1.60
  -2   5  -2   -3.20    2.60
  -2   5  -2    0.10    2.60
   2  -5   2    0.60    2.90
   2  -5   2   -2.60    2.70
   2  -5   2    0.20    2.90
  -3   5  -2   45.30    7.30
  -3   5  -2   54.69    8.10
  -3   5  -2   56.59    8.40
   3  -5   2   69.89    9.30
   3  -5   2   59.09    8.50
   3  -5   2   53.39    9.00
  -4   5  -2    7.50    4.10
  -4   5  -2    7.80    3.90
  -4   5  -2    1.00    3.30
   4  -5   2    0.40    3.00
   4  -5   2    2.60    3.90
  -5   5  -2   -2.80    3.20
  -5   5  -2   10.20    4.50
  -5   5  -2   14.50    4.40
   5  -5   2    2.40    3.90
   5  -5   2    2.50    4.40
  -6   5  -2    3.60    3.00
  -6   5  -2    1.60    3.70
   6  -5   2    0.20    3.90
   6  -5   2   -1.80    1.20
   6  -5   2    1.30    4.20
  -7   5  -2    3.90    4.60
   7  -5   2   -1.10    3.10
   7  -5   2   -1.20    4.20
   7  -5   2    4.80    4.50
  -8   5  -2   -2.00    4.50
   8  -5   2    1.00    2.40
   8  -5   2   -4.70    5.50
   8  -5   2   12.00    7.00
   6   4  -2   -4.60    3.30
  -6  -4   2    5.10    5.10
   5   4  -2    3.50    3.20
   5   4  -2    2.60    4.20
  -5  -4   2    2.00    4.10
   4   4  -2   60.39    9.10
   4   4  -2   67.49    8.20
  -4  -4   2   60.89    5.90
  -4  -4   2   67.69   10.40
   3   4  -2    2.80    4.10
  -3  -4   2    6.60    3.90
  -3  -4   2   -0.10    2.50
   2   4  -2    4.60    3.80
   2   4  -2   13.70    4.00
  -2  -4   2    6.40    3.10
  -2  -4   2    6.60    3.80
  -2  -4   2   -0.50    3.20
   1   4  -2  223.58   14.80
   1   4  -2  217.38   13.40
   1   4  -2  229.28   12.50
   1   4  -2  219.88   14.30
  -1  -4   2  208.88   14.50
  -1  -4   2  228.98   13.60
  -1  -4   2  228.38   13.00
   0   4  -2  117.49   10.40
   0   4  -2  121.29    9.40
   0   4  -2  124.49    9.90
   0   4  -2  108.09    9.70
   0   4  -2  131.99    9.30
   0  -4   2  122.39    9.80
   0  -4   2  125.39    8.90
   0  -4   2  107.79    9.00
  -1   4  -2  141.19   10.70
  -1   4  -2  156.08   11.00
  -1   4  -2  149.99   11.80
  -1   4  -2  159.68   11.20
  -1   4  -2  137.09    8.20
   1  -4   2  146.29   10.70
   1  -4   2  154.88   11.20
   1  -4   2  144.49    8.20
   1  -4   2  160.28   11.30
  -2   4  -2  300.57   15.70
  -2   4  -2  281.37   15.70
  -2   4  -2  304.77   16.00
   2  -4   2  271.07   15.30
   2  -4   2  312.47   15.90
   2  -4   2  285.17   16.00
   2  -4   2  287.07   10.00
  -3   4  -2  137.89   10.80
  -3   4  -2  124.59    9.90
  -3   4  -2  112.49   10.10
   3  -4   2  128.09    4.30
   3  -4   2  117.39    9.80
   3  -4   2  122.39   10.60
  -4   4  -2  392.06   19.80
  -4   4  -2  400.86   17.90
  -4   4  -2  396.76   19.80
   4  -4   2  394.86   12.10
   4  -4   2  387.36   19.90
   4  -4   2  353.96   19.10
   4  -4   2  382.96   12.10
  -5   4  -2    7.30    4.50
  -5   4  -2    8.50    4.40
  -5   4  -2    7.30    3.10
   5  -4   2   -1.10    3.30
   5  -4   2   12.10    4.70
   5  -4   2    5.10    2.20
  -6   4  -2   39.40   12.30
   6  -4   2   42.70    7.90
   6  -4   2   40.30    5.10
   6  -4   2   32.30    7.40
  -7   4  -2   -7.40    3.00
   7  -4   2    0.00    2.40
   7  -4   2    0.40    4.20
   7  -4   2   -4.10    3.30
  -8   4  -2  -10.60    3.80
   8  -4   2   -6.10   11.10
   8  -4   2    3.40    2.90
   8  -4   2    5.40    4.70
   6   3  -2   19.40    6.30
   6   3  -2    3.00    3.60
  -6  -3   2    4.90    4.50
   5   3  -2   36.50    7.60
   5   3  -2   41.20    6.40
  -5  -3   2   48.90    8.70
   4   3  -2   63.39    7.10
   4   3  -2   73.39   10.00
  -4  -3   2   63.79    5.40
  -4  -3   2   53.49    8.80
   3   3  -2    3.60    3.20
   3   3  -2    1.50    2.60
  -3  -3   2   -6.40    2.40
  -3  -3   2    2.10    3.30
  -3  -3   2    1.90    2.00
   2   3  -2   75.99    8.40
  -2  -3   2   82.19    8.80
  -2  -3   2   54.99    8.10
  -2  -3   2   76.09    6.70
   1   3  -2   42.00    7.00
   1   3  -2   56.29    7.50
   1   3  -2   53.09    8.10
  -1  -3   2   54.09    6.60
  -1  -3   2   57.09    7.20
  -1  -3   2   62.89    7.60
   0   3  -2   53.19    6.00
   0   3  -2   63.89    7.10
   0   3  -2   58.09    6.50
   0   3  -2   54.19    7.40
   0   3  -2   65.69    7.90
   0  -3   2   63.59    7.60
   0  -3   2   51.99    6.20
   0  -3   2   63.59    6.90
   0  -3   2   55.19    6.00
  -1   3  -2  746.23   26.50
  -1   3  -2  782.92   27.20
  -1   3  -2  765.22   22.80
   1  -3   2  754.02   26.80
   1  -3   2  723.33   26.80
   1  -3   2  761.62   22.90
  -2   3  -2  180.28   11.90
  -2   3  -2  192.18   12.00
  -2   3  -2  191.48   11.30
   2  -3   2  183.78   11.40
   2  -3   2  189.98    7.50
   2  -3   2  202.98   12.50
  -3   3  -2   84.79    7.50
  -3   3  -2  108.09    9.80
  -3   3  -2   92.09    8.60
   3  -3   2   96.39    9.40
   3  -3   2   89.19    8.80
   3  -3   2   96.49    8.10
  -4   3  -2  155.98   11.50
  -4   3  -2  138.09    9.00
  -4   3  -2  142.59   11.70
   4  -3   2  143.39    8.10
   4  -3   2  149.29   12.00
   4  -3   2  150.68   11.40
  -5   3  -2   -0.40    3.00
   5  -3   2   -1.60    2.00
   5  -3   2    1.60    3.20
   5  -3   2   -4.50    3.50
  -6   3  -2   56.39    8.40
   6  -3   2   33.70    6.70
   6  -3   2   44.20    8.50
   6  -3   2   45.50    6.20
  -7   3  -2   26.40    6.40
   7  -3   2   36.00    5.90
   7  -3   2   23.90    7.00
   7  -3   2   30.70    6.90
  -8   3  -2    4.30    3.60
   8  -3   2    0.70    4.00
   8  -3   2  -13.20    6.10
   7   2  -2    2.30    3.70
   7   2  -2    3.00    4.10
   6   2  -2   66.69    8.40
   6   2  -2   88.39   11.50
   5   2  -2   -1.30    2.60
  -5  -2   2    0.90    1.20
   4   2  -2   24.60    5.10
   4   2  -2   28.20    6.80
  -4  -2   2   20.30    3.10
  -4  -2   2   30.10    6.50
   3   2  -2    1.80    2.30
   3   2  -2    3.40    3.50
  -3  -2   2    2.90    2.10
  -3  -2   2    3.20    3.20
  -3  -2   2   -1.30    2.50
   2   2  -2  650.63   25.60
  -2  -2   2  649.64   25.40
  -2  -2   2  658.73   26.10
  -2  -2   2  635.34   21.30
   1   2  -2    1.70    1.70
   1   2  -2   -1.80    1.10
   1   2  -2    0.20    2.90
  -1  -2   2    1.20    2.80
  -1  -2   2   -0.60    2.60
  -1  -2   2    0.40    2.30
   0   2  -2  365.66   15.60
   0   2  -2  348.97   13.90
   0   2  -2  354.06   18.10
   0  -2   2  338.97   17.70
   0  -2   2  360.46   14.70
   0  -2   2  358.06   15.40
   0  -2   2  342.77   13.00
   0  -2   2  350.56   13.90
  -1   2  -2  919.11   29.60
  -1   2  -2  904.31   25.50
   1  -2   2  920.01   28.40
   1  -2   2  879.01   32.20
   1  -2   2  881.01   25.30
  -2   2  -2  141.19   10.30
  -2   2  -2  138.49   11.40
  -2   2  -2  147.29   10.30
   2  -2   2  147.89    9.60
   2  -2   2  144.99    8.70
   2  -2   2  154.78   10.60
  -3   2  -2  179.88   12.20
  -3   2  -2  186.18   11.50
   3  -2   2  175.28   11.10
   3  -2   2  180.08   12.70
   3  -2   2  180.38    9.40
  -4   2  -2   11.00    1.70
  -4   2  -2    4.80    3.10
   4  -2   2    2.40    3.80
   4  -2   2    5.50    2.90
   4  -2   2    7.20    3.50
  -5   2  -2    0.10    2.60
   5  -2   2   -1.10    3.20
   5  -2   2    4.40    3.30
   5  -2   2   -1.20    2.10
  -6   2  -2   16.50    5.10
   6  -2   2   30.30    6.30
   6  -2   2   14.20    5.50
   6  -2   2   14.50    4.80
  -7   2  -2   26.20    5.60
   7  -2   2   23.80    5.50
   7  -2   2   33.40    6.20
   7  -2   2   27.90    7.70
  -8   2  -2   36.70    6.30
   8  -2   2   34.30    7.30
   8  -2   2   35.10    6.70
   8  -2   2   25.70    7.60
   7   1  -2    9.50    4.20
   7   1  -2    5.70    4.00
  -7  -1   2    0.00    3.30
   6   1  -2   16.50    4.60
   6   1  -2    6.90    4.70
  -6  -1   2    9.80    2.80
   5   1  -2   43.70    6.90
   5   1  -2   26.30    5.90
  -5  -1   2   35.60    4.50
  -5  -1   2   29.10    2.80
   4   1  -2    9.00    4.30
   4   1  -2   17.80    4.70
  -4  -1   2   20.30    3.30
  -4  -1   2   16.00    4.80
   3   1  -2   92.19    8.00
   3   1  -2   84.09    8.90
  -3  -1   2   88.59    5.20
  -3  -1   2   78.59    8.60
   2   1  -2  503.95   19.50
   2   1  -2  532.25   21.00
  -2  -1   2  540.75   21.10
  -2  -1   2  509.05   14.90
   1   1  -2 1281.77   36.60
   1   1  -2 1217.08   32.00
  -1  -1   2 1203.18   35.90
  -1  -1   2 1215.88   31.90
  -1  -1   2 1239.58   36.20
   0   1  -2    0.00    2.00
   0   1  -2   -1.90    2.20
   0   1  -2   -0.20    2.10
   0   1  -2    2.10    2.60
   0  -1   2    1.20    2.10
   0  -1   2    3.80    2.70
   0  -1   2    1.30    2.50
  -1   1  -2   30.30    5.20
   1  -1   2   38.40    5.40
  -2   1  -2   78.69    6.30
   2  -1   2   64.49    7.40
   2  -1   2   79.59    5.20
   2  -1   2   80.79    6.30
  -3   1  -2  424.56   14.10
  -3   1  -2  369.26   23.60
   3  -1   2  427.86   13.30
   3  -1   2  386.46   16.30
   3  -1   2  419.96   19.50
  -4   1  -2   55.59    6.10
  -4   1  -2   52.09    4.60
   4  -1   2   44.90    7.80
   4  -1   2   49.30    7.10
   4  -1   2   49.00    6.40
  -5   1  -2   75.79    6.00
  -5   1  -2   88.69    7.90
   5  -1   2   93.69    7.90
   5  -1   2   82.39    9.80
   5  -1   2  104.49    9.60
  -6   1  -2   26.10    5.40
  -6   1  -2   29.70    6.30
   6  -1   2   26.20    5.70
   6  -1   2   21.00    5.30
  -7   1  -2    5.00    3.10
  -7   1  -2    4.10    3.40
   7  -1   2    4.20    4.50
   7  -1   2    2.90    3.20
   7  -1   2   -3.00    3.40
  -8   1  -2    8.60    4.00
  -8   1  -2    1.60    3.40
   8  -1   2   11.10    5.10
   8  -1   2    3.80    4.20
   8  -1   2   13.50    6.70
   8   0  -2   57.39    8.70
   8   0  -2   53.09    8.70
   8   0  -2   64.09   10.40
  -8   0   2   65.59    6.40
  -8   0   2   64.29    6.50
   7   0  -2   43.30    7.40
   7   0  -2   54.89    9.00
  -7   0   2   42.30    6.00
  -7   0   2   40.80    7.90
   6   0  -2   -0.90    3.00
   6   0  -2    1.20    3.20
  -6   0   2    4.30    1.30
  -6   0   2   -0.70    2.80
   5   0  -2    4.90    3.60
   5   0  -2    0.30    2.80
  -5   0   2    7.90    4.00
  -5   0   2    8.60    3.90
   4   0  -2  126.69   10.00
   4   0  -2  133.69   10.70
  -4   0   2  122.49   10.10
  -4   0   2  138.09   10.20
   3   0  -2  282.37   14.50
   3   0  -2  283.07   14.30
  -3   0   2  285.17   14.20
  -3   0   2  263.87   14.00
   2   0  -2    6.40    3.30
  -2   0   2   -0.30    2.30
  -2   0   2    8.60    2.70
  -2   0   2    1.60    2.80
   1   0  -2 1667.23   43.60
   1   0  -2 1575.94   43.50
   1   0  -2 1583.84   43.20
   1   0  -2 1632.14   41.20
  -1   0   2 1647.54   43.70
  -1   0   2 1614.44   43.20
  -1   0   2 1568.84   43.30
   0   0  -2 1502.75   41.20
   0   0  -2 1529.95   38.80
   0   0   2 1550.44   41.40
   0   0   2 1522.65   38.90
  -1   0  -2 1003.60   25.80
  -1   0  -2 1000.50   30.00
   1   0   2 1012.50   29.60
   1   0   2  988.00   29.90
  -2   0  -2 1499.45   39.10
  -2   0  -2 1508.45   41.50
  -2   0  -2 1501.05   43.00
   2   0   2 1422.96   38.90
   2   0   2 1485.95   44.30
  -3   0  -2   26.70    4.60
  -3   0  -2   24.10    4.80
  -3   0  -2   22.00    3.50
   3   0   2   20.90    3.50
   3   0   2   22.90    5.50
  -4   0  -2  867.81   26.90
  -4   0  -2  811.42   27.20
  -4   0  -2  792.92   28.40
   4   0   2  831.22   32.40
   4   0   2  823.22   26.70
   4   0   2  844.92   31.40
  -5   0  -2   13.80    4.00
  -5   0  -2    9.50    3.40
  -5   0  -2    7.90    3.70
   5   0   2    6.60    4.20
   5   0   2    6.30    4.50
   5   0   2    7.30    3.30
  -6   0  -2   45.10    7.00
  -6   0  -2   49.80    5.90
  -6   0  -2   54.29    6.20
   6   0   2   42.40    6.00
   6   0   2   49.50    8.70
  -7   0  -2   44.90    6.40
  -7   0  -2   37.20    5.60
   7   0   2   43.00    8.20
   7   0   2   47.00    6.40
   7   0   2   36.50    8.40
   8  -1  -2    8.70    6.60
   8  -1  -2    5.80    4.60
   8  -1  -2   -2.90    4.20
  -8   1   2    2.20    4.20
  -8   1   2    6.90    3.30
   7  -1  -2    2.50    3.30
   7  -1  -2    0.70    4.00
  -7   1   2   -0.10    1.20
  -7   1   2   -2.40    3.10
   6  -1  -2   38.30    7.00
   6  -1  -2   30.10    7.80
   6  -1  -2   28.50    6.20
  -6   1   2   33.50    6.80
  -6   1   2   26.10    3.80
   5  -1  -2   87.19    9.10
   5  -1  -2  112.19    9.60
  -5   1   2   94.19    8.60
  -5   1   2   81.19    8.90
   4  -1  -2  157.68   10.60
   4  -1  -2  140.19   10.60
  -4   1   2  142.09    9.80
  -4   1   2  134.39   10.60
   3  -1  -2  137.89   10.30
   3  -1  -2  144.49    9.20
  -3   1   2  152.18   10.50
  -3   1   2  140.19    9.30
   2  -1  -2  144.39    9.20
   2  -1  -2  145.29    9.50
   2  -1  -2  149.88    8.00
  -2   1   2  146.59    9.80
  -2   1   2  161.48    9.80
  -2   1   2  138.59    7.80
   1  -1  -2   88.59    7.00
   1  -1  -2   95.39    6.60
   1  -1  -2   89.59    3.90
  -1   1   2   96.79    6.80
  -1   1   2   86.79    7.40
  -1   1   2   88.29    6.90
  -1   1   2   80.69    5.90
   0  -1  -2 1769.32   47.00
   0  -1  -2 1717.43   47.30
   0  -1  -2 1707.43   43.30
   0   1   2 1711.33   43.30
   0   1   2 1666.23   44.20
   0   1   2 1719.93   47.30
  -1  -1  -2 5495.15  139.29
  -1  -1  -2 5673.43  138.19
  -1  -1  -2 5518.45  137.09
   1   1   2 5576.84  138.09
  -2  -1  -2    4.40    2.60
  -2  -1  -2    9.00    4.50
   2   1   2   10.00    3.10
   2   1   2    8.30    1.60
  -3  -1  -2  595.84   22.00
  -3  -1  -2  616.64   23.60
   3   1   2  609.14   19.00
   3   1   2  640.64   25.70
  -4  -1  -2   37.70    7.00
  -4  -1  -2   25.70    4.60
   4   1   2   22.80    5.70
   4   1   2   32.80    4.30
  -5  -1  -2  104.59    7.90
  -5  -1  -2  104.09    9.30
   5   1   2  110.59    7.80
   5   1   2  116.89   11.40
  -6  -1  -2    4.10    4.00
  -6  -1  -2    6.20    3.30
   6   1   2    7.60    3.00
   6   1   2    6.40    4.50
   6   1   2    1.40    4.20
  -7  -1  -2  173.98   10.00
   7   1   2  164.78   14.20
   7   1   2  182.38   17.30
   7   1   2  178.58   10.30
   8  -2  -2   -0.90    4.80
   8  -2  -2    8.40    4.20
   8  -2  -2   -0.30    4.50
  -8   2   2    0.40    1.80
  -8   2   2    1.60    3.60
   7  -2  -2    8.80    5.20
   7  -2  -2   13.20    6.40
   7  -2  -2   19.60    5.30
  -7   2   2   15.20    5.30
  -7   2   2   16.70    3.10
   6  -2  -2    9.60    4.00
   6  -2  -2   12.20    5.40
   6  -2  -2   20.20    5.70
  -6   2   2   10.40    4.80
  -6   2   2    9.70    2.90
   5  -2  -2   46.50    6.20
   5  -2  -2   36.40    7.00
   5  -2  -2   33.40    6.70
  -5   2   2   44.10    6.10
  -5   2   2   44.20    7.30
   4  -2  -2   15.10    4.60
   4  -2  -2   28.40    5.50
  -4   2   2   23.00    3.90
  -4   2   2   26.10    5.90
   3  -2  -2   21.80    5.20
   3  -2  -2   19.10    3.40
   3  -2  -2   16.80    4.20
   3  -2  -2   20.80    5.20
  -3   2   2   11.20    2.60
  -3   2   2   18.90    5.00
   2  -2  -2 2557.44   65.49
   2  -2  -2 2494.45   64.99
   2  -2  -2 2571.54   70.59
   2  -2  -2 2538.95   69.59
  -2   2   2 2436.56   63.59
  -2   2   2 2643.24   69.59
   1  -2  -2 2131.09   57.69
   1  -2  -2 2084.79   53.39
   1  -2  -2 2200.88   58.19
  -1   2   2 2201.48   57.79
  -1   2   2 2141.69   60.39
  -1   2   2 2091.69   61.29
  -1   2   2 2132.79   53.39
   0  -2  -2    9.60    3.20
   0  -2  -2   16.20    4.90
   0  -2  -2   15.30    2.80
   0   2   2   12.20    2.60
   0   2   2   15.00    3.40
   0   2   2   16.50    3.90
   0   2   2    9.60    3.10
  -1  -2  -2  403.36   17.40
  -1  -2  -2  400.76   18.10
  -1  -2  -2  393.06   15.90
   1   2   2  382.86   15.90
   1   2   2  384.16   12.10
  -2  -2  -2   64.69    7.60
  -2  -2  -2   63.39    7.30
  -2  -2  -2   56.89    5.50
   2   2   2   51.79    4.70
   2   2   2   53.59    7.70
   2   2   2   61.99    5.80
   2   2   2   51.29    3.50
  -3  -2  -2   25.50    5.90
  -3  -2  -2   25.60    5.50
   3   2   2   23.60    5.60
   3   2   2   26.50    3.00
   3   2   2   28.50    3.20
  -4  -2  -2   38.80    4.70
  -4  -2  -2   52.99    8.70
  -4  -2  -2   36.60    7.00
   4   2   2   33.20    6.50
  -5  -2  -2   15.60    3.20
  -5  -2  -2   10.90    4.50
  -5  -2  -2    5.90    4.00
   5   2   2   12.10    2.80
   5   2   2   15.40    5.10
  -6  -2  -2   23.60    6.10
  -6  -2  -2   17.40    3.30
   6   2   2   16.70    6.20
   6   2   2   22.50    3.80
  -7  -2  -2   30.30    7.00
   7   2   2   31.10    8.10
   7   2   2   33.20    8.50
   7   2   2   36.90    4.70
   8  -3  -2   24.40    6.70
   8  -3  -2   10.60    4.10
   8  -3  -2   13.30    5.60
  -8   3   2   14.70    5.40
  -8   3   2   12.00    3.20
   7  -3  -2   88.09   10.30
   7  -3  -2   69.89    7.50
   7  -3  -2   63.59    9.30
  -7   3   2   80.89    6.80
  -7   3   2   89.49   10.10
   6  -3  -2   33.20    5.20
   6  -3  -2   37.30    7.20
   6  -3  -2   38.30    7.60
  -6   3   2   42.90    5.90
  -6   3   2   40.90    7.60
   5  -3  -2   24.20    5.50
   5  -3  -2   19.50    5.80
   5  -3  -2   18.90    4.00
  -5   3   2   27.00    5.10
  -5   3   2   19.30    5.30
   4  -3  -2  146.89   10.30
   4  -3  -2  142.19    7.30
   4  -3  -2  146.19    6.40
   4  -3  -2  156.38   12.20
   4  -3  -2  140.29   11.60
  -4   3   2  157.98   10.80
  -4   3   2  154.48    7.40
  -4   3   2  162.18   11.90
   3  -3  -2   -0.90    2.10
   3  -3  -2    4.50    2.30
   3  -3  -2    1.00    3.00
   3  -3  -2    6.90    3.80
  -3   3   2    3.30    3.30
  -3   3   2   -0.10    2.10
  -3   3   2    2.80    1.30
   2  -3  -2   76.69    7.70
   2  -3  -2   68.09    6.40
   2  -3  -2   72.29    5.60
   2  -3  -2   61.79    8.90
  -2   3   2   78.59    7.70
  -2   3   2   74.89    4.70
  -2   3   2   72.89    5.60
  -2   3   2   79.49    8.80
  -2   3   2   82.69    9.20
   1  -3  -2    5.80    3.10
   1  -3  -2    4.80    3.70
   1  -3  -2   -0.50    2.60
  -1   3   2    3.60    3.10
  -1   3   2   10.40    2.60
  -1   3   2    2.20    3.40
  -1   3   2    1.30    2.70
  -1   3   2    3.80    2.60
   0  -3  -2  456.85   20.70
   0   3   2  459.25   19.50
   0   3   2  475.05   19.50
   0   3   2  472.65   17.70
   0   3   2  464.35   21.20
   0   3   2  477.55   19.80
   0   3   2  468.15   17.00
  -1  -3  -2  640.54   25.10
  -1  -3  -2  669.03   23.60
  -1  -3  -2  662.73   27.00
   1   3   2  652.63   23.50
   1   3   2  668.83   25.70
   1   3   2  660.13   20.40
   1   3   2  644.54   25.20
  -2  -3  -2  393.86   15.90
  -2  -3  -2  437.66   19.90
  -2  -3  -2  410.06   20.60
   2   3   2  406.26   16.10
   2   3   2  417.66   16.30
   2   3   2  400.26   20.20
  -3  -3  -2    5.20    3.80
  -3  -3  -2   10.30    5.40
  -3  -3  -2   10.80    4.40
   3   3   2    4.60    3.60
   3   3   2    5.70    2.10
   3   3   2   11.40    2.80
   3   3   2    8.20    2.80
  -4  -3  -2   13.30    5.50
  -4  -3  -2   12.70    4.40
   4   3   2   18.30    5.90
  -5  -3  -2    9.00    4.70
  -5  -3  -2    5.20    4.10
   5   3   2    9.60    2.50
   5   3   2   11.90    5.60
  -6  -3  -2   -2.10    3.40
  -6  -3  -2   17.20    5.40
   6   3   2    0.20    1.90
   6   3   2    5.30    4.90
   8  -4  -2   15.30    6.40
   8  -4  -2   19.70    4.20
   8  -4  -2   24.20   10.90
  -8   4   2   27.40    4.80
  -8   4   2   25.30    6.70
   7  -4  -2   21.60    6.00
   7  -4  -2   19.50    6.90
   7  -4  -2   21.30    3.80
  -7   4   2   12.50    4.10
  -7   4   2   24.90    6.40
   6  -4  -2   15.10    4.10
   6  -4  -2   15.00    5.30
   6  -4  -2   14.10    5.00
   6  -4  -2   18.90    6.40
  -6   4   2   23.00    5.30
  -6   4   2   27.90    6.00
   5  -4  -2   84.89    9.90
   5  -4  -2   84.29   14.00
   5  -4  -2   59.99    8.00
  -5   4   2   56.09    7.70
  -5   4   2   62.89    9.10
   4  -4  -2  423.86   22.10
   4  -4  -2  454.65   18.90
   4  -4  -2  434.76   15.60
   4  -4  -2  449.86   21.80
  -4   4   2  461.85   21.60
  -4   4   2  436.96   20.40
   3  -4  -2    7.00    4.10
   3  -4  -2   13.90    3.40
   3  -4  -2   11.90    3.90
   3  -4  -2   16.50    4.50
  -3   4   2   13.40    3.40
  -3   4   2   14.30    4.70
  -3   4   2   10.60    4.50
   2  -4  -2   70.49    8.90
   2  -4  -2   54.79    8.30
   2  -4  -2   66.29    7.20
   2  -4  -2   59.09    8.10
  -2   4   2   52.29    7.70
  -2   4   2   66.09    5.70
  -2   4   2   45.80    7.70
  -2   4   2   64.19    7.50
  -2   4   2   76.59    9.30
   1  -4  -2   20.80    6.00
  -1   4   2    8.90    3.70
  -1   4   2   18.40    4.40
  -1   4   2   18.00    3.70
  -1   4   2   21.50    5.10
  -1   4   2   18.40    4.80
  -1   4   2   20.10    4.60
  -1   4   2   13.00    4.30
   0  -4  -2  400.96   20.20
   0   4   2  400.26   16.80
   0   4   2  421.26   19.50
   0   4   2  390.46   20.20
   0   4   2  373.86   18.10
   0   4   2  384.06   16.00
   0   4   2  400.26   17.80
   0   4   2  419.86   18.80
  -1  -4  -2   98.99   10.50
  -1  -4  -2  125.39   10.60
   1   4   2  119.89    9.20
   1   4   2  125.09   10.30
   1   4   2  114.09    8.60
   1   4   2   99.79    9.90
   1   4   2  113.39    8.70
   1   4   2  112.59    9.80
  -2  -4  -2   52.69    8.10
  -2  -4  -2   56.69    9.50
   2   4   2   48.00    6.20
   2   4   2   47.80    4.60
   2   4   2   51.69    5.60
   2   4   2   39.70    7.00
  -3  -4  -2  115.59   10.80
  -3  -4  -2   79.89   13.80
   3   4   2  110.39    7.80
   3   4   2  121.99    8.20
   3   4   2  111.19   15.20
  -4  -4  -2   56.99   10.20
  -4  -4  -2   44.30    7.40
   4   4   2   51.69    8.90
  -5  -4  -2   49.70    9.30
  -5  -4  -2   45.50    7.90
   5   4   2   39.40    7.70
   8  -5  -2    3.00    5.00
   8  -5  -2   -0.60    4.70
   8  -5  -2    1.20    4.80
  -8   5   2    2.00    4.90
  -8   5   2   -3.80    3.40
   7  -5  -2   24.70    6.80
   7  -5  -2   37.30    6.90
  -7   5   2   20.60    5.60
  -7   5   2   31.40    5.50
   6  -5  -2   36.30    6.60
   6  -5  -2   49.99   10.00
  -6   5   2   25.60    6.10
  -6   5   2   30.70    6.30
   5  -5  -2    3.90    4.40
   5  -5  -2   -4.10    2.80
   5  -5  -2    3.10    3.00
  -5   5   2   -3.80    2.90
   4  -5  -2   -0.10    2.80
   4  -5  -2    1.70    3.60
   4  -5  -2   -5.00    2.30
   4  -5  -2    1.80    2.90
  -4   5   2   -0.80    3.20
  -4   5   2   -2.20    2.20
  -4   5   2   -1.20    3.20
   3  -5  -2   42.90    7.30
   3  -5  -2   45.40    8.90
   3  -5  -2   47.20    7.20
   3  -5  -2   43.90    5.90
  -3   5   2   37.00    7.60
  -3   5   2   38.40    6.80
  -3   5   2   50.49    5.80
  -3   5   2   45.50    7.80
   2  -5  -2   -0.40    2.30
   2  -5  -2    5.60    3.70
  -2   5   2   -4.30    3.50
  -2   5   2   -1.90    2.60
  -2   5   2   -0.10    2.80
  -2   5   2    3.30    2.20
  -2   5   2    0.10    1.60
  -2   5   2   -2.20    2.30
   1  -5  -2    7.50    4.70
  -1   5   2    8.40    3.20
  -1   5   2    2.70    3.60
  -1   5   2    9.00    4.40
  -1   5   2    4.30    4.00
  -1   5   2   11.40    3.70
  -1   5   2    6.70    3.80
  -1   5   2   12.90    3.40
   0  -5  -2    4.70    4.10
   0   5   2   -1.40    2.20
   0   5   2    0.40    2.50
   0   5   2   -1.50    2.00
   0   5   2   -1.20    2.40
   0   5   2   -1.20    2.80
   0   5   2   -1.40    2.10
   0   5   2   -2.50    2.90
  -1  -5  -2    3.40    4.30
   1   5   2   -0.60    2.10
   1   5   2    5.90    3.90
   1   5   2    1.70    3.30
   1   5   2   -1.10    2.10
   1   5   2   -0.60    3.30
   1   5   2    1.20    3.10
   1   5   2   -3.00    2.60
  -2  -5  -2    0.70    4.00
  -2  -5  -2    5.10    5.00
   2   5   2    8.80    4.30
   2   5   2    6.80    4.20
   2   5   2    7.80    3.50
   2   5   2    7.10    2.60
   2   5   2    7.80    3.00
  -3  -5  -2   -1.50    4.00
  -3  -5  -2    7.90    5.00
   3   5   2    2.20    1.90
   3   5   2    6.20    4.70
   3   5   2    4.60    2.10
   3   5   2   -3.60    3.10
  -4  -5  -2    0.70    3.40
  -4  -5  -2    5.00    3.90
   4   5   2   -1.50    3.60
   7  -6  -2   -1.80    4.30
   7  -6  -2    9.30    5.70
   7  -6  -2    6.70    4.00
  -7   6   2    4.50    4.10
  -7   6   2    8.10    4.20
   6  -6  -2    2.30    3.50
   6  -6  -2    6.30    3.70
   6  -6  -2    7.10    4.90
  -6   6   2    9.30    4.80
   5  -6  -2   90.19    8.30
   5  -6  -2   49.80    7.70
  -5   6   2   79.09    7.70
  -5   6   2   57.19   10.00
  -5   6   2   84.49    9.60
   4  -6  -2    2.90    3.30
   4  -6  -2    2.90    4.00
   4  -6  -2    3.60    3.90
   4  -6  -2    7.90    3.10
  -4   6   2    0.20    2.40
  -4   6   2    5.20    3.90
  -4   6   2    5.20    3.30
  -4   6   2    2.30    4.00
   3  -6  -2   19.50    6.80
   3  -6  -2   36.80    7.30
   3  -6  -2   23.40    4.80
  -3   6   2   30.50    2.20
  -3   6   2   24.70    6.60
  -3   6   2   31.50    6.60
  -3   6   2   31.60    5.30
  -3   6   2   28.40    2.10
   2  -6  -2   -2.50    2.70
   2  -6  -2    3.10    3.40
  -2   6   2   -2.50    2.40
  -2   6   2   -1.30    3.00
  -2   6   2   -4.10    3.80
  -2   6   2    4.80    3.80
  -2   6   2   -1.30    2.20
  -2   6   2    3.80    2.20
   1  -6  -2    2.30    3.60
  -1   6   2    9.00    3.60
  -1   6   2    6.90    3.30
  -1   6   2    2.30    3.50
  -1   6   2    6.30    4.20
  -1   6   2   12.40    3.80
  -1   6   2    1.40    3.10
   0  -6  -2   27.60    7.40
   0   6   2   27.20    5.20
   0   6   2   36.40    6.80
   0   6   2   22.50    6.00
   0   6   2   28.50    6.70
   0   6   2   25.80    5.80
   0   6   2   38.20    7.00
   0   6   2   30.70    5.90
  -1  -6  -2   59.99   10.20
   1   6   2   70.99    7.30
   1   6   2   65.09    9.20
   1   6   2   98.19   10.00
   1   6   2   83.69    8.90
   1   6   2   85.39    7.10
   1   6   2   88.49   10.00
   1   6   2   82.19    8.60
  -2  -6  -2   25.40    7.40
   2   6   2   22.60    5.20
   2   6   2    7.30    4.40
   2   6   2   23.40    6.10
   2   6   2   13.30    6.40
   2   6   2   14.00    3.50
   2   6   2   17.20    3.40
  -3  -6  -2    4.40    4.40
  -3  -6  -2    8.70    4.80
   3   6   2   15.60    6.10
   3   6   2    7.20    2.50
   3   6   2   15.10    5.80
   3   6   2   12.60    2.90
   7  -7  -2   13.20    5.50
   7  -7  -2    3.20    5.80
   7  -7  -2    9.30    4.80
  -7   7   2    7.50    5.00
  -7   7   2    2.40    8.60
  -7   7   2    5.50    4.00
   6  -7  -2    1.40    3.60
   6  -7  -2   -0.50    3.80
  -6   7   2    2.30    4.60
  -6   7   2    2.20    3.10
  -6   7   2    2.60    4.40
   5  -7  -2    1.10    4.20
   5  -7  -2   -1.20    3.00
   5  -7  -2   -0.60    2.80
  -5   7   2   -2.90    3.00
  -5   7   2    1.50    2.60
  -5   7   2    2.00    4.30
   4  -7  -2   -3.70    2.60
   4  -7  -2    1.10    3.90
   4  -7  -2   -0.70    3.00
  -4   7   2   -7.60    3.50
  -4   7   2    1.50    3.60
  -4   7   2    2.00    2.60
  -4   7   2    0.70    3.80
   3  -7  -2   16.90    5.30
   3  -7  -2   28.10    7.60
  -3   7   2   23.40    6.00
  -3   7   2   21.50    2.20
  -3   7   2   22.30    4.60
  -3   7   2   17.60    5.20
  -3   7   2   17.30    2.00
  -3   7   2   26.70    6.80
   2  -7  -2   17.70    5.80
  -2   7   2   24.00    6.60
  -2   7   2   15.60    5.60
  -2   7   2   22.40    6.20
  -2   7   2   21.70    5.40
  -2   7   2   24.30    3.90
  -2   7   2   17.70    5.20
  -2   7   2   21.70    4.40
   1  -7  -2    2.50    3.70
  -1   7   2   -2.20    3.80
  -1   7   2    1.00    4.10
  -1   7   2    2.90    2.90
  -1   7   2    0.90    3.00
  -1   7   2    5.40    3.70
  -1   7   2    0.20    2.60
  -1   7   2   -1.40    3.00
   0  -7  -2    2.90    3.90
   0   7   2    2.00    2.90
   0   7   2   -5.00    2.80
   0   7   2   -1.70    3.60
   0   7   2    4.00    4.00
   0   7   2   -0.50    2.70
   0   7   2    4.90    3.10
   0   7   2    4.40    3.90
  -1  -7  -2   35.60    8.40
   1   7   2   35.60    6.90
   1   7   2   55.69    8.40
   1   7   2   51.69    7.10
   1   7   2   42.90    8.30
   1   7   2   44.10    5.90
   1   7   2   49.80    8.60
   1   7   2   56.19   10.00
  -2  -7  -2   22.50    7.60
   2   7   2   25.30    4.50
   2   7   2   28.80    5.80
   2   7   2    9.60    5.50
   2   7   2   17.60    6.20
   2   7   2   28.10    6.60
   2   7   2   21.90    3.90
   5  -8  -2    3.40    3.60
   5  -8  -2   10.90    3.80
  -5   8   2    2.70    3.00
  -5   8   2   -3.20    4.50
  -5   8   2    2.80    4.20
  -5   8   2    5.50    4.50
   4  -8  -2    3.90    4.30
  -4   8   2    3.40    5.00
  -4   8   2   -1.60    4.00
  -4   8   2    3.00    2.60
  -4   8   2    3.50    4.30
  -4   8   2   -0.20    4.00
   3  -8  -2    2.20    4.00
  -3   8   2    5.70    3.80
  -3   8   2    4.50    2.80
  -3   8   2    3.30    7.60
  -3   8   2    0.20    4.20
  -3   8   2   -3.00    4.20
   2  -8  -2    1.30    3.70
  -2   8   2    2.20    2.90
  -2   8   2    5.90    3.80
  -2   8   2    3.50    2.60
  -2   8   2   -3.70    3.10
  -2   8   2    0.00    3.80
   1  -8  -2    3.60    4.20
  -1   8   2    4.30    3.60
  -1   8   2   -1.90    3.70
  -1   8   2    7.70    7.50
  -1   8   2   -2.90    2.90
  -1   8   2    6.10    5.50
  -1   8   2    4.30    3.60
  -1   8   2   10.00    5.40
   0  -8  -2   72.69   11.10
   0   8   2   92.49    9.30
   0   8   2  101.09    9.00
   0   8   2   92.99    9.50
   0   8   2   98.09   17.90
   0   8   2  101.09   17.80
  -2   9  -3   -3.70    4.00
  -2   9  -3    5.30    4.60
  -2   9  -3    0.80    4.00
  -2   9  -3    4.20    5.60
  -2   9  -3    3.90    2.80
  -3   9  -3    9.80    4.60
  -3   9  -3   -0.10    4.70
  -3   9  -3    6.50    4.80
   3  -9   3    4.60    4.40
  -4   9  -3    2.70    4.50
   4  -9   3   -0.60    4.10
   1   8  -3   -5.10    4.30
   1   8  -3    4.80    4.10
   1   8  -3    8.20    4.20
   1   8  -3    4.20    2.80
   1   8  -3   -2.70    4.90
   0   8  -3    4.10    4.20
   0   8  -3    6.30    3.90
   0   8  -3   12.80    4.90
   0   8  -3    0.40    3.30
  -1   8  -3   25.60    4.60
  -1   8  -3   24.30    6.30
  -1   8  -3   16.40    5.60
  -1   8  -3   22.50    5.90
  -2   8  -3    1.50    4.20
  -2   8  -3    4.60    4.30
  -2   8  -3    8.50    2.60
  -2   8  -3   16.70    5.50
   2  -8   3    7.30    3.90
  -3   8  -3   -1.00    3.70
  -3   8  -3   -2.90    3.60
  -3   8  -3    8.90    5.40
   3  -8   3   -0.10    4.00
  -4   8  -3   -2.00    4.30
  -4   8  -3    6.70    4.40
  -4   8  -3    4.90    4.00
  -4   8  -3    1.50    4.80
   4  -8   3    2.40    4.80
  -5   8  -3    4.00    4.10
  -5   8  -3    4.80    4.60
   5  -8   3   -0.80    3.90
   5  -8   3    8.40    5.60
  -6   8  -3   -0.50    4.10
  -6   8  -3   14.10    5.10
   6  -8   3   10.50    6.90
   6  -8   3   -1.10    5.20
   3   7  -3   25.90    5.80
   3   7  -3   18.00    6.10
   3   7  -3   16.70    6.10
   2   7  -3   -0.80    4.20
   2   7  -3   -0.20    4.10
   2   7  -3    0.10    4.30
   1   7  -3   54.09    8.10
   1   7  -3   45.40    5.40
   1   7  -3   47.50    9.10
   1   7  -3   43.40    7.80
  -1  -7   3   26.10    5.90
   0   7  -3   45.40    6.80
   0   7  -3   55.79    9.60
   0   7  -3   41.40    6.70
   0   7  -3   40.90    7.40
   0   7  -3   50.99    8.50
   0  -7   3   40.70    7.60
  -1   7  -3    1.50    3.00
  -1   7  -3    8.30    4.70
  -1   7  -3   -5.30    3.00
   1  -7   3    0.50    3.60
  -2   7  -3   19.40    5.80
  -2   7  -3   13.90    4.90
  -2   7  -3   15.20    3.20
   2  -7   3   10.80    5.10
   2  -7   3   22.00    6.50
   2  -7   3   16.10    5.50
  -3   7  -3   10.20    4.50
  -3   7  -3    3.90    4.10
   3  -7   3   21.70    6.50
   3  -7   3    9.60    5.30
   3  -7   3   13.70    4.90
  -4   7  -3   69.99   10.30
  -4   7  -3   65.49    9.40
   4  -7   3   63.89    9.20
   4  -7   3   57.59    8.90
  -5   7  -3   -2.10    3.60
  -5   7  -3   -1.30    4.20
  -5   7  -3    3.70    4.10
   5  -7   3    0.60    3.40
  -6   7  -3    5.40    4.10
  -6   7  -3    0.20    4.00
   6  -7   3    3.20    3.20
   6  -7   3   -2.40    4.30
  -7   7  -3   10.10    8.70
   7  -7   3   -2.60    5.70
   7  -7   3   -1.30    3.20
   4   6  -3   -0.70    3.50
   4   6  -3   -1.00    4.60
   4   6  -3    6.60    5.00
   4   6  -3    4.00    3.20
  -4  -6   3    0.10    4.80
   3   6  -3   76.29   11.30
   3   6  -3   73.89   10.80
   3   6  -3   63.49    7.40
  -3  -6   3   65.49    7.20
  -3  -6   3   51.69    9.30
   2   6  -3   -0.60    4.10
   2   6  -3    4.70    4.70
   2   6  -3    6.20    3.60
  -2  -6   3    4.80    4.20
  -2  -6   3    3.30    3.40
   1   6  -3   36.60    6.70
   1   6  -3   38.40    7.90
   1   6  -3   40.20    6.60
   1   6  -3   40.30    5.50
   1   6  -3   27.70    6.40
  -1  -6   3   34.70    6.40
   0   6  -3   32.50    6.10
   0   6  -3   35.30    7.20
   0   6  -3   49.60    8.70
   0  -6   3   35.30    6.10
   0  -6   3   39.60    7.30
  -1   6  -3    2.60    3.50
  -1   6  -3    3.40    4.20
  -1   6  -3    0.30    3.40
  -1   6  -3   -2.60    2.10
   1  -6   3   -1.70    3.00
   1  -6   3   -0.90    2.00
   1  -6   3    0.80    2.50
  -2   6  -3   61.59    9.30
  -2   6  -3   49.30    5.50
  -2   6  -3   69.99    9.40
   2  -6   3   52.39    8.10
   2  -6   3   55.99    9.30
   2  -6   3   52.69    8.90
  -3   6  -3    2.60    3.30
  -3   6  -3    4.40    3.90
  -3   6  -3    1.00    3.10
   3  -6   3    1.00    3.20
   3  -6   3    2.60    3.50
   3  -6   3   -1.40    3.40
  -4   6  -3    3.80    3.90
  -4   6  -3   -5.50    3.10
  -4   6  -3    1.30    3.50
   4  -6   3   -0.20    3.50
   4  -6   3   -0.50    3.10
   4  -6   3   -0.10    3.60
  -5   6  -3   56.69    8.30
  -5   6  -3   52.29    9.40
  -5   6  -3   48.80    8.60
   5  -6   3   58.39   10.70
   5  -6   3   46.70    8.30
  -6   6  -3   17.50    5.60
  -6   6  -3   14.40    5.00
  -7   6  -3   -1.30    4.20
   7  -6   3   -5.70    4.60
   5   5  -3    2.60    3.50
   5   5  -3    3.20    4.50
   5   5  -3    5.50    3.30
  -5  -5   3   -2.90    4.30
   4   5  -3   51.69    6.40
   4   5  -3   56.99    9.40
   4   5  -3   56.29    7.80
  -4  -5   3   31.80    7.40
  -4  -5   3   40.80    5.90
   3   5  -3   -0.90    2.50
   3   5  -3   -3.60    3.60
   3   5  -3    1.60    3.40
  -3  -5   3    7.00    4.40
  -3  -5   3   -0.40    2.60
   2   5  -3    5.20    4.10
   2   5  -3    0.50    2.50
   2   5  -3   -1.50    3.80
  -2  -5   3    7.40    3.10
  -2  -5   3    1.60    2.80
  -2  -5   3    9.00    4.40
   1   5  -3    4.80    3.80
   1   5  -3    0.60    2.60
   1   5  -3    3.10    3.70
   1   5  -3   -0.20    3.50
  -1  -5   3   -1.80    2.30
  -1  -5   3    2.40    3.40
  -1  -5   3    1.40    3.50
   0   5  -3    0.00    3.10
   0   5  -3   -2.30    2.90
   0   5  -3    0.20    2.60
   0  -5   3   -0.90    2.90
   0  -5   3    5.80    3.10
  -1   5  -3  333.47   14.20
  -1   5  -3  291.27   17.00
  -1   5  -3  317.77   17.30
  -1   5  -3  308.97   17.80
   1  -5   3  298.17   13.70
   1  -5   3  340.27   17.50
   1  -5   3  287.27   16.00
   1  -5   3  333.57   17.80
  -2   5  -3   79.29    5.60
  -2   5  -3   76.19    9.60
  -2   5  -3   80.29    8.80
  -2   5  -3   82.69   10.50
   2  -5   3   72.39    8.60
   2  -5   3   74.39    5.30
   2  -5   3   67.49    9.60
   2  -5   3   66.99    9.00
  -3   5  -3  154.98   12.30
  -3   5  -3  142.19   11.50
  -3   5  -3  128.89   10.80
   3  -5   3  151.88   12.50
   3  -5   3  147.69    5.90
   3  -5   3  140.69   11.90
   3  -5   3  148.39   11.50
  -4   5  -3   63.39    8.50
  -4   5  -3   50.49    8.20
  -4   5  -3   44.50    7.90
   4  -5   3   46.70    7.50
   4  -5   3   43.10    8.30
  -5   5  -3    7.50    4.50
   5  -5   3   19.70    7.10
   5  -5   3   11.20    2.00
   5  -5   3   13.20    2.00
  -6   5  -3    3.00    4.10
  -6   5  -3    7.30    4.30
   6  -5   3    0.80    4.30
   6  -5   3    0.00    1.70
  -7   5  -3   -0.40    3.60
   7  -5   3    5.70    2.50
   7  -5   3    1.50    4.90
   7  -5   3   -1.30    4.00
  -8   5  -3    6.50    5.10
   8  -5   3    7.30    3.50
   8  -5   3   22.80    7.90
   6   4  -3    1.60    3.60
  -6  -4   3    2.80    5.30
   5   4  -3   76.49   11.10
   5   4  -3  100.29    9.70
  -5  -4   3   71.39   10.50
  -5  -4   3   77.69    6.20
   4   4  -3   -0.20    3.40
   4   4  -3    6.00    3.80
  -4  -4   3    2.90    2.30
  -4  -4   3    4.20    3.80
   3   4  -3  137.99    9.40
   3   4  -3  137.39   12.20
  -3  -4   3  137.29   12.60
  -3  -4   3  148.39    9.60
  -3  -4   3  142.79   12.50
   2   4  -3  244.68   16.00
   2   4  -3  231.58   12.10
   2   4  -3  237.98   15.30
  -2  -4   3  237.88   15.80
  -2  -4   3  259.37   15.60
  -2  -4   3  232.18   13.10
   1   4  -3   74.29    6.60
   1   4  -3   67.89    9.50
   1   4  -3   72.09    8.30
   1   4  -3   73.49    9.90
  -1  -4   3   72.89    8.10
  -1  -4   3   65.59    9.40
  -1  -4   3   73.59    7.60
   0   4  -3   43.00    6.00
   0   4  -3   40.70    7.00
   0   4  -3   54.49    7.90
   0  -4   3   47.10    7.00
   0  -4   3   49.80    6.00
   0  -4   3   47.80    6.30
  -1   4  -3    6.90    4.00
  -1   4  -3   13.70    4.80
  -1   4  -3   12.70    3.40
   1  -4   3   11.50    4.30
   1  -4   3   18.50    5.00
   1  -4   3    8.80    2.80
   1  -4   3   14.20    4.60
  -2   4  -3   80.49    8.40
  -2   4  -3   85.89    8.60
  -2   4  -3   83.79    9.20
   2  -4   3   89.59    5.70
   2  -4   3   96.79    8.70
   2  -4   3   88.29    9.00
  -3   4  -3   16.40    4.40
  -3   4  -3   22.60    6.00
  -3   4  -3   15.30    4.90
   3  -4   3   17.10    4.80
   3  -4   3   18.50    5.50
   3  -4   3   14.00    2.50
  -4   4  -3    7.00    4.10
  -4   4  -3   -0.50    3.00
   4  -4   3    7.80    3.60
   4  -4   3   10.70    2.50
   4  -4   3    8.50    4.50
  -5   4  -3    6.00    4.20
  -5   4  -3    3.40    4.10
   5  -4   3    8.90    5.20
   5  -4   3    3.50    3.10
   5  -4   3    3.90    2.30
  -6   4  -3   37.30    8.50
   6  -4   3   19.50    5.40
   6  -4   3   25.50    4.40
   6  -4   3   37.90    8.50
  -7   4  -3   14.80    4.80
   7  -4   3    7.90    3.40
   7  -4   3    3.50    4.60
   7  -4   3    0.80    5.10
  -8   4  -3    1.90    4.10
   8  -4   3    1.50    2.90
   8  -4   3   13.10    6.80
   8  -4   3    3.00    5.10
   6   3  -3   56.19    7.70
   6   3  -3   52.49    9.10
  -6  -3   3   58.29    9.20
   5   3  -3    9.00    4.40
   5   3  -3    8.60    5.20
  -5  -3   3   12.90    2.90
  -5  -3   3   22.10    6.20
   4   3  -3   68.69    7.80
   4   3  -3   66.59    9.40
  -4  -3   3   59.69    5.60
  -4  -3   3   70.49   10.10
  -4  -3   3   58.29    9.20
   3   3  -3    9.70    4.20
   3   3  -3    8.60    4.20
  -3  -3   3   -1.70    2.90
  -3  -3   3    4.70    3.90
  -3  -3   3    5.90    2.80
   2   3  -3   27.90    4.40
   2   3  -3   41.20    7.20
  -2  -3   3   22.00    5.50
  -2  -3   3   24.90    4.70
  -2  -3   3   28.90    6.30
   1   3  -3  155.08    8.30
   1   3  -3  162.88   11.90
   1   3  -3  161.38   11.30
   1   3  -3  161.68    8.00
   1   3  -3  165.48   11.80
  -1  -3   3  151.58   10.30
  -1  -3   3  158.38   11.10
  -1  -3   3  181.98   12.40
   0   3  -3  820.02   29.70
   0   3  -3  844.42   30.20
   0  -3   3  810.92   28.60
   0  -3   3  797.52   29.50
   0  -3   3  846.82   30.00
   0  -3   3  829.42   27.60
   0  -3   3  816.82   26.20
  -1   3  -3  575.74   19.70
  -1   3  -3  594.94   23.80
   1  -3   3  582.14   22.80
   1  -3   3  587.14   19.90
   1  -3   3  593.84   23.70
  -2   3  -3   22.00    5.20
  -2   3  -3   41.70    6.90
   2  -3   3   27.10    5.80
   2  -3   3   27.30    3.80
   2  -3   3   32.70    5.70
  -3   3  -3    0.60    2.90
  -3   3  -3   -0.30    3.10
   3  -3   3   -0.80    2.90
   3  -3   3    0.50    2.30
  -4   3  -3   72.39    8.20
  -4   3  -3   62.49    9.10
   4  -3   3   76.79    9.20
   4  -3   3   80.59    8.50
   4  -3   3   68.69    6.80
  -5   3  -3    0.90    3.20
   5  -3   3    6.40    4.30
   5  -3   3   -0.70    2.20
   5  -3   3    2.40    3.10
  -6   3  -3   26.80    5.80
   6  -3   3   37.50    7.50
   6  -3   3   21.90    5.50
   6  -3   3   34.80    5.90
  -7   3  -3   36.20    6.90
   7  -3   3   29.90    5.80
   7  -3   3   24.30    6.00
   7  -3   3   16.00    7.00
  -8   3  -3   36.30    7.20
  -8   3  -3   36.40    6.70
   8  -3   3   34.20    6.70
   8  -3   3   36.60    8.80
   8  -3   3   41.20    6.80
   7   2  -3    8.30    5.20
   7   2  -3    3.40    3.80
   6   2  -3   21.90    9.30
   6   2  -3   24.50    6.60
  -6  -2   3   28.70    2.70
   5   2  -3   32.30    6.30
  -5  -2   3   40.80    8.10
  -5  -2   3   38.00    4.50
   4   2  -3   87.19    8.50
   4   2  -3   94.99   10.00
  -4  -2   3   93.59    6.60
  -4  -2   3   88.99   10.00
   3   2  -3    3.30    3.60
   3   2  -3   -2.70    2.40
  -3  -2   3    4.70    3.60
  -3  -2   3   -3.10    2.70
   2   2  -3  420.06   19.40
  -2  -2   3  387.26   19.20
  -2  -2   3  402.86   19.10
   1   2  -3  117.49    9.30
   1   2  -3  110.19    9.40
   1   2  -3  119.09    5.50
   1   2  -3  114.09    6.40
   1   2  -3  116.39    9.00
  -1  -2   3  103.79    8.80
  -1  -2   3  137.69    9.80
   0   2  -3  203.78   11.80
   0   2  -3  163.68    9.70
   0   2  -3  200.98   10.50
   0  -2   3  192.98   10.40
   0  -2   3  199.08   10.90
   0  -2   3  186.78   11.30
   1  -2   3   13.10    4.40
   1  -2   3   10.00    3.60
   1  -2   3   16.60    3.30
  -2   2  -3  177.18   10.50
  -2   2  -3  179.08   11.50
   2  -2   3  147.99   10.90
   2  -2   3  165.28    9.50
  -3   2  -3   33.70    5.80
  -3   2  -3   29.30    6.30
   3  -2   3   29.30    6.50
   3  -2   3   21.50    4.00
   3  -2   3   18.50    4.50
  -4   2  -3    5.80    3.20
  -4   2  -3    3.20    1.90
   4  -2   3    0.40    1.80
   4  -2   3    2.60    3.80
   4  -2   3    4.60    2.90
  -5   2  -3  138.19    6.60
  -5   2  -3  133.99   10.40
   5  -2   3  153.68   10.90
   5  -2   3  157.08   13.10
   5  -2   3  155.98   10.80
  -6   2  -3  114.29   10.80
  -6   2  -3  107.49    9.50
   6  -2   3   99.39    9.70
   6  -2   3  106.39    9.40
  -7   2  -3   33.10    6.00
  -7   2  -3   36.40    7.30
   7  -2   3   29.10   10.40
   7  -2   3   23.60    7.40
  -8   2  -3   12.50    4.50
   8  -2   3   30.80    8.60
   8  -2   3    6.50    4.60
   8  -2   3   14.40    4.90
   7   1  -3   34.90    7.60
   7   1  -3   36.90    6.90
  -7  -1   3   28.90    3.60
   6   1  -3   -3.50    3.60
   6   1  -3    5.60    3.80
  -6  -1   3   -0.30    1.90
  -6  -1   3    1.90    1.40
   5   1  -3   -0.90    3.00
   5   1  -3    1.70    3.10
  -5  -1   3   -0.60    1.70
  -5  -1   3   -4.30    2.80
   4   1  -3   58.09    8.30
   4   1  -3   55.29    7.80
  -4  -1   3   55.29    4.60
  -4  -1   3   50.09    8.20
   3   1  -3   18.40    5.00
   3   1  -3    9.70    4.00
  -3  -1   3   10.40    2.60
  -3  -1   3    9.40    4.00
   2   1  -3  692.93   25.50
   2   1  -3  713.13   21.70
   2   1  -3  755.22   26.90
  -2  -1   3  741.43   21.90
  -2  -1   3  739.83   26.60
   1   1  -3  290.07   13.70
   1   1  -3  287.27   11.60
  -1  -1   3  273.87   12.70
  -1  -1   3  291.47   11.60
  -1  -1   3  310.97   15.80
   0   1  -3  121.89    6.90
   0   1  -3  133.89    8.70
   0   1  -3  130.59    8.40
   0   1  -3  143.89    8.60
   0  -1   3  119.69    8.10
   0  -1   3  138.59    7.20
   0  -1   3  127.79    8.30
   0  -1   3  128.69    8.40
  -1   1  -3    2.30    3.20
  -1   1  -3    1.10    2.80
   1  -1   3    1.90    3.00
  -2   1  -3    0.60    2.10
  -2   1  -3    2.00    2.20
  -2   1  -3    4.00    3.20
   2  -1   3    2.20    3.40
  -3   1  -3  231.28   10.50
  -3   1  -3  217.08   13.50
  -3   1  -3  235.48   11.90
   3  -1   3  227.68    9.10
   3  -1   3  218.38   14.00
   3  -1   3  213.78   10.90
  -4   1  -3   78.89    6.20
  -4   1  -3   75.59    6.80
  -4   1  -3   79.99    8.50
   4  -1   3   87.99    9.80
   4  -1   3   72.29    6.70
  -5   1  -3  183.98   14.20
  -5   1  -3  192.58   12.90
  -5   1  -3  177.78   10.80
   5  -1   3  191.58   11.10
   5  -1   3  163.58   13.80
   5  -1   3  176.08   12.60
  -6   1  -3  240.08   13.10
  -6   1  -3  250.97   14.90
  -6   1  -3  263.77   11.70
   6  -1   3  251.07   13.60
   6  -1   3  264.27   15.90
  -7   1  -3    9.90    4.90
  -7   1  -3    7.20    3.40
   7  -1   3    2.40    3.90
   7  -1   3    9.20    5.70
   7  -1   3   10.70    4.10
  -8   1  -3    1.10    3.80
  -8   1  -3   -4.50    3.60
   8  -1   3    0.40    6.20
   8  -1   3    1.40    4.40
   8  -1   3   -1.10    3.30
   8   0  -3    4.00    4.60
   8   0  -3   -1.20    4.20
   8   0  -3    9.10    6.70
  -8   0   3    7.90    3.40
   7   0  -3   32.20    6.90
   7   0  -3   12.90    5.30
  -7   0   3   25.80    4.80
  -7   0   3   20.70    2.20
  -7   0   3   31.80    6.80
   6   0  -3   23.20    6.00
   6   0  -3   24.70    6.20
  -6   0   3   27.30    5.10
  -6   0   3   22.00    5.30
   5   0  -3  155.28   11.70
   5   0  -3  172.38   13.00
  -5   0   3  169.48   12.40
  -5   0   3  165.28   12.00
  -5   0   3  160.08   10.00
   4   0  -3  113.99   10.00
   4   0  -3  111.69    9.80
  -4   0   3  119.19    9.90
  -4   0   3   99.19    9.20
  -4   0   3  122.79    8.60
   3   0  -3 1124.69   36.40
   3   0  -3 1054.59   36.00
  -3   0   3 1132.29   36.40
  -3   0   3 1126.39   36.00
  -3   0   3 1095.09   33.90
   2   0  -3 1554.94   45.60
   2   0  -3 1713.33   47.20
   2   0  -3 1615.14   47.30
  -2   0   3 1625.94   45.70
  -2   0   3 1582.04   51.29
  -2   0   3 1651.53   47.10
   1   0  -3  255.77   12.10
   1   0  -3  269.17   12.10
   1   0  -3  279.97   12.30
  -1   0   3  269.67   12.10
  -1   0   3  252.87    9.90
  -1   0   3  244.18   11.80
  -1   0   3  257.87   12.00
   0   0  -3  856.01   24.00
   0   0  -3  835.72   27.10
   0   0   3  847.62   27.20
   0   0   3  819.22   23.80
  -1   0  -3   10.70    3.30
  -1   0  -3    8.90    3.30
   1   0   3    9.10    3.40
   1   0   3   16.40    4.10
  -2   0  -3  182.18   10.10
  -2   0  -3  167.18    7.20
  -2   0  -3  171.38   10.80
   2   0   3  187.18   13.20
   2   0   3  170.98   11.10
  -3   0  -3   -1.70    2.00
  -3   0  -3    2.80    3.10
  -3   0  -3   -0.80    1.70
   3   0   3    4.70    3.60
   3   0   3   -0.40    1.40
  -4   0  -3    9.80    3.80
  -4   0  -3   14.30    4.50
   4   0   3   13.60    3.00
   4   0   3   11.40    4.80
  -5   0  -3  179.68   11.00
  -5   0  -3  177.98   11.70
  -5   0  -3  168.98    9.50
   5   0   3  179.28    9.90
   5   0   3  196.38   13.90
  -6   0  -3    3.00    3.10
  -6   0  -3    7.40    3.40
  -6   0  -3   11.40    3.30
   6   0   3    1.00    2.70
   6   0   3   -1.90    3.70
   6   0   3    2.10    4.00
  -7   0  -3   38.30    6.40
  -7   0  -3   33.40    4.90
   7   0   3   22.50    7.40
   7   0   3   38.50    7.70
   7   0   3   35.50    5.40
   8  -1  -3   -5.40    5.30
   8  -1  -3   -1.00    3.70
   8  -1  -3   -0.60    4.10
  -8   1   3    1.40    2.70
  -8   1   3    2.60    1.30
  -8   1   3   -2.80    3.40
   7  -1  -3   -5.00    3.40
   7  -1  -3   -9.50    3.50
  -7   1   3   -2.50    3.10
  -7   1   3    2.20    2.80
  -7   1   3    1.00    1.90
   6  -1  -3   69.79   11.70
   6  -1  -3   51.99    7.80
  -6   1   3   78.59    8.20
  -6   1   3   80.49   10.50
  -6   1   3   68.39    7.70
   5  -1  -3    7.50    4.30
   5  -1  -3    7.10    3.70
  -5   1   3    6.00    3.30
  -5   1   3    6.50    3.60
  -5   1   3   12.00    4.70
   4  -1  -3  825.12   31.20
   4  -1  -3  853.51   29.50
  -4   1   3  869.51   31.30
  -4   1   3  829.42   29.10
  -4   1   3  849.32   30.50
   3  -1  -3  371.46   17.50
  -3   1   3  358.16   15.60
  -3   1   3  343.87   16.80
  -3   1   3  367.86   17.40
   2  -1  -3  805.72   26.20
   2  -1  -3  806.32   27.10
   2  -1  -3  804.62   25.00
  -2   1   3  722.03   30.60
  -2   1   3  753.72   26.60
  -2   1   3  756.02   24.70
   1  -1  -3  102.09    7.60
   1  -1  -3   97.79   10.40
   1  -1  -3   92.69    6.90
  -1   1   3   91.99    7.50
  -1   1   3   90.09    6.90
  -1   1   3  100.99    7.10
   0  -1  -3  875.51   29.20
   0  -1  -3  900.31   24.50
   0   1   3  854.31   23.90
   0   1   3  854.71   24.10
   0   1   3  914.61   29.40
   0   1   3  910.01   24.50
  -1  -1  -3  621.04   23.40
  -1  -1  -3  596.44   19.50
  -1  -1  -3  601.04   25.60
   1   1   3  610.34   22.30
  -2  -1  -3  138.99    9.30
  -2  -1  -3  119.39    9.30
   2   1   3  126.39   10.70
  -3  -1  -3  713.73   26.10
  -3  -1  -3  662.63   24.40
   3   1   3  675.13   18.70
   3   1   3  680.13   19.20
  -4  -1  -3   -1.50    2.20
  -4  -1  -3    2.80    2.90
   4   1   3   -1.40    1.30
   4   1   3    3.80    3.70
  -5  -1  -3  980.80   34.10
  -5  -1  -3 1015.20   32.50
   5   1   3  986.20   29.10
   5   1   3  968.60   37.90
  -6  -1  -3   -2.70    2.40
  -6  -1  -3   -2.30    3.10
   6   1   3   -7.50    4.10
   6   1   3   -1.70    2.00
   6   1   3    3.50    4.10
  -7  -1  -3  117.49    8.80
   7   1   3  103.29   13.90
   7   1   3  110.59   12.30
   7   1   3  127.09    7.90
   8  -2  -3    6.60    4.90
   8  -2  -3    5.60    5.70
   8  -2  -3   10.50    4.60
  -8   2   3    6.30    2.50
  -8   2   3    8.80    3.80
  -8   2   3    9.70    5.20
   7  -2  -3   -4.80    3.60
   7  -2  -3    1.30    3.60
   7  -2  -3   -0.50    2.90
  -7   2   3   -3.80    2.20
  -7   2   3    5.30    4.10
  -7   2   3   -3.30    2.30
   6  -2  -3    7.10    3.50
   6  -2  -3   11.70    4.50
   6  -2  -3   18.40    5.60
  -6   2   3   15.20    5.00
  -6   2   3    7.10    3.80
   5  -2  -3   32.40    6.80
   5  -2  -3   42.90    7.20
   5  -2  -3   33.10    5.40
  -5   2   3   49.10    6.50
  -5   2   3   36.40    6.90
   4  -2  -3  100.59    8.70
   4  -2  -3  100.79    9.70
   4  -2  -3   97.39    7.60
   4  -2  -3   99.89    9.60
  -4   2   3   95.09    7.30
  -4   2   3  101.79    9.60
   3  -2  -3   59.09    5.60
   3  -2  -3   69.29    7.80
   3  -2  -3   57.69    7.80
  -3   2   3   73.09    7.90
  -3   2   3   52.39    5.20
  -3   2   3   63.89    7.80
   2  -2  -3  332.37   16.40
   2  -2  -3  336.97   11.50
   2  -2  -3  301.17   15.10
  -2   2   3  328.67   16.30
  -2   2   3  323.87   16.90
  -2   2   3  328.37   12.90
  -2   2   3  331.57   15.60
   1  -2  -3 2054.49   58.79
   1  -2  -3 1854.01   57.89
   1  -2  -3 2009.80   55.99
  -1   2   3 2011.20   58.49
  -1   2   3 2019.10   48.40
  -1   2   3 2038.30   54.59
   0  -2  -3  861.71   25.50
   0  -2  -3  951.40   31.20
   0  -2  -3  908.51   30.90
   0   2   3  862.51   27.50
   0   2   3  886.01   25.60
   0   2   3  889.81   31.00
  -1  -2  -3  280.57   14.00
  -1  -2  -3  304.37   15.70
  -1  -2  -3  278.27   13.10
   1   2   3  277.67    8.50
   1   2   3  256.97   16.60
  -2  -2  -3  203.38   11.30
  -2  -2  -3  198.58   12.10
  -2  -2  -3  228.58   13.90
   2   2   3  210.78   11.80
   2   2   3  225.98   11.90
  -3  -2  -3    7.50    4.30
  -3  -2  -3    4.40    2.60
  -3  -2  -3    5.60    3.40
   3   2   3    3.40    1.80
   3   2   3    3.10    3.40
   3   2   3    4.70    2.90
   3   2   3    4.90    1.10
  -4  -2  -3  169.68   10.00
  -4  -2  -3  180.68   13.00
  -4  -2  -3  184.28   12.80
   4   2   3  186.98   13.90
   4   2   3  173.68    6.90
  -5  -2  -3   83.89    9.50
  -5  -2  -3   85.39    6.90
  -5  -2  -3   80.29    8.90
   5   2   3   74.69   10.40
   5   2   3   87.89    5.10
  -6  -2  -3   42.00    7.70
  -6  -2  -3   46.00    5.80
  -6  -2  -3   34.70    6.80
   6   2   3   36.60    7.40
   6   2   3   35.50    3.80
   6   2   3   25.20    7.40
   8  -3  -3    2.30    5.40
   8  -3  -3    2.60    3.40
   8  -3  -3    2.80    5.20
  -8   3   3   12.40    3.40
  -8   3   3    5.30    3.50
  -8   3   3    1.70    3.70
   7  -3  -3    2.90    2.90
   7  -3  -3    7.80    4.80
   7  -3  -3    8.50    5.10
  -7   3   3    8.10    3.70
  -7   3   3    0.90    3.20
  -7   3   3    6.20    3.40
   6  -3  -3   52.59    6.50
   6  -3  -3   50.29    9.20
   6  -3  -3   41.90    7.60
  -6   3   3   52.79   10.20
  -6   3   3   48.90    6.50
   5  -3  -3   78.29    4.40
   5  -3  -3   86.29    9.80
   5  -3  -3   96.39   10.40
   5  -3  -3   91.09    6.90
   5  -3  -3   72.29    8.40
  -5   3   3   92.49    9.90
  -5   3   3   96.59    6.70
   4  -3  -3   31.60    6.50
   4  -3  -3   40.70    6.10
   4  -3  -3   42.10    4.20
   4  -3  -3   29.50    4.00
   4  -3  -3   24.90    5.30
  -4   3   3   23.80    3.60
  -4   3   3   43.30    7.70
  -4   3   3   21.50    5.50
   3  -3  -3  610.14   25.60
   3  -3  -3  568.94   19.70
   3  -3  -3  556.34   20.10
   3  -3  -3  588.44   24.30
  -3   3   3  554.24   18.00
  -3   3   3  602.54   24.20
   2  -3  -3   32.60    5.90
   2  -3  -3   30.00    3.30
   2  -3  -3   29.10    5.80
   2  -3  -3   24.20    5.00
  -2   3   3   37.80    7.30
  -2   3   3   28.00    3.30
  -2   3   3   24.30    3.70
  -2   3   3   29.10    5.60
  -2   3   3   26.30    5.80
   1  -3  -3    5.40    2.90
   1  -3  -3   10.60    4.30
  -1   3   3    7.10    6.60
  -1   3   3    4.80    3.80
  -1   3   3    8.10    3.30
  -1   3   3    8.60    2.10
   0  -3  -3   38.40    6.50
   0  -3  -3   50.89    8.20
   0   3   3   38.00    6.30
   0   3   3   37.50    5.50
   0   3   3   45.40    4.70
   0   3   3   54.59    7.80
  -1  -3  -3   14.50    4.20
  -1  -3  -3   12.40    3.80
  -1  -3  -3   15.60    5.40
   1   3   3   15.60    4.10
   1   3   3   10.80    3.60
   1   3   3   16.60    2.60
   1   3   3   21.40    4.40
  -2  -3  -3  126.69   11.50
  -2  -3  -3  122.09   10.10
  -2  -3  -3  125.69    8.80
   2   3   3  132.29   11.20
   2   3   3  142.09    8.70
   2   3   3  130.39    5.30
   2   3   3  127.99    5.20
   2   3   3  137.29    9.10
  -3  -3  -3  487.05   21.80
  -3  -3  -3  482.75   23.20
  -3  -3  -3  494.25   18.70
   3   3   3  491.25   18.50
   3   3   3  469.45   17.00
   3   3   3  472.25   23.30
   3   3   3  474.45   12.90
   3   3   3  466.95   12.90
  -4  -3  -3  107.89   10.80
  -4  -3  -3  106.29    7.40
  -4  -3  -3  106.89   10.20
   4   3   3   99.39    3.70
   4   3   3   81.59   11.00
  -5  -3  -3   29.60    6.80
  -5  -3  -3   25.60    6.30
  -5  -3  -3   26.10    4.20
   5   3   3   38.00    8.00
  -6  -3  -3    9.00    4.90
  -6  -3  -3    9.80    4.50
   8  -4  -3   21.10    6.60
   8  -4  -3   24.00    4.40
   8  -4  -3   31.70    8.90
   8  -4  -3   22.90    5.80
  -8   4   3   28.80    7.10
  -8   4   3   27.30    6.50
   7  -4  -3   46.50    5.30
   7  -4  -3   40.50    8.40
   7  -4  -3   31.40    6.70
   7  -4  -3   35.30    6.10
  -7   4   3   41.90    7.50
  -7   4   3   28.00    5.50
  -7   4   3   30.80    5.60
   6  -4  -3  324.97   15.10
   6  -4  -3  306.77   16.80
   6  -4  -3  326.37   19.30
  -6   4   3  303.87   16.00
  -6   4   3  317.27   18.30
   5  -4  -3    1.90    2.00
   5  -4  -3   -2.30    3.30
   5  -4  -3   -4.50    2.60
   5  -4  -3    4.30    3.80
  -5   4   3    4.20    4.10
  -5   4   3    4.40    4.10
   4  -4  -3    3.70    3.20
   4  -4  -3    0.60    3.30
   4  -4  -3   -1.00    2.40
   4  -4  -3    3.30    2.50
  -4   4   3    4.00    3.40
  -4   4   3   -1.80    2.10
  -4   4   3   -0.30    1.20
  -4   4   3    3.30    3.40
   3  -4  -3   59.99    9.80
   3  -4  -3   59.19    6.30
   3  -4  -3   64.69    8.90
  -3   4   3   52.59    4.00
  -3   4   3   46.80    4.90
  -3   4   3   64.59    8.90
  -3   4   3   58.49    8.50
  -3   4   3   63.19   10.30
   2  -4  -3    0.40    2.70
   2  -4  -3    1.90    3.90
   2  -4  -3   -1.00    3.20
  -2   4   3   -1.70    2.20
  -2   4   3   -2.20    2.20
  -2   4   3    8.90    2.30
  -2   4   3    3.50    3.10
  -2   4   3   -0.70    3.30
   1  -4  -3   26.60    5.00
   1  -4  -3   33.10    7.10
  -1   4   3   26.00    4.90
  -1   4   3   32.70    7.00
  -1   4   3   27.20    3.90
  -1   4   3   29.40    5.90
  -1   4   3   33.70    6.80
  -1   4   3   26.70    5.30
   0  -4  -3    4.70    4.20
   0   4   3    7.60    3.90
   0   4   3    6.10    2.80
   0   4   3   10.70    3.80
   0   4   3    4.40    2.30
   0   4   3    2.60    3.70
   0   4   3    0.90    2.80
  -1  -4  -3   16.30    5.60
   1   4   3   11.30    4.00
   1   4   3   15.70    4.30
   1   4   3   12.20    4.30
   1   4   3   12.50    4.20
   1   4   3    5.30    3.40
   1   4   3   13.50    2.90
  -2  -4  -3   23.90    5.60
  -2  -4  -3   22.50    6.60
   2   4   3   18.00    5.90
   2   4   3   32.50    5.40
   2   4   3   20.00    4.60
   2   4   3   32.00    3.30
  -3  -4  -3   55.09    8.10
  -3  -4  -3   67.69   11.00
   3   4   3   75.39   10.40
   3   4   3   75.39    6.60
   3   4   3   66.59    3.50
   3   4   3   78.09    6.80
   3   4   3   69.59    3.60
  -4  -4  -3   19.70    6.40
  -4  -4  -3   23.50    5.80
   4   4   3   16.10    5.80
  -5  -4  -3    7.70    4.50
  -5  -4  -3    1.80    4.10
   5   4   3    4.60    4.60
   8  -5  -3   23.30    7.40
   8  -5  -3   28.40    7.20
   8  -5  -3   37.20    7.90
  -8   5   3   21.80    5.80
   7  -5  -3   27.30    6.60
   7  -5  -3   22.80    5.70
   7  -5  -3   38.30    8.00
  -7   5   3   27.60    5.80
  -7   5   3   19.40    4.70
  -7   5   3   22.00    6.40
   6  -5  -3   10.90    4.10
   6  -5  -3    0.40    3.60
  -6   5   3   -1.50    3.60
  -6   5   3   -4.90    3.10
  -6   5   3   -2.30    3.60
   5  -5  -3    9.50    3.50
   5  -5  -3   11.30    5.20
   5  -5  -3   10.20    4.30
  -5   5   3   11.80    4.80
  -5   5   3   10.90    4.40
  -5   5   3   23.70    6.60
   4  -5  -3   15.30    3.80
   4  -5  -3   13.50    3.60
   4  -5  -3   20.10    7.20
   4  -5  -3    7.50    4.40
  -4   5   3    9.00    4.30
  -4   5   3    9.60    4.40
   3  -5  -3    0.10    3.00
   3  -5  -3    5.90    2.40
   3  -5  -3    0.10    3.00
   3  -5  -3   -1.90    2.70
  -3   5   3   -1.10    1.60
  -3   5   3    2.60    1.50
  -3   5   3    3.50    3.90
  -3   5   3    4.80    3.50
  -3   5   3    2.40    1.50
  -3   5   3    2.10    3.30
   2  -5  -3    5.90    3.70
   2  -5  -3    9.20    4.70
   2  -5  -3    3.40    3.20
  -2   5   3    6.60    4.80
  -2   5   3    8.30    3.80
  -2   5   3   -0.10    1.80
  -2   5   3    5.00    3.70
  -2   5   3    5.90    3.70
   1  -5  -3   10.10    4.70
  -1   5   3    5.40    3.00
  -1   5   3    8.30    3.60
  -1   5   3   11.80    4.50
  -1   5   3    7.80    4.10
  -1   5   3    5.60    3.70
  -1   5   3    7.50    2.60
  -1   5   3    4.30    3.80
   0  -5  -3  107.89   10.80
   0   5   3   76.49    8.40
   0   5   3   95.69    9.10
   0   5   3   97.99    7.90
   0   5   3   93.49   10.30
   0   5   3   91.59    7.40
   0   5   3  101.89    9.60
   0   5   3   96.39    9.80
  -1  -5  -3    9.50    7.60
   1   5   3   20.60    5.00
   1   5   3   12.50    3.10
   1   5   3   11.50    5.10
   1   5   3    8.50    3.70
   1   5   3   11.20    4.10
   1   5   3   10.20    4.30
   1   5   3   12.40    4.70
  -2  -5  -3  243.48   15.30
  -2  -5  -3  252.87   17.30
   2   5   3  244.28   16.60
   2   5   3  243.68   16.10
   2   5   3  213.88   13.00
   2   5   3  241.28   12.60
  -3  -5  -3   39.50    9.40
  -3  -5  -3   62.89    9.30
   3   5   3   57.39    3.50
   3   5   3   56.99    5.70
   3   5   3   61.19    6.60
   3   5   3   55.29    3.40
   3   5   3   73.29   10.20
  -4  -5  -3   29.20    6.50
  -4  -5  -3   22.50    6.70
   4   5   3   21.70    6.70
   7  -6  -3    0.40    3.80
   7  -6  -3  -10.30    4.40
   7  -6  -3    6.50    5.20
  -7   6   3    3.10    4.40
  -7   6   3   -4.60    4.00
  -7   6   3   -0.10    3.90
   6  -6  -3    5.90    4.50
   6  -6  -3   16.40    6.00
   6  -6  -3    7.00    3.50
  -6   6   3    9.10    4.90
  -6   6   3   -1.20    4.10
  -6   6   3   10.10    4.70
   5  -6  -3    1.20    2.70
   5  -6  -3    2.70    2.90
   5  -6  -3    0.50    2.80
  -5   6   3    6.10    4.20
  -5   6   3   -3.50    3.40
   4  -6  -3    0.90    2.80
   4  -6  -3    1.20    4.40
   4  -6  -3   -4.10    2.90
   4  -6  -3    1.00    2.30
  -4   6   3   -2.80    2.50
  -4   6   3    1.50    2.30
  -4   6   3    1.60    3.70
  -4   6   3   -5.00    2.60
   3  -6  -3   -2.40    2.80
   3  -6  -3    2.70    3.50
  -3   6   3   -5.80    3.50
  -3   6   3    3.60    3.30
  -3   6   3   -0.90    1.30
  -3   6   3    1.60    1.40
  -3   6   3   -0.60    1.90
   2  -6  -3    6.50    4.70
  -2   6   3    9.70    6.60
  -2   6   3   11.60    4.00
  -2   6   3    8.40    4.30
  -2   6   3   11.40    4.80
  -2   6   3   10.00    3.10
  -2   6   3    2.00    7.30
  -2   6   3    8.90    2.90
   1  -6  -3   11.10    5.30
  -1   6   3   19.80    5.30
  -1   6   3    9.10    4.70
  -1   6   3   14.00    3.90
  -1   6   3    7.30    4.00
  -1   6   3   10.50    3.80
  -1   6   3   13.10    3.40
   0  -6  -3    2.20    4.10
   0   6   3    4.30    4.20
   0   6   3   13.30    4.30
   0   6   3    9.80    3.50
   0   6   3   11.20    4.10
   0   6   3    5.30    3.40
   0   6   3    7.20    4.10
   0   6   3   11.10    3.40
  -1  -6  -3    5.40    4.80
   1   6   3   23.20    4.90
   1   6   3   23.80    6.50
   1   6   3   19.50    5.20
   1   6   3   26.00    5.50
   1   6   3    9.70    5.20
   1   6   3   18.80    3.80
  -2  -6  -3   -3.70    3.50
   2   6   3    7.20    4.90
   2   6   3    7.40    4.10
   2   6   3    1.50    4.00
   2   6   3    8.00    2.60
   2   6   3    5.10    3.00
  -3  -6  -3    2.00    4.60
  -3  -6  -3   -3.80    3.60
   3   6   3    4.20    2.40
   3   6   3    0.40    1.30
   3   6   3    1.10    4.50
   3   6   3   -0.30    4.90
   3   6   3    1.00    1.70
   6  -7  -3   13.00    6.00
   6  -7  -3   19.80    6.40
   6  -7  -3   16.90    4.80
  -6   7   3   12.20    5.30
  -6   7   3   23.60    6.70
  -6   7   3   15.00    5.70
   5  -7  -3    5.10    4.40
   5  -7  -3    6.60    5.20
   5  -7  -3    1.50    3.20
   5  -7  -3    2.30    2.90
  -5   7   3    1.00    4.20
  -5   7   3    1.80    4.40
  -5   7   3    4.20    3.90
   4  -7  -3    5.60    3.80
   4  -7  -3    2.70    3.70
  -4   7   3    1.60    3.40
  -4   7   3    4.80    4.00
  -4   7   3    5.60    2.60
  -4   7   3    2.20    3.90
   3  -7  -3   12.40    4.40
  -3   7   3    8.40    2.60
  -3   7   3    0.70    4.10
  -3   7   3    3.10    2.80
  -3   7   3   11.80    6.60
  -3   7   3   11.60    4.70
  -3   7   3   10.80    4.40
   2  -7  -3   36.90    7.80
  -2   7   3   29.70    7.10
  -2   7   3   33.90    6.70
  -2   7   3   43.10    5.30
  -2   7   3   46.70    9.20
  -2   7   3   22.10    6.20
  -2   7   3   45.30    5.30
  -2   7   3   36.80    6.80
   1  -7  -3    4.20    4.60
  -1   7   3    3.50    3.70
  -1   7   3    0.70    3.90
  -1   7   3   -5.50    3.60
  -1   7   3   -2.20    2.20
  -1   7   3   -1.30    2.80
  -1   7   3    0.80    3.00
  -1   7   3   -3.80    3.10
   0  -7  -3   62.09   10.90
   0   7   3   50.19    7.00
   0   7   3   66.89   10.40
   0   7   3   61.59    7.30
   0   7   3   64.59    9.30
   0   7   3   49.90    7.60
   0   7   3   53.79    7.60
   0   7   3   57.09    8.80
  -1  -7  -3   81.29   12.50
   1   7   3   73.89   10.00
   1   7   3   96.79    8.90
   1   7   3   90.59   10.10
   1   7   3   98.79    7.40
   1   7   3   79.79   11.60
  -2  -7  -3    2.70    4.30
   2   7   3   -3.60    2.50
   2   7   3   -3.40    3.80
   2   7   3    0.90    2.20
   2   7   3   -5.70    4.30
   2   7   3   -4.00    3.90
   2   7   3   -0.10    4.90
   5  -8  -3   -3.60    3.80
  -5   8   3  -10.90    5.80
  -5   8   3   -5.60    4.20
  -5   8   3    2.40    4.90
   4  -8  -3   15.80    5.90
   4  -8  -3    3.20    3.90
  -4   8   3    9.50    5.20
  -4   8   3    2.40    4.60
  -4   8   3    1.10    4.20
  -4   8   3    1.80    2.70
  -4   8   3    2.20    7.40
   3  -8  -3   -3.70    3.20
  -3   8   3    0.40    3.50
  -3   8   3    1.70    2.40
  -3   8   3    2.80    5.30
  -3   8   3    1.10    1.50
  -3   8   3    1.60    4.10
  -3   8   3    8.00    5.10
   2  -8  -3   -5.50    2.90
  -2   8   3    3.10    2.60
  -2   8   3   -2.70    4.30
  -2   8   3    2.40    3.90
  -2   8   3   -4.40    3.60
  -2   8   3    1.30    2.60
  -2   8   3    4.00    3.80
  -2   8   3   -1.30    4.50
   1  -8  -3   -5.60    3.50
  -1   8   3   10.20    5.50
  -1   8   3   -2.70    3.20
  -1   8   3   -5.30    3.00
  -1   8   3   -1.80    5.20
  -1   8   3   -0.50    3.00
  -1   8   3   -1.90    3.00
  -1   8   3    5.80    4.80
  -2   9  -4    7.70    6.40
  -2   9  -4    2.60    2.70
  -2   9  -4    3.20    4.50
  -2   9  -4    4.30    4.40
  -3   9  -4    8.40    5.10
  -3   9  -4    0.20    5.00
   3  -9   4   -1.70    3.80
   1   8  -4    0.10    3.90
   1   8  -4    3.80    4.90
   1   8  -4    3.20    5.00
   1   8  -4    5.80    2.60
   1   8  -4    6.90    4.20
   1   8  -4    9.90    3.20
  -1  -8   4    2.70    4.00
   0   8  -4   25.10    5.40
   0   8  -4   24.90    5.60
   0   8  -4   32.90    7.10
   0   8  -4   32.80    7.20
   0  -8   4   39.40    7.50
  -1   8  -4   88.59   11.40
  -1   8  -4   66.29    7.00
  -1   8  -4   62.99   10.20
  -1   8  -4   47.30    8.20
   1  -8   4   63.49    9.40
  -2   8  -4   13.40    5.70
  -2   8  -4   12.70    3.00
  -2   8  -4    2.40    4.40
  -2   8  -4    6.20    4.70
   2  -8   4    5.60    4.50
   2  -8   4    9.10    4.60
  -3   8  -4   -1.80    3.90
  -3   8  -4   -1.30    3.70
  -3   8  -4   -1.10    3.70
   3  -8   4    2.40    4.50
   3  -8   4   -0.50    3.60
   3  -8   4    2.10    5.50
  -4   8  -4   13.40    6.20
  -4   8  -4    9.60    5.10
  -4   8  -4   10.50    4.80
   4  -8   4   16.20    6.90
   4  -8   4    7.70    4.20
  -5   8  -4   -1.60    4.00
  -5   8  -4    2.80    4.70
   5  -8   4    4.60    5.10
   5  -8   4   14.60    6.00
  -6   8  -4    0.70    4.60
  -6   8  -4   10.40    4.90
   6  -8   4    3.40    4.60
   3   7  -4   29.00    6.10
   3   7  -4   17.90    6.60
   3   7  -4   31.30    7.50
  -3  -7   4   26.30    5.40
   2   7  -4   67.79    7.90
   2   7  -4   73.79   11.00
   2   7  -4   59.39    9.40
  -2  -7   4   69.69    8.90
   1   7  -4   12.80    5.30
   1   7  -4    2.40    4.60
   1   7  -4    1.40    4.30
   1   7  -4   12.30    3.40
  -1  -7   4   -2.00    3.80
   0   7  -4   57.39    9.10
   0   7  -4   52.29    7.60
   0   7  -4   72.69   10.10
   0  -7   4   66.79    9.50
  -1   7  -4   22.70    6.40
  -1   7  -4   44.10    8.30
  -1   7  -4   27.50    4.90
   1  -7   4   37.00    7.10
   1  -7   4   40.70    7.30
  -2   7  -4   53.59   10.60
  -2   7  -4   62.19    9.50
  -2   7  -4   57.69    5.70
   2  -7   4   64.29    9.20
   2  -7   4   48.30    8.70
   2  -7   4   75.49   10.90
  -3   7  -4   19.40    6.10
  -3   7  -4   18.30    5.90
   3  -7   4   23.50    8.90
   3  -7   4   18.90    5.80
   3  -7   4   25.30    6.60
  -4   7  -4   17.40    6.20
  -4   7  -4    5.50    4.60
   4  -7   4   16.90    5.40
   4  -7   4   15.20    5.70
   4  -7   4   15.60    5.00
  -5   7  -4   22.20    6.00
  -5   7  -4   22.10    6.10
   5  -7   4    3.50    5.40
   5  -7   4   24.70    6.40
  -6   7  -4    8.90    4.60
  -6   7  -4    1.80    4.40
   6  -7   4   10.50    5.50
   6  -7   4   15.80    6.20
  -7   7  -4   -6.20    4.00
  -7   7  -4    4.30    5.20
   7  -7   4   -2.40    5.80
   7  -7   4    6.80    5.20
   4   6  -4   69.19    7.10
   4   6  -4   76.99   11.10
   4   6  -4   66.69   10.60
   4   6  -4   54.59    7.80
  -4  -6   4   93.59   11.10
  -4  -6   4   78.09    8.10
   3   6  -4   38.00    5.80
   3   6  -4   44.30    8.10
   3   6  -4   35.80    8.60
  -3  -6   4   41.10    8.10
  -3  -6   4   29.00    5.30
   2   6  -4  357.76   16.50
   2   6  -4  382.76   20.40
   2   6  -4  383.66   21.40
  -2  -6   4  361.16   21.40
  -2  -6   4  370.66   18.50
  -2  -6   4  355.36   19.30
   1   6  -4  192.68   13.40
  -1  -6   4  178.08   12.90
  -1  -6   4  187.68   13.00
   0   6  -4  166.68   13.30
   0   6  -4  178.88   12.10
   0  -6   4  184.78   12.00
   0  -6   4  186.78   13.20
  -1   6  -4  112.19   11.10
  -1   6  -4   96.49   10.90
  -1   6  -4  127.29   11.40
  -1   6  -4  136.79    9.30
   1  -6   4  125.09   10.50
   1  -6   4  128.99   11.20
   1  -6   4  127.49    9.00
   1  -6   4  135.29   12.10
  -2   6  -4    8.30    4.60
  -2   6  -4    2.80    3.30
  -2   6  -4   -1.00    1.90
  -2   6  -4   -0.20    3.20
   2  -6   4    9.80    4.40
   2  -6   4   -2.40    3.50
   2  -6   4    3.10    3.70
   2  -6   4    5.00    2.30
  -3   6  -4    0.10    3.60
  -3   6  -4    1.20    3.70
   3  -6   4   -1.30    3.20
   3  -6   4   -0.20    1.50
   3  -6   4    0.90    3.60
   3  -6   4   -1.00    3.30
  -4   6  -4   55.19    8.80
  -4   6  -4   62.49    9.50
   4  -6   4   51.79   10.50
   4  -6   4   57.09    9.10
   4  -6   4   78.69    9.90
  -5   6  -4   53.99    9.10
  -5   6  -4   64.19    9.80
   5  -6   4   49.90    8.80
  -6   6  -4    0.20    3.60
  -6   6  -4    9.90    4.70
   6  -6   4    2.30    5.00
  -7   6  -4   37.80    7.90
   7  -6   4   50.69    2.80
   7  -6   4   23.40    8.20
   7  -6   4   46.70    2.70
   5   5  -4    4.10    2.90
   5   5  -4    5.90    4.00
   5   5  -4    9.10    5.00
  -5  -5   4   -2.30    3.80
  -5  -5   4    5.50    2.80
   4   5  -4   13.60    4.80
   4   5  -4   19.10    6.40
   4   5  -4   25.60    4.70
  -4  -5   4   21.40    4.60
  -4  -5   4   25.60    6.50
   3   5  -4   56.69   10.10
   3   5  -4   50.99    5.90
   3   5  -4   46.40    8.30
  -3  -5   4   60.69    9.10
  -3  -5   4   47.10    8.40
  -3  -5   4   46.00    6.60
   2   5  -4   54.79    6.10
   2   5  -4   62.39    9.80
   2   5  -4   46.10    7.60
  -2  -5   4   46.20    7.60
  -2  -5   4   49.70    9.00
  -2  -5   4   50.79    7.40
   1   5  -4   35.80    6.80
   1   5  -4   43.40    5.00
   1   5  -4   40.40    7.70
   1   5  -4   45.40    8.20
  -1  -5   4   30.10    6.20
  -1  -5   4   31.70    6.80
  -1  -5   4   42.40    7.10
   0   5  -4    2.10    3.20
   0   5  -4    2.90    3.80
   0   5  -4    2.30    3.00
   0  -5   4    8.90    3.30
   0  -5   4    7.60    3.70
   0  -5   4    2.30    2.60
  -1   5  -4  121.99   11.00
  -1   5  -4  117.79   10.80
  -1   5  -4  122.79    8.70
   1  -5   4  118.69    8.40
   1  -5   4  118.89    9.70
   1  -5   4  140.09   11.60
   1  -5   4  107.09   10.10
  -2   5  -4    9.90    4.30
  -2   5  -4   10.10    4.30
  -2   5  -4   13.30    3.20
  -2   5  -4    7.80    4.10
   2  -5   4   13.70    2.90
   2  -5   4   15.60    5.10
   2  -5   4    9.30    4.20
   2  -5   4    9.00    4.50
  -3   5  -4   -1.80    2.70
  -3   5  -4    2.90    4.00
   3  -5   4    5.00    4.10
   3  -5   4    1.60    3.10
   3  -5   4    1.70    1.60
  -4   5  -4   32.30    7.00
  -4   5  -4   33.50    6.90
   4  -5   4   21.50    6.10
   4  -5   4   26.60    5.60
   4  -5   4   32.80    3.50
   5  -5   4   87.19    8.80
   5  -5   4   44.70    8.70
   5  -5   4   68.79    5.10
  -6   5  -4   21.00    6.10
  -6   5  -4   21.10    6.20
   6  -5   4   18.30    3.30
  -7   5  -4   -1.70    3.60
   7  -5   4    0.70    5.00
   7  -5   4   -2.60    2.30
  -8   5  -4    2.40    4.40
   8  -5   4    0.80    3.00
   8  -5   4   -1.30    6.10
   6   4  -4   15.20    5.30
  -6  -4   4   26.70   10.60
   5   4  -4    0.60    3.60
   5   4  -4   -4.40    3.90
  -5  -4   4    9.80    4.80
  -5  -4   4   -1.60    2.20
   4   4  -4    9.90    5.70
   4   4  -4   10.50    4.10
  -4  -4   4   15.60    5.30
  -4  -4   4   13.70    3.60
  -4  -4   4   -1.40    4.80
   3   4  -4   67.29    9.90
   3   4  -4   64.09    6.00
  -3  -4   4   68.59    7.00
  -3  -4   4   80.49   10.80
   2   4  -4  238.18   15.60
   2   4  -4  227.88   10.90
   2   4  -4  243.28   15.30
  -2  -4   4  252.27   13.80
  -2  -4   4  251.87   16.20
  -2  -4   4  219.78   14.80
   1   4  -4  323.87   16.70
   1   4  -4  304.97   17.50
   1   4  -4  277.47   16.60
   1   4  -4  276.07   15.60
  -1  -4   4  291.47   16.20
  -1  -4   4  311.97   17.80
  -1  -4   4  310.27   15.90
   0   4  -4  202.78   12.00
   0   4  -4  191.28   13.30
   0   4  -4  205.68   13.40
   0  -4   4  192.48   13.30
   0  -4   4  193.18   11.70
   0  -4   4  209.18   13.20
   0  -4   4  164.98   12.10
  -1   4  -4   15.30    3.80
  -1   4  -4   15.20    4.90
  -1   4  -4   19.30    5.40
   1  -4   4    9.80    4.40
   1  -4   4    9.70    3.60
   1  -4   4   13.70    4.40
   1  -4   4   15.00    3.50
  -2   4  -4   -0.80    3.10
  -2   4  -4    5.50    3.60
   2  -4   4    0.20    2.70
   2  -4   4   -5.10    2.70
  -3   4  -4   33.10    6.20
  -3   4  -4   37.10    7.00
   3  -4   4   32.60    4.30
   3  -4   4   29.10    6.50
   3  -4   4   29.90    5.70
  -4   4  -4   84.89    9.20
  -4   4  -4   71.29    9.80
   4  -4   4   58.29    7.60
   4  -4   4   67.89    9.90
   4  -4   4   74.99    6.30
  -5   4  -4  118.89   10.90
  -5   4  -4  134.29   12.20
   5  -4   4  112.09   12.70
   5  -4   4  131.79    9.60
  -6   4  -4    2.30    4.70
   6  -4   4    0.20    2.40
  -7   4  -4   63.19    8.50
   7  -4   4   67.89   10.40
   7  -4   4   72.99    7.60
  -8   4  -4   28.50   10.90
  -8   4  -4   12.50    5.00
   8  -4   4   19.30    7.10
   8  -4   4   18.80    4.70
   6   3  -4   17.20    5.30
   6   3  -4    8.40    5.50
  -6  -3   4   13.60    2.60
  -6  -3   4   10.60    5.30
   5   3  -4    7.90    4.40
   5   3  -4    7.10    5.00
  -5  -3   4   -2.20    3.20
  -5  -3   4    7.90    2.80
   4   3  -4   61.49    8.50
   4   3  -4   59.39    9.90
  -4  -3   4   64.49    9.70
  -4  -3   4   70.69   10.30
  -4  -3   4   74.49    6.50
   3   3  -4    2.50    3.70
   3   3  -4   11.50    4.60
  -3  -3   4   17.20    5.10
  -3  -3   4   14.80    4.90
  -3  -3   4   11.80    3.50
   2   3  -4  493.65   16.40
   2   3  -4  503.85   23.00
  -2  -3   4  516.25   20.30
  -2  -3   4  519.15   23.50
  -2  -3   4  496.35   22.60
   1   3  -4   17.60    3.60
   1   3  -4   15.10    4.80
   1   3  -4   16.00    4.90
   1   3  -4   18.50    5.00
  -1  -3   4   14.00    4.50
  -1  -3   4   18.70    5.20
  -1  -3   4   16.80    4.60
   0   3  -4    0.50    2.80
   0   3  -4    1.80    3.10
   0   3  -4    1.30    2.50
   0   3  -4    1.00    3.10
   0  -3   4   -2.40    2.30
   0  -3   4    0.70    3.30
   0  -3   4    3.80    2.50
   0  -3   4   -1.10    2.90
  -1   3  -4   99.89    8.70
  -1   3  -4   92.29    9.20
  -1   3  -4  102.89    7.70
   1  -3   4   80.89    9.10
   1  -3   4   94.89    8.50
   1  -3   4   88.89    7.30
  -2   3  -4   92.49    8.70
  -2   3  -4   77.79    8.70
   2  -3   4   76.39    8.00
   2  -3   4   80.99    9.00
  -3   3  -4   75.19    7.90
  -3   3  -4   91.69    9.60
   3  -3   4   83.19    7.50
   3  -3   4   70.49    9.50
  -4   3  -4  132.29   10.70
  -4   3  -4  129.09   11.70
   4  -3   4  134.69    9.10
   4  -3   4  141.29   12.30
  -5   3  -4  118.29    5.60
  -5   3  -4  130.09   10.50
   5  -3   4  104.79   14.60
   5  -3   4  127.59    8.30
  -6   3  -4    8.20    3.80
   6  -3   4    5.30    3.40
   6  -3   4   -2.00    3.20
   6  -3   4   -2.60    3.00
  -7   3  -4   55.29    9.10
   7  -3   4   41.70    8.60
   7  -3   4   55.99    8.20
   7  -3   4   43.80    6.70
  -8   3  -4   28.90    6.60
  -8   3  -4   37.60    6.70
   8  -3   4   23.60    5.70
   8  -3   4   35.30    8.80
   7   2  -4   11.90    5.30
   7   2  -4   12.80    5.10
   6   2  -4    0.90    3.90
   6   2  -4   19.60    6.40
  -6  -2   4   16.80    5.70
  -6  -2   4   15.20    2.80
   5   2  -4  179.18   12.50
  -5  -2   4  151.98   13.20
   4   2  -4   28.60    6.50
   4   2  -4   15.90    4.80
  -4  -2   4   14.90    4.90
   3   2  -4   97.69    9.20
   3   2  -4  106.99   10.60
  -3  -2   4  108.39   10.10
  -3  -2   4  105.89    9.90
   2   2  -4    7.80    4.00
   2   2  -4    2.20    1.80
  -2  -2   4    2.60    3.10
  -2  -2   4    1.30    2.90
  -2  -2   4    6.70    2.20
   1   2  -4    1.00    2.90
   1   2  -4    0.00    2.00
   1   2  -4    2.90    3.10
  -1  -2   4    0.90    2.00
  -1  -2   4    1.00    2.60
  -1  -2   4   -6.00    2.50
   0   2  -4  253.87   13.60
   0   2  -4  283.37   14.40
   0   2  -4  260.07   15.20
   0  -2   4  306.57   14.10
   0  -2   4  289.17   13.60
   0  -2   4  293.87   14.70
  -1   2  -4   19.10    4.80
   1  -2   4   19.00    4.70
  -2   2  -4  534.55   23.40
  -2   2  -4  548.75   22.80
  -2   2  -4  529.35   20.80
   2  -2   4  548.85   22.90
  -3   2  -4 1421.96   42.60
  -3   2  -4 1388.06   46.50
  -3   2  -4 1428.96   46.20
   3  -2   4 1419.96   44.00
   3  -2   4 1377.66   45.80
  -4   2  -4   56.19    9.30
  -4   2  -4   57.69    5.00
  -4   2  -4   58.69    6.80
   4  -2   4   54.79    9.10
  -5   2  -4   -3.70    2.70
  -5   2  -4   -3.80    2.10
  -5   2  -4    0.00    2.00
   5  -2   4   -2.30    3.40
   5  -2   4    3.70    2.80
  -6   2  -4  138.59   15.70
  -6   2  -4  121.69    9.90
  -6   2  -4  121.89    7.10
   6  -2   4  153.28   10.90
   6  -2   4  157.38   11.80
  -7   2  -4    2.70    3.30
  -7   2  -4    8.50    4.20
   7  -2   4   -0.40    3.30
   7  -2   4    1.40    5.00
   7  -2   4    3.30    3.20
  -8   2  -4   17.00    4.40
  -8   2  -4   17.00    5.60
   8  -2   4   21.20    5.50
   8  -2   4   19.70    4.90
   8  -2   4   15.60    7.10
   7   1  -4   21.70    6.00
   7   1  -4   19.10    5.20
  -7  -1   4   24.60    5.60
  -7  -1   4   18.60    2.30
   6   1  -4   -2.10    3.90
   6   1  -4    8.20    4.10
  -6  -1   4   -0.70    3.60
   5   1  -4   10.20    4.60
   5   1  -4    0.80    3.90
  -5  -1   4    6.90    4.50
  -5  -1   4    2.80    2.00
   4   1  -4   47.30    7.70
   4   1  -4   56.49    8.10
  -4  -1   4   64.79    9.20
  -4  -1   4   58.19    5.20
   3   1  -4   91.39    9.00
   3   1  -4   99.49    9.70
  -3  -1   4  116.19   10.00
  -3  -1   4   96.59    6.70
   2   1  -4   53.09    5.40
   2   1  -4   52.89    7.10
   2   1  -4   47.20    7.40
  -2  -1   4   72.19    8.00
  -2  -1   4   59.89    5.60
   1   1  -4  709.43   24.50
   1   1  -4  745.43   25.40
  -1  -1   4  755.82   24.70
  -1  -1   4  758.22   26.40
  -1  -1   4  762.82   24.80
   0   1  -4  742.93   24.30
   0   1  -4  754.32   25.20
   0   1  -4  666.43   25.30
   0   1  -4  709.43   21.70
   0  -1   4  732.13   21.80
   0  -1   4  747.93   24.40
   0  -1   4  703.33   25.10
  -1   1  -4  320.97   17.50
  -1   1  -4  279.27   13.80
   1  -1   4  252.77   13.40
   1  -1   4  340.07   22.20
  -2   1  -4  351.76   14.00
  -2   1  -4  355.16   17.50
  -2   1  -4  354.36   17.10
   2  -1   4  347.77   17.00
  -3   1  -4   97.09    9.30
  -3   1  -4  113.39    8.00
   3  -1   4   94.79    9.50
  -4   1  -4  295.87   16.60
  -4   1  -4  304.87   13.60
  -4   1  -4  305.67   13.70
   4  -1   4  321.37   18.10
   4  -1   4  302.87   13.60
   4  -1   4  298.97   10.50
  -5   1  -4    5.00    3.10
  -5   1  -4    6.40    3.40
  -5   1  -4    2.90    2.70
   5  -1   4    9.40    4.40
   5  -1   4    6.50    3.00
  -6   1  -4  374.96   16.10
  -6   1  -4  351.16   18.60
  -6   1  -4  366.36   15.10
   6  -1   4  366.76   16.20
   6  -1   4  310.57   21.60
  -7   1  -4   -3.80    2.50
  -7   1  -4   -3.20    2.40
  -7   1  -4    5.00    3.60
   7  -1   4   -2.00    3.50
   7  -1   4   -1.80    2.90
   7  -1   4   -4.00    4.70
   8   0  -4   -4.00    4.90
   8   0  -4    6.70    4.80
  -8   0   4    8.40    3.10
   7   0  -4    5.20    4.00
   7   0  -4    6.60    4.30
  -7   0   4    5.40    2.90
   6   0  -4   19.30    5.30
   6   0  -4   19.40    5.60
  -6   0   4    5.00    4.80
  -6   0   4   14.00    3.90
  -6   0   4   16.10    5.30
   5   0  -4  209.98   14.00
   5   0  -4  188.88   13.80
  -5   0   4  200.98   13.60
  -5   0   4  196.58   13.40
  -5   0   4  192.98   11.40
   4   0  -4  188.08   12.70
   4   0  -4  186.38   13.00
  -4   0   4  195.28   11.30
  -4   0   4  176.48   12.40
  -4   0   4  180.18   12.40
   3   0  -4   -0.40    2.80
   3   0  -4    2.20    3.10
  -3   0   4   -1.50    2.90
  -3   0   4    0.00    2.50
   2   0  -4    3.80    3.10
   2   0  -4    0.30    2.80
   2   0  -4   -1.30    1.80
   2   0  -4   -1.20    2.70
  -2   0   4    2.80    2.50
  -2   0   4    2.00    2.80
  -2   0   4   -1.30    2.40
   1   0  -4 2887.61   73.89
   1   0  -4 2536.25   78.19
   1   0  -4 2808.22   70.29
  -1   0   4 2733.73   70.49
  -1   0   4 2899.51   74.79
  -1   0   4 2645.54   77.59
   0   0  -4 2636.54   78.19
   0   0  -4 2917.51   70.79
   0   0   4 2705.13   70.39
   0   0   4 2817.52   75.39
  -1   0  -4   33.70    6.20
  -1   0  -4   33.90    5.00
   1   0   4   37.80    5.40
   1   0   4   37.10    8.30
  -2   0  -4 2113.49   61.99
  -2   0  -4 2203.58   54.79
   2   0   4 2162.68   61.59
   2   0   4 2188.08   62.49
  -3   0  -4   30.00    5.70
  -3   0  -4   29.20    5.80
  -3   0  -4   30.10    3.70
   3   0   4   38.00    6.80
  -4   0  -4   17.90    3.10
  -4   0  -4   15.70    4.60
  -4   0  -4   18.30    4.70
   4   0   4   17.40    5.40
  -5   0  -4  120.59    9.20
  -5   0  -4  120.39    7.40
  -5   0  -4  102.69    9.50
   5   0   4  118.29   11.30
   5   0   4  124.49   12.00
   5   0   4  111.79    7.30
  -6   0  -4   33.20    6.40
  -6   0  -4   16.80    3.40
  -6   0  -4   25.10    5.00
   6   0   4   18.50    6.60
   6   0   4   25.60    6.50
   6   0   4   21.20    3.80
  -7   0  -4   10.00    3.70
  -7   0  -4    5.30    3.80
   7   0   4   -1.20    6.80
   7   0   4    5.30    4.40
   7   0   4    9.30    3.10
   8  -1  -4   37.20    6.80
   8  -1  -4   46.70    8.00
   8  -1  -4   45.60    9.10
  -8   1   4   37.20    4.00
  -8   1   4   41.30    6.40
  -8   1   4   36.00    6.80
   7  -1  -4   13.90    5.10
  -7   1   4    9.90    4.10
  -7   1   4    6.50    4.40
   6  -1  -4   11.20    4.80
   6  -1  -4   15.40    5.10
  -6   1   4    8.40    4.60
  -6   1   4    9.30    3.70
  -6   1   4   13.30    4.10
   5  -1  -4  206.78   14.40
   5  -1  -4  203.08   13.10
  -5   1   4  212.18   12.90
  -5   1   4  205.28   12.90
  -5   1   4  187.68   13.40
   4  -1  -4    3.30    3.50
   4  -1  -4    3.60    3.00
  -4   1   4    2.90    3.20
  -4   1   4    0.40    2.40
  -4   1   4    5.20    2.90
   3  -1  -4   -0.80    3.20
   3  -1  -4   -3.60    2.20
   3  -1  -4   -5.20    1.80
  -3   1   4    0.70    2.90
  -3   1   4    0.10    3.20
  -3   1   4   -4.90    2.00
   2  -1  -4 5222.08  130.59
   2  -1  -4 5100.19  131.49
   2  -1  -4 5138.89  129.69
   2  -1  -4 5093.79  133.09
  -2   1   4 5307.37  133.39
  -2   1   4 5217.28  130.49
  -2   1   4 4982.70  130.99
  -2   1   4 5106.69  129.69
   1  -1  -4  822.12   21.20
   1  -1  -4  880.41   27.50
  -1   1   4  847.92   29.60
  -1   1   4  838.52   26.50
  -1   1   4  724.13   36.30
  -1   1   4  829.92   28.80
   0  -1  -4  903.01   31.20
   0  -1  -4  913.31   25.80
   0   1   4  915.41   25.90
   0   1   4  886.81   24.30
   0   1   4  914.81   25.20
   0   1   4  896.91   31.50
  -1  -1  -4  299.47   14.90
  -1  -1  -4  293.37   15.10
  -1  -1  -4  299.67   11.30
   1   1   4  289.37   13.30
   1   1   4  283.07   14.90
  -2  -1  -4  257.37   14.40
  -2  -1  -4  244.08   13.70
   2   1   4  254.87   14.00
   2   1   4  261.97   14.20
  -3  -1  -4    4.20    2.70
  -3  -1  -4    2.10    3.60
   3   1   4    3.50    3.10
   3   1   4   -2.80    2.70
  -4  -1  -4  417.86   19.50
  -4  -1  -4  393.06   18.10
   4   1   4  406.76   21.00
  -5  -1  -4  127.39   10.30
  -5  -1  -4  109.79    9.00
   5   1   4  113.99   11.40
   5   1   4  120.69   12.10
   5   1   4  121.99    6.60
  -6  -1  -4    5.80    3.80
  -6  -1  -4    4.30    3.10
   6   1   4   -0.20    4.80
   6   1   4    3.40    4.10
   6   1   4   -0.60    1.70
  -7  -1  -4    3.90    3.70
  -7  -1  -4    4.70    3.40
   7   1   4   -0.80    4.10
   7   1   4  -11.00    4.90
   8  -2  -4    7.80    4.60
   8  -2  -4    6.10    5.60
   8  -2  -4    5.60    4.90
  -8   2   4    9.20    4.20
  -8   2   4    8.20    3.10
  -8   2   4   11.30    5.20
   7  -2  -4    2.90    3.30
   7  -2  -4    7.30    4.70
   7  -2  -4    9.10    5.10
  -7   2   4    3.00    3.20
  -7   2   4    2.40    4.10
   6  -2  -4   -0.70    2.90
   6  -2  -4    1.10    3.40
   6  -2  -4   -4.30    3.10
  -6   2   4   -2.10    2.60
  -6   2   4    5.00    3.50
  -6   2   4   -8.60    4.30
   5  -2  -4   -1.80    3.00
   5  -2  -4   -1.10    3.10
   5  -2  -4    1.00    2.80
   5  -2  -4   -6.10    2.00
  -5   2   4    3.20    3.60
  -5   2   4    0.00    2.40
  -5   2   4   -1.70    3.10
   4  -2  -4   -3.20    2.70
   4  -2  -4   -0.60    2.20
   4  -2  -4   -4.50    1.90
   4  -2  -4   -4.20    1.70
  -4   2   4    3.20    3.20
  -4   2   4    3.40    2.10
  -4   2   4    4.30    3.20
   3  -2  -4   76.19    7.10
   3  -2  -4   76.09    8.10
   3  -2  -4   78.49    6.10
   3  -2  -4   91.29    9.00
  -3   2   4   82.49    9.00
  -3   2   4   72.19    6.50
  -3   2   4   79.99    8.40
   2  -2  -4  271.17    8.80
   2  -2  -4  256.37   14.00
   2  -2  -4  294.37   15.50
  -2   2   4  278.07   15.10
  -2   2   4  263.17   14.00
  -2   2   4  277.07   16.10
   1  -2  -4  723.73   24.50
  -1   2   4  742.53   28.30
  -1   2   4  722.43   24.30
   0  -2  -4  581.04   23.70
   0  -2  -4  564.04   23.70
   0  -2  -4  593.84   18.50
   0   2   4  601.04   18.50
   0   2   4  557.04   19.60
   0   2   4  620.34   24.40
  -1  -2  -4  276.37   14.80
  -1  -2  -4  272.57   12.50
  -1  -2  -4  273.87   15.60
   1   2   4  259.17   14.60
  -2  -2  -4   87.79    9.10
  -2  -2  -4   65.79    7.10
  -2  -2  -4   85.59    7.40
   2   2   4   91.89    8.30
  -3  -2  -4   58.99    9.10
  -3  -2  -4   56.79    6.50
  -3  -2  -4   46.00    6.80
   3   2   4   56.69    6.70
   3   2   4   45.10    7.20
  -4  -2  -4   14.30    4.60
  -4  -2  -4    6.10    3.20
  -4  -2  -4    3.30    4.20
   4   2   4   11.00    1.70
   4   2   4   17.60    8.50
  -5  -2  -4   21.90    5.80
  -5  -2  -4   11.20    3.60
  -5  -2  -4   16.60    5.50
   5   2   4    6.00    4.40
   5   2   4    7.80    5.00
  -6  -2  -4    4.80    4.20
  -6  -2  -4    4.50    4.20
  -6  -2  -4    5.70    2.90
   6   2   4    2.50    4.30
   6   2   4   16.00    6.00
   8  -3  -4   27.80    5.10
   8  -3  -4   17.50    5.90
   8  -3  -4   19.30    6.40
  -8   3   4   17.10    6.30
  -8   3   4   29.10    4.70
  -8   3   4   21.30    5.00
   7  -3  -4  221.08   14.80
   7  -3  -4  231.28   12.60
   7  -3  -4  220.38   15.30
   7  -3  -4  228.18   16.30
  -7   3   4  224.88   15.40
  -7   3   4  210.58   15.30
  -7   3   4  228.88   12.70
   6  -3  -4    1.80    3.60
   6  -3  -4   -1.70    2.20
   6  -3  -4   -1.30    1.70
   6  -3  -4    0.90    3.10
   6  -3  -4   -0.80    3.00
  -6   3   4   -0.20    3.00
  -6   3   4    4.30    2.60
  -6   3   4   -2.20    2.90
   5  -3  -4    4.90    3.80
   5  -3  -4   10.50    2.70
   5  -3  -4   14.20    4.70
   5  -3  -4   10.90    4.00
   5  -3  -4   10.10    3.20
  -5   3   4    7.30    4.00
  -5   3   4   11.70    3.30
  -5   3   4   12.20    5.00
   4  -3  -4  194.38   13.40
   4  -3  -4  171.28   12.40
   4  -3  -4  175.88    9.40
   4  -3  -4  195.08   13.60
   4  -3  -4  190.48   10.50
  -4   3   4  196.68    9.70
  -4   3   4  184.28   13.90
  -4   3   4  188.68   13.40
   3  -3  -4   52.39    8.20
   3  -3  -4   47.80    8.10
   3  -3  -4   60.69    4.90
   3  -3  -4   66.69    6.30
  -3   3   4   69.19    8.90
  -3   3   4   51.29    8.90
   2  -3  -4   51.69    8.90
   2  -3  -4   54.99    7.60
   2  -3  -4   42.20    6.50
  -2   3   4   52.49    5.60
  -2   3   4   57.39    7.40
  -2   3   4   39.90    7.30
  -2   3   4   65.19    9.60
   1  -3  -4  238.48   12.30
   1  -3  -4  238.58   14.30
   1  -3  -4  248.68   15.40
  -1   3   4  258.07   12.40
  -1   3   4  245.28    8.30
  -1   3   4  236.48   15.00
  -1   3   4  258.57   15.70
   0  -3  -4   26.70    5.40
   0  -3  -4   18.30    5.70
   0  -3  -4   30.20    4.00
   0   3   4   18.20    5.10
   0   3   4   23.10    3.60
   0   3   4   29.00    4.90
   0   3   4   19.00    4.50
  -1  -3  -4   46.40    6.20
  -1  -3  -4   36.10    6.40
  -1  -3  -4   36.30    7.70
   1   3   4   46.10    3.30
   1   3   4   37.70    6.20
  -2  -3  -4  190.38   14.00
  -2  -3  -4  192.28   11.80
  -2  -3  -4  182.98   11.70
   2   3   4  179.78   10.50
   2   3   4  187.98   11.70
  -3  -3  -4  495.55   21.70
  -3  -3  -4  460.05   19.30
  -3  -3  -4  472.45   23.50
   3   3   4  496.15   24.10
   3   3   4  497.75   20.00
   3   3   4  494.45   17.60
  -4  -3  -4   53.49    6.00
  -4  -3  -4   49.60    7.90
  -4  -3  -4   42.70    8.20
   4   3   4   40.60    4.20
   4   3   4   47.50    8.30
  -5  -3  -4    3.00    3.80
  -5  -3  -4    2.40    4.00
  -5  -3  -4   -0.30    2.50
   5   3   4    3.10    4.30
  -6  -3  -4   31.40    7.00
  -6  -3  -4   16.90    5.40
  -6  -3  -4   29.50    4.50
   6   3   4   18.90    7.50
   6   3   4   16.00    6.40
   8  -4  -4   99.59   13.30
   8  -4  -4   77.09   10.70
   8  -4  -4   97.49    7.70
   8  -4  -4   83.79   10.00
  -8   4   4   89.89    8.40
  -8   4   4   82.79   11.10
  -8   4   4   94.99   10.70
   7  -4  -4    4.50    4.50
   7  -4  -4    1.80    3.90
   7  -4  -4    2.70    2.50
   7  -4  -4    3.80    3.80
  -7   4   4   -2.10    3.40
  -7   4   4   -0.60    3.50
  -7   4   4    2.40    3.30
   6  -4  -4  116.89   11.50
   6  -4  -4  120.79    7.60
   6  -4  -4  122.49    9.90
   6  -4  -4  122.79    5.40
  -6   4   4  127.39   11.30
  -6   4   4  120.99   12.40
  -6   4   4  117.49   11.80
   5  -4  -4    1.10    2.50
   5  -4  -4   -1.40    2.70
   5  -4  -4    5.30    4.00
   5  -4  -4    5.60    2.40
  -5   4   4   -1.00    2.30
  -5   4   4    0.60    3.40
   4  -4  -4  866.41   27.90
   4  -4  -4  865.21   34.40
   4  -4  -4  851.41   27.00
   4  -4  -4  808.92   32.40
  -4   4   4  836.02   34.60
  -4   4   4  884.61   33.00
  -4   4   4  827.02   24.60
   3  -4  -4   99.09    9.60
   3  -4  -4   86.69    5.60
   3  -4  -4   89.99   10.00
   3  -4  -4   93.49    8.10
  -3   4   4   81.89   10.00
  -3   4   4   88.49    8.80
  -3   4   4   88.29    6.90
  -3   4   4   89.09   10.10
   2  -4  -4  165.08   13.20
   2  -4  -4  151.08   11.10
   2  -4  -4  155.78   10.90
  -2   4   4  163.88   13.20
  -2   4   4  159.48   11.10
  -2   4   4  139.99   12.20
  -2   4   4  156.28    6.60
   1  -4  -4   76.19    8.90
   1  -4  -4   81.79    7.30
  -1   4   4   73.39    8.90
  -1   4   4   76.49    7.90
  -1   4   4   75.69    9.00
  -1   4   4   72.19    5.10
  -1   4   4   87.19    7.30
   0  -4  -4  490.35   23.30
   0   4   4  511.15   24.40
   0   4   4  491.85   20.80
   0   4   4  466.45   17.80
   0   4   4  474.25   21.30
   0   4   4  489.75   22.20
   0   4   4  493.45   17.70
  -1  -4  -4    8.30    4.70
  -1  -4  -4    4.70    3.40
   1   4   4   12.30    4.00
   1   4   4    3.40    3.40
   1   4   4   11.70    4.50
   1   4   4    6.50    3.50
   1   4   4    9.80    2.30
  -2  -4  -4    5.30    4.40
  -2  -4  -4    0.40    2.90
  -2  -4  -4   -1.80    2.30
   2   4   4    4.20    2.90
   2   4   4    2.00    0.90
   2   4   4    3.60    0.80
   2   4   4    0.10    3.00
   2   4   4    4.90    3.20
  -3  -4  -4   31.20    5.70
  -3  -4  -4   19.30    6.30
  -3  -4  -4   19.10    5.80
   3   4   4   13.70    3.80
   3   4   4   21.10    6.00
   3   4   4   28.70    5.30
  -4  -4  -4   -2.70    2.30
  -4  -4  -4   -0.80    3.50
  -4  -4  -4   -1.40    3.10
   4   4   4    1.00    3.70
  -5  -4  -4    0.70    3.80
  -5  -4  -4    5.10    4.60
   5   4   4   -4.40    6.70
   8  -5  -4   -2.70    3.70
   8  -5  -4   -9.00    5.30
  -8   5   4   -4.90    4.10
  -8   5   4   -1.20    4.30
  -8   5   4   -1.70    4.20
   7  -5  -4   29.60    6.30
   7  -5  -4   31.20    7.60
  -7   5   4   39.20    8.70
  -7   5   4   30.20    6.90
   6  -5  -4   10.70    4.90
   6  -5  -4    7.00    3.70
   6  -5  -4   15.70    3.20
   6  -5  -4    5.10    4.40
  -6   5   4    8.80    4.20
  -6   5   4    7.40    4.80
  -6   5   4    8.60    5.00
   5  -5  -4  191.48   15.10
   5  -5  -4  225.08   15.80
   5  -5  -4  221.98   11.70
   5  -5  -4  214.48   10.70
  -5   5   4  216.68   16.10
  -5   5   4  188.38   14.60
  -5   5   4  208.98   14.30
   4  -5  -4   55.79    7.50
   4  -5  -4   54.09   10.00
   4  -5  -4   67.19    5.80
   4  -5  -4   79.89   16.10
  -4   5   4   64.99    3.90
  -4   5   4   53.69    8.90
  -4   5   4   52.29   16.10
  -4   5   4   58.29    8.90
   3  -5  -4  247.88   17.00
   3  -5  -4  262.67   14.70
   3  -5  -4  258.07   15.50
  -3   5   4  239.78   18.10
  -3   5   4  242.68   17.20
  -3   5   4  327.17   25.90
  -3   5   4  243.68   14.80
  -3   5   4  240.08   10.10
   2  -5  -4  138.59   11.30
   2  -5  -4  119.19   10.10
  -2   5   4  142.79   12.10
  -2   5   4  144.39   10.50
  -2   5   4  128.19   13.90
  -2   5   4  140.79    7.10
  -2   5   4  143.19   12.60
  -2   5   4  137.09   11.00
   1  -5  -4    2.10    4.10
  -1   5   4   10.50    4.30
  -1   5   4    4.60    3.00
  -1   5   4    4.20    3.50
  -1   5   4    8.10    3.90
  -1   5   4    3.60    3.80
   0  -5  -4    4.30    4.70
   0   5   4   10.60    3.20
   0   5   4    6.60    3.70
   0   5   4    8.30    4.50
   0   5   4    1.40    3.00
   0   5   4    2.00    2.20
   0   5   4    7.30    4.00
   0   5   4    4.40    3.60
  -1  -5  -4  274.17   18.10
   1   5   4  275.87   15.70
   1   5   4  281.27   11.40
   1   5   4  275.87   15.70
   1   5   4  249.58   17.30
   1   5   4  262.97   14.40
   1   5   4  271.77   15.30
   1   5   4  290.07   16.80
  -2  -5  -4  126.89   12.60
   2   5   4  118.29   11.50
   2   5   4  123.49   10.00
   2   5   4  139.69   10.10
   2   5   4  146.79   13.20
   2   5   4  137.89    5.60
  -3  -5  -4   -2.20    3.50
  -3  -5  -4    8.60    5.10
   3   5   4    5.00    4.70
   3   5   4    4.80    3.00
   3   5   4    8.70    3.50
  -4  -5  -4    2.10    4.10
  -4  -5  -4    2.80    4.50
   4   5   4    3.80    4.40
   7  -6  -4   -5.90    3.60
   7  -6  -4    7.70    5.10
   7  -6  -4   -6.10    3.90
  -7   6   4    4.40    4.50
  -7   6   4    5.70    4.40
  -7   6   4   -0.50    4.30
   6  -6  -4  111.09    8.60
   6  -6  -4   79.69   11.30
   6  -6  -4  105.49   12.00
   6  -6  -4  110.59    7.00
  -6   6   4  119.89   11.20
  -6   6   4  103.29   11.90
  -6   6   4  115.79   11.40
   5  -6  -4    4.00    3.20
   5  -6  -4   -3.10    3.80
   5  -6  -4    0.70    2.50
   5  -6  -4    5.20    3.70
  -5   6   4   -5.60    3.20
  -5   6   4    0.40    3.10
  -5   6   4    1.30    3.70
   4  -6  -4   12.30    4.90
   4  -6  -4    8.90    4.10
   4  -6  -4    5.00    4.60
   4  -6  -4    9.10    2.80
  -4   6   4    6.70    4.20
  -4   6   4    3.80    3.60
   3  -6  -4    2.70    3.70
   3  -6  -4    5.70    4.30
   3  -6  -4    9.10    4.80
  -3   6   4    2.40    2.00
  -3   6   4    1.00    3.70
  -3   6   4    2.50    2.20
  -3   6   4    0.50    3.10
   2  -6  -4   26.30    6.70
  -2   6   4   20.60    3.50
  -2   6   4   24.50    6.90
  -2   6   4   18.50    6.80
  -2   6   4   30.00    7.00
  -2   6   4   20.20    4.90
  -2   6   4   25.50    4.60
   1  -6  -4   19.20    6.40
  -1   6   4   12.80    4.70
  -1   6   4   18.90    4.50
  -1   6   4   17.40    4.20
  -1   6   4   13.40    3.30
  -1   6   4   20.60    5.60
  -1   6   4   14.70    5.30
   0  -6  -4    2.00    3.80
   0   6   4    6.90    3.90
   0   6   4    2.80    3.80
   0   6   4    6.80    3.00
   0   6   4    5.10    2.50
   0   6   4    2.90    4.20
   0   6   4    4.40    3.80
   0   6   4    5.40    3.60
  -1  -6  -4   -0.60    3.80
   1   6   4    1.30    3.70
   1   6   4    5.40    3.70
   1   6   4    6.10    4.40
   1   6   4    1.90    3.00
   1   6   4    5.30    4.00
   1   6   4    0.90    1.90
  -2  -6  -4    4.90    4.30
   2   6   4    3.10    4.20
   2   6   4   -5.20    3.10
   2   6   4    2.60    4.30
   2   6   4    5.70    1.70
   2   6   4    0.00    2.60
  -3  -6  -4    1.20    4.20
   3   6   4   -1.60    2.70
   3   6   4    3.00    3.50
   3   6   4   -7.10    4.80
   3   6   4    1.70    4.30
   6  -7  -4   -3.40    4.10
   6  -7  -4    6.40    3.30
   6  -7  -4   10.30    5.70
  -6   7   4    2.90    4.80
  -6   7   4    7.90    5.20
  -6   7   4    1.20    5.00
   5  -7  -4    9.90    5.30
   5  -7  -4   11.60    5.30
   5  -7  -4    9.80    3.90
   5  -7  -4    7.40    3.20
  -5   7   4    1.80    4.80
  -5   7   4   13.60    5.00
  -5   7   4   -2.70    3.40
   4  -7  -4    8.40    5.20
   4  -7  -4   18.90    5.40
   4  -7  -4   10.80    5.30
  -4   7   4   13.70    5.80
  -4   7   4    4.60    5.10
  -4   7   4   21.20    5.70
  -4   7   4   10.70    2.80
   3  -7  -4    6.70    4.30
  -3   7   4    7.90    2.40
  -3   7   4    4.00    4.20
  -3   7   4    7.20    2.50
  -3   7   4    9.70    4.70
  -3   7   4    6.70    4.80
  -3   7   4    6.30    2.40
  -3   7   4    2.20    3.90
   2  -7  -4   33.80    8.10
  -2   7   4   24.10    7.10
  -2   7   4   30.60    5.90
  -2   7   4   30.20    4.20
  -2   7   4   32.50    4.80
  -2   7   4   33.90    7.30
  -2   7   4   32.10    7.30
  -2   7   4   33.20    7.00
   1  -7  -4   18.70    6.30
  -1   7   4   33.20    6.60
  -1   7   4   31.00    5.50
  -1   7   4   20.40    4.70
  -1   7   4   20.20    6.00
  -1   7   4   25.10    4.40
  -1   7   4   29.50    6.80
  -1   7   4   17.10    5.90
   0  -7  -4  141.29   13.20
   0   7   4  141.39   11.90
   0   7   4  140.29    9.10
   0   7   4  138.09    9.60
   0   7   4  127.79   11.30
   0   7   4  128.79   13.40
   0   7   4  135.99   11.20
   0   7   4  170.38   12.90
  -1  -7  -4   16.40    6.30
   1   7   4   15.70    5.80
   1   7   4   15.80    3.50
   1   7   4   24.50    5.30
   1   7   4   19.20    5.30
   1   7   4   21.90    5.20
   1   7   4   16.60    7.20
   4  -8  -4   -2.50    3.30
  -4   8   4   -0.70    4.10
  -4   8   4   -6.80    4.60
  -4   8   4   -0.70    2.30
  -4   8   4   -0.90    4.10
   3  -8  -4   -2.60    3.20
  -3   8   4    2.20    2.20
  -3   8   4    3.90    2.40
  -3   8   4    4.20    4.50
  -3   8   4    2.00    2.20
  -3   8   4    9.50    5.80
  -3   8   4    2.70    3.90
  -3   8   4    1.20    4.00
   2  -8  -4   15.90    5.70
  -2   8   4   18.60    3.50
  -2   8   4   15.00    6.10
  -2   8   4   17.10    3.90
  -2   8   4   19.20    4.80
  -2   8   4   15.60    5.40
  -2   8   4   19.80    6.40
  -2   8   4   11.60    5.00
   1  -8  -4    6.50    4.80
  -1   8   4   -1.80    2.80
  -1   8   4   -3.70    3.50
  -1   8   4    5.00    5.70
  -1   8   4    1.20    3.70
  -1   8   4   -3.80    3.90
  -1   8   4   -2.20    5.30
  -1   8   4    0.80    3.30
  -2   9  -5    6.10    5.60
  -2   9  -5    7.10    3.10
  -2   9  -5    7.60    9.30
  -2   9  -5   11.40    5.30
   2  -9   5    9.60    4.40
   2  -9   5    2.50    4.90
  -3   9  -5   26.60    6.80
  -3   9  -5   31.70   11.50
  -3   9  -5   18.70    6.70
   3  -9   5   20.30    5.70
   1   8  -5    2.60    4.20
   1   8  -5    4.80    5.40
   1   8  -5    2.10    4.00
   1   8  -5   -0.50    2.30
   1   8  -5   -0.20    2.40
  -1  -8   5    3.00    4.10
   0   8  -5    0.70    5.50
   0   8  -5   -0.50    4.00
   0   8  -5    4.30    4.20
   0  -8   5    4.00    4.00
  -1   8  -5   17.80    6.30
  -1   8  -5   17.30    4.50
  -1   8  -5   23.20    6.60
  -1   8  -5    9.50    4.80
   1  -8   5   13.90    5.10
  -2   8  -5   47.50    5.50
  -2   8  -5   45.10    8.50
  -2   8  -5   48.90    8.50
  -2   8  -5   43.00    8.40
   2  -8   5   34.80    7.30
   2  -8   5   45.60    6.90
  -3   8  -5   17.40    5.90
  -3   8  -5   36.70    7.20
  -3   8  -5   23.90    6.60
   3  -8   5   33.10    7.60
   3  -8   5   33.00    7.00
   3  -8   5   15.80    5.60
  -4   8  -5    5.80    4.90
  -4   8  -5    4.10    5.90
  -4   8  -5   -0.80    4.00
   4  -8   5    5.80    4.90
   4  -8   5   13.50    6.00
   4  -8   5    6.70    4.50
  -5   8  -5   17.00    5.60
  -5   8  -5    8.40    4.90
   5  -8   5    1.40    4.40
   5  -8   5   24.20    6.70
   3   7  -5   12.00    5.60
   3   7  -5   18.90    6.20
  -3  -7   5   25.80    5.60
  -3  -7   5    7.60    7.60
   2   7  -5    1.80    4.60
   2   7  -5    4.30    4.30
  -2  -7   5    9.80    4.80
   1   7  -5   16.30    6.00
   1   7  -5   17.90    6.20
   1   7  -5   28.10    4.50
   1   7  -5   34.20    7.20
  -1  -7   5   36.30    7.00
  -1  -7   5   28.60    5.90
   0   7  -5  112.49   10.00
   0   7  -5  102.69   11.40
   0  -7   5  109.09    9.50
   0  -7   5  106.19   10.80
  -1   7  -5   24.90    6.50
  -1   7  -5   23.00    4.90
  -1   7  -5   31.20    7.10
   1  -7   5   25.80    5.30
   1  -7   5   25.00    6.10
   1  -7   5   28.20    5.10
  -2   7  -5   11.30    3.20
  -2   7  -5    5.70    4.50
  -2   7  -5    9.80    4.30
   2  -7   5    6.00    4.40
   2  -7   5   10.40    5.00
   2  -7   5    3.20    4.70
   2  -7   5    7.70    2.80
  -3   7  -5   51.89    9.00
  -3   7  -5   63.89    9.70
   3  -7   5   48.30    8.20
   3  -7   5   53.09    4.70
   3  -7   5   56.99    9.50
  -4   7  -5   27.80    6.70
  -4   7  -5   60.59    9.70
   4  -7   5   34.70    7.10
   4  -7   5   30.50    7.00
  -5   7  -5   31.60    7.20
  -5   7  -5   50.49    8.50
   5  -7   5   49.50    8.10
   5  -7   5   46.40    9.40
  -6   7  -5    9.00    4.50
  -6   7  -5    4.20    4.40
   6  -7   5    7.30    5.80
   6  -7   5   10.00    4.90
   4   6  -5  124.49   11.00
   4   6  -5  117.99   12.90
   4   6  -5  115.69    8.00
   4   6  -5  118.69   12.50
  -4  -6   5  138.79    9.90
  -4  -6   5  102.09   12.30
   3   6  -5   59.29    6.10
   3   6  -5   83.99   12.00
   3   6  -5   76.29   10.20
  -3  -6   5   46.40    8.80
  -3  -6   5   68.39   10.20
  -3  -6   5   67.19    9.50
   2   6  -5   19.80    6.40
   2   6  -5   21.00    5.50
  -2  -6   5   16.60    5.30
  -2  -6   5   20.50    6.70
   1   6  -5    2.40    4.00
   1   6  -5    4.20    2.70
   1   6  -5    5.20    4.50
  -1  -6   5    7.50    4.50
  -1  -6   5    7.00    3.80
   0   6  -5  226.68   13.80
   0   6  -5  222.28   15.70
   0   6  -5  231.28   16.10
   0  -6   5  241.68   15.20
   0  -6   5  207.58   13.20
  -1   6  -5  185.28   14.00
  -1   6  -5  174.68   11.20
  -1   6  -5  190.38   14.20
   1  -6   5  182.28   13.10
   1  -6   5  178.28   12.30
   1  -6   5  181.88   11.10
  -2   6  -5  204.38   14.70
  -2   6  -5  188.48   10.40
  -2   6  -5  195.58   15.10
  -2   6  -5  221.38   15.10
   2  -6   5  205.48   13.70
   2  -6   5  183.18   10.10
   2  -6   5  200.48   14.30
  -3   6  -5  548.35   29.30
  -3   6  -5  483.95   24.20
   3  -6   5  528.75   24.90
   3  -6   5  530.95   24.50
   3  -6   5  536.75   25.70
   3  -6   5  535.25   17.80
  -4   6  -5   85.69   11.10
  -4   6  -5   89.69   10.20
   4  -6   5   92.89   10.60
   4  -6   5   84.49    5.10
  -5   6  -5   -6.80    3.10
  -5   6  -5   10.60    4.80
   5  -6   5    3.50    1.70
   5  -6   5    1.00    3.60
  -6   6  -5   -0.70    3.70
  -6   6  -5   -0.50    3.90
   6  -6   5    7.70    5.10
   6  -6   5   -1.10    1.40
   6  -6   5    3.20    1.90
  -7   6  -5   24.20    6.40
   7  -6   5   30.40    9.20
   7  -6   5   25.60    3.30
   5   5  -5   51.79    9.20
   5   5  -5   42.10    6.70
   5   5  -5   41.10    5.40
  -5  -5   5   33.90    5.30
  -5  -5   5   44.60    8.70
   4   5  -5   60.59    9.60
   4   5  -5   60.99    8.50
   4   5  -5   79.69    6.20
   4   5  -5   67.09   11.20
  -4  -5   5   71.59    7.20
  -4  -5   5   75.19   11.00
  -4  -5   5   69.99   10.20
   3   5  -5    2.20    4.10
   3   5  -5   10.80    3.00
   3   5  -5   10.50    4.90
  -3  -5   5    8.10    3.70
  -3  -5   5    7.30    4.50
  -3  -5   5   15.70    6.00
   2   5  -5   36.20    9.00
   2   5  -5   28.40    6.30
  -2  -5   5   16.40    5.50
  -2  -5   5   20.60    9.20
  -2  -5   5   33.10    6.10
   1   5  -5   33.00    6.50
   1   5  -5   22.90    4.40
   1   5  -5   40.80    7.80
   1   5  -5   29.50    6.50
  -1  -5   5   32.50    6.80
  -1  -5   5   24.80    5.90
  -1  -5   5   22.60    5.70
   0   5  -5  225.28   13.50
   0   5  -5  243.98   16.00
   0   5  -5  254.37   16.00
   0  -5   5  233.78   12.40
   0  -5   5  236.18   13.60
   0  -5   5  218.48   14.30
  -1   5  -5   -6.70    2.40
  -1   5  -5    2.90    2.60
  -1   5  -5   -0.70    3.20
   1  -5   5   -2.50    2.50
   1  -5   5   -1.40    2.00
   1  -5   5   -0.40    2.40
   1  -5   5   -0.80    3.10
  -2   5  -5   34.80    6.90
  -2   5  -5   29.10    6.90
  -2   5  -5   31.00    6.70
   2  -5   5   29.70    4.80
   2  -5   5   31.90    5.90
   2  -5   5   35.10    7.10
   2  -5   5   28.50    6.10
  -3   5  -5   89.79    9.40
  -3   5  -5   94.99   10.60
   3  -5   5   95.39    6.80
   3  -5   5  101.69    9.40
   3  -5   5   71.59   10.20
  -4   5  -5   16.30    5.60
  -4   5  -5   24.30    5.90
   4  -5   5   20.30    3.60
   4  -5   5   23.80    5.90
  -5   5  -5   53.29    8.90
  -5   5  -5   60.69    9.20
   5  -5   5   58.29    7.70
   5  -5   5   70.49   10.40
   5  -5   5   61.49    5.80
  -6   5  -5   12.90    5.60
  -6   5  -5    8.00    4.70
   6  -5   5    8.70    5.20
   6  -5   5    7.20    3.10
   6  -5   5   10.40    3.20
  -7   5  -5   27.00    6.40
   7  -5   5   34.70    8.80
   7  -5   5   30.80    4.80
   6   4  -5   -5.00    4.00
  -6  -4   5    8.40    2.70
   5   4  -5   -3.20    3.80
   5   4  -5    3.00    4.10
  -5  -4   5    2.40    3.90
  -5  -4   5    3.90    2.60
  -5  -4   5   -0.30    3.50
   4   4  -5   -0.80    3.60
   4   4  -5   10.20    2.60
   4   4  -5    3.70    4.40
  -4  -4   5   14.40    5.10
  -4  -4   5    2.50    2.70
   3   4  -5   37.50    7.90
   3   4  -5   38.30    6.00
   3   4  -5   30.30    6.90
  -3  -4   5   27.00    7.40
  -3  -4   5   21.50    5.10
  -3  -4   5   32.90    7.40
   2   4  -5   43.90    8.10
   2   4  -5   60.29    4.60
   2   4  -5   76.49    9.80
  -2  -4   5   73.49   10.00
  -2  -4   5   56.99    9.00
  -2  -4   5   64.19    8.20
   1   4  -5   15.20    3.70
   1   4  -5    7.40    4.30
   1   4  -5   10.10    4.20
   1   4  -5   14.80    4.80
  -1  -4   5    8.40    4.00
  -1  -4   5   10.30    3.80
  -1  -4   5   10.90    4.30
   0   4  -5  204.48   14.00
   0   4  -5  197.58   13.40
   0   4  -5  194.28   12.30
   0   4  -5  188.88   11.80
   0  -4   5  196.78   12.30
   0  -4   5  206.88   13.10
   0  -4   5  199.98   10.50
   0  -4   5  206.28   14.00
  -1   4  -5  184.48   13.40
  -1   4  -5  182.08   11.00
  -1   4  -5  202.28   13.40
   1  -4   5  190.98   13.60
   1  -4   5  190.08   12.90
   1  -4   5  174.28   10.80
  -2   4  -5  321.37   17.30
  -2   4  -5  344.87   18.50
   2  -4   5  308.97   14.10
   2  -4   5  342.07   17.30
   2  -4   5  319.67   18.20
  -3   4  -5   23.90    5.80
  -3   4  -5   19.10    5.50
   3  -4   5   21.90    5.20
   3  -4   5   13.80    3.40
   3  -4   5   15.20    5.10
  -4   4  -5   39.20    8.00
  -4   4  -5   45.20    7.70
   4  -4   5   35.50    5.10
   4  -4   5   35.50    6.00
   4  -4   5   31.70    6.80
  -5   4  -5   69.29    9.40
   5  -4   5   70.49   10.50
   5  -4   5   86.99    8.00
  -6   4  -5    6.20    7.20
   6  -4   5    6.20    3.10
  -7   4  -5    4.20    5.00
  -7   4  -5    8.40    4.10
   7  -4   5    3.30    3.30
   7  -4   5   -1.80    5.20
   6   3  -5   34.50    8.20
   6   3  -5   36.20    7.20
  -6  -3   5   46.30    8.20
  -6  -3   5   43.70    4.80
  -6  -3   5   52.39    9.30
   5   3  -5    3.10    4.00
   5   3  -5   -0.10    3.60
  -5  -3   5    3.30    2.60
  -5  -3   5    0.60    3.80
   4   3  -5  129.79   12.60
   4   3  -5  141.19   11.70
  -4  -3   5  135.79    9.10
  -4  -3   5  129.99   12.20
  -4  -3   5  136.79   12.20
   3   3  -5  111.49   10.00
   3   3  -5  126.19   11.20
  -3  -3   5  102.99   10.40
  -3  -3   5  116.79   11.20
   2   3  -5  541.85   17.90
   2   3  -5  561.84   24.50
   2   3  -5  557.44   24.90
  -2  -3   5  554.74   24.60
  -2  -3   5  540.35   24.10
   1   3  -5   72.89    9.30
   1   3  -5   56.49    6.10
   1   3  -5   71.59    8.50
   1   3  -5   67.19    9.20
  -1  -3   5   66.89    8.60
  -1  -3   5   78.29    8.40
   0   3  -5  257.87   15.10
   0   3  -5  238.38   13.60
   0   3  -5  257.37   13.80
   0   3  -5  213.88   12.80
   0  -3   5  240.38   13.50
   0  -3   5  244.88   14.70
  -1   3  -5    3.90    3.00
  -1   3  -5    1.40    2.90
  -1   3  -5    0.30    3.20
  -1   3  -5    3.60    3.10
   1  -3   5   -3.30    2.20
   1  -3   5    2.60    3.60
  -2   3  -5  182.98   13.00
  -2   3  -5  181.48   13.30
   2  -3   5  183.98   11.70
   2  -3   5  181.18   10.80
  -3   3  -5    8.30    4.50
  -3   3  -5    0.50    2.90
   3  -3   5   10.20    3.70
   3  -3   5    7.80    4.40
  -4   3  -5   16.30    5.50
  -4   3  -5   14.70    4.60
  -4   3  -5   13.00    5.00
   4  -3   5   11.10    4.80
   4  -3   5   16.80    3.90
  -5   3  -5    9.90    4.00
  -5   3  -5    6.60    4.40
  -5   3  -5    8.00    2.80
  -5   3  -5    3.40    4.00
   5  -3   5   10.90    4.60
   5  -3   5    8.20    3.20
  -6   3  -5   93.79    8.80
  -6   3  -5   82.69   11.30
  -6   3  -5   70.59    4.70
   6  -3   5   85.89    8.30
  -7   3  -5   90.59   10.80
  -7   3  -5   84.69   15.20
   7  -3   5   86.09   11.20
   7  -3   5   79.09   12.30
  -8   3  -5    8.80    4.20
   8  -3   5   14.50    5.00
   7   2  -5   11.10    5.60
   7   2  -5   12.30    5.10
  -7  -2   5   18.50    3.00
   6   2  -5   20.00    6.20
   6   2  -5   16.70    5.40
  -6  -2   5   19.70    6.50
  -6  -2   5   15.00    3.20
   5   2  -5   34.50    7.10
   5   2  -5   45.80    8.30
  -5  -2   5   34.10    7.30
   4   2  -5   57.19    9.10
   4   2  -5   69.19    9.50
  -4  -2   5   64.49    9.70
   3   2  -5  175.28   13.00
   3   2  -5  177.08   12.60
  -3  -2   5  176.78   12.70
  -3  -2   5  173.28   12.80
  -3  -2   5  167.08    8.10
   2   2  -5   29.50    6.40
   2   2  -5   34.70    4.70
   2   2  -5   31.30    6.50
  -2  -2   5   30.60    6.40
  -2  -2   5   33.60    4.80
  -2  -2   5   33.80    6.20
   1   2  -5  448.96   19.90
   1   2  -5  453.05   19.90
   1   2  -5  360.96   24.10
  -1  -2   5  466.35   20.00
  -1  -2   5  445.76   19.00
  -1  -2   5  442.76   17.70
   0   2  -5  306.77   15.50
   0   2  -5  287.17   14.60
   0   2  -5  283.67   14.70
   0   2  -5  281.57   13.40
   0  -2   5  279.07   13.40
   0  -2   5  302.57   15.20
   0  -2   5  277.07   14.40
   0  -2   5  266.17   14.50
  -1   2  -5 2037.10   58.19
  -1   2  -5 1943.41   58.79
   1  -2   5 1999.20   57.99
   1  -2   5 1954.30   56.19
  -2   2  -5   10.10    4.50
  -2   2  -5   13.50    5.10
   2  -2   5   18.10    5.30
  -3   2  -5  439.16   18.20
  -3   2  -5  421.16   20.70
  -3   2  -5  399.06   20.60
   3  -2   5  416.86   16.90
   3  -2   5  423.76   20.80
  -4   2  -5    7.70    3.80
  -4   2  -5    8.60    4.80
  -4   2  -5    6.60    3.30
   4  -2   5    8.90    4.80
   4  -2   5    3.40    2.50
  -5   2  -5    1.20    2.50
  -5   2  -5    0.80    2.50
  -5   2  -5   -0.10    2.90
   5  -2   5    1.30    4.00
   5  -2   5   -0.80    2.40
  -6   2  -5    8.70    4.60
  -6   2  -5   14.60    4.20
  -6   2  -5    4.40    2.80
   6  -2   5    0.70    3.20
  -7   2  -5   23.50    4.10
  -7   2  -5   22.80    5.10
   7  -2   5   26.80    7.80
   7  -2   5   15.90    5.20
   7   1  -5    7.30    4.90
   7   1  -5   -0.10    3.80
  -7  -1   5    0.40    3.60
  -7  -1   5    2.40    2.00
   6   1  -5   -2.90    3.20
   6   1  -5    3.10    3.80
  -6  -1   5   -1.30    3.60
  -6  -1   5    3.70    2.20
   5   1  -5   51.59    8.30
   5   1  -5   39.70    7.60
  -5  -1   5   34.10    6.70
  -5  -1   5   42.20    5.40
   4   1  -5  389.56   19.90
   4   1  -5  384.76   19.60
  -4  -1   5  419.16   20.50
  -4  -1   5  360.36   16.70
   3   1  -5  280.67   16.30
   3   1  -5  300.37   16.10
  -3  -1   5  276.17   13.00
  -3  -1   5  287.87   16.10
   2   1  -5   13.80    4.70
   2   1  -5   13.00    4.70
   2   1  -5   20.50    5.30
  -2  -1   5   15.60    3.90
  -2  -1   5   21.80    5.60
   1   1  -5  279.17   14.50
   1   1  -5  264.97   13.50
   1   1  -5  249.78   15.10
  -1  -1   5  252.67   14.00
  -1  -1   5  241.78   13.10
  -1  -1   5  264.97   12.20
   0   1  -5    9.70    3.50
   0   1  -5   17.50    4.70
   0   1  -5   13.10    2.50
   0  -1   5    7.10    3.10
   0  -1   5   13.00    3.80
   0  -1   5    7.60    3.80
  -1   1  -5  169.78   13.80
  -1   1  -5  146.39   10.20
   1  -1   5  148.79   11.20
   1  -1   5  155.08   10.50
  -2   1  -5   88.89    8.90
  -2   1  -5  107.19    7.20
  -2   1  -5   85.79    9.20
   2  -1   5   98.09    9.30
  -3   1  -5  114.39   10.30
  -3   1  -5  134.09   10.90
  -3   1  -5  119.79    9.40
   3  -1   5  112.99   10.40
  -4   1  -5   62.79    6.60
  -4   1  -5   62.29    9.50
  -4   1  -5   60.89    5.70
   4  -1   5   48.40    8.10
   4  -1   5   58.19    4.60
  -5   1  -5  319.77   18.00
  -5   1  -5  331.87   15.10
  -5   1  -5  342.87   14.60
   5  -1   5  332.07   19.70
  -6   1  -5  136.59    9.00
  -6   1  -5  157.48   16.00
  -6   1  -5  150.88    9.30
   6  -1   5  151.18   12.40
  -7   1  -5   11.40    4.80
  -7   1  -5    2.90    3.10
  -7   1  -5    3.10    2.80
   7  -1   5    3.50    4.00
   8   0  -5   12.90    5.20
   8   0  -5   -0.10    4.00
  -8   0   5    0.90    2.70
   7   0  -5   21.60    6.30
   7   0  -5   24.80    6.40
  -7   0   5   28.90    5.20
  -7   0   5   27.30    6.40
   6   0  -5   58.59    9.10
   6   0  -5   50.39    8.50
  -6   0   5   72.19   14.60
  -6   0   5   48.60    8.30
  -6   0   5   54.59    6.20
   5   0  -5    4.00    3.90
   5   0  -5    6.30    3.90
  -5   0   5   11.10    4.60
  -5   0   5    2.70    2.80
  -5   0   5   -0.40    2.80
   4   0  -5   90.09    9.50
   4   0  -5   81.19    8.80
  -4   0   5  100.79    9.60
  -4   0   5   76.99    8.30
  -4   0   5   85.89    7.80
   3   0  -5   44.80    6.90
   3   0  -5   54.49    7.70
   3   0  -5   40.70    4.90
  -3   0   5   48.30    7.30
  -3   0   5   53.49    6.60
  -3   0   5   40.40    6.60
   2   0  -5   14.60    3.20
   2   0  -5   16.30    4.60
   2   0  -5   17.10    4.90
   2   0  -5   17.30    4.70
  -2   0   5   17.50    4.90
  -2   0   5   13.20    3.90
  -2   0   5    7.60    3.80
   1   0  -5  471.85   20.60
   1   0  -5  504.95   20.50
   1   0  -5  500.55   17.20
   1   0  -5  498.55   19.40
  -1   0   5  518.75   18.20
  -1   0   5  503.05   20.40
   0   0  -5    0.70    2.30
   0   0  -5    0.80    2.00
   0   0  -5   -3.80    2.20
   0   0   5    3.80    2.30
   0   0   5    1.10    3.00
  -1   0  -5  914.61   29.30
  -1   0  -5  898.71   32.20
   1   0   5  911.01   32.30
   1   0   5  854.21   28.70
  -2   0  -5  299.57   16.40
  -2   0  -5  316.57   11.00
   2   0   5  313.07   15.70
   2   0   5  312.57   16.80
  -3   0  -5    5.50    3.80
  -3   0  -5    5.10    1.70
  -3   0  -5    3.90    3.50
   3   0   5   10.10    4.20
  -4   0  -5    4.60    3.30
  -4   0  -5   -0.60    1.40
  -4   0  -5    3.90    3.10
   4   0   5    2.60    3.90
  -5   0  -5    3.60    3.20
  -5   0  -5    8.20    3.90
  -5   0  -5    5.20    3.60
   5   0   5   -0.10    4.20
  -6   0  -5   48.60    4.90
  -6   0  -5   47.40    7.30
  -6   0  -5   56.49    8.30
   6   0   5   47.70    8.40
   6   0   5   35.80    7.80
  -7   0  -5    5.00    3.30
  -7   0  -5    1.40    3.60
   7   0   5    6.50    5.30
   7   0   5   -0.40    4.90
   8  -1  -5   12.20    4.80
   8  -1  -5   17.80    6.30
   8  -1  -5    1.00    4.80
  -8   1   5    6.40    4.00
  -8   1   5    8.90    5.00
   7  -1  -5   11.40    4.80
   7  -1  -5    1.80    4.30
  -7   1   5    5.20    4.30
  -7   1   5    9.20    3.70
  -7   1   5   11.20    4.60
   6  -1  -5  290.27   17.70
   6  -1  -5  278.07   16.10
  -6   1   5  272.97   15.80
  -6   1   5  262.97   15.50
  -6   1   5  327.97   20.90
   5  -1  -5   13.60    4.30
   5  -1  -5   12.20    4.40
   5  -1  -5   23.40    5.90
  -5   1   5   10.60    4.70
  -5   1   5   18.00    4.60
  -5   1   5   12.20    4.30
   4  -1  -5  796.22   30.70
   4  -1  -5  729.73   27.30
   4  -1  -5  776.42   28.40
  -4   1   5  777.52   29.70
  -4   1   5  790.32   28.50
  -4   1   5  783.72   30.30
   3  -1  -5  207.68   13.40
   3  -1  -5  233.28   13.00
   3  -1  -5  224.98   12.40
  -3   1   5  231.78   14.10
  -3   1   5  224.38   13.70
  -3   1   5  225.58   12.90
   2  -1  -5  573.54   23.10
   2  -1  -5  620.14   23.10
   2  -1  -5  609.44   23.20
   2  -1  -5  614.84   25.10
  -2   1   5  604.14   22.60
  -2   1   5  597.04   22.70
  -2   1   5  614.04   23.40
  -2   1   5  593.34   24.80
   1  -1  -5   11.80    3.60
   1  -1  -5    5.70    3.50
   1  -1  -5   10.20    1.70
  -1   1   5    3.80    2.90
  -1   1   5   12.20    4.10
  -1   1   5    5.20    2.70
  -1   1   5    4.60    3.40
   0  -1  -5   66.89    7.90
   0  -1  -5   59.79    5.00
   0   1   5   55.99    4.50
   0   1   5   42.50    6.20
   0   1   5   55.29    3.20
  -1  -1  -5 1111.59   36.80
  -1  -1  -5 1050.29   29.10
  -1  -1  -5 1050.39   27.10
   1   1   5 1003.20   32.10
   1   1   5 1076.09   36.60
  -2  -1  -5  207.78   10.50
  -2  -1  -5  235.88   14.00
  -2  -1  -5  218.68   13.90
   2   1   5  226.88   13.90
   2   1   5  223.98   12.80
  -3  -1  -5  215.78   13.30
  -3  -1  -5  222.58   13.90
   3   1   5  225.68   13.90
   3   1   5  218.68   14.10
  -4  -1  -5 1261.57   41.40
  -4  -1  -5 1277.67   42.20
   4   1   5 1316.87   44.50
   4   1   5 1254.17   32.70
  -5  -1  -5    3.80    3.60
  -5  -1  -5    2.40    3.10
   5   1   5    6.70    4.00
   5   1   5   -0.30    3.80
  -6  -1  -5   10.50    4.00
  -6  -1  -5    3.60    3.20
   6   1   5    7.50    5.40
   6   1   5    4.90    4.40
   8  -2  -5    5.60    5.40
   8  -2  -5   -2.20    3.80
   8  -2  -5    7.40    4.10
  -8   2   5    5.60    3.00
  -8   2   5    0.60    3.60
  -8   2   5    1.60    4.10
   7  -2  -5   -3.90    3.90
   7  -2  -5    6.30    3.60
   7  -2  -5   10.00    4.70
   7  -2  -5    8.00    3.70
  -7   2   5    5.40    3.70
  -7   2   5    3.10    4.30
  -7   2   5    9.50    4.10
   6  -2  -5   49.00    8.50
   6  -2  -5   36.60    6.60
   6  -2  -5   43.80    6.80
   6  -2  -5   39.80    7.40
  -6   2   5   51.99    8.90
  -6   2   5   52.49    9.00
  -6   2   5   50.29    7.10
   5  -2  -5   41.40    6.90
   5  -2  -5   40.50    6.40
   5  -2  -5   31.50    5.90
   5  -2  -5   35.70    7.40
  -5   2   5   49.00    8.10
  -5   2   5   49.10    6.50
  -5   2   5   38.90    7.50
   4  -2  -5   24.80    4.50
   4  -2  -5   22.00    5.10
   4  -2  -5   27.60    6.00
   4  -2  -5   24.70    4.80
  -4   2   5   48.30    8.80
  -4   2   5   30.50    6.50
  -4   2   5   24.30    4.50
   3  -2  -5  844.72   30.70
   3  -2  -5  803.12   24.50
   3  -2  -5  845.52   28.00
   3  -2  -5  776.82   30.00
  -3   2   5  818.12   30.30
  -3   2   5  797.92   31.90
  -3   2   5  824.22   27.60
   2  -2  -5  282.47   16.70
   2  -2  -5  271.17   15.30
   2  -2  -5  260.57   14.00
  -2   2   5  264.27   15.00
  -2   2   5  251.77   13.10
  -2   2   5  285.47   14.60
   1  -2  -5    4.30    2.60
   1  -2  -5    0.40    3.20
  -1   2   5    0.90    2.40
  -1   2   5    1.10    2.30
  -1   2   5    1.30    3.20
   0  -2  -5  888.11   25.90
   0  -2  -5  875.01   32.00
   0  -2  -5  934.71   33.20
   0   2   5  869.51   25.70
   0   2   5  851.31   24.90
   0   2   5  859.11   26.30
   0   2   5  885.41   32.80
  -1  -2  -5  400.06   19.90
  -1  -2  -5  398.06   15.40
  -1  -2  -5  411.16   19.40
   1   2   5  390.16   16.10
   1   2   5  416.06   19.80
  -2  -2  -5   10.90    3.70
  -2  -2  -5    7.00    4.70
  -2  -2  -5    7.40    2.90
   2   2   5    5.90    3.10
   2   2   5   12.50    4.20
  -3  -2  -5   13.40    4.10
  -3  -2  -5   21.60    5.20
  -3  -2  -5   18.40    6.40
   3   2   5   15.20    4.30
   3   2   5   17.20    4.90
  -4  -2  -5   29.10    5.90
  -4  -2  -5   24.00    4.90
  -4  -2  -5   26.90    6.70
   4   2   5   12.30    5.00
   4   2   5   20.20    2.60
   4   2   5   20.40    6.80
  -5  -2  -5   23.40    5.80
  -5  -2  -5   21.40    5.30
  -5  -2  -5   20.20    4.90
   5   2   5   25.60    6.90
   5   2   5   29.20    6.80
  -6  -2  -5    8.90    3.80
  -6  -2  -5   20.10    5.70
  -6  -2  -5   15.10    4.70
   6   2   5    8.70    5.10
   6   2   5   -0.10    8.50
   8  -3  -5   40.20    8.10
   8  -3  -5   40.20    6.10
   8  -3  -5   41.30    8.40
   8  -3  -5   35.20    7.80
  -8   3   5   40.80    7.40
  -8   3   5   35.90    7.10
   7  -3  -5   32.30    2.90
   7  -3  -5   37.70    6.90
   7  -3  -5   30.70    7.10
   7  -3  -5   50.59    7.00
   7  -3  -5   39.20    7.20
  -7   3   5   44.60    8.20
  -7   3   5   38.30    5.90
  -7   3   5   43.70    7.70
   6  -3  -5   76.29    7.40
   6  -3  -5   84.79    9.50
   6  -3  -5   77.69    8.50
  -6   3   5   83.09   10.90
  -6   3   5   60.69    7.00
  -6   3   5   85.29    9.90
   5  -3  -5   30.10    5.10
   5  -3  -5    9.80    5.70
   5  -3  -5   16.60    4.40
   5  -3  -5   19.10    5.80
  -5   3   5   17.90    5.40
  -5   3   5   24.00    6.90
  -5   3   5   16.60    3.90
   4  -3  -5   -0.50    2.00
   4  -3  -5    2.10    3.10
   4  -3  -5   -3.00    2.50
  -4   3   5    1.00    2.30
  -4   3   5    2.30    3.40
  -4   3   5    0.40    2.50
   3  -3  -5   46.10    6.50
   3  -3  -5   53.19    9.00
   3  -3  -5   49.40    3.80
   3  -3  -5   58.19    8.20
  -3   3   5   38.70    6.80
  -3   3   5   47.30    5.40
  -3   3   5   49.00    7.70
  -3   3   5   56.09    8.20
   2  -3  -5   31.10    5.90
   2  -3  -5   22.90    5.30
  -2   3   5   19.50    5.00
  -2   3   5   25.30    4.40
  -2   3   5   22.40    6.00
  -2   3   5   27.50    5.60
   1  -3  -5  862.41   32.40
   1  -3  -5  889.11   28.80
   1  -3  -5  896.91   34.10
  -1   3   5  911.61   28.90
  -1   3   5  862.61   28.60
  -1   3   5  882.71   33.90
  -1   3   5  838.92   33.40
   0  -3  -5   32.30    7.50
   0  -3  -5   26.70    3.80
   0  -3  -5   21.60    6.00
   0   3   5   12.50    3.50
   0   3   5   27.80    6.20
   0   3   5   19.00    3.90
   0   3   5   31.30    4.00
  -1  -3  -5   78.59    8.50
  -1  -3  -5   81.59    9.40
   1   3   5   73.19    3.50
   1   3   5   82.29    8.90
  -2  -3  -5  660.43   28.40
  -2  -3  -5  670.13   25.90
  -2  -3  -5  625.34   24.20
   2   3   5  630.64   25.50
   2   3   5  643.14   23.30
  -3  -3  -5  342.27   16.40
  -3  -3  -5  300.07   18.80
  -3  -3  -5  345.27   17.00
   3   3   5  335.97   13.90
   3   3   5  342.57   16.70
  -4  -3  -5   19.50    4.50
  -4  -3  -5   16.60    4.70
  -4  -3  -5   19.80    6.20
   4   3   5   15.50    5.20
   4   3   5   11.90    2.60
   4   3   5   15.60    5.40
  -5  -3  -5    6.30    4.10
  -5  -3  -5   -3.60    3.10
  -5  -3  -5    1.20    2.70
   5   3   5    4.20    4.70
   5   3   5    4.00    4.60
   8  -4  -5   84.49   10.30
   8  -4  -5   79.89   11.50
   8  -4  -5   83.09    7.60
  -8   4   5   85.19   10.50
  -8   4   5   92.79   12.80
   7  -4  -5   78.59   11.00
   7  -4  -5   80.79   11.30
   7  -4  -5   74.79    8.90
   7  -4  -5   78.09    6.70
  -7   4   5   90.39   12.60
  -7   4   5   88.99    8.80
  -7   4   5   57.79    9.70
   6  -4  -5   77.29    5.50
   6  -4  -5   84.29    9.90
   6  -4  -5   74.39    7.90
  -6   4   5   90.39   10.60
  -6   4   5   75.29   10.60
  -6   4   5   79.69    6.30
   5  -4  -5  196.08   10.80
   5  -4  -5  204.28   10.50
   5  -4  -5  198.58   14.80
   5  -4  -5  219.28   15.30
  -5   4   5  192.38    9.50
  -5   4   5  203.78   17.30
   4  -4  -5   65.29    9.40
   4  -4  -5   71.19    7.10
   4  -4  -5   63.79    9.20
  -4   4   5   43.60    7.80
  -4   4   5   70.09    9.80
  -4   4   5   69.89    5.80
   3  -4  -5  323.57   16.40
   3  -4  -5  334.97   17.60
  -3   4   5  312.07   19.50
  -3   4   5  349.67   17.60
  -3   4   5  335.17   19.10
  -3   4   5  324.17   13.80
   2  -4  -5 1080.89   37.70
   2  -4  -5 1084.69   36.30
  -2   4   5 1133.39   41.00
  -2   4   5 1083.79   36.00
  -2   4   5 1054.79   39.70
   1  -4  -5   16.80    4.00
   1  -4  -5   15.20    5.30
  -1   4   5   13.90    2.20
  -1   4   5   17.50    4.00
  -1   4   5   15.50    5.30
  -1   4   5   14.10    3.90
  -1   4   5   13.30    4.90
   0  -4  -5   10.30    5.00
   0  -4  -5    0.30    2.60
   0   4   5    0.90    2.40
   0   4   5   -3.30    1.50
   0   4   5    3.30    3.10
   0   4   5    2.80    4.30
  -1  -4  -5   -0.20    2.90
  -1  -4  -5    0.30    3.30
   1   4   5    1.50    2.80
   1   4   5    4.90    4.80
   1   4   5    1.30    1.30
   1   4   5    4.80    3.50
  -2  -4  -5  153.88   13.50
  -2  -4  -5  171.48   11.50
  -2  -4  -5  169.18   11.70
   2   4   5  175.68   11.90
  -3  -4  -5    6.50    3.10
  -3  -4  -5    2.80    4.00
  -3  -4  -5    3.40    3.40
   3   4   5    0.30    3.70
   3   4   5    9.60    3.10
   3   4   5    6.40    3.40
  -4  -4  -5    8.80    4.80
  -4  -4  -5   10.00    3.50
  -4  -4  -5    4.40    4.00
   4   4   5    8.00    2.50
   4   4   5    9.00    4.90
   7  -5  -5   16.70    4.90
   7  -5  -5   20.50    6.40
  -7   5   5   13.10    4.90
  -7   5   5   14.00    5.50
  -7   5   5   10.00    5.30
   6  -5  -5   54.09    6.50
   6  -5  -5   49.10    9.10
   6  -5  -5   64.99   11.70
   6  -5  -5   48.70    4.90
  -6   5   5   30.70    6.40
  -6   5   5   41.70    8.10
   5  -5  -5  143.79    8.40
   5  -5  -5  118.29   19.90
   5  -5  -5  131.89    8.90
   5  -5  -5  132.89   12.90
  -5   5   5  125.69   12.60
  -5   5   5  133.19   12.40
  -5   5   5  125.89   11.80
  -5   5   5  136.99    6.30
   4  -5  -5   76.39    5.60
   4  -5  -5   85.69   10.50
   4  -5  -5   92.89    8.30
   4  -5  -5   86.99    9.50
  -4   5   5   82.29    9.40
  -4   5   5   77.89   10.20
  -4   5   5   97.39   11.00
   3  -5  -5   54.19    9.70
   3  -5  -5   46.40    7.70
   3  -5  -5   45.80    7.70
  -3   5   5   60.69    5.70
  -3   5   5   55.79    8.90
  -3   5   5   78.79    8.50
  -3   5   5   29.20    6.60
  -3   5   5   60.19    9.30
   2  -5  -5   58.59    8.00
   2  -5  -5   56.79    9.10
  -2   5   5   50.49    9.60
  -2   5   5   45.50    8.60
  -2   5   5   48.00    3.20
  -2   5   5   55.69    7.40
  -2   5   5   48.20    7.20
  -2   5   5   38.70    7.50
   1  -5  -5  353.26   19.70
  -1   5   5  339.47   15.40
  -1   5   5  328.37   12.20
  -1   5   5  327.97   20.50
  -1   5   5  342.37   19.40
  -1   5   5  329.17   16.90
  -1   5   5  322.17   19.60
   0  -5  -5    4.80    7.50
   0   5   5    5.10    3.20
   0   5   5    1.30    2.30
   0   5   5    5.10    4.10
   0   5   5    3.30    3.30
   0   5   5    3.40    2.30
  -1  -5  -5  871.01   36.20
   1   5   5  817.32   31.10
   1   5   5  858.91   36.00
   1   5   5  923.51   33.10
   1   5   5  893.41   34.50
   1   5   5  886.31   25.00
  -2  -5  -5   19.30    6.70
   2   5   5   20.50    6.90
   2   5   5   25.60    5.40
   2   5   5   19.00    6.10
   2   5   5   23.80    4.90
  -3  -5  -5   35.30    6.60
  -3  -5  -5   36.00    8.80
   3   5   5   37.90    8.00
   3   5   5   53.59    6.50
   3   5   5   51.69    6.30
   7  -6  -5   -0.20    3.90
   7  -6  -5    1.20    3.40
   7  -6  -5   -0.40    5.10
  -7   6   5    1.90    4.50
  -7   6   5    5.80    5.50
   6  -6  -5   51.39   10.80
   6  -6  -5   39.00    5.50
   6  -6  -5   28.80    4.80
   6  -6  -5   34.50    7.50
  -6   6   5   28.70    6.60
  -6   6   5   28.70    7.00
  -6   6   5   50.59    9.80
   5  -6  -5   10.00    4.00
   5  -6  -5    5.90    2.60
   5  -6  -5    5.20    4.90
   5  -6  -5    6.90    3.60
  -5   6   5    7.30    3.80
  -5   6   5    9.40    4.60
  -5   6   5   -0.60    4.20
   4  -6  -5    2.10    3.50
   4  -6  -5   -5.40    3.70
   4  -6  -5    4.80    4.00
  -4   6   5   -0.60    3.10
  -4   6   5   -3.10    3.30
  -4   6   5    2.20    4.00
  -4   6   5    2.00    1.50
   3  -6  -5    4.70    3.80
   3  -6  -5    3.50    3.80
  -3   6   5    5.10    4.40
  -3   6   5    2.20    3.30
  -3   6   5    1.90    2.20
  -2   6   5    1.90    1.60
  -2   6   5    5.70    3.90
  -2   6   5    6.10    4.50
  -2   6   5   13.30    4.20
   1  -6  -5   54.79    9.60
  -1   6   5   42.00    5.90
  -1   6   5   41.40    7.30
  -1   6   5   44.40    4.60
  -1   6   5   56.39   10.20
  -1   6   5   38.60    6.30
   0  -6  -5    5.60    5.10
   0   6   5    0.30    2.10
   0   6   5    4.00    3.40
   0   6   5    6.80    3.80
   0   6   5   -3.50    4.00
   0   6   5    2.90    3.90
   0   6   5   -0.40    3.50
   0   6   5    4.20    2.80
  -1  -6  -5    4.50    4.10
   1   6   5    2.70    4.40
   1   6   5    4.30    4.10
   1   6   5    6.60    3.20
   1   6   5   11.10    4.40
   1   6   5    1.00    1.70
   1   6   5    2.80    3.40
  -2  -6  -5   11.70    5.60
   2   6   5    3.30    4.70
   2   6   5    8.20    6.50
   2   6   5    6.60    4.20
   2   6   5    0.40    4.60
   2   6   5    7.60    3.60
   6  -7  -5    7.90    5.50
   6  -7  -5    2.10    3.40
   6  -7  -5    7.60    6.80
   6  -7  -5    8.30    3.30
  -6   7   5   -0.10    5.40
  -6   7   5    1.30    4.70
  -6   7   5    7.20    5.00
   5  -7  -5    5.80    4.70
   5  -7  -5    2.20    3.70
   5  -7  -5    5.50    4.60
  -5   7   5    4.30    4.70
  -5   7   5    4.00    4.20
  -5   7   5    8.10    5.00
   4  -7  -5    2.80    4.40
  -4   7   5   17.70    1.90
  -4   7   5   17.80    6.30
  -4   7   5   10.10    4.40
  -4   7   5   11.10    4.60
   3  -7  -5  115.69   10.90
  -3   7   5  116.49   12.20
  -3   7   5  118.39   11.10
  -3   7   5  109.89    5.50
  -3   7   5   94.59    9.60
  -3   7   5  101.79   12.20
  -3   7   5  101.29    7.10
  -3   7   5  107.69   11.70
  -3   7   5  114.79    7.10
   2  -7  -5    0.10    4.10
  -2   7   5    4.20    2.20
  -2   7   5    4.10    3.50
  -2   7   5    0.80    4.90
  -2   7   5    3.00    4.20
  -2   7   5    5.30    4.50
  -2   7   5    3.80    3.40
  -2   7   5    8.50    4.10
   1  -7  -5   93.49   10.80
  -1   7   5   71.99    6.10
  -1   7   5   90.19   10.10
  -1   7   5   84.09   10.60
  -1   7   5   74.69    8.10
  -1   7   5   66.89   10.80
  -1   7   5   75.99    7.70
  -1   7   5   69.09    9.30
   0  -7  -5   84.19   12.50
   0   7   5   67.49    9.10
   0   7   5   78.39    6.70
   0   7   5   80.79    9.60
   0   7   5   80.99   10.00
   0   7   5   82.39    7.10
   0   7   5   81.79   12.20
   0   7   5   90.79    9.90
  -1  -7  -5    0.10    4.40
   1   7   5    4.60    4.40
   1   7   5   -7.90    4.00
   1   7   5    7.40    5.60
   1   7   5   -1.40    2.00
   1   7   5    1.50    3.70
   1   7   5    2.20    3.40
   3  -8  -5   -0.50    4.00
  -3   8   5    1.80    4.10
  -3   8   5    2.50    4.50
  -3   8   5    1.60    7.00
  -3   8   5    1.60    2.30
  -3   8   5   -5.90    3.60
  -3   8   5   -2.20    2.50
  -2   9  -6   25.90    7.20
   1   8  -6  -13.30    4.50
   1   8  -6   -1.30    4.10
   1   8  -6    0.60    2.40
   1   8  -6    2.50    3.90
   1   8  -6    1.10    2.40
  -1  -8   6    6.00    4.20
   0   8  -6   10.60    4.80
   0   8  -6    7.30    5.70
   0   8  -6    4.70    4.90
   0   8  -6    6.00    3.80
   0   8  -6    2.80    3.60
   0  -8   6    6.80    4.70
   0  -8   6    7.10    3.80
  -1   8  -6   85.99   11.90
  -1   8  -6   73.09   11.10
  -1   8  -6   89.39   11.70
  -1   8  -6   67.49    7.70
   1  -8   6   70.19    7.70
   1  -8   6   80.09   10.80
  -2   8  -6    8.70    4.70
  -2   8  -6    1.60    4.30
  -2   8  -6    5.90    4.40
  -2   8  -6    8.20    3.30
   2  -8   6    7.40    4.00
   2  -8   6   10.10    4.50
   2  -8   6   -5.60    4.40
   2  -8   6    4.10    2.70
  -3   8  -6   12.30    6.10
  -3   8  -6    9.30    5.20
  -3   8  -6   22.90    6.60
   3  -8   6   22.40    7.00
   3  -8   6   11.80    5.20
   3  -8   6   21.20    5.90
   3  -8   6   18.90    3.30
  -4   8  -6  103.39   11.50
  -4   8  -6  131.89   23.70
  -4   8  -6   93.99   10.80
   4  -8   6  113.49   12.90
   4  -8   6  106.09   11.00
   4  -8   6  101.79   10.80
  -5   8  -6    7.90    5.10
   5  -8   6    5.80    9.20
   5  -8   6   -0.30    3.30
   5  -8   6    4.70    4.50
   3   7  -6   -6.30    4.50
  -3  -7   6    2.10    4.90
  -3  -7   6    4.60    5.50
  -3  -7   6    6.20    4.40
   2   7  -6   14.00    6.00
   2   7  -6    3.70    4.30
  -2  -7   6   -3.70    3.80
  -2  -7   6    3.10    3.90
   1   7  -6   49.30    8.70
   1   7  -6   50.39    9.20
   1   7  -6   52.09    8.20
   1   7  -6   45.10    6.00
  -1  -7   6   72.39    9.20
  -1  -7   6   55.79    8.80
   0   7  -6  122.39   10.60
   0   7  -6  124.19   11.90
   0   7  -6  129.89   12.10
   0   7  -6  136.19   10.00
   0  -7   6  114.29   10.40
   0  -7   6  144.49   12.30
  -1   7  -6   -4.20    2.60
  -1   7  -6    3.90    4.40
  -1   7  -6    6.40    4.60
   1  -7   6   -2.50    3.40
   1  -7   6   -3.80    3.30
   1  -7   6    6.60    3.50
  -2   7  -6    2.60    2.60
  -2   7  -6   -6.20    3.50
  -2   7  -6   -3.00    3.40
   2  -7   6   -3.70    2.90
   2  -7   6    1.70    3.80
   2  -7   6    1.30    2.30
  -3   7  -6    8.10    4.60
  -3   7  -6   -2.00    3.60
   3  -7   6    6.80    2.40
   3  -7   6    1.20    4.00
  -4   7  -6   -3.20    4.30
  -4   7  -6   -1.30    3.30
   4  -7   6    3.40    4.40
   4  -7   6    1.50    4.20
   4  -7   6    1.80    3.20
  -5   7  -6   -0.10    3.70
  -5   7  -6    5.40    4.60
   5  -7   6    3.30    4.00
   5  -7   6    1.00    5.20
   5  -7   6    5.10    5.10
  -6   7  -6   12.70    6.10
  -6   7  -6   16.00    5.80
   6  -7   6    4.90   11.50
   4   6  -6   -5.90    4.40
   4   6  -6    0.90    4.30
   4   6  -6    8.40    4.30
  -4  -6   6   -5.10    3.10
  -4  -6   6    2.10    5.70
  -4  -6   6    2.30    5.10
   3   6  -6   -4.80    3.60
   3   6  -6    0.00    4.20
  -3  -6   6   -1.70    4.20
  -3  -6   6    6.00    4.00
  -3  -6   6    0.40    3.20
   2   6  -6   80.39   11.30
   2   6  -6   72.69   10.00
  -2  -6   6   61.19    8.40
  -2  -6   6   86.59   11.70
  -2  -6   6   81.49   10.70
   1   6  -6  507.15   23.10
   1   6  -6  517.75   25.50
   1   6  -6  494.95   19.10
   1   6  -6  484.15   25.00
  -1  -6   6  503.55   23.70
  -1  -6   6  495.45   26.60
   0   6  -6  240.88   14.40
   0   6  -6  217.18   15.90
   0   6  -6  214.18   18.90
   0   6  -6  232.38   13.40
   0  -6   6  256.77   14.70
  -1   6  -6  182.88   14.00
  -1   6  -6  139.49   12.80
  -1   6  -6  182.78   11.50
   1  -6   6  157.58   10.80
   1  -6   6  192.08   12.00
   1  -6   6  191.78   14.70
  -2   6  -6  614.44   28.30
  -2   6  -6  656.23   28.20
   2  -6   6  601.84   25.50
   2  -6   6  615.74   28.00
   2  -6   6  623.94   22.50
  -3   6  -6   10.40    4.80
  -3   6  -6    6.00    5.30
  -3   6  -6   16.50    5.20
   3  -6   6   -3.40    4.00
   3  -6   6   12.70    4.80
   3  -6   6   11.90    5.60
   3  -6   6    9.70    3.00
  -4   6  -6   45.70    8.40
  -4   6  -6   45.60    8.60
   4  -6   6   37.80    8.30
   4  -6   6   47.50    8.00
   4  -6   6   54.39    5.10
  -5   6  -6  110.09   11.20
  -5   6  -6   93.09   11.50
   5  -6   6   91.29    9.70
   5  -6   6   86.89    6.10
   5  -6   6   66.79   10.30
  -6   6  -6  121.19   12.40
  -6   6  -6   91.79   10.40
   6  -6   6   85.59    9.40
   6  -6   6   95.79    6.60
   6  -6   6  100.99    6.50
   6  -6   6  120.29   12.60
  -7   6  -6   24.00    6.10
   7  -6   6   24.40    3.90
   7  -6   6   21.50    8.50
   7  -6   6   21.00    3.80
   5   5  -6    8.30    4.40
   5   5  -6    3.20    5.70
   5   5  -6    0.10    5.00
  -5  -5   6    2.80    3.00
  -5  -5   6    5.40    5.40
  -5  -5   6   -0.20    4.50
   4   5  -6   -3.20    3.40
   4   5  -6   -0.80    3.90
   4   5  -6   -1.70    3.70
  -4  -5   6    0.40    2.80
  -4  -5   6    1.20    3.80
  -4  -5   6    2.70    3.70
   3   5  -6  109.09   11.20
   3   5  -6   98.19   11.00
  -3  -5   6  110.99   11.10
  -3  -5   6   90.79   18.90
  -3  -5   6   84.39    8.90
   2   5  -6  327.77   18.90
   2   5  -6  334.17   13.00
   2   5  -6  318.37   19.90
  -2  -5   6  324.77   17.10
  -2  -5   6  341.97   21.80
  -2  -5   6  358.86   29.70
   1   5  -6  446.26   23.00
   1   5  -6  450.95   23.00
   1   5  -6  457.05   21.60
   1   5  -6  457.85   18.30
  -1  -5   6  457.85   21.40
  -1  -5   6  456.25   23.30
  -1  -5   6  454.85   21.40
   0   5  -6   13.40    4.10
   0   5  -6   12.30    5.40
   0   5  -6    8.30    4.40
   0   5  -6    6.70    3.80
   0  -5   6   14.30    3.90
   0  -5   6   11.50    4.70
   0  -5   6    8.20    3.80
  -1   5  -6  330.67   18.10
  -1   5  -6  334.57   18.50
  -1   5  -6  364.76   16.70
  -1   5  -6  326.97   19.10
   1  -5   6  329.37   16.10
   1  -5   6  347.27   19.40
   1  -5   6  353.16   18.70
   1  -5   6  337.97   16.20
  -2   5  -6  290.27   18.00
  -2   5  -6  316.67   17.90
  -2   5  -6  302.57   17.30
   2  -5   6  312.07   14.50
   2  -5   6  309.27   17.60
   2  -5   6  296.07   18.00
  -3   5  -6   25.80    6.40
  -3   5  -6   26.10    6.10
   3  -5   6   33.60    6.80
   3  -5   6   23.00    4.20
   3  -5   6   22.10    6.40
  -4   5  -6    1.90    3.60
   4  -5   6    1.80    2.30
   4  -5   6    2.50    3.20
   4  -5   6   -1.10    3.90
  -5   5  -6   40.50    7.70
  -5   5  -6   33.10    7.40
   5  -5   6   41.90    6.90
   5  -5   6   41.10    5.30
  -6   5  -6   75.49   10.20
  -6   5  -6   59.69    3.90
  -6   5  -6   55.09    9.30
   6  -5   6   72.09    7.90
   6  -5   6   48.40    9.60
   6  -5   6   62.19    6.70
  -7   5  -6   -1.10    4.00
  -7   5  -6   -8.90    6.80
   7  -5   6   -3.80    4.80
   7  -5   6    2.20    2.90
   6   4  -6   12.60    6.10
   6   4  -6    6.60    2.50
   6   4  -6   -0.90    4.30
  -6  -4   6    1.40    5.00
  -6  -4   6    5.80    2.80
  -6  -4   6   -0.40    5.20
   5   4  -6   -4.10    3.90
   5   4  -6    5.50    4.20
  -5  -4   6   -5.20    3.90
  -5  -4   6   -0.30    4.20
  -5  -4   6    2.70    2.70
   4   4  -6   35.80    7.60
   4   4  -6   24.40    6.50
  -4  -4   6   26.00    6.90
  -4  -4   6   32.90    5.30
   3   4  -6  205.88   15.00
   3   4  -6  197.38   17.60
  -3  -4   6  219.38   12.90
  -3  -4   6  196.88   14.60
  -3  -4   6  178.48   14.60
   2   4  -6  419.96   21.20
   2   4  -6  410.76   21.60
   2   4  -6  400.26   16.70
  -2  -4   6  424.26   20.90
  -2  -4   6  396.36   21.10
  -2  -4   6  404.06   19.10
   1   4  -6   26.80    6.50
   1   4  -6   20.00    4.40
   1   4  -6   26.90    6.10
   1   4  -6   26.30    6.00
  -1  -4   6   24.60    5.80
  -1  -4   6   28.90    6.00
  -1  -4   6   31.10    6.60
   0   4  -6  215.48   14.60
   0   4  -6  235.38   14.60
   0   4  -6  217.38   13.40
   0   4  -6  211.98   12.90
   0  -4   6  224.98   15.00
   0  -4   6  200.78   13.00
   0  -4   6  223.48   13.90
   0  -4   6  210.28   10.50
  -1   4  -6  537.65   24.40
  -1   4  -6  503.25   22.80
  -1   4  -6  493.15   22.20
  -1   4  -6  510.45   20.90
   1  -4   6  505.65   23.60
   1  -4   6  498.15   22.40
   1  -4   6  512.55   20.90
  -2   4  -6   20.70    6.20
  -2   4  -6    8.70    4.60
   2  -4   6    6.20    4.10
   2  -4   6   17.50    5.20
   2  -4   6   10.50    3.50
  -3   4  -6   12.80    4.30
  -3   4  -6    6.10    4.40
  -3   4  -6   10.60    4.00
   3  -4   6    5.60    3.90
   3  -4   6    8.90    3.30
   3  -4   6    5.60    3.10
  -4   4  -6   15.40    7.80
  -4   4  -6    9.80    4.80
  -4   4  -6   20.80    5.40
   4  -4   6   33.90    9.60
   4  -4   6   11.90    4.00
   4  -4   6   15.40    4.00
  -5   4  -6  117.39   11.70
  -5   4  -6  102.79   10.00
  -5   4  -6  111.19   11.50
   5  -4   6  109.29    8.90
  -6   4  -6   44.70   11.70
  -6   4  -6   39.40    3.90
  -6   4  -6   32.70    8.30
   6  -4   6   40.30    5.70
  -7   4  -6    1.90    3.30
  -7   4  -6    5.50    4.30
   7  -4   6   -3.30    3.00
   6   3  -6    0.90    4.00
   6   3  -6    1.40    4.10
  -6  -3   6    0.80    4.00
  -6  -3   6    0.10    4.30
  -6  -3   6   -4.70    2.10
   5   3  -6   75.79   10.30
   5   3  -6   53.79    9.20
  -5  -3   6   57.19    9.10
  -5  -3   6   55.09    6.50
   4   3  -6   92.19   10.00
   4   3  -6  108.59   19.10
  -4  -3   6  112.79   13.30
   3   3  -6  198.98   13.90
   3   3  -6  221.08   15.70
   3   3  -6  213.98   15.00
   3   3  -6  220.68    9.00
  -3  -3   6  203.68   14.90
  -3  -3   6  216.98   14.80
   2   3  -6   22.20    5.80
   2   3  -6   32.30    7.30
   2   3  -6   26.70    6.10
  -2  -3   6   10.10    4.30
  -2  -3   6   22.60    5.40
   1   3  -6  264.07   15.60
   1   3  -6  231.38   14.10
   1   3  -6  236.58   12.70
   1   3  -6  239.98   14.80
  -1  -3   6  243.18   15.00
  -1  -3   6  257.47   15.00
   0   3  -6 1291.57   42.60
   0   3  -6 1283.57   40.60
   0   3  -6 1239.68   40.80
   0   3  -6 1253.17   40.90
   0  -3   6 1285.87   41.10
   0  -3   6 1257.27   42.40
  -1   3  -6    1.90    2.50
  -1   3  -6   -1.40    2.90
  -1   3  -6   -0.20    2.40
   1  -3   6    2.20    3.80
   1  -3   6   -1.20    2.50
  -2   3  -6   69.89    9.50
  -2   3  -6   76.19   10.80
   2  -3   6   56.19    8.50
   2  -3   6   80.49    7.80
  -3   3  -6  117.99    9.90
  -3   3  -6  134.99   11.80
  -3   3  -6  127.99   11.40
   3  -3   6  142.09   12.00
   3  -3   6  128.89    9.80
  -4   3  -6   25.20    5.40
  -4   3  -6   21.90    6.40
  -4   3  -6   28.00    6.30
   4  -3   6   25.20    4.90
   4  -3   6   16.60    5.70
  -5   3  -6   -3.30    2.10
  -5   3  -6   -1.20    2.50
  -5   3  -6   -0.90    3.20
  -5   3  -6    5.10    3.90
   5  -3   6   -2.00    2.30
  -6   3  -6   90.59    8.60
  -7   3  -6   27.10    7.30
  -7   3  -6   32.60    3.70
   7  -3   6   24.20    5.90
   7   2  -6    5.70    5.00
   7   2  -6    4.20    4.50
  -7  -2   6   -1.90    2.20
  -7  -2   6    4.00    4.60
  -7  -2   6   11.80    5.30
   6   2  -6   25.00    6.40
   6   2  -6   17.20    5.50
  -6  -2   6   22.90    6.30
   5   2  -6    0.20    3.70
   5   2  -6    4.20    4.10
  -5  -2   6    4.80    4.20
   4   2  -6  475.95   23.40
   4   2  -6  463.35   22.20
  -4  -2   6  461.55   16.00
  -4  -2   6  442.36   22.60
  -4  -2   6  455.75   22.50
   3   2  -6  578.64   24.90
   3   2  -6  595.84   25.90
   3   2  -6  518.85   25.90
  -3  -2   6  575.34   20.00
  -3  -2   6  589.34   25.70
  -3  -2   6  595.44   25.50
   2   2  -6  191.88   13.30
   2   2  -6  162.18   11.90
   2   2  -6  165.18    9.90
  -2  -2   6  157.58   11.50
  -2  -2   6  189.28   12.90
   1   2  -6 3937.01  104.69
   1   2  -6 3847.31  104.79
   1   2  -6 3916.71  102.99
  -1  -2   6 3890.61  104.99
  -1  -2   6 3979.50  102.89
  -1  -2   6 3935.71  102.99
   0   2  -6  145.69    9.30
   0   2  -6  166.78   11.50
   0   2  -6  154.18   11.20
   0   2  -6  147.39   11.10
   0  -2   6  153.28   11.10
   0  -2   6  159.28   11.30
   0  -2   6  150.38   11.20
  -1   2  -6  592.04   24.00
  -1   2  -6  557.74   24.50
   1  -2   6  580.14   23.20
   1  -2   6  567.14   23.60
  -2   2  -6   73.69    8.40
  -2   2  -6   67.79    9.50
   2  -2   6   57.49    8.30
  -3   2  -6  945.21   35.00
  -3   2  -6  983.20   31.40
  -3   2  -6  894.71   35.40
   3  -2   6  937.71   35.10
  -4   2  -6    4.30    3.80
  -4   2  -6    0.10    2.60
  -4   2  -6    2.00    3.60
   4  -2   6    3.50    2.70
   4  -2   6    8.50    4.40
  -5   2  -6  130.19    8.60
  -5   2  -6  127.59   15.70
  -5   2  -6  147.09    9.80
   5  -2   6  126.39   12.40
   5  -2   6  136.99    7.60
  -6   2  -6   49.10    8.90
  -6   2  -6   40.40    5.50
  -6   2  -6   33.40    5.30
   6  -2   6   38.00    8.70
  -7   2  -6    6.80    3.20
  -7   2  -6    9.30    4.90
  -7   2  -6    4.60    3.00
   7  -2   6    1.80    6.10
   7  -2   6    6.10    3.90
   7   1  -6   12.10    5.30
   7   1  -6    5.10    4.50
  -7  -1   6   12.30    5.10
  -7  -1   6    8.70    2.80
   6   1  -6    6.70    4.50
   6   1  -6    9.40    4.60
  -6  -1   6   -0.90    3.90
  -6  -1   6    3.40    2.30
   5   1  -6   10.30    5.10
   5   1  -6    2.70    7.10
  -5  -1   6    4.00    4.80
  -5  -1   6   11.90    3.30
   4   1  -6  104.89   10.70
   4   1  -6  109.19   10.50
   4   1  -6  101.89    6.40
  -4  -1   6   98.29   10.10
  -4  -1   6  111.69    8.10
   3   1  -6   23.40    5.70
   3   1  -6   30.60    5.60
   3   1  -6   31.40    6.60
  -3  -1   6   32.50    5.70
  -3  -1   6   32.50    6.70
   2   1  -6   20.50    4.90
   2   1  -6   11.30    4.50
   2   1  -6   15.20    4.50
   2   1  -6   13.80    5.00
  -2  -1   6   18.60    5.00
  -2  -1   6   16.70    4.00
   1   1  -6  147.79    9.90
   1   1  -6  135.59   10.30
   1   1  -6  150.78   11.20
  -1  -1   6  142.99   10.60
  -1  -1   6  141.79    8.70
  -1  -1   6  142.99   10.80
   0   1  -6   -1.60    2.30
   0   1  -6    3.70    3.00
   0  -1   6    1.30    2.40
   0  -1   6    4.00    3.70
   0  -1   6    0.30    2.20
  -1   1  -6  902.61   35.10
  -1   1  -6  740.53   28.20
   1  -1   6  934.61   36.00
   1  -1   6  746.73   28.40
  -2   1  -6  123.09   10.50
  -2   1  -6  124.59   10.90
   2  -1   6  110.09   10.70
   2  -1   6  122.39   10.30
  -3   1  -6  112.69    8.90
  -3   1  -6  119.99   10.60
  -3   1  -6  120.19   10.90
   3  -1   6  113.29   10.40
  -4   1  -6   17.20    3.40
  -4   1  -6   17.60    5.70
  -4   1  -6   14.40    4.10
   4  -1   6    4.70    4.70
  -5   1  -6  123.29   11.40
  -5   1  -6  121.39    8.00
  -5   1  -6  148.29    9.80
   5  -1   6  141.09    6.00
   5  -1   6  126.99   12.70
  -6   1  -6    7.40    4.00
  -6   1  -6    7.90    2.70
  -6   1  -6   13.30    3.80
   6  -1   6    8.90    5.40
   6  -1   6    1.70    4.00
  -7   1  -6   -1.50    2.40
  -7   1  -6   -0.80    2.90
   7  -1   6   -6.20    5.40
   7  -1   6    4.10    4.20
   8   0  -6    8.80    5.70
   8   0  -6    9.00    5.10
  -8   0   6   12.10    3.80
   7   0  -6   15.40    5.40
   7   0  -6   15.90    5.70
  -7   0   6   16.90    5.20
  -7   0   6    8.90    3.70
   6   0  -6  145.39   14.80
   6   0  -6  207.98   14.80
  -6   0   6  181.58   11.40
  -6   0   6  203.28   14.10
   5   0  -6  235.58   12.50
   5   0  -6  226.28   16.80
   5   0  -6  254.57   15.80
  -5   0   6  253.17   15.80
  -5   0   6  223.58   14.80
  -5   0   6  252.37   13.70
   4   0  -6  148.29   12.00
   4   0  -6  135.49    8.60
   4   0  -6  143.29   11.60
  -4   0   6  140.59   11.40
  -4   0   6  145.19   11.60
  -4   0   6  147.09   10.40
   3   0  -6   47.50    7.40
   3   0  -6   71.99    9.20
   3   0  -6   59.39    7.30
   3   0  -6   67.19    5.80
  -3   0   6   63.19    8.90
  -3   0   6   57.89    7.10
   2   0  -6  775.12   29.10
   2   0  -6  734.23   28.10
   2   0  -6  766.62   25.60
   2   0  -6  788.32   28.90
  -2   0   6  782.12   28.80
  -2   0   6  747.13   28.80
  -2   0   6  796.52   24.90
   1   0  -6   22.90    4.00
   1   0  -6   16.20    4.20
   1   0  -6   18.00    5.00
  -1   0   6   26.00    6.10
  -1   0   6   28.80    6.00
   0   0  -6    0.90    2.10
   0   0  -6    2.20    2.30
   0   0  -6   -0.70    2.20
   0   0   6   -0.40    2.00
   0   0   6    0.40    2.30
  -1   0  -6  936.51   25.70
  -1   0  -6 1110.29   33.60
  -1   0  -6 1073.39   37.30
   1   0   6 1044.10   33.10
   1   0   6 1062.89   37.30
  -2   0  -6   21.30    2.80
  -2   0  -6    9.20    3.70
   2   0   6   22.40    5.20
   2   0   6    9.30    3.70
  -3   0  -6    1.90    3.10
  -3   0  -6    0.50    1.30
  -3   0  -6   -1.70    2.80
   3   0   6    3.30    3.40
  -4   0  -6   16.70    2.60
  -4   0  -6   17.80    5.40
  -4   0  -6   21.90    5.30
   4   0   6   14.80    5.10
  -5   0  -6   81.69    5.00
  -5   0  -6   84.69    8.30
  -5   0  -6   90.79    9.40
   5   0   6   52.49    8.90
  -6   0  -6    9.10    4.00
  -6   0  -6    6.50    4.50
   6   0   6   14.60    6.10
   6   0   6   13.30    5.80
  -7   0  -6   10.20    4.10
  -7   0  -6   10.30    4.90
   7   0   6    1.50    4.70
   7   0   6   15.50    6.60
   8  -1  -6    8.00    5.50
   8  -1  -6    8.30    5.40
   8  -1  -6    2.40    3.70
   8  -1  -6    5.40    4.40
  -8   1   6    0.40    3.20
  -8   1   6   -1.40    3.90
  -8   1   6    5.00    4.10
   7  -1  -6   -0.10    3.40
   7  -1  -6   -1.50    3.90
   7  -1  -6   -3.50    2.80
  -7   1   6    0.40    4.00
  -7   1   6    0.90    3.80
  -7   1   6    3.30    2.70
   6  -1  -6   -0.10    3.20
   6  -1  -6    3.50    4.60
   6  -1  -6    0.40    3.10
  -6   1   6    3.40    3.60
  -6   1   6    2.90    3.10
  -6   1   6    4.70    4.00
   5  -1  -6    3.00    3.50
   5  -1  -6    4.90    3.00
   5  -1  -6   11.10    5.20
  -5   1   6    2.00    2.70
  -5   1   6    0.80    3.40
  -5   1   6    3.10    3.50
   4  -1  -6  277.67   16.50
   4  -1  -6  270.57   14.30
   4  -1  -6  284.27   15.60
  -4   1   6  279.97   16.40
  -4   1   6  286.37   16.30
  -4   1   6  268.77   15.00
   3  -1  -6   11.80    3.90
   3  -1  -6   11.60    5.10
   3  -1  -6   13.20    4.40
   3  -1  -6   21.00    5.30
  -3   1   6   19.20    5.40
  -3   1   6    7.80    4.00
  -3   1   6   10.70    4.10
   2  -1  -6   47.10    4.20
   2  -1  -6   48.90    7.20
   2  -1  -6   52.29    8.10
  -2   1   6   50.89    6.90
  -2   1   6   42.00    6.40
  -2   1   6   63.59    7.50
  -2   1   6   36.90    6.10
   1  -1  -6  109.79    5.30
   1  -1  -6   95.69    7.90
   1  -1  -6   87.09    9.60
  -1   1   6   96.99    9.20
  -1   1   6   83.49    7.50
  -1   1   6   87.09    9.30
  -1   1   6  103.39    8.80
   0  -1  -6 2126.29   56.19
   0   1   6 2165.08   64.29
   0   1   6 2067.89   55.19
  -1  -1  -6    0.90    1.20
  -1  -1  -6    0.40    2.50
   1   1   6    1.40    2.50
   1   1   6    2.00    2.60
  -2  -1  -6  499.15   23.00
  -2  -1  -6  541.45   23.80
  -2  -1  -6  525.35   18.10
   2   1   6  540.15   23.80
   2   1   6  526.65   21.50
  -3  -1  -6   28.90    6.00
  -3  -1  -6   23.00    6.50
  -3  -1  -6   23.00    4.10
   3   1   6   30.60    6.80
   3   1   6   22.70    5.50
  -4  -1  -6   81.59    8.70
  -4  -1  -6   81.19    9.00
   4   1   6   57.09    8.90
  -5  -1  -6   19.10    4.90
  -5  -1  -6   20.60    5.10
   5   1   6   21.30    5.90
   5   1   6   20.00    6.30
  -6  -1  -6    8.80    5.70
  -6  -1  -6   29.10    6.30
   6   1   6   22.70    7.10
   6   1   6   11.60    5.60
   8  -2  -6    2.40    4.80
   8  -2  -6   12.80    4.30
   8  -2  -6   13.80    5.90
   8  -2  -6    5.80    4.20
  -8   2   6    5.30    4.50
  -8   2   6   13.00    4.40
  -8   2   6    6.00    4.30
   7  -2  -6   85.59   10.20
   7  -2  -6  104.09    9.40
   7  -2  -6   83.19    9.10
   7  -2  -6   71.09   10.30
  -7   2   6   98.59   12.20
  -7   2   6   92.29   10.60
   6  -2  -6  149.29   17.40
   6  -2  -6  175.98   12.50
   6  -2  -6  190.78   12.40
   6  -2  -6  160.38   12.00
  -6   2   6  178.78   13.40
  -6   2   6  168.48   11.90
  -6   2   6  178.68   13.30
   5  -2  -6   12.90    4.50
   5  -2  -6   15.00    4.40
   5  -2  -6    4.10    3.60
   5  -2  -6   17.10    5.80
  -5   2   6    0.30    3.60
  -5   2   6   10.90    3.70
  -5   2   6   10.90    4.20
   4  -2  -6    4.30    3.40
   4  -2  -6   13.70    4.70
   4  -2  -6    4.40    3.40
   4  -2  -6    2.30    2.40
  -4   2   6    8.30    4.50
  -4   2   6    2.40    3.10
  -4   2   6    4.70    3.30
   3  -2  -6  112.69    9.90
   3  -2  -6  108.19    6.10
   3  -2  -6  111.79    9.70
  -3   2   6  104.09    9.60
  -3   2   6  110.79   10.80
  -3   2   6  110.49    8.70
  -3   2   6  116.19    9.90
   2  -2  -6  388.16   17.90
   2  -2  -6  391.86   20.70
  -2   2   6  405.16   18.00
  -2   2   6  388.06   17.90
  -2   2   6  422.86   21.30
  -2   2   6  379.56   18.90
   1  -2  -6 1637.94   53.29
   1  -2  -6 1631.64   46.90
  -1   2   6 1639.94   46.90
  -1   2   6 1604.44   51.49
  -1   2   6 1647.54   52.89
   0  -2  -6    7.10    4.10
   0  -2  -6    1.70    1.70
   0  -2  -6    3.50    3.30
   0   2   6    0.30    1.70
   0   2   6    1.40    3.70
   0   2   6    2.50    1.60
   0   2   6    0.50    1.50
  -1  -2  -6  239.98   15.00
  -1  -2  -6  241.68   15.60
   1   2   6  245.48   15.30
   1   2   6  255.87   12.10
  -2  -2  -6   84.29    9.70
  -2  -2  -6   83.29    8.70
  -2  -2  -6   93.89    7.00
   2   2   6   79.29    8.90
   2   2   6   84.89    7.90
  -3  -2  -6   86.99    7.90
  -3  -2  -6  107.69    9.70
  -3  -2  -6   93.69   10.40
   3   2   6  112.99   10.20
   3   2   6  114.69   10.20
  -4  -2  -6    5.30    3.20
  -4  -2  -6   -3.20    3.40
  -4  -2  -6    3.40    2.60
   4   2   6   -0.70    1.60
   4   2   6    7.00    4.30
  -5  -2  -6   50.09    8.30
  -5  -2  -6   59.59    7.80
  -5  -2  -6   46.50    7.20
   5   2   6   41.60    7.80
   5   2   6   24.20    6.50
  -6  -2  -6   26.80    6.10
  -6  -2  -6   25.80    5.50
  -6  -2  -6   26.80    6.40
   6   2   6   23.30    6.20
   6   2   6   18.80    7.10
   8  -3  -6    2.30    5.40
   8  -3  -6    1.50    4.10
   8  -3  -6    4.50    3.70
  -8   3   6    2.20    4.00
  -8   3   6   -2.50    3.40
  -8   3   6   -4.30    4.20
   7  -3  -6    0.40    3.00
   7  -3  -6   -0.20    3.40
   7  -3  -6   -7.20    3.90
  -7   3   6    5.20    4.30
  -7   3   6   -0.50    3.00
  -7   3   6   13.60    5.10
   6  -3  -6    4.20    2.80
   6  -3  -6   -1.20    3.40
   6  -3  -6    2.50    3.10
  -6   3   6    1.00    2.60
  -6   3   6    2.40    3.80
  -6   3   6    1.10    3.20
   5  -3  -6  106.89   10.40
   5  -3  -6  105.19    8.10
   5  -3  -6  102.69   10.80
   5  -3  -6  100.09    8.40
  -5   3   6   95.89   10.80
  -5   3   6  100.79    8.10
  -5   3   6   90.19   10.10
   4  -3  -6   77.49    8.30
   4  -3  -6   55.69    8.60
   4  -3  -6   59.19    8.80
  -4   3   6   83.99    9.80
  -4   3   6   69.39    6.90
  -4   3   6   80.09    9.20
   3  -3  -6  178.98   12.90
   3  -3  -6  205.48   14.10
  -3   3   6  188.18   13.70
  -3   3   6  166.18   13.60
  -3   3   6  199.38   11.30
  -3   3   6  203.78   13.00
   2  -3  -6   35.90    6.10
   2  -3  -6   24.60    7.30
   2  -3  -6   30.10    6.20
  -2   3   6   28.80    5.50
  -2   3   6   31.50    5.50
  -2   3   6   29.10    6.80
  -2   3   6   23.50    5.40
   1  -3  -6  659.73   23.70
   1  -3  -6  692.63   29.10
   1  -3  -6  660.13   27.80
  -1   3   6  674.03   23.30
  -1   3   6  705.53   29.40
  -1   3   6  688.83   23.80
  -1   3   6  666.13   28.90
   0  -3  -6  125.09    9.40
   0  -3  -6  117.39   10.90
   0  -3  -6  128.69   11.30
   0   3   6  113.89   10.80
   0   3   6   96.99   10.40
   0   3   6  115.69    6.80
   0   3   6  120.29    6.50
   0   3   6  125.99    8.20
  -1  -3  -6    1.60    3.60
  -1  -3  -6    4.10    3.80
   1   3   6    0.90    2.50
   1   3   6   -1.00    2.20
  -2  -3  -6  137.39   12.50
  -2  -3  -6  165.38   12.10
  -2  -3  -6  141.59    9.70
   2   3   6  141.39   10.40
   2   3   6  143.99   11.40
  -3  -3  -6   -0.30    2.60
  -3  -3  -6    3.60    3.00
  -3  -3  -6   -1.50    3.30
   3   3   6    6.00    3.70
   3   3   6    4.30    2.50
   3   3   6    2.90    3.30
  -4  -3  -6   34.10    6.00
  -4  -3  -6   35.70    7.40
  -4  -3  -6   30.10    5.80
   4   3   6   28.60    3.70
   4   3   6   40.20    8.00
   4   3   6   20.00    6.20
  -5  -3  -6    9.30    3.80
  -5  -3  -6    9.90    4.90
  -5  -3  -6    2.80    3.90
   5   3   6    5.90    5.10
   5   3   6    9.90    6.00
   8  -4  -6   73.39   11.30
   8  -4  -6   71.79    7.30
   8  -4  -6   66.49    9.20
  -8   4   6   50.69    9.30
  -8   4   6   41.60    7.30
  -8   4   6   73.19   10.20
   7  -4  -6    0.70    2.40
   7  -4  -6    1.40    2.70
   7  -4  -6   -3.50    3.20
   7  -4  -6    1.50    5.00
   7  -4  -6   -4.00    2.90
  -7   4   6    0.50    3.20
  -7   4   6    4.20    4.20
  -7   4   6    0.50    2.40
   6  -4  -6    9.70    4.90
   6  -4  -6   17.00    4.10
   6  -4  -6   10.80    3.40
  -6   4   6   15.40    3.40
  -6   4   6   12.00    5.40
  -6   4   6    7.90    4.50
   5  -4  -6   -0.90    3.20
   5  -4  -6    0.40    2.20
   5  -4  -6    0.60    3.50
   5  -4  -6   -1.00    2.60
  -5   4   6    0.10    3.20
  -5   4   6    0.30    2.10
  -5   4   6   -0.30    2.90
   4  -4  -6   46.30    7.70
   4  -4  -6   45.20    8.90
   4  -4  -6   51.19    3.80
   4  -4  -6   38.80    6.40
  -4   4   6   49.99    5.70
  -4   4   6   47.60    8.00
  -4   4   6   55.99    9.40
   3  -4  -6    3.10    3.10
   3  -4  -6    0.80    3.10
   3  -4  -6    0.70    3.50
  -3   4   6    1.10    3.30
  -3   4   6    1.20    2.50
  -3   4   6   -1.10    3.20
  -3   4   6    3.50    3.20
   2  -4  -6   36.80    7.60
   2  -4  -6   41.20    6.50
  -2   4   6   33.50    5.80
  -2   4   6   28.90    6.20
  -2   4   6   29.80    7.50
   1  -4  -6  213.38   11.70
   1  -4  -6  234.08   15.50
  -1   4   6  213.78   15.30
  -1   4   6  229.58   11.90
  -1   4   6  226.38   12.40
  -1   4   6  229.18   16.00
   0  -4  -6  230.38   15.40
   0  -4  -6  226.78   15.70
   0   4   6  208.38   10.90
   0   4   6  241.48   18.90
   0   4   6  236.28   10.20
   0   4   6  224.98   12.50
   0   4   6  249.18   15.90
  -1  -4  -6   38.40    7.20
   1   4   6   34.00    6.20
   1   4   6   34.60    2.40
   1   4   6   49.60    8.70
   1   4   6   45.00    9.50
  -2  -4  -6   17.20    5.70
  -2  -4  -6   19.20    5.50
   2   4   6    9.20    4.30
   2   4   6   24.40    4.90
  -3  -4  -6    8.00    3.80
  -3  -4  -6   10.30    3.60
  -3  -4  -6   12.90    5.70
   3   4   6    0.00    4.10
   3   4   6    4.60    3.10
   3   4   6    8.20    4.00
   3   4   6    8.70    4.30
  -4  -4  -6   19.30    5.70
  -4  -4  -6   26.70    5.20
  -4  -4  -6   16.10    6.00
   4   4   6   13.40    3.10
   4   4   6   15.40    5.90
   4   4   6   18.40    6.10
   7  -5  -6   57.89    4.90
   7  -5  -6   39.40    8.40
   7  -5  -6   63.59   10.60
   7  -5  -6   45.90    6.50
  -7   5   6   55.39    9.20
  -7   5   6   33.40    7.20
  -7   5   6   67.39    9.10
   6  -5  -6   10.70    3.40
   6  -5  -6   11.30    3.70
   6  -5  -6    1.80    3.50
   6  -5  -6   12.20    5.40
  -6   5   6    7.50    4.50
  -6   5   6    2.60    2.20
  -6   5   6   20.20    7.00
  -6   5   6   -2.10    3.90
   5  -5  -6   26.60    7.20
   5  -5  -6   23.40    5.20
   5  -5  -6   25.90    3.60
  -5   5   6   20.30    5.30
  -5   5   6   29.30    3.90
  -5   5   6   35.80    7.10
   4  -5  -6    0.70    3.40
   4  -5  -6    3.40    3.70
   4  -5  -6    1.30    3.80
  -4   5   6    5.10    4.10
  -4   5   6   -1.20    2.10
   3  -5  -6  426.06   20.60
   3  -5  -6  430.36   20.90
  -3   5   6  436.16   23.70
  -3   5   6  393.16   19.70
  -3   5   6  478.45   23.90
  -3   5   6  425.46   17.00
   2  -5  -6  210.78   14.70
   2  -5  -6  197.98   12.40
  -2   5   6  187.38   12.20
  -2   5   6  184.18   12.20
  -2   5   6  218.28   16.30
   1  -5  -6  207.38   18.30
  -1   5   6  259.57   13.00
  -1   5   6  246.38   14.20
  -1   5   6  265.57   17.10
  -1   5   6  260.27   16.10
  -1   5   6  270.07    9.10
   0  -5  -6   95.89   13.20
   0   5   6  108.39    7.00
   0   5   6  104.49   10.10
   0   5   6  107.09    9.30
   0   5   6  110.69   11.00
   0   5   6  100.79    6.90
   0   5   6   97.09   11.20
  -1  -5  -6   28.60    7.50
   1   5   6   36.50    2.80
   1   5   6   37.10    7.10
   1   5   6   22.40    5.60
   1   5   6   36.10    8.70
  -2  -5  -6   24.50    6.90
   2   5   6   33.00    7.90
   2   5   6   33.00    6.90
   2   5   6   34.00    6.50
   2   5   6   29.60    6.60
  -3  -5  -6   42.10    9.30
   3   5   6   46.30    7.20
   3   5   6   42.60    5.90
   3   5   6   29.70    7.20
   7  -6  -6    2.80    3.10
   7  -6  -6    4.00    7.90
   7  -6  -6   -9.80    5.20
   7  -6  -6    1.80    3.20
  -7   6   6    4.00    5.00
  -7   6   6   -3.70    3.60
  -7   6   6    2.90    4.70
   6  -6  -6    5.70    6.10
   6  -6  -6   11.60    6.30
   6  -6  -6   17.30    4.40
   6  -6  -6    6.50    2.80
  -6   6   6    5.80    4.90
  -6   6   6   15.00    6.10
  -6   6   6    7.10    4.80
   5  -6  -6   46.60    7.30
   5  -6  -6   31.00    6.30
   5  -6  -6   25.60    6.40
  -5   6   6   34.80    3.10
  -5   6   6   39.00    8.90
  -5   6   6   23.10    7.10
  -5   6   6   30.50    6.90
   4  -6  -6   19.50    5.40
  -4   6   6    8.90    4.90
  -4   6   6    5.90    4.30
  -4   6   6   18.10    6.00
  -4   6   6   15.20    2.90
   3  -6  -6    9.80    4.30
  -3   6   6   20.80    6.50
  -3   6   6    8.10    4.10
  -3   6   6   16.10    5.00
  -3   6   6    4.20    4.90
  -3   6   6   12.30    3.40
   2  -6  -6   16.80    5.80
  -2   6   6   28.00    6.70
  -2   6   6    9.70    5.20
  -2   6   6   23.00    5.30
   1  -6  -6   -0.10    3.10
  -1   6   6    1.10    2.70
  -1   6   6   -7.80    5.80
  -1   6   6   -0.30    1.50
  -1   6   6   -1.30    3.70
  -1   6   6   -2.20    3.70
  -1   6   6   -1.10    3.40
   0  -6  -6   41.40    8.40
   0   6   6   44.20    9.10
   0   6   6   51.79    9.30
   0   6   6   35.60    4.70
   0   6   6   38.50    7.40
   0   6   6   37.20    4.80
   0   6   6   26.10    6.10
   0   6   6   35.20    6.40
  -1  -6  -6   -1.10    3.20
   1   6   6    3.50    2.70
   1   6   6   -0.70    3.60
   1   6   6   -1.80    3.80
   1   6   6    2.30    1.50
   1   6   6   -0.50    3.70
   1   6   6   -1.20    3.60
  -2  -6  -6   10.40    5.50
   2   6   6    6.90    4.50
   2   6   6    5.90    5.20
   2   6   6   10.00    5.70
   2   6   6   10.90    5.20
   2   6   6    9.00    4.30
   5  -7  -6   39.70    9.60
   5  -7  -6   60.09    9.30
   5  -7  -6   43.90    8.50
  -5   7   6   70.19   10.10
  -5   7   6   54.39   11.60
  -5   7   6   57.79    9.30
   4  -7  -6    7.00    4.80
   4  -7  -6   24.80    6.30
  -4   7   6   16.40    2.80
  -4   7   6   26.40    7.20
  -4   7   6   20.30    6.70
  -4   7   6   10.50    5.20
   3  -7  -6   -3.70    3.20
  -3   7   6    1.70    2.60
  -3   7   6    2.30    3.50
  -3   7   6    0.10    2.40
  -3   7   6    5.00    4.40
  -3   7   6   -3.20    3.50
  -3   7   6    1.90    4.00
   2  -7  -6    7.00    4.50
  -2   7   6    3.00    4.00
  -2   7   6    2.30    3.90
  -2   7   6    7.90    4.40
  -2   7   6    4.90    6.40
  -2   7   6    5.60    3.30
  -2   7   6    2.80    5.30
   1  -7  -6   -3.60    3.10
  -1   7   6   -8.10    4.40
  -1   7   6   -1.60    3.40
  -1   7   6   -3.20    2.80
  -1   7   6    4.00    5.40
  -1   7   6    1.20    1.90
  -1   7   6   -2.30    3.80
   0  -7  -6    4.80    5.00
   0   7   6    0.40    3.70
   0   7   6   -4.20    4.50
   0   7   6   -7.60    3.70
   0   7   6   -3.60    3.90
   0   7   6    0.80    2.50
   0   7   6   -0.50    2.40
   1   8  -7   23.90    4.30
   1   8  -7   23.70    6.90
   1   8  -7   20.10    5.80
   1   8  -7   32.10   11.40
  -1  -8   7   27.10    6.20
  -1  -8   7   10.70    4.90
   0   8  -7   69.69   11.10
   0   8  -7   76.39    8.70
   0   8  -7   64.59    8.40
   0   8  -7   91.49   11.90
   0  -8   7   66.29    9.40
   0  -8   7   70.79    8.60
  -1   8  -7   20.50    4.70
  -1   8  -7   29.80    7.50
  -1   8  -7   16.40    7.60
  -1   8  -7   32.50    7.60
  -1   8  -7   35.10    6.90
   1  -8   7   15.80    5.50
   1  -8   7   28.40    5.50
  -2   8  -7   36.90    8.10
  -2   8  -7   45.80    8.80
  -2   8  -7   23.20    6.60
  -2   8  -7   39.00    7.90
   2  -8   7   20.90    5.70
   2  -8   7   34.20    5.40
   2  -8   7   37.70    7.80
   2  -8   7   27.20    7.60
  -3   8  -7   21.30    6.30
  -3   8  -7   11.00    5.00
  -3   8  -7   16.80    5.90
   3  -8   7   21.80    6.90
   3  -8   7   19.90    6.10
   3  -8   7   35.60    6.90
   3  -8   7   22.50    4.10
  -4   8  -7    0.60    4.40
  -4   8  -7    1.00    6.00
  -4   8  -7    3.60    4.10
   4  -8   7    5.30    4.50
   4  -8   7   -0.80    4.50
  -5   8  -7    0.20    4.70
  -5   8  -7   -3.80    4.80
  -5   8  -7    5.80    4.60
   5  -8   7    0.30    4.40
   5  -8   7    3.10    4.10
   5  -8   7   -2.60    5.50
   3   7  -7    0.00    4.20
   3   7  -7    2.90    4.90
  -3  -7   7   14.70    5.90
  -3  -7   7   -5.50    4.60
  -3  -7   7    1.20    4.10
   2   7  -7   10.20    5.70
   2   7  -7    5.00    4.60
  -2  -7   7   11.40    4.70
  -2  -7   7   12.50    5.10
   1   7  -7   50.19    9.10
   1   7  -7   50.89    9.30
   1   7  -7   38.90    5.80
   1   7  -7   45.90    7.70
  -1  -7   7   49.40    9.00
  -1  -7   7   43.80    7.60
   0   7  -7   18.10    4.70
   0   7  -7    9.20    4.10
   0   7  -7   14.00    5.40
   0   7  -7   24.10    7.10
   0  -7   7   20.10    5.70
   0  -7   7   15.80    5.80
  -1   7  -7   11.90    4.20
  -1   7  -7   11.10    5.40
  -1   7  -7    7.70    5.40
  -1   7  -7   15.80    5.80
   1  -7   7    7.50    3.80
   1  -7   7   10.80    4.70
   1  -7   7    2.60    3.30
  -2   7  -7    2.00    3.50
  -2   7  -7    3.40    3.80
  -2   7  -7   -1.30    3.60
   2  -7   7    7.10    5.20
   2  -7   7    0.70    3.00
   2  -7   7    0.60    3.70
   2  -7   7    1.70    2.40
  -3   7  -7   12.20    5.50
  -3   7  -7   17.50    5.80
  -3   7  -7   11.30    5.40
   3  -7   7   13.10    5.90
   3  -7   7    7.00    4.80
   3  -7   7   17.20    4.00
  -4   7  -7   18.80    6.00
  -4   7  -7   17.80    6.20
  -4   7  -7   36.10    7.30
   4  -7   7   23.20    3.70
   4  -7   7   43.80    8.10
   4  -7   7   40.80    8.70
   4  -7   7   22.90    7.00
  -5   7  -7    1.00    4.20
  -5   7  -7    4.20    4.20
   5  -7   7    0.50    1.90
   5  -7   7    4.40    4.80
   5  -7   7    6.00    4.60
  -6   7  -7   40.30    7.70
  -6   7  -7   44.40    8.30
   6  -7   7   35.50    8.90
   6  -7   7   38.60    5.30
   6  -7   7   26.90    6.90
   4   6  -7    7.60    4.90
   4   6  -7   11.40    5.70
  -4  -6   7    3.90    4.70
  -4  -6   7   -0.30    3.30
   3   6  -7    0.90    4.10
   3   6  -7    2.10    4.40
  -3  -6   7    5.00    4.60
  -3  -6   7    9.60    5.10
  -3  -6   7    0.30    3.10
   2   6  -7  159.38    8.10
   2   6  -7  172.38   13.30
   2   6  -7  153.08   13.50
  -2  -6   7  161.38   14.10
  -2  -6   7  172.68   12.60
   1   6  -7  242.08   12.70
   1   6  -7  245.58   16.90
   1   6  -7  246.88   15.50
  -1  -6   7  244.58   15.60
  -1  -6   7  256.57   16.20
   0   6  -7   71.19    9.80
   0   6  -7   55.49    9.20
   0   6  -7   88.89    9.30
   0   6  -7   65.69    7.70
   0  -6   7   69.49    6.70
   0  -6   7   83.49    8.80
   0  -6   7   69.19    9.60
  -1   6  -7    2.80    3.50
  -1   6  -7   -1.10    2.70
  -1   6  -7    1.40    2.90
  -1   6  -7    6.50    4.30
   1  -6   7    5.20    3.20
   1  -6   7   -0.70    3.80
   1  -6   7    1.40    2.70
   1  -6   7    7.80    4.10
  -2   6  -7   43.70    8.50
  -2   6  -7   39.70    7.40
  -2   6  -7   39.70    7.40
   2  -6   7   37.40    5.90
   2  -6   7   41.60    8.20
   2  -6   7   39.10    7.70
   2  -6   7   28.90    6.70
  -3   6  -7   10.20    5.70
  -3   6  -7    6.10    4.20
  -3   6  -7   12.10    4.70
   3  -6   7   12.00    3.90
   3  -6   7   12.30    5.60
   3  -6   7   25.30    6.00
  -4   6  -7   81.59   11.50
  -4   6  -7   86.89   11.20
   4  -6   7   90.29    9.60
   4  -6   7   85.19    6.90
  -5   6  -7   84.19   11.00
  -5   6  -7   70.19   10.60
   5  -6   7   70.39    9.40
   5  -6   7   67.09    6.10
   5  -6   7   36.50    8.30
  -6   6  -7   -2.60    4.00
  -6   6  -7   -0.40    7.20
  -6   6  -7   -2.20    4.00
   6  -6   7   -4.30    3.50
   6  -6   7    3.70    2.70
   5   5  -7    7.70    4.80
  -5  -5   7    3.40    4.70
   4   5  -7   10.80    5.60
   4   5  -7   11.40    5.90
   4   5  -7   16.30    5.60
  -4  -5   7    9.80    4.50
  -4  -5   7    5.70    4.70
  -4  -5   7   18.30    6.20
   3   5  -7   40.50    7.90
   3   5  -7   36.10    8.00
  -3  -5   7   45.20    8.60
  -3  -5   7   36.20    6.40
   2   5  -7   65.49   10.70
   2   5  -7   52.99    8.90
   2   5  -7   53.39    5.10
  -2  -5   7   39.80    7.10
  -2  -5   7   46.80    8.60
  -2  -5   7   58.99    9.40
   1   5  -7   12.40    5.80
   1   5  -7   14.30    5.50
   1   5  -7   22.70    5.10
   1   5  -7   25.80    6.20
  -1  -5   7   23.70    5.80
  -1  -5   7   19.10    5.20
  -1  -5   7   20.10    5.80
   0   5  -7   57.89    8.90
   0   5  -7   67.29    8.80
   0   5  -7   70.09    9.80
   0   5  -7   62.89    7.70
   0  -5   7   58.69    5.80
   0  -5   7   74.09    9.60
   0  -5   7   57.39    7.80
  -1   5  -7  318.77   17.80
  -1   5  -7  300.37   17.20
  -1   5  -7  285.37   15.40
  -1   5  -7  300.97   18.50
   1  -5   7  310.77   16.00
   1  -5   7  282.67   17.70
   1  -5   7  278.27   14.60
   1  -5   7  341.37   18.30
  -2   5  -7    1.40    3.20
  -2   5  -7    1.80    3.60
  -2   5  -7    1.10    2.90
   2  -5   7   -5.80    2.50
   2  -5   7   -1.10    3.00
   2  -5   7   -0.60    2.50
  -3   5  -7  729.73   32.90
  -3   5  -7  764.42   32.30
  -3   5  -7  799.62   31.40
   3  -5   7  846.92   31.40
   3  -5   7  766.82   26.80
   3  -5   7  773.42   32.70
  -4   5  -7  454.65   23.40
  -4   5  -7  423.86   25.40
   4  -5   7  435.96   20.70
   4  -5   7  474.35   18.70
  -5   5  -7  164.08   14.20
  -5   5  -7  176.48   12.80
   5  -5   7  161.38   10.50
   5  -5   7  165.18   11.70
  -6   5  -7   14.30    6.20
  -6   5  -7   21.50    6.40
  -6   5  -7   15.90    5.50
   6  -5   7   14.90    6.80
   6  -5   7   17.60    4.70
   6  -5   7   21.90    4.60
  -7   5  -7   58.09    9.10
  -7   5  -7   67.69    9.20
   7  -5   7   77.69   11.70
   7  -5   7   82.89    8.20
   6   4  -7   22.50    6.00
   6   4  -7   37.80    8.00
  -6  -4   7   36.10    8.40
  -6  -4   7   42.00    8.60
  -6  -4   7   32.90    5.30
   5   4  -7   -0.70    3.90
   5   4  -7   -0.70    4.10
  -5  -4   7   -1.20    3.70
  -5  -4   7    0.70    4.20
  -5  -4   7    3.40    2.70
   4   4  -7   12.00    5.20
   4   4  -7   20.90    6.50
   4   4  -7   22.00    6.20
  -4  -4   7    5.50    4.70
  -4  -4   7   10.40    3.90
   3   4  -7  815.52   34.40
   3   4  -7  720.43   40.40
  -3  -4   7  844.82   33.40
  -3  -4   7  839.72   38.80
   2   4  -7   16.60    5.60
   2   4  -7   21.90    4.20
   2   4  -7   19.30    6.00
  -2  -4   7   13.60    5.30
  -2  -4   7   19.20    5.70
   1   4  -7    5.20    2.90
   1   4  -7    6.60    3.80
   1   4  -7    3.90    3.60
   1   4  -7    8.20    4.10
  -1  -4   7    1.70    3.10
  -1  -4   7    6.80    4.10
   0   4  -7  208.18   13.20
   0   4  -7  187.18   12.40
   0   4  -7  193.18   13.10
   0   4  -7  182.28   13.50
   0  -4   7  176.38    9.30
   0  -4   7  157.88   12.90
   0  -4   7  181.28   12.60
  -1   4  -7  163.38   11.80
  -1   4  -7  168.98   11.70
  -1   4  -7  163.68   12.50
  -1   4  -7  173.88   13.40
   1  -4   7  180.18   13.60
   1  -4   7  178.08   12.50
   1  -4   7  167.08   11.50
  -2   4  -7   55.79    7.70
  -2   4  -7   49.30    8.10
  -2   4  -7   47.30    7.90
   2  -4   7   49.10    8.30
   2  -4   7   44.40    6.40
   2  -4   7   43.60    7.50
  -3   4  -7   40.50    7.80
  -3   4  -7   14.90    4.80
  -3   4  -7   43.40    7.60
   3  -4   7   26.90    5.00
   3  -4   7   32.90    6.30
   3  -4   7   26.10    6.50
  -4   4  -7    4.50    3.60
  -4   4  -7    1.50    3.40
  -4   4  -7    1.60    3.30
   4  -4   7    2.70    3.00
   4  -4   7   -3.20    3.40
   4  -4   7   -2.00    3.00
  -5   4  -7   -2.30    3.20
  -5   4  -7   -0.90    3.20
   5  -4   7    2.30    3.20
  -6   4  -7   45.90    7.50
  -6   4  -7   40.30    8.50
  -6   4  -7   46.50    5.10
   6  -4   7   27.80    7.10
   6  -4   7   29.90    5.10
  -7   4  -7   43.80    3.40
  -7   4  -7   53.29    7.80
  -7   4  -7   56.89   11.40
   7  -4   7   56.09   10.00
   7  -4   7   70.59    8.20
   6   3  -7   23.10    6.50
   6   3  -7   22.60    6.50
  -6  -3   7   13.90    3.90
  -6  -3   7   22.40    6.20
   5   3  -7   73.79   10.70
   5   3  -7   60.99    9.30
  -5  -3   7   54.69    8.90
   4   3  -7  176.78   14.40
   4   3  -7  174.18   13.40
   3   3  -7   53.19    8.70
   3   3  -7   72.59   10.00
   3   3  -7   60.89    5.70
   3   3  -7   84.99   11.20
  -3  -3   7   63.29    9.50
  -3  -3   7   57.49    8.70
   2   3  -7   98.09    7.60
   2   3  -7   93.69   10.00
   2   3  -7  104.79   10.50
  -2  -3   7  102.39   10.10
  -2  -3   7   99.99   10.10
   1   3  -7   93.39    9.70
   1   3  -7   91.89    9.80
   1   3  -7  109.09    8.90
  -1  -3   7  111.69   10.30
  -1  -3   7  103.39    9.30
   0   3  -7  354.36   18.70
   0   3  -7  343.97   17.90
   0   3  -7  369.96   17.10
   0   3  -7  329.97   17.60
   0  -3   7  373.36   19.10
   0  -3   7  364.16   18.20
  -1   3  -7  491.65   20.20
  -1   3  -7  509.15   23.60
  -1   3  -7  519.85   23.40
   1  -3   7  509.55   22.00
   1  -3   7  530.25   23.70
  -2   3  -7    5.80    4.30
  -2   3  -7   11.60    4.50
   2  -3   7    3.20    3.20
   2  -3   7    5.30    3.60
  -3   3  -7  454.75   22.70
  -3   3  -7  445.96   20.20
   3  -3   7  443.26   22.60
   3  -3   7  487.15   20.20
  -4   3  -7   15.60    5.50
  -4   3  -7   27.10    5.70
  -4   3  -7   17.90    7.30
   4  -3   7   30.10    5.40
  -5   3  -7    0.30    2.70
  -5   3  -7   -6.80    2.70
  -5   3  -7   -1.50    3.20
   5  -3   7    0.80    2.50
   5  -3   7    3.60    5.30
  -6   3  -7   -3.90    2.80
  -6   3  -7    4.30    4.00
  -6   3  -7   -2.10    2.30
   6  -3   7    2.10    2.40
   6  -3   7    1.90    4.60
  -7   3  -7  -10.40    5.80
  -7   3  -7   -3.70    4.10
  -7   3  -7   -1.20    2.50
   7  -3   7    9.10    5.30
   7  -3   7    0.80    3.50
   7   2  -7   12.60    5.90
   7   2  -7    3.00    4.50
  -7  -2   7    0.00    4.90
  -7  -2   7    9.20    8.00
   6   2  -7   10.70    5.50
   6   2  -7   -1.90    3.90
  -6  -2   7    1.60    4.20
  -6  -2   7    6.30    5.00
   5   2  -7  158.28   13.10
   5   2  -7  180.58   14.50
  -5  -2   7  143.89    9.60
  -5  -2   7  166.08   13.90
  -5  -2   7  185.98   13.80
   4   2  -7  520.75   25.20
   4   2  -7  570.34   25.70
  -4  -2   7  544.75   19.40
  -4  -2   7  546.75   25.20
   3   2  -7   42.10    7.50
   3   2  -7   45.30    7.80
   3   2  -7   42.40    5.40
   3   2  -7   37.20    7.20
  -3  -2   7   35.80    7.10
  -3  -2   7   42.60    7.40
  -3  -2   7   41.10    5.80
   2   2  -7   45.60    6.40
   2   2  -7   39.30    7.30
   2   2  -7   48.80    7.80
  -2  -2   7   48.00    7.30
  -2  -2   7   51.39    6.40
  -2  -2   7   47.50    8.00
   1   2  -7  174.08   11.90
   1   2  -7  157.68   12.30
   1   2  -7  168.48   11.50
  -1  -2   7  147.89   11.10
  -1  -2   7  174.98   12.50
  -1  -2   7  157.88   10.40
   0   2  -7   10.70    4.60
   0   2  -7    9.40    4.30
   0   2  -7    8.50    4.00
   0   2  -7    5.40    2.70
   0  -2   7    6.40    4.00
   0  -2   7   12.30    4.50
   0  -2   7    8.00    3.60
  -1   2  -7  360.86   20.80
  -1   2  -7  279.27   15.80
   1  -2   7  269.77   15.40
   1  -2   7  275.27   17.00
   1  -2   7  286.47   16.00
  -2   2  -7   25.80    5.40
  -2   2  -7   36.20    6.80
   2  -2   7   49.00    8.00
  -3   2  -7  451.75   18.70
  -3   2  -7  459.95   22.30
  -3   2  -7  433.66   22.60
   3  -2   7  471.95   22.70
  -4   2  -7    9.30    4.50
  -4   2  -7    6.80    3.40
  -4   2  -7    8.50    4.80
   4  -2   7    6.10    4.60
   4  -2   7    7.80    3.20
  -5   2  -7   92.39    7.50
  -5   2  -7   80.59    9.80
  -5   2  -7   63.59    6.90
   5  -2   7   58.09    9.50
   5  -2   7   74.29    5.90
  -6   2  -7   12.40    3.50
  -6   2  -7   15.80    4.00
   6  -2   7    5.80    5.70
  -7   2  -7    9.90    3.40
  -7   2  -7   11.80    5.70
  -7   2  -7    3.60    2.90
   7  -2   7    7.00    6.90
   7  -2   7    8.80    5.10
   7   1  -7   19.00    6.10
   7   1  -7   13.80    5.80
   7   1  -7   27.80    5.00
  -7  -1   7   27.50    6.90
  -7  -1   7   33.10    4.70
   6   1  -7   -3.10    3.80
   6   1  -7   -1.60    3.50
   6   1  -7    3.30    2.20
  -6  -1   7    0.80    4.10
  -6  -1   7   -0.70    2.00
   5   1  -7    6.80    4.60
   5   1  -7   11.20    4.70
  -5  -1   7    3.80    3.70
  -5  -1   7   17.00    4.20
   4   1  -7   85.79   10.00
   4   1  -7   98.79    5.90
   4   1  -7   79.19   10.70
  -4  -1   7   92.19   10.30
  -4  -1   7   96.49    8.20
   3   1  -7   37.80    7.00
   3   1  -7   38.20    5.80
   3   1  -7   37.60    7.60
  -3  -1   7   28.30    6.50
  -3  -1   7   37.60    6.50
   2   1  -7  697.93   28.00
   2   1  -7  698.83   26.80
   2   1  -7  684.63   27.40
   2   1  -7  669.83   25.60
  -2  -1   7  691.63   26.80
  -2  -1   7  694.53   27.80
  -2  -1   7  719.63   25.40
   1   1  -7  123.89    9.30
   1   1  -7  116.89   10.20
   1   1  -7  112.19   10.50
  -1  -1   7  118.69   10.20
  -1  -1   7  113.29    8.80
  -1  -1   7  119.09    7.60
  -1  -1   7  109.39   10.30
   0   1  -7  483.95   22.40
   0   1  -7  482.15   19.70
   0  -1   7  488.85   21.80
   0  -1   7  450.75   19.20
   0  -1   7  479.05   22.40
  -1   1  -7    0.60    1.20
  -1   1  -7   -0.10    2.40
  -1   1  -7    5.20    3.20
   1  -1   7    1.10    2.30
   1  -1   7   -3.20    2.40
  -2   1  -7  652.73   25.90
  -2   1  -7  605.94   27.10
   2  -1   7  640.54   28.00
   2  -1   7  636.24   25.70
  -3   1  -7   17.40    3.70
  -3   1  -7   27.60    6.40
  -3   1  -7   31.10    6.40
   3  -1   7   20.40    5.50
  -4   1  -7    1.00    1.80
  -4   1  -7   -0.80    2.80
  -4   1  -7    2.10    3.50
   4  -1   7    1.70    3.80
  -5   1  -7   34.00    6.20
  -5   1  -7   27.80    6.30
  -5   1  -7   32.70    4.40
   5  -1   7   37.70    3.80
   5  -1   7   14.50    5.80
  -6   1  -7   43.30    6.50
  -6   1  -7   51.59    5.10
  -6   1  -7   45.20    7.80
   6  -1   7   44.00    9.00
  -7   1  -7    1.10    2.50
  -7   1  -7   -0.60    4.30
  -7   1  -7    2.90    3.00
   7  -1   7    5.50    4.10
   7  -1   7  -10.00    5.90
   7   0  -7   -1.60    3.80
   7   0  -7   -3.00    4.50
   7   0  -7    7.90    3.00
  -7   0   7    4.40    3.20
  -7   0   7    2.00    4.30
   6   0  -7  190.88   14.70
   6   0  -7  207.28   14.80
   6   0  -7  232.08   12.10
  -6   0   7  211.48   12.60
  -6   0   7  211.88   14.80
   5   0  -7  166.78    9.80
   5   0  -7  129.19   11.90
   5   0  -7  161.08   12.60
  -5   0   7  153.38   11.00
  -5   0   7  134.19   11.80
   4   0  -7   13.90    5.10
   4   0  -7   14.90    5.00
   4   0  -7   18.70    4.10
  -4   0   7    6.40    3.30
  -4   0   7    4.70    3.70
   3   0  -7    5.90    3.70
   3   0  -7    7.00    3.70
   3   0  -7    8.40    4.30
  -3   0   7   -0.60    3.20
  -3   0   7    7.20    3.90
   2   0  -7  466.75   21.70
   2   0  -7  472.75   21.00
   2   0  -7  459.35   21.30
  -2   0   7  463.15   21.90
  -2   0   7  484.05   21.60
  -2   0   7  473.85   18.30
   1   0  -7   28.60    4.30
   1   0  -7   26.30    5.10
   1   0  -7   24.30    5.10
  -1   0   7   29.30    6.10
  -1   0   7   23.10    5.50
  -1   0   7   24.40    5.50
   0   0  -7   39.60    5.70
   0   0  -7   47.40    8.50
   0   0  -7   37.40    5.40
   0   0   7   33.10    6.80
   0   0   7   33.40    6.60
   0   0   7   32.00    4.90
  -1   0  -7   16.60    4.10
  -1   0  -7   16.90    5.50
   1   0   7   18.00    5.60
   1   0   7   19.50    4.00
  -2   0  -7  210.38   14.60
  -2   0  -7  218.58    9.10
   2   0   7  230.48   15.20
   2   0   7  227.88   13.50
  -3   0  -7   78.09    8.50
  -3   0  -7   72.19    9.10
  -3   0  -7   65.79    4.30
   3   0   7   72.79   11.00
   3   0   7   66.49    9.10
  -4   0  -7   21.80    2.50
  -4   0  -7   20.30    5.90
  -4   0  -7   25.40    6.10
   4   0   7   24.20    6.30
  -5   0  -7    3.50    1.50
  -5   0  -7    8.70    4.10
  -5   0  -7    2.00    4.60
   5   0   7   11.20    5.50
   5   0   7    7.60    1.50
  -6   0  -7   -1.10    3.60
  -6   0  -7   -1.40    3.50
   6   0   7   -7.60    4.70
   6   0   7   -0.40    4.20
   8  -1  -7   16.30    6.70
   8  -1  -7   18.50    5.00
   8  -1  -7    8.70    5.10
   8  -1  -7   17.40    6.90
  -8   1   7    7.50    5.20
  -8   1   7   23.80    6.20
   7  -1  -7    2.70    3.20
   7  -1  -7   -2.40    3.60
   7  -1  -7    3.20    3.60
  -7   1   7   -0.80    2.50
  -7   1   7   -7.10    3.20
  -7   1   7    6.60    4.40
   6  -1  -7   -1.20    3.60
   6  -1  -7    1.30    2.70
   6  -1  -7    0.40    3.70
  -6   1   7    0.60    2.90
  -6   1   7    1.50    3.60
  -6   1   7   -1.10    5.90
   5  -1  -7  109.09   10.30
   5  -1  -7  116.29    9.20
   5  -1  -7   95.39   10.50
  -5   1   7  108.39   10.20
  -5   1   7  120.49   11.00
  -5   1   7  116.29   10.40
   4  -1  -7  250.87   15.00
   4  -1  -7  247.48   15.90
   4  -1  -7  253.17   13.70
  -4   1   7  267.47   15.30
  -4   1   7  242.88   15.70
  -4   1   7  228.58   15.10
   3  -1  -7   40.80    7.60
   3  -1  -7   38.60    6.90
   3  -1  -7   42.30    6.90
  -3   1   7   51.59    7.20
  -3   1   7   26.90    5.80
  -3   1   7   45.80    7.60
   2  -1  -7  108.19    6.20
   2  -1  -7  120.09    9.90
   2  -1  -7   98.79   10.40
  -2   1   7  121.69    9.80
  -2   1   7  119.39   10.90
  -2   1   7  115.09    9.10
  -2   1   7  121.09   10.10
   1  -1  -7   25.90    4.70
   1  -1  -7   35.80    7.20
   1  -1  -7   33.10    3.50
  -1   1   7   23.90    5.70
  -1   1   7   26.90    5.80
  -1   1   7   24.60    4.80
   0  -1  -7    1.60    3.10
   0  -1  -7    1.00    2.00
   0   1   7    3.20    3.20
   0   1   7    0.10    1.70
  -1  -1  -7    7.10    3.60
  -1  -1  -7   12.40    2.30
   1   1   7    7.00    3.00
   1   1   7   12.90    5.10
  -2  -1  -7    5.60    4.10
  -2  -1  -7    2.00    1.70
  -2  -1  -7    4.80    3.90
   2   1   7    3.90    3.00
   2   1   7    2.90    3.00
  -3  -1  -7    6.40    2.50
  -3  -1  -7   -2.70    3.30
  -3  -1  -7   -0.10    3.20
   3   1   7    2.80    3.30
   3   1   7    1.90    3.40
  -4  -1  -7   53.19    8.60
  -4  -1  -7   52.69    8.70
  -4  -1  -7   42.30    5.90
   4   1   7   50.59    8.70
  -5  -1  -7   95.99   10.90
  -5  -1  -7   81.49    8.10
   5   1   7   78.69   10.90
  -6  -1  -7   -0.60    3.40
  -6  -1  -7    5.50    4.00
  -6  -1  -7    2.20    3.40
   6   1   7   -4.30    4.30
   8  -2  -7   14.30    7.00
   8  -2  -7   42.30    7.00
   8  -2  -7   33.10    7.60
   8  -2  -7   34.60    7.00
  -8   2   7   29.70    5.70
  -8   2   7   38.50    6.70
   7  -2  -7   69.29    8.10
   7  -2  -7   73.09    9.30
   7  -2  -7   58.29    8.60
   7  -2  -7   56.59    9.70
  -7   2   7   65.29    9.70
  -7   2   7   65.69    8.30
  -7   2   7   63.69    9.40
   6  -2  -7   55.89    8.00
   6  -2  -7   72.39    8.50
   6  -2  -7   78.29    8.50
  -6   2   7   72.09    8.90
  -6   2   7   62.19    9.70
  -6   2   7   72.79    8.30
   5  -2  -7    2.30    3.50
   5  -2  -7    5.10    3.60
   5  -2  -7    4.30    3.70
  -5   2   7   -0.70    4.10
  -5   2   7    1.70    3.10
  -5   2   7   -4.90    2.50
   4  -2  -7    8.50    4.10
   4  -2  -7   11.30    4.10
   4  -2  -7    8.50    3.90
  -4   2   7    7.80    4.20
  -4   2   7   16.60    5.70
  -4   2   7   15.70    4.50
   3  -2  -7  453.95   21.10
   3  -2  -7  468.85   23.40
   3  -2  -7  434.76   14.00
   3  -2  -7  442.96   14.10
  -3   2   7  435.46   20.50
  -3   2   7  475.55   23.40
  -3   2   7  444.16   19.60
  -3   2   7  435.46   20.50
   2  -2  -7  124.89   11.60
   2  -2  -7  122.79    9.80
  -2   2   7  128.79   10.50
  -2   2   7  143.99   12.20
  -2   2   7  133.19   10.80
  -2   2   7  133.09   10.00
   1  -2  -7    1.80    2.50
   1  -2  -7    8.40    3.10
  -1   2   7    5.20    3.90
  -1   2   7   16.00    8.10
  -1   2   7    5.80    2.80
   0  -2  -7   62.69    9.40
   0   2   7   76.79    5.00
   0   2   7   53.09    7.80
  -1  -2  -7   76.89   11.00
  -1  -2  -7   79.39    3.50
  -1  -2  -7   92.49    9.80
   1   2   7   75.19    6.70
   1   2   7   87.49    9.60
  -2  -2  -7    3.20    2.10
  -2  -2  -7    1.90    3.10
  -2  -2  -7    5.10    4.90
   2   2   7    7.40    3.90
   2   2   7    3.20    3.00
  -3  -2  -7  144.29   12.60
  -3  -2  -7  140.19   11.50
  -3  -2  -7  150.68    9.50
   3   2   7  147.19   11.60
   3   2   7  144.89   11.90
  -4  -2  -7    7.70    3.30
  -4  -2  -7    7.10    4.50
  -4  -2  -7    8.70    3.80
   4   2   7    8.60    4.60
   4   2   7    3.70    2.20
  -5  -2  -7   79.09    8.40
  -5  -2  -7   90.69    9.90
   5   2   7   75.19   10.50
   5   2   7   68.19   10.00
   8  -3  -7    3.30    3.60
   8  -3  -7    8.00    5.20
   8  -3  -7    3.80    3.80
   8  -3  -7    4.00    2.70
  -8   3   7   13.00    4.90
  -8   3   7    9.70    4.10
  -8   3   7    1.90    3.40
   7  -3  -7   27.00    5.80
   7  -3  -7   23.00    6.10
   7  -3  -7   18.90    5.30
   7  -3  -7   25.50    5.10
  -7   3   7   26.50    5.80
  -7   3   7   29.30    6.60
  -7   3   7   29.30    5.40
   6  -3  -7   19.80    4.50
   6  -3  -7   12.60    3.90
   6  -3  -7   18.70    5.80
  -6   3   7   11.10    4.70
  -6   3   7   13.00    5.30
  -6   3   7   13.20    3.90
   5  -3  -7  123.79   11.40
   5  -3  -7  115.99   10.80
   5  -3  -7   88.89    7.30
  -5   3   7  106.29   15.90
  -5   3   7  106.09   10.70
  -5   3   7  100.49    8.50
   4  -3  -7    2.60    1.70
   4  -3  -7    1.20    3.60
   4  -3  -7   -0.10    2.60
  -4   3   7    2.50    2.80
  -4   3   7    1.90    3.00
  -4   3   7    0.10    3.40
   3  -3  -7   70.39    9.40
  -3   3   7   65.59    8.90
  -3   3   7   65.79    9.40
  -3   3   7   87.69    8.10
  -3   3   7   57.19    8.80
   2  -3  -7   27.40    5.80
   2  -3  -7    9.70    4.80
   2  -3  -7   13.00    3.80
  -2   3   7   22.90    5.90
  -2   3   7   18.90    4.30
  -2   3   7   25.30    5.30
  -2   3   7   11.40    4.60
   1  -3  -7   21.00    4.50
   1  -3  -7   19.60    5.60
   1  -3  -7   13.50    5.10
  -1   3   7   13.90    3.30
  -1   3   7   10.50    4.90
  -1   3   7   16.90    4.90
  -1   3   7   23.40    4.40
   0  -3  -7   41.30    8.50
   0  -3  -7   50.49    5.30
   0  -3  -7   63.89   10.40
   0   3   7   60.59    9.70
   0   3   7   47.50    4.60
   0   3   7   35.00    6.40
   0   3   7   46.40    4.90
   0   3   7   44.50    4.00
  -1  -3  -7   18.70    5.30
  -1  -3  -7   15.60    5.90
   1   3   7   12.60    4.50
   1   3   7   14.60    3.40
  -2  -3  -7    6.20    4.10
  -2  -3  -7   10.00    5.60
   2   3   7   10.50    4.60
   2   3   7    8.00    3.50
  -3  -3  -7   12.10    3.90
  -3  -3  -7    6.80    5.20
  -3  -3  -7   13.00    4.50
   3   3   7    9.50    4.40
   3   3   7   11.30    4.50
   3   3   7   12.60    3.30
  -4  -3  -7   -3.60    2.90
  -4  -3  -7   -1.10    2.70
  -4  -3  -7   -2.50    3.00
   4   3   7    1.60    2.10
   4   3   7   -0.30    3.80
   4   3   7   -3.60    3.60
  -5  -3  -7    2.90    7.00
  -5  -3  -7    4.10    3.50
  -5  -3  -7    2.70    3.30
   5   3   7   11.70    5.10
   5   3   7   12.40    5.50
   7  -4  -7   -6.50    7.30
   7  -4  -7    3.10    2.70
   7  -4  -7    5.00    3.90
  -7   4   7    8.10    5.00
  -7   4   7    1.40    2.90
  -7   4   7    3.60    4.20
   6  -4  -7    0.70    5.10
   6  -4  -7    1.00    2.90
   6  -4  -7   -7.50    3.10
   6  -4  -7   12.10    3.70
  -6   4   7    4.50    3.60
  -6   4   7    7.30    2.70
  -6   4   7    2.40    4.00
   5  -4  -7   34.80    4.30
   5  -4  -7   32.50    5.70
   5  -4  -7   37.40    9.20
   5  -4  -7   35.50    8.10
  -5   4   7   34.70    5.20
  -5   4   7   37.40    8.80
  -5   4   7   27.40    6.70
   4  -4  -7    0.40    3.60
   4  -4  -7    4.50    4.10
   4  -4  -7    1.60    3.30
  -4   4   7    0.50    3.30
  -4   4   7   -1.30    2.30
  -4   4   7    1.50    3.70
   3  -4  -7   13.90    5.00
   3  -4  -7   13.60    4.70
  -3   4   7   10.80    6.30
  -3   4   7   19.70    4.70
  -3   4   7   21.00    6.60
  -3   4   7   16.50    5.10
   2  -4  -7   22.20    6.50
   2  -4  -7   52.29    7.30
  -2   4   7   34.90    5.90
  -2   4   7   32.80    7.30
  -2   4   7   33.90    8.00
  -2   4   7   42.00    6.60
   1  -4  -7   -0.20    2.10
   1  -4  -7    2.10    3.70
   1  -4  -7    3.30    3.80
  -1   4   7    3.60    2.80
  -1   4   7    3.30    2.60
  -1   4   7    4.90    3.00
  -1   4   7    0.70    2.90
   0  -4  -7    9.00    5.60
   0  -4  -7    5.90    4.10
   0   4   7    5.80    2.10
   0   4   7    7.00    3.80
   0   4   7    5.80    4.20
   0   4   7    3.80    2.70
   0   4   7    5.60    2.30
  -1  -4  -7   55.49    9.90
  -1  -4  -7   68.79    8.70
   1   4   7   76.29    9.20
   1   4   7   66.19    6.30
  -2  -4  -7    0.80    4.00
  -2  -4  -7   -2.40    3.00
   2   4   7    1.20    2.90
   2   4   7    2.00    3.20
   2   4   7   -0.30    2.90
  -3  -4  -7   17.40    5.50
  -3  -4  -7   16.50    5.80
  -3  -4  -7   15.50    4.60
   3   4   7    7.60    4.30
   3   4   7    9.70    3.60
   3   4   7   13.30    4.30
   3   4   7    8.70    5.10
  -4  -4  -7    2.30    3.60
  -4  -4  -7   -5.30    3.20
   4   4   7   -1.20    4.60
   4   4   7    5.70    2.70
   4   4   7   -5.80    7.20
   7  -5  -7    8.40    3.80
   7  -5  -7   11.60    3.50
   7  -5  -7    9.10    5.70
   7  -5  -7   13.80    5.10
  -7   5   7    6.60    5.20
  -7   5   7   10.40    3.10
  -7   5   7    8.40    4.60
  -7   5   7    6.50    7.80
   6  -5  -7   -1.30    2.30
   6  -5  -7    0.50    3.10
   6  -5  -7   -1.90    3.50
   6  -5  -7    6.60    5.10
  -6   5   7    3.70    4.20
  -6   5   7    0.70    2.20
  -6   5   7   -0.30    3.10
   5  -5  -7   39.00    2.70
   5  -5  -7   39.10    7.80
   5  -5  -7   43.30    6.60
   5  -5  -7   33.20    8.20
  -5   5   7   38.50    5.00
  -5   5   7   37.20    7.70
  -5   5   7   43.50    8.80
   4  -5  -7   25.70    5.90
   4  -5  -7   16.90    5.70
  -4   5   7   19.00    5.60
  -4   5   7   18.60    3.80
  -4   5   7   35.10    7.90
   3  -5  -7   21.30    5.60
   3  -5  -7    8.90    4.80
  -3   5   7   25.00    4.50
  -3   5   7   17.70    5.20
  -3   5   7   26.90    8.10
   2  -5  -7   77.99   13.10
   2  -5  -7   85.09    8.40
  -2   5   7   84.39   10.40
  -2   5   7   92.69    8.70
  -2   5   7   90.39    8.40
   1  -5  -7  114.69   11.90
  -1   5   7  119.69    8.50
  -1   5   7  129.09    9.60
  -1   5   7  141.99   12.60
   0  -5  -7    7.80    5.20
   0   5   7    3.80    2.90
   0   5   7    2.60    2.00
   0   5   7    5.90    2.00
   0   5   7   -0.90    4.00
   0   5   7    2.00    3.90
  -1  -5  -7   65.89   11.10
   1   5   7   74.99    7.00
   1   5   7   70.39   15.70
   1   5   7   79.69   12.60
   1   5   7   95.99    9.60
  -2  -5  -7    4.70    4.00
   2   5   7    2.20    5.10
   2   5   7    6.50    5.90
   2   5   7    3.30    3.30
   2   5   7    3.80    4.30
   2   5   7    2.20    3.40
  -3  -5  -7   53.49   10.50
   3   5   7   46.60   10.60
   3   5   7   53.49   13.30
   3   5   7   61.29    8.40
   3   5   7   45.30    6.00
   6  -6  -7   -7.60    4.60
   6  -6  -7    7.10    3.40
   6  -6  -7    0.10    2.00
   6  -6  -7   -3.40    4.30
  -6   6   7   -0.10    2.10
  -6   6   7   -4.70    5.00
  -6   6   7   -7.20    4.50
  -6   6   7   -0.20    4.10
   5  -6  -7   -5.10    2.90
   5  -6  -7    1.40    4.70
   5  -6  -7   -1.30    3.70
  -5   6   7    3.10    4.70
  -5   6   7   -6.50    3.40
  -5   6   7    3.70    4.20
  -5   6   7    0.90    1.80
  -4   6   7    9.20    5.70
  -4   6   7   -0.10    2.30
  -4   6   7    3.00    5.20
  -4   6   7    7.70    4.60
   3  -6  -7   10.30    4.60
   3  -6  -7   15.20    5.60
  -3   6   7   16.60    6.20
  -3   6   7   14.60    5.80
  -3   6   7   17.40    4.10
  -3   6   7   13.60    5.60
  -3   6   7   22.30    6.80
  -3   6   7   18.40    4.80
   2  -6  -7   21.90    6.20
  -2   6   7   21.20    5.70
  -2   6   7   19.70    4.40
  -2   6   7   23.00    6.40
  -2   6   7   23.20    6.80
   1  -6  -7    2.50    4.30
  -1   6   7    4.00    2.90
  -1   6   7    4.10    4.00
  -1   6   7    1.00    3.50
  -1   6   7   -1.30    5.30
  -1   6   7    3.10    4.60
   0  -6  -7   56.29    9.80
   0   6   7   48.00    8.20
   0   6   7   44.10    7.80
   0   6   7   62.49    5.20
   0   6   7   60.79   11.30
   0   6   7   70.99    9.20
   0   6   7   58.99    5.20
   0   6   7   66.39    5.20
  -1  -6  -7   40.20    8.80
   1   6   7   28.00    6.30
   1   6   7   27.30    6.70
   1   6   7   25.20    4.30
   1   6   7   36.90    5.30
   1   6   7   20.10    6.00
   1   6   7   22.80    6.70
   5  -7  -7   -6.80    8.50
   5  -7  -7    1.60    3.30
  -5   7   7  -12.20    6.70
  -5   7   7   -2.30    4.40
  -5   7   7   -2.10    3.80
   4  -7  -7    1.80    3.60
   4  -7  -7   -5.80    4.20
  -4   7   7   -3.60    4.00
  -4   7   7    3.50    4.10
  -4   7   7    1.70    3.90
  -4   7   7    6.50    2.50
  -4   7   7   10.00    5.40
  -4   7   7    7.20    2.70
   3  -7  -7    8.20    4.70
  -3   7   7   10.10    4.70
  -3   7   7    9.10    5.50
  -3   7   7    6.30    3.40
  -3   7   7    7.70    5.90
  -3   7   7    3.50    4.00
  -3   7   7   12.70    6.90
  -3   7   7   19.00    4.10
   2  -7  -7    0.20    3.40
  -2   7   7    1.50    3.40
  -2   7   7   -4.10    3.00
  -2   7   7   -3.70    4.60
  -2   7   7    1.30    4.00
  -2   7   7    0.60    5.40
   1  -7  -7   23.00    6.90
  -1   7   7   24.50    7.80
  -1   7   7   33.00    7.10
  -1   7   7   39.70    5.50
  -1   7   7   32.80    6.20
  -1   7   7   37.60    6.50
  -1   7   7   41.20    8.10
   1   8  -8   59.09    6.30
   1   8  -8   54.49    9.30
   1   8  -8   64.09    9.30
  -1  -8   8   54.29    9.00
  -1  -8   8   39.40    7.50
   0   8  -8  128.39   13.00
   0   8  -8  117.59   12.80
   0   8  -8  123.79   10.70
   0   8  -8   83.69   15.30
   0  -8   8  101.09   11.00
  -1   8  -8    1.30    4.40
  -1   8  -8    6.70    8.40
  -1   8  -8    7.80    4.10
  -1   8  -8    4.90    3.30
  -1   8  -8    6.60    5.20
   1  -8   8    1.40    3.20
   1  -8   8    3.90    3.50
   1  -8   8    6.00    5.00
  -2   8  -8    5.40    5.10
  -2   8  -8   14.10    7.10
  -2   8  -8    6.80    4.50
  -2   8  -8   13.40    5.40
   2  -8   8   10.60    5.50
   2  -8   8   13.10    4.10
  -3   8  -8   -2.40    7.40
  -3   8  -8   -0.70    4.40
  -3   8  -8    4.20    4.60
  -3   8  -8   -2.80    3.90
   3  -8   8    9.50    3.90
   3  -8   8    1.30    2.80
   3  -8   8   -1.10    4.20
   3  -8   8    7.30    9.50
  -4   8  -8   -2.90    4.20
  -4   8  -8    0.10    4.30
  -4   8  -8   -0.90    4.60
   4  -8   8   -4.40    5.70
   4  -8   8   -4.40    2.30
   4  -8   8    4.40    4.60
   4  -8   8   -3.30    3.60
   2   7  -8    6.70    4.80
   2   7  -8    1.90    3.80
   2   7  -8    4.60    2.40
  -2  -7   8    0.80    4.70
  -2  -7   8    7.80    4.10
   1   7  -8   19.60    6.80
   1   7  -8   21.10    4.30
   1   7  -8   20.00    5.40
   1   7  -8   10.40    5.00
  -1  -7   8   19.10    5.50
   0   7  -8    6.80    4.60
   0   7  -8    4.90    3.60
   0   7  -8   -5.70    3.90
   0  -7   8    4.60    4.10
   0  -7   8    3.90    3.80
  -1   7  -8    3.40    3.60
  -1   7  -8    4.10    3.20
  -1   7  -8    3.10    4.60
  -1   7  -8    5.20    4.40
   1  -7   8    5.80    3.40
   1  -7   8    2.10    3.10
   1  -7   8    7.30    4.90
   1  -7   8    0.70    4.70
  -2   7  -8   25.50    7.10
  -2   7  -8   16.60    5.40
  -2   7  -8    8.20    5.80
  -2   7  -8   23.70    6.50
   2  -7   8   16.10    4.70
   2  -7   8   18.30    6.50
   2  -7   8   38.40    7.70
   2  -7   8   21.70    4.70
  -3   7  -8    7.00    4.90
  -3   7  -8   17.00    6.50
  -3   7  -8   19.90    5.90
  -3   7  -8   13.80    4.80
   3  -7   8   15.00    4.00
   3  -7   8   13.40    5.10
   3  -7   8    5.10    5.60
   3  -7   8    8.50    5.10
  -4   7  -8    1.40    3.90
  -4   7  -8   -4.80    4.20
  -4   7  -8    5.40    4.60
  -4   7  -8    5.90    5.50
   4  -7   8   10.90    5.30
   4  -7   8   20.50    6.50
   4  -7   8   10.20    3.40
  -5   7  -8   19.40    6.10
  -5   7  -8   16.50    5.80
  -5   7  -8   -2.90    4.60
   5  -7   8    3.50    4.40
   5  -7   8   -5.20    6.20
   5  -7   8   12.00    3.30
  -6   7  -8    6.30    4.90
   6  -7   8    4.50    4.70
   6  -7   8   -0.60    6.40
   4   6  -8   34.30   12.50
   4   6  -8   33.00    8.00
  -4  -6   8   23.10    5.40
  -4  -6   8   34.50    8.50
  -4  -6   8   21.70    6.80
   3   6  -8    8.00    5.20
   3   6  -8    7.60    4.50
  -3  -6   8    6.00    4.90
  -3  -6   8    4.70    3.70
  -3  -6   8    9.90    5.10
   2   6  -8  273.87   17.00
   2   6  -8  264.77   11.80
   2   6  -8  272.67   18.10
  -2  -6   8  275.37   16.10
  -2  -6   8  257.77   17.70
   1   6  -8   83.59    7.50
   1   6  -8   75.39   10.70
   1   6  -8   82.39   11.80
  -1  -6   8   70.49    9.60
  -1  -6   8   68.89    9.30
   0   6  -8  112.69   10.50
   0   6  -8  112.09    9.90
   0   6  -8  107.49   11.10
   0   6  -8   95.39   11.20
   0  -6   8  112.29    7.80
   0  -6   8  110.09   10.60
   0  -6   8  119.99   10.50
  -1   6  -8    5.80    3.80
  -1   6  -8    4.70    3.50
  -1   6  -8   -6.60    3.40
  -1   6  -8    4.80    3.80
   1  -6   8    0.70    3.20
   1  -6   8    1.30    4.00
   1  -6   8    7.50    3.60
  -2   6  -8   47.80    8.70
  -2   6  -8   76.09    8.90
  -2   6  -8   67.49   10.20
   2  -6   8   55.89    7.50
   2  -6   8   58.09    8.20
   2  -6   8   90.39    9.60
  -3   6  -8   70.49   10.90
  -3   6  -8   63.99    9.20
  -3   6  -8   48.20    8.70
  -3   6  -8   56.79    9.00
   3  -6   8   43.20    7.90
   3  -6   8   42.60    6.00
  -4   6  -8   -0.80    3.60
  -4   6  -8   -2.90    3.90
  -4   6  -8    0.50    3.90
   4  -6   8    4.70    2.70
   4  -6   8    2.40    4.00
   4  -6   8   -1.30    3.90
  -5   6  -8   -2.70    8.00
  -5   6  -8    3.20    3.60
  -5   6  -8    5.50    4.90
   5  -6   8    2.60    3.70
   5  -6   8   -0.40    2.60
   5  -6   8   -3.80    4.40
  -6   6  -8    8.10    5.50
  -6   6  -8   12.00    5.10
  -6   6  -8    9.10    4.60
   6  -6   8    3.80    5.50
   6  -6   8    7.70    3.50
   6  -6   8   14.60    4.70
   5   5  -8    2.20    5.20
   5   5  -8    9.20    6.20
   5   5  -8    1.90    4.50
  -5  -5   8    7.20    6.00
  -5  -5   8    1.70    3.50
  -5  -5   8   12.60    5.80
   4   5  -8   38.60    8.30
   4   5  -8   20.80    6.40
   4   5  -8   41.00    8.40
  -4  -5   8   35.80    6.60
  -4  -5   8   39.50    7.90
  -4  -5   8   37.60    7.40
   3   5  -8   13.50    5.40
   3   5  -8   31.10    7.40
  -3  -5   8   24.20    6.50
  -3  -5   8   15.70    6.10
  -3  -5   8   26.40    5.70
   2   5  -8   -2.70    2.90
   2   5  -8    0.00    3.40
   2   5  -8   -1.70    1.90
  -2  -5   8    6.20    4.30
  -2  -5   8   -3.40    3.40
   1   5  -8    4.10    4.20
   1   5  -8    4.20    3.20
   1   5  -8    4.80    3.80
  -1  -5   8    1.40    3.40
  -1  -5   8    8.50    4.60
  -1  -5   8    0.90    3.80
   0   5  -8    2.10    3.40
   0   5  -8    5.40    4.10
   0   5  -8    2.50    3.60
   0   5  -8    2.20    3.00
   0  -5   8    8.50    4.40
   0  -5   8    2.40    3.50
   0  -5   8    1.80    4.30
   0  -5   8    3.20    2.40
  -1   5  -8   49.90    9.00
  -1   5  -8   37.30    7.10
  -1   5  -8   47.50    8.50
  -1   5  -8   42.60    6.80
   1  -5   8   45.60    7.40
   1  -5   8   45.10    8.30
   1  -5   8   42.60    8.50
  -2   5  -8   14.90    5.60
  -2   5  -8   16.90    5.60
  -2   5  -8    5.90    4.20
   2  -5   8   14.20    4.40
   2  -5   8   16.70    5.20
   2  -5   8   20.30    6.00
  -3   5  -8    0.20    3.30
  -3   5  -8    4.40    3.90
  -3   5  -8    3.80    4.50
   3  -5   8    0.00    2.50
   3  -5   8    1.10    3.40
  -4   5  -8   16.70    5.70
  -4   5  -8   20.30    6.00
   4  -5   8   25.00    4.80
   4  -5   8   27.60    6.50
  -5   5  -8   81.69   11.40
  -5   5  -8   82.49   10.50
   5  -5   8   98.99    9.40
   5  -5   8   88.29    8.40
  -6   5  -8   48.20    8.80
  -6   5  -8   33.60    7.40
  -6   5  -8   38.60    7.50
   6  -5   8   46.70    6.60
   6  -5   8   35.40   13.10
   6  -5   8   39.30    5.90
  -7   5  -8   41.80    6.80
   7  -5   8   48.60   12.00
   6   4  -8   34.80    7.40
   5   4  -8    8.50    5.20
   5   4  -8    6.30    5.20
   5   4  -8    4.90    4.30
  -5  -4   8    4.80    4.30
  -5  -4   8   -1.40    4.60
  -5  -4   8    5.80    3.40
   4   4  -8    8.00    5.10
   4   4  -8   -0.20    4.10
   4   4  -8    4.70    4.80
  -4  -4   8    3.70    3.80
  -4  -4   8    5.20    4.20
   3   4  -8  607.84   27.50
   3   4  -8  578.64   19.70
   3   4  -8  608.34   27.70
  -3  -4   8  620.64   27.40
  -3  -4   8  588.64   32.50
   2   4  -8   42.20    6.40
   2   4  -8   36.60    7.50
   2   4  -8   44.00    8.10
  -2  -4   8   45.80    7.80
   1   4  -8    4.60    3.70
   1   4  -8   10.60    3.90
   1   4  -8    8.00    4.40
   1   4  -8    4.50    3.80
  -1  -4   8    3.10    3.50
  -1  -4   8    5.60    3.90
   0   4  -8   19.90    5.20
   0   4  -8   23.30    6.10
   0   4  -8   23.40    5.60
   0   4  -8   15.10    5.00
   0  -4   8   21.10    5.50
   0  -4   8   25.10    6.40
  -1   4  -8   10.00    4.30
  -1   4  -8    2.90    4.40
  -1   4  -8    3.50    3.50
   1  -4   8    7.40    4.10
   1  -4   8    0.90    3.90
  -2   4  -8    6.40    3.60
  -2   4  -8    4.00    4.00
  -2   4  -8    9.10    4.30
   2  -4   8    7.70    4.00
   2  -4   8   10.50    4.90
   2  -4   8    8.30    4.60
  -3   4  -8   -4.50    3.40
  -3   4  -8    2.80    3.80
  -3   4  -8   -0.40    3.50
   3  -4   8    0.30    3.40
   3  -4   8    2.20    4.50
   3  -4   8   -2.20    2.80
  -4   4  -8   60.39    9.20
  -4   4  -8   53.49    7.70
   4  -4   8   73.59    8.00
   4  -4   8   47.70   10.00
   4  -4   8   50.79    7.30
  -5   4  -8   -2.30    2.90
  -5   4  -8   -5.10    3.20
  -5   4  -8   -1.70    3.30
   5  -4   8   -0.60    2.80
  -6   4  -8   19.00    5.10
  -6   4  -8   11.80    5.60
  -6   4  -8   26.00    4.30
   6  -4   8   17.40    6.40
   6  -4   8   10.80    3.70
  -7   4  -8    0.80    3.60
  -7   4  -8    5.80    4.40
  -7   4  -8    0.80    5.50
   7  -4   8    8.00    6.20
   6   3  -8    3.00    4.70
   6   3  -8    1.70    5.10
  -6  -3   8   16.80    6.10
  -6  -3   8    9.60    4.70
   5   3  -8   14.60    5.30
   5   3  -8   18.60    6.30
  -5  -3   8   29.10    6.90
  -5  -3   8   21.30    6.40
   4   3  -8    3.50    4.10
   4   3  -8    2.80    3.70
   4   3  -8    2.00    4.50
  -4  -3   8    1.60    3.60
   3   3  -8   44.70    5.40
   3   3  -8   48.20    8.70
   3   3  -8   32.10   10.90
   3   3  -8   59.09    9.50
  -3  -3   8   53.79    8.80
  -3  -3   8   43.40    5.30
  -3  -3   8   44.00    8.30
   2   3  -8  193.18   14.10
   2   3  -8  187.28   13.80
   2   3  -8  183.88   11.30
  -2  -3   8  174.18   11.20
  -2  -3   8  191.28   13.10
  -2  -3   8  172.78   13.60
   1   3  -8   10.30    4.50
   1   3  -8   17.00    4.60
   1   3  -8   24.00    5.80
  -1  -3   8    9.50    4.20
  -1  -3   8   17.30    4.80
  -1  -3   8   10.10    3.80
   0   3  -8    4.30    2.80
   0   3  -8    1.70    2.60
   0   3  -8    1.20    3.10
   0   3  -8    2.60    3.30
   0  -3   8   -3.10    3.00
   0  -3   8    1.00    3.50
  -1   3  -8   31.50    7.00
  -1   3  -8   23.50    4.60
  -1   3  -8   14.80    4.90
   1  -3   8   11.70    4.90
   1  -3   8   30.50    6.00
  -2   3  -8   15.80    5.00
  -2   3  -8   20.60    5.60
   2  -3   8    0.90    3.20
   2  -3   8   10.50    4.70
  -3   3  -8    6.30    4.00
  -3   3  -8    1.40    3.70
  -3   3  -8   10.70    3.90
   3  -3   8    2.90    3.40
   3  -3   8    1.90    4.00
  -4   3  -8   -0.90    3.70
  -4   3  -8    2.90    3.00
  -4   3  -8    0.30    2.70
   4  -3   8    4.70    3.20
   4  -3   8    1.00    4.00
  -5   3  -8   21.40    5.00
  -5   3  -8   25.80    6.50
   5  -3   8   16.70    4.20
   5  -3   8   10.90    5.60
  -6   3  -8    0.20    3.10
  -6   3  -8    1.70    3.90
  -6   3  -8    3.30    2.70
   6  -3   8    4.20    2.60
   6  -3   8   -0.40    5.40
  -7   3  -8    4.50    3.10
   7  -3   8    3.30    4.10
   7  -3   8    2.40    6.20
   7   2  -8   56.49    9.80
  -7  -2   8   59.39   13.50
  -7  -2   8   56.09    9.80
   6   2  -8   14.40    5.80
   6   2  -8   26.40    6.50
  -6  -2   8   36.30    7.90
  -6  -2   8   39.80    8.50
  -6  -2   8   42.10    4.80
   5   2  -8  325.37   19.40
   5   2  -8  294.77   18.50
  -5  -2   8  314.77   19.00
  -5  -2   8  316.67   13.50
  -5  -2   8  342.97   19.60
   4   2  -8  399.26   21.10
   4   2  -8  423.56   22.60
   4   2  -8  390.56   20.90
  -4  -2   8  380.86   16.40
  -4  -2   8  389.46   21.00
  -4  -2   8  388.56   20.60
   3   2  -8  156.78   10.50
   3   2  -8  151.38   12.30
   3   2  -8  164.78   13.20
   3   2  -8  159.38   12.30
  -3  -2   8  154.88   11.90
  -3  -2   8  134.59   12.30
  -3  -2   8  171.28   10.80
   2   2  -8   35.50    6.20
   2   2  -8   33.90    6.70
   2   2  -8   35.50    7.40
   2   2  -8   45.30    7.80
  -2  -2   8   30.60    6.50
  -2  -2   8   44.10    6.50
  -2  -2   8   38.80    6.30
   1   2  -8   32.80    6.30
   1   2  -8   40.10    7.30
   1   2  -8   32.20    5.60
  -1  -2   8   39.90    6.90
  -1  -2   8   35.50    5.60
  -1  -2   8   34.80    6.70
   0   2  -8   -2.10    1.60
   0   2  -8   -4.20    2.00
   0   2  -8   -2.80    2.80
   0  -2   8    1.50    3.10
   0  -2   8    0.30    2.90
   0  -2   8   -0.60    3.10
  -1   2  -8  133.09   10.90
  -1   2  -8  128.39   11.60
   1  -2   8  122.49   10.60
   1  -2   8  128.19   11.00
   1  -2   8  129.59   11.80
  -2   2  -8    4.50    3.40
  -2   2  -8   -2.30    3.00
   2  -2   8    4.00    3.80
  -3   2  -8    1.90    3.00
  -3   2  -8    3.30    4.40
  -3   2  -8    8.50    3.50
   3  -2   8   -0.50    3.30
  -4   2  -8    9.80    5.00
  -4   2  -8    8.20    4.80
  -4   2  -8   10.70    3.60
   4  -2   8    3.30    3.80
  -5   2  -8   28.60    5.80
  -5   2  -8   20.40    6.40
  -5   2  -8   19.00    4.10
   5  -2   8   13.60    3.40
   5  -2   8   20.30    6.20
  -6   2  -8   14.90    5.20
  -6   2  -8    3.10    3.00
  -6   2  -8   11.90    3.90
   6  -2   8    9.60    5.30
   6  -2   8    7.70    2.30
  -7   2  -8   23.00    4.40
  -7   2  -8   16.90    6.10
  -7   2  -8   22.10    4.80
   7  -2   8   19.20    7.70
   7  -2   8   11.40    5.20
   7   1  -8   60.29    9.30
   7   1  -8   39.20   10.10
   7   1  -8   48.40    5.30
  -7  -1   8   49.90    5.70
  -7  -1   8   48.60    9.00
   6   1  -8    4.20    2.30
   6   1  -8    4.50    4.40
   6   1  -8    5.60    4.70
  -6  -1   8    8.60    3.10
  -6  -1   8    0.90    3.90
   5   1  -8    7.30    4.80
   5   1  -8   10.60    4.90
   5   1  -8    6.60    2.40
  -5  -1   8    6.60    4.50
  -5  -1   8   11.60    3.80
   4   1  -8   -0.30    2.30
   4   1  -8   11.50    8.80
   4   1  -8    0.40    3.60
  -4  -1   8    2.30    2.90
  -4  -1   8    1.40    3.70
   3   1  -8    5.20    2.80
   3   1  -8    0.80    3.30
   3   1  -8   -0.90    3.40
   3   1  -8   10.60    4.10
  -3  -1   8    3.80    3.10
  -3  -1   8   -3.80    2.90
   2   1  -8   15.90    4.50
   2   1  -8   11.70    4.40
   2   1  -8   12.20    4.20
   2   1  -8   16.10    5.00
  -2  -1   8   18.80    3.20
  -2  -1   8   10.60    4.40
  -2  -1   8   13.40    3.50
  -2  -1   8   18.70    5.50
   1   1  -8  144.09   10.80
   1   1  -8  146.39   11.70
   1   1  -8  147.49   10.20
  -1  -1   8  126.19   11.20
  -1  -1   8  147.39    8.30
  -1  -1   8  152.28   12.10
  -1  -1   8  150.58   10.10
   0   1  -8  126.79    9.60
   0   1  -8  150.08   13.70
   0  -1   8  119.29   11.10
   0  -1   8  115.29    9.10
   0  -1   8  110.49   10.60
  -1   1  -8    4.90    3.70
  -1   1  -8   12.70    4.20
  -1   1  -8    8.40    1.70
   1  -1   8    5.20    3.80
   1  -1   8   11.50    4.00
   1  -1   8   24.30    7.10
  -2   1  -8  117.09   10.30
  -2   1  -8  113.99   11.10
   2  -1   8  116.79   11.50
   2  -1   8  109.89    9.90
  -3   1  -8    4.90    3.70
  -3   1  -8   -3.30    3.20
  -3   1  -8    2.50    2.10
   3  -1   8    8.30    4.30
  -4   1  -8  192.08   12.60
  -4   1  -8  186.78   18.20
  -4   1  -8  182.08    9.40
   4  -1   8  192.08   14.60
  -5   1  -8    3.90    4.20
  -5   1  -8   -0.20    2.00
  -5   1  -8    3.40    3.60
   5  -1   8    6.40    2.20
   5  -1   8    2.60    4.50
  -6   1  -8   28.30    5.50
  -6   1  -8   20.50    6.90
  -6   1  -8   31.30    4.10
   6  -1   8   20.60    6.80
   7   0  -8   49.80    8.10
   7   0  -8   35.40    7.90
   7   0  -8   41.10    5.80
  -7   0   8   36.30    7.40
  -7   0   8   50.19    6.10
   6   0  -8  107.29   11.30
   6   0  -8  105.69   11.20
   6   0  -8  106.99    8.10
  -6   0   8  101.39    9.00
  -6   0   8  100.89   10.90
   5   0  -8    4.10    4.70
   5   0  -8    6.90    3.10
   5   0  -8    8.20    4.60
  -5   0   8   17.00    6.60
  -5   0   8    6.50    3.70
   4   0  -8   25.40    6.20
   4   0  -8   20.30    5.50
  -4   0   8   25.90    5.70
  -4   0   8   23.90    5.70
   3   0  -8   15.80    5.40
   3   0  -8   19.10    4.60
   3   0  -8   13.20    4.40
   3   0  -8   12.90    5.20
  -3   0   8    8.00    3.50
  -3   0   8   19.00    5.20
   2   0  -8   -2.00    2.70
   2   0  -8    4.10    3.50
   2   0  -8    2.70    2.50
   2   0  -8    0.20    3.30
  -2   0   8    4.30    3.70
  -2   0   8   -0.80    2.10
  -2   0   8    0.70    3.50
   1   0  -8   -1.00    3.00
   1   0  -8    1.50    2.40
   1   0  -8   -3.20    2.40
  -1   0   8   -0.70    3.30
  -1   0   8    0.00    1.90
  -1   0   8    1.40    1.30
  -1   0   8    3.60    3.50
   0   0  -8   -3.10    1.80
   0   0  -8    0.60    3.10
   0   0  -8   -0.90    1.90
   0   0   8   -3.50    2.20
   0   0   8    0.10    3.00
   0   0   8    0.70    1.80
  -1   0  -8   60.39    6.70
  -1   0  -8   47.60    5.00
  -1   0  -8   38.10    6.60
   1   0   8   48.90    7.70
   1   0   8   69.19    7.00
  -2   0  -8  238.08    8.60
  -2   0  -8  272.57   16.80
   2   0   8  213.88   13.50
   2   0   8  264.57   16.90
  -3   0  -8    5.50    1.60
  -3   0  -8    1.80    3.60
  -3   0  -8    5.20    4.00
   3   0   8   -3.00    3.20
   3   0   8    8.50    4.10
  -4   0  -8   -0.50    3.20
  -4   0  -8   -1.70    5.70
  -4   0  -8    1.50    1.00
   4   0   8    4.30    4.00
  -5   0  -8   -1.90    2.90
  -5   0  -8    3.10    3.60
   5   0   8    3.40    5.00
  -6   0  -8    0.30    3.10
   6   0   8   -8.10    5.30
   7  -1  -8    5.30    3.80
   7  -1  -8   11.30    4.60
   7  -1  -8    8.00    4.90
  -7   1   8    5.00    4.30
  -7   1   8   12.70    5.00
  -7   1   8    9.90    4.30
   6  -1  -8   12.40    4.00
   6  -1  -8   -0.20    3.90
  -6   1   8   10.80    4.70
  -6   1   8    7.60    4.10
  -6   1   8    7.80    3.80
   5  -1  -8    3.30    3.00
   5  -1  -8    9.80    4.90
  -5   1   8    8.10    4.80
  -5   1   8    8.20    4.00
  -5   1   8    4.00    3.30
   4  -1  -8  145.29   10.20
   4  -1  -8  134.89   11.80
   4  -1  -8  144.89   11.60
  -4   1   8  141.09   11.50
  -4   1   8  138.19   11.60
  -4   1   8  139.59   12.00
   3  -1  -8   62.29    9.20
   3  -1  -8   40.30    7.10
   3  -1  -8   52.49    7.40
   3  -1  -8   56.29    8.90
  -3   1   8   33.70    5.90
  -3   1   8   48.30    7.80
  -3   1   8   42.30    7.30
  -3   1   8   45.30    6.80
   2  -1  -8    1.60    3.50
   2  -1  -8    4.70    2.00
   2  -1  -8    2.30    3.00
  -2   1   8    2.10    3.30
  -2   1   8   -2.10    2.50
  -2   1   8    9.40    4.70
   1  -1  -8   11.10    2.40
   1  -1  -8    7.10    4.00
   1  -1  -8    4.80    2.90
  -1   1   8    3.40    3.60
  -1   1   8    2.70    2.80
  -1   1   8    9.00    4.70
   0  -1  -8   68.29    5.90
   0  -1  -8   46.30    7.40
   0   1   8   46.80    7.90
  -1  -1  -8   27.50    6.90
  -1  -1  -8   32.60    3.60
   1   1   8   30.90    6.80
   1   1   8   27.10    5.00
  -2  -1  -8   62.79   10.20
  -2  -1  -8   66.89   10.50
  -2  -1  -8   42.50    3.70
   2   1   8   57.19    9.10
   2   1   8   41.50    6.50
  -3  -1  -8    0.20    2.90
  -3  -1  -8   -1.00    1.90
  -3  -1  -8    3.90    3.90
   3   1   8    0.50    3.20
   3   1   8    0.80    2.90
  -4  -1  -8   -1.30    3.00
  -4  -1  -8    1.20    2.70
   4   1   8   -8.20    3.40
  -5  -1  -8    1.90    3.30
  -5  -1  -8   -3.20    2.90
  -5  -1  -8   -1.30    3.10
   5   1   8    6.80    5.10
   5   1   8    0.30    1.20
  -6  -1  -8   16.80    5.90
   6   1   8    8.00    5.30
   6   1   8    7.30    6.20
   8  -2  -8    4.70   10.20
   8  -2  -8   19.70    5.20
  -8   2   8   19.30    5.80
   7  -2  -8   31.50    6.60
   7  -2  -8   16.50    6.30
   7  -2  -8   20.70    5.40
   7  -2  -8   27.60    6.30
  -7   2   8   30.40    6.90
  -7   2   8   23.40    5.50
  -7   2   8   31.70    7.30
   6  -2  -8   18.70    5.30
   6  -2  -8   11.50    4.20
   6  -2  -8   13.80    4.50
  -6   2   8   14.00    4.70
  -6   2   8   10.90    4.90
  -6   2   8   20.10    6.20
   5  -2  -8   37.90    7.20
   5  -2  -8   24.00    6.40
   5  -2  -8   37.40    6.80
  -5   2   8   23.80    6.10
  -5   2   8   33.00    7.20
  -5   2   8   31.00    6.20
   4  -2  -8    4.70    3.20
   4  -2  -8   -0.10    2.80
  -4   2   8    3.30    3.40
  -4   2   8    0.10    3.30
  -4   2   8   -3.80    3.00
   3  -2  -8   -0.40    1.00
   3  -2  -8    2.30    3.50
   3  -2  -8   -0.90    3.10
   3  -2  -8   -0.60    1.00
  -3   2   8    2.20    3.00
  -3   2   8    1.40    3.40
  -3   2   8   -2.50    2.70
  -3   2   8    0.70    3.00
   2  -2  -8   -0.30    2.40
   2  -2  -8    5.80    3.50
  -2   2   8    0.80    2.30
  -2   2   8   -0.60    3.00
  -2   2   8    7.20    3.80
  -2   2   8    4.00    3.30
   1  -2  -8  226.48   12.00
   1  -2  -8  243.98   16.40
  -1   2   8  211.28    8.90
  -1   2   8  210.88   14.10
   0  -2  -8   35.60    4.50
   0  -2  -8   32.50    6.30
   0   2   8   28.30    3.60
   0   2   8   36.40    7.20
  -1  -2  -8  114.69    4.80
  -1  -2  -8  111.69   11.00
  -1  -2  -8  121.09   11.40
   1   2   8  119.99    8.20
   1   2   8  122.89   11.60
  -2  -2  -8   36.70    7.10
  -2  -2  -8   36.30    8.60
   2   2   8   27.50    5.10
   2   2   8   42.60    8.20
  -3  -2  -8   35.40    4.90
  -3  -2  -8   30.90    7.80
  -3  -2  -8   33.60    7.20
   3   2   8   34.60    6.50
   3   2   8   30.20    6.70
  -4  -2  -8    6.40    3.00
  -4  -2  -8    5.70    4.50
  -4  -2  -8    7.10    3.80
   4   2   8    9.60    4.60
  -5  -2  -8   -3.00    3.70
  -5  -2  -8    8.50    4.20
  -5  -2  -8    2.30    3.00
   5   2   8   -3.90    4.50
   5   2   8    1.90    1.20
   5   2   8    1.10    5.00
   7  -3  -8    4.90    3.60
   7  -3  -8   11.20    4.00
   7  -3  -8    2.60    4.10
   7  -3  -8   14.10    9.20
  -7   3   8    1.70    4.70
  -7   3   8   17.10    5.90
  -7   3   8    8.70    5.00
   6  -3  -8    6.80    5.10
   6  -3  -8    9.60    3.50
   6  -3  -8   21.60    4.70
  -6   3   8   22.00    5.80
  -6   3   8   18.50    4.60
  -6   3   8   13.10    5.10
   5  -3  -8    4.50    4.00
   5  -3  -8    2.30    3.60
   5  -3  -8    2.90    2.10
  -5   3   8   10.40    5.40
  -5   3   8    3.20    3.90
  -5   3   8    8.20    3.90
   4  -3  -8   20.30    6.70
   4  -3  -8   15.80    1.90
   4  -3  -8   14.70    2.00
  -4   3   8    8.80    4.00
  -4   3   8   15.00    5.20
  -4   3   8    5.40    3.30
   3  -3  -8   10.00    4.20
  -3   3   8   -0.30    3.50
  -3   3   8    4.50    3.30
  -3   3   8    7.80    3.90
  -3   3   8    3.10    3.20
   2  -3  -8   -0.20    2.70
  -2   3   8   -0.20    2.70
  -2   3   8    1.60    3.80
  -2   3   8   -1.40    2.40
  -2   3   8    5.40    3.60
   1  -3  -8   77.39   11.30
   1  -3  -8   70.99   10.80
   1  -3  -8   60.49    6.50
  -1   3   8   75.69    6.90
  -1   3   8   70.79   10.40
  -1   3   8   75.39    5.70
  -1   3   8   83.19    9.90
   0  -3  -8    0.70    4.00
   0  -3  -8    1.60    2.00
   0  -3  -8    0.80    3.70
   0   3   8    3.20    1.70
   0   3   8    2.90    3.70
   0   3   8   -2.80    3.20
  -1  -3  -8    9.20    4.90
  -1  -3  -8   12.00    6.60
   1   3   8   11.60    4.90
   1   3   8    9.40    3.20
  -2  -3  -8   44.00    9.10
  -2  -3  -8   54.49    9.90
   2   3   8   57.19    9.40
   2   3   8   57.39    7.20
  -3  -3  -8   37.50    7.10
  -3  -3  -8   36.10    5.20
  -3  -3  -8   48.20    9.30
   3   3   8   52.79    8.90
   3   3   8   53.29    8.00
  -4  -3  -8    6.40    3.70
  -4  -3  -8    1.00    3.10
  -4  -3  -8    1.80    3.70
   4   3   8   -2.50    3.50
   4   3   8    3.00    2.40
   4   3   8    8.50    4.50
   7  -4  -8    1.50    2.80
   7  -4  -8   -0.10    3.10
   7  -4  -8    3.50    3.90
   7  -4  -8   -4.70    5.10
  -7   4   8   -4.20    3.20
  -7   4   8   -3.90    2.80
  -7   4   8   -0.30    3.60
   6  -4  -8    8.20    4.60
   6  -4  -8   -7.50    4.50
   6  -4  -8    3.90    2.60
   6  -4  -8    1.90    3.10
  -6   4   8    9.90    5.00
  -6   4   8    2.00    2.70
  -6   4   8    4.60    4.20
   5  -4  -8    9.20    5.00
   5  -4  -8    3.90    3.20
   5  -4  -8    8.60    1.80
  -5   4   8    6.80    3.30
  -5   4   8    0.80    3.70
  -5   4   8    8.90    4.10
   4  -4  -8   39.70    7.00
   4  -4  -8   24.40    6.50
  -4   4   8   39.80    6.10
  -4   4   8   31.50    6.50
   3  -4  -8  140.39   11.50
   3  -4  -8  156.98   12.30
  -3   4   8  143.49   11.40
  -3   4   8  140.89   12.80
  -3   4   8  152.98   10.70
  -3   4   8  151.18   13.60
   2  -4  -8   -2.70    3.20
   2  -4  -8    7.30    3.50
  -2   4   8    6.40    3.50
  -2   4   8    4.20    3.70
  -2   4   8    4.60    3.50
  -2   4   8    1.60    4.50
  -2   4   8    4.40    2.80
   1  -4  -8   14.70    6.30
   1  -4  -8   16.30    3.70
  -1   4   8   24.60    6.70
  -1   4   8   10.10    3.00
  -1   4   8   16.70    3.90
  -1   4   8    7.00    4.50
   0  -4  -8   36.20    8.30
   0  -4  -8   42.20    8.00
   0   4   8   38.40    7.60
   0   4   8   44.80    3.70
   0   4   8   41.60    3.70
  -1  -4  -8   -5.20    3.40
  -1  -4  -8    2.90    3.10
   1   4   8    1.30    2.30
   1   4   8    0.20    3.50
  -2  -4  -8    0.30    3.60
  -2  -4  -8    8.30    3.80
   2   4   8   -0.90    4.90
   2   4   8   -1.20    2.50
  -3  -4  -8   -4.90    3.00
  -3  -4  -8   -2.80    3.30
   3   4   8    2.40    3.40
   3   4   8    3.80    3.60
   3   4   8   -2.90    2.80
   7  -5  -8    6.80    5.30
   7  -5  -8    1.20    5.60
   7  -5  -8    7.00    3.30
   7  -5  -8    2.60    3.20
  -7   5   8    7.40    3.00
  -7   5   8    1.00    4.40
  -7   5   8   14.10    7.00
   6  -5  -8   14.00    5.00
   6  -5  -8   21.20    4.90
   6  -5  -8    6.70    5.60
   6  -5  -8   23.30    3.50
  -6   5   8   18.20    3.70
  -6   5   8   26.80    7.00
  -6   5   8   30.90    6.90
   5  -5  -8   28.50    7.30
   5  -5  -8    6.60    4.90
   5  -5  -8    9.30    3.90
  -5   5   8   10.00    3.20
  -5   5   8    8.60    5.20
  -5   5   8    4.90    3.70
   4  -5  -8   -4.00    3.50
   4  -5  -8   -1.10    3.20
  -4   5   8    3.40    3.70
  -4   5   8    1.50    2.70
  -4   5   8   -2.20    3.20
   3  -5  -8    7.90    5.20
  -3   5   8    3.80    3.60
  -3   5   8    3.80    2.90
  -3   5   8    4.10    3.70
  -3   5   8    4.50    4.90
   2  -5  -8   14.90    6.00
   2  -5  -8   21.30    4.80
  -2   5   8   18.60    4.80
  -2   5   8   24.60    4.70
  -2   5   8   23.60    6.60
  -2   5   8   15.80    4.40
  -2   5   8   20.00    6.30
   1  -5  -8    5.00    4.70
   1  -5  -8    2.00    2.50
  -1   5   8   -1.40    2.60
  -1   5   8    0.40    3.50
  -1   5   8    1.70    2.40
   0  -5  -8   97.09   11.40
   0   5   8   94.79    5.90
   0   5   8   75.99    7.20
   0   5   8  100.69    5.10
   0   5   8   95.89   10.80
   0   5   8   84.99   13.00
  -1  -5  -8   30.20    8.40
  -1  -5  -8   53.29   12.60
   1   5   8   33.30    4.70
   1   5   8   31.20    6.10
   1   5   8   40.30    5.30
   1   5   8   54.99   11.10
   1   5   8   42.30    7.50
  -2  -5  -8   37.10    8.90
   2   5   8   39.90    8.70
   2   5   8   31.30    6.70
   2   5   8   26.30    5.20
   2   5   8   34.50    6.50
   6  -6  -8    5.10    3.40
   6  -6  -8    5.00    5.40
   6  -6  -8    6.60    6.80
  -6   6   8    2.70    4.90
  -6   6   8    4.60    4.30
  -6   6   8   -1.90    2.00
  -6   6   8   -0.40    5.10
   5  -6  -8   -0.50    4.90
   5  -6  -8    7.00    4.40
  -5   6   8   -0.20    4.50
  -5   6   8    8.40    4.80
  -5   6   8    5.50    4.50
  -5   6   8    0.50    2.60
   4  -6  -8   48.60    7.40
   4  -6  -8   49.50    8.10
  -4   6   8   61.39    6.40
  -4   6   8   61.29   10.30
  -4   6   8   57.09    8.60
   3  -6  -8    2.70    4.50
   3  -6  -8    1.10    3.20
  -3   6   8   -0.40    4.80
  -3   6   8    1.10    4.00
  -3   6   8    2.60    3.30
  -3   6   8    0.70    2.90
  -3   6   8    0.30    3.20
  -3   6   8   -2.50    3.40
   2  -6  -8    8.00    3.40
   2  -6  -8    3.00    3.80
  -2   6   8    4.80    5.50
  -2   6   8    0.80    2.60
  -2   6   8   -0.30    3.50
  -2   6   8   -1.50    4.40
   1  -6  -8   69.29   11.20
  -1   6   8   44.50   10.30
  -1   6   8   91.89   10.90
  -1   6   8   79.89   10.50
  -1   6   8   67.79    7.70
  -1   6   8   56.49    6.10
   0  -6  -8    2.00    4.20
   0   6   8   -0.60    4.50
   0   6   8    7.80    4.60
   0   6   8    8.90    5.30
   0   6   8    7.50    2.70
   0   6   8    1.70    1.90
  -1  -6  -8    5.20    4.70
   1   6   8    7.90    4.70
   1   6   8   13.80    5.50
   1   6   8   10.30    3.30
   1   6   8   17.90    3.80
   3  -7  -8    3.80    3.60
  -3   7   8    9.30    3.90
  -3   7   8    2.70    4.10
  -3   7   8   10.70    9.20
  -3   7   8    3.10    3.90
  -3   7   8   13.00    9.10
  -3   7   8   -9.40    7.40
   0   8  -9    5.20    4.20
   0   8  -9    9.50    3.90
   0   8  -9   11.70    5.50
   0  -8   9   14.20    5.30
  -1   8  -9   -7.90    5.00
  -1   8  -9    6.90    4.30
  -1   8  -9   -3.30    4.60
  -1   8  -9    7.60    3.80
   1  -8   9   14.00    5.70
   1  -8   9   -1.20    3.20
   1  -8   9   -1.40    3.60
  -2   8  -9    5.70    4.70
  -2   8  -9    2.00    4.20
  -2   8  -9    0.10    4.40
   2  -8   9    0.50    3.40
   2  -8   9    0.30    5.70
   2  -8   9    5.80    4.90
  -3   8  -9    2.40    5.60
  -3   8  -9    1.60    4.30
  -3   8  -9   -1.50    6.30
   3  -8   9   -5.00    4.50
   3  -8   9    6.60    3.00
   3  -8   9   11.00    6.20
   3  -8   9    7.70    4.00
  -4   8  -9    0.60    4.70
  -4   8  -9    2.00    4.80
  -4   8  -9    0.60    4.80
  -4   8  -9   -0.10    4.10
   4  -8   9    5.70    3.00
   4  -8   9    4.00    4.40
   4  -8   9    2.90    6.30
   2   7  -9   -5.20    5.50
   2   7  -9    0.10    2.30
   2   7  -9    1.80    4.40
  -2  -7   9    0.90    4.20
  -2  -7   9    2.60    4.70
   1   7  -9    1.30    3.10
   1   7  -9    5.80    4.80
   1   7  -9    4.60    4.30
  -1  -7   9    1.60    3.90
  -1  -7   9    3.60    4.30
   0   7  -9   22.10    5.70
   0   7  -9   14.60    6.50
   0   7  -9   13.50    5.90
   0   7  -9   27.60    5.90
   0  -7   9   24.10    6.30
   0  -7   9   28.20    6.10
  -1   7  -9   15.30    5.40
  -1   7  -9    2.40    4.80
  -1   7  -9    8.60    5.60
  -1   7  -9    9.40    4.30
   1  -7   9   20.40    6.60
   1  -7   9   14.50    4.10
   1  -7   9   11.20    5.10
   1  -7   9    6.30    4.70
  -2   7  -9   -1.40    3.70
  -2   7  -9   -8.40    3.30
  -2   7  -9   -4.20    3.20
  -2   7  -9    0.70    4.00
   2  -7   9   -0.10    3.10
   2  -7   9   -0.20    3.50
   2  -7   9   -2.70    2.90
   2  -7   9    1.40    4.60
  -3   7  -9    4.20    4.00
  -3   7  -9   -3.50    3.40
  -3   7  -9    2.70    3.60
  -3   7  -9   -1.10    3.90
   3  -7   9    0.20    3.70
   3  -7   9   -1.70    3.70
   3  -7   9   -6.30    4.60
   3  -7   9   -1.40    2.60
  -4   7  -9   17.10    5.80
  -4   7  -9   27.20    7.20
  -4   7  -9   12.60    5.80
  -4   7  -9    4.10    4.40
   4  -7   9   19.50    4.10
   4  -7   9   22.60    5.90
  -5   7  -9    2.60    6.20
  -5   7  -9    1.10    4.60
  -5   7  -9    5.30    4.60
   5  -7   9   16.80    3.90
   5  -7   9   16.20    5.70
   5  -7   9   13.70    6.70
   3   6  -9    9.40    5.10
   3   6  -9    8.60    4.70
  -3  -6   9    5.30    4.50
  -3  -6   9   -0.70    3.50
  -3  -6   9    0.10    4.30
   2   6  -9    1.00    2.20
   2   6  -9    1.00    3.90
   2   6  -9    5.40    4.60
  -2  -6   9    1.30    4.20
  -2  -6   9    0.70    4.00
  -2  -6   9    1.10    4.50
   1   6  -9    3.40    4.00
   1   6  -9    3.70    4.00
   1   6  -9   -3.90    2.30
  -1  -6   9    1.50    4.00
  -1  -6   9   -5.80    3.50
   0   6  -9    5.00    4.10
   0   6  -9    4.20    3.50
   0   6  -9   -0.70    3.30
   0   6  -9   -2.40    3.80
   0  -6   9   11.10    4.60
   0  -6   9    1.40    2.40
   0  -6   9   -0.20    3.00
  -1   6  -9   24.60    6.70
  -1   6  -9   12.20    4.40
  -1   6  -9    6.50    4.40
  -1   6  -9   19.20    5.60
   1  -6   9    8.30    4.20
   1  -6   9   18.80    5.60
   1  -6   9   21.50    4.70
  -2   6  -9    9.70    4.40
  -2   6  -9   23.20    6.60
  -2   6  -9   24.00    6.50
   2  -6   9   10.00    4.20
   2  -6   9   19.40    5.80
  -3   6  -9   19.40    6.70
  -3   6  -9   40.10    8.90
  -3   6  -9   29.70    7.00
  -3   6  -9   25.40    6.90
   3  -6   9   32.20    7.30
   3  -6   9   29.50    5.60
  -4   6  -9    4.80    4.50
  -4   6  -9    0.00    4.30
  -4   6  -9    1.00    4.60
   4  -6   9   -5.90    3.80
   4  -6   9    0.90    3.70
   4  -6   9    0.80    2.80
  -5   6  -9    7.80    6.40
  -5   6  -9    5.40    4.50
  -5   6  -9   15.80    6.10
   5  -6   9   11.00    5.10
   5  -6   9   -1.90    8.90
   5  -6   9    7.70    3.80
  -6   6  -9    4.50    5.40
  -6   6  -9   -3.00    4.20
  -6   6  -9    3.70    4.40
   6  -6   9    2.00    5.50
   6  -6   9   -4.10    3.60
   6  -6   9   -0.80    3.10
   5   5  -9   74.89   11.00
   4   5  -9    0.00    4.50
   4   5  -9  -12.30    3.90
   4   5  -9    0.50    4.40
  -4  -5   9    2.00    4.30
  -4  -5   9    2.20    3.40
  -4  -5   9    4.40    5.40
   3   5  -9   15.60    3.00
   3   5  -9   13.30    5.60
   3   5  -9    6.40    4.90
  -3  -5   9   12.40    6.00
  -3  -5   9   22.60    6.70
  -3  -5   9   13.50    4.90
   2   5  -9   36.70    8.00
   2   5  -9   31.50    7.40
   2   5  -9   33.10    5.50
  -2  -5   9   32.60    6.80
  -2  -5   9   25.80    6.50
  -2  -5   9   25.20    6.50
   1   5  -9   32.60    6.10
   1   5  -9   16.20    5.50
   1   5  -9   22.10    5.80
  -1  -5   9   22.80    6.00
  -1  -5   9   22.40    5.90
   0   5  -9    0.60    2.90
   0   5  -9   -3.60    3.10
   0   5  -9   -3.20    3.00
   0   5  -9    4.60    4.60
   0  -5   9   -0.40    3.60
   0  -5   9   -0.10    3.30
   0  -5   9    1.60    3.30
   0  -5   9    0.30    2.00
  -1   5  -9   28.30    6.10
  -1   5  -9   30.00    7.40
   1  -5   9   32.50    6.60
   1  -5   9   18.90    5.70
  -2   5  -9   50.09    7.70
  -2   5  -9   43.60    8.00
  -2   5  -9   37.00    7.90
   2  -5   9   42.00    7.10
   2  -5   9   51.19    9.80
  -3   5  -9   -2.40    2.80
  -3   5  -9    4.20    4.00
  -3   5  -9   -1.40    3.70
  -3   5  -9    0.10    3.20
   3  -5   9   -5.30    2.60
  -4   5  -9   34.10    7.60
  -4   5  -9   31.30    6.60
   4  -5   9   47.30    9.10
   4  -5   9   34.80    6.30
  -5   5  -9    1.40    4.30
  -5   5  -9    4.00    4.50
  -5   5  -9    8.50    4.30
   5  -5   9    7.50    4.30
   5  -5   9    8.80    4.20
   5  -5   9    0.40    4.60
  -6   5  -9    8.30    5.30
  -6   5  -9    7.70    4.50
  -6   5  -9   16.80    6.80
   6  -5   9    4.10    5.80
   6  -5   9    5.50    3.50
   6  -5   9    4.70    3.80
   5   4  -9    7.70    5.50
   5   4  -9   10.10    5.60
   5   4  -9    8.10    4.90
  -5  -4   9   15.00    5.50
  -5  -4   9   15.50    6.50
   4   4  -9    6.20    4.60
   4   4  -9   20.30    6.10
   4   4  -9   19.10    6.30
  -4  -4   9   23.60    6.50
   3   4  -9   18.70    6.10
   3   4  -9    7.70    4.60
   3   4  -9   16.90    5.60
   3   4  -9   13.90    3.70
  -3  -4   9    9.40    4.40
   2   4  -9  181.28   11.20
   2   4  -9  181.88   16.20
   2   4  -9  179.78   16.20
  -2  -4   9  177.08   13.90
  -2  -4   9  192.98   14.20
   1   4  -9   28.30    6.30
   1   4  -9   50.29    8.10
   1   4  -9   42.20    7.90
  -1  -4   9   29.80    6.60
  -1  -4   9   29.80    6.90
   0   4  -9    2.80    3.40
   0   4  -9    2.90    3.00
   0   4  -9    1.00    3.30
   0   4  -9    2.50    3.60
   0  -4   9    6.10    3.70
   0  -4   9    4.00    3.90
  -1   4  -9    7.60    3.40
  -1   4  -9    2.60    3.60
  -1   4  -9    5.20    4.00
   1  -4   9    0.40    3.70
   1  -4   9    3.70    3.90
  -2   4  -9    1.80    2.80
  -2   4  -9   -1.80    3.30
  -2   4  -9    1.00    3.70
   2  -4   9    5.30    3.90
  -3   4  -9    0.90    3.00
  -3   4  -9    0.80    3.30
   3  -4   9    0.00    3.40
   3  -4   9   -4.60    3.20
   3  -4   9   -8.20    2.80
  -4   4  -9  102.79   11.50
  -4   4  -9   97.89    9.80
   4  -4   9  126.49   10.60
   4  -4   9  104.29   11.90
   4  -4   9  115.39   10.10
  -5   4  -9   32.90    7.80
  -5   4  -9   27.80    7.00
  -5   4  -9   30.90    6.00
   5  -4   9   35.50    6.00
   5  -4   9   25.60    7.40
  -6   4  -9   24.80    5.40
  -6   4  -9   31.40    8.00
  -6   4  -9   26.10    4.90
   6  -4   9   24.60    5.00
   6  -4   9   26.90   11.80
   6   3  -9    5.80    8.30
   6   3  -9   -0.40    5.00
   6   3  -9    5.10    4.20
  -6  -3   9    1.40    5.10
  -6  -3   9    7.10    4.60
   5   3  -9   30.10    7.30
   5   3  -9   17.40    6.20
   5   3  -9   29.80    7.80
  -5  -3   9   34.40    7.70
  -5  -3   9   34.80    7.20
   4   3  -9   14.50    5.70
   4   3  -9   10.40    4.70
   4   3  -9   12.30    3.20
   4   3  -9   12.30    5.10
  -4  -3   9    9.00    2.90
  -4  -3   9    4.10    4.00
   3   3  -9   -2.50    2.00
   3   3  -9   -2.80    4.40
   3   3  -9   -0.10    3.90
   3   3  -9    2.30    3.90
  -3  -3   9    0.70    2.30
  -3  -3   9   -2.20    3.00
  -3  -3   9    0.60    3.20
   2   3  -9   10.10    4.60
   2   3  -9    0.30    3.60
   2   3  -9    9.50    3.50
  -2  -3   9    1.50    3.40
  -2  -3   9    2.30    2.80
  -2  -3   9   11.30    4.30
   1   3  -9   -1.80    2.70
   1   3  -9    2.50    3.70
   1   3  -9   -3.80    3.10
  -1  -3   9   -0.80    3.30
  -1  -3   9    3.80    3.30
  -1  -3   9    1.30    2.80
   0   3  -9    6.50    3.00
   0   3  -9   12.10    4.80
   0   3  -9    5.40    4.20
   0  -3   9    5.40    4.20
   0  -3   9   14.00    4.90
  -1   3  -9  140.99    9.40
  -1   3  -9  168.48   13.40
  -1   3  -9  134.69   11.80
   1  -3   9  156.58   12.30
   1  -3   9  151.98   12.40
  -2   3  -9   96.09   10.50
  -2   3  -9   69.19   10.90
  -2   3  -9   72.09    6.80
   2  -3   9   66.99    9.50
   2  -3   9   78.29    9.90
  -3   3  -9    0.10    2.90
  -3   3  -9    4.90    3.40
  -3   3  -9    4.10    3.70
   3  -3   9    0.90    3.10
  -4   3  -9   12.10    5.00
  -4   3  -9   21.20    6.10
  -4   3  -9   18.90    4.80
   4  -3   9   14.50    4.60
   4  -3   9   22.50    6.00
  -5   3  -9   19.50    6.30
  -5   3  -9   13.10    4.20
  -5   3  -9   17.50    6.30
   5  -3   9   14.30    6.00
   5  -3   9   21.10    4.80
  -6   3  -9    1.30    4.30
  -6   3  -9   -0.70    3.10
  -6   3  -9   -1.80    2.70
   6  -3   9    1.80    6.50
   6  -3   9   -7.30    2.30
   6   2  -9  148.59   13.10
   6   2  -9  139.69   13.10
  -6  -2   9  117.69    7.60
  -6  -2   9  139.39   13.20
  -6  -2   9  139.39   13.20
   5   2  -9    0.00    3.50
   5   2  -9    1.90    3.90
   5   2  -9    6.50    4.50
  -5  -2   9    1.00    2.10
  -5  -2   9    9.20    4.80
  -5  -2   9   -2.00    3.40
   4   2  -9  384.36   17.60
   4   2  -9  378.56   20.80
   4   2  -9  403.96   20.80
   4   2  -9  444.66   22.50
  -4  -2   9  416.56   21.10
  -4  -2   9  413.56   17.80
  -4  -2   9  407.56   21.80
   3   2  -9   83.09    8.30
   3   2  -9   80.29   10.80
   3   2  -9   87.19    9.30
  -3  -2   9   78.99    9.10
  -3  -2   9   79.29    8.10
   2   2  -9   51.09    7.80
   2   2  -9   52.49    8.10
   2   2  -9   46.90    8.00
   2   2  -9   44.60    7.90
  -2  -2   9   49.30    7.20
  -2  -2   9   46.10    7.80
  -2  -2   9   62.29    7.10
   1   2  -9  113.29   10.00
   1   2  -9  102.19   10.00
   1   2  -9  107.79   10.80
  -1  -2   9  105.99   10.40
  -1  -2   9   85.89    7.60
  -1  -2   9  100.19   10.00
   0   2  -9    9.00    4.60
   0   2  -9   12.90    4.70
   0  -2   9   15.40    4.80
   0  -2   9    6.70    4.40
   0  -2   9   14.60    5.60
  -1   2  -9   60.09   11.50
  -1   2  -9   38.60    4.70
  -1   2  -9   48.60    8.00
   1  -2   9   45.30    8.90
   1  -2   9   30.10    6.60
   1  -2   9   47.20    7.40
  -2   2  -9   44.20    8.00
  -2   2  -9   41.80    4.60
  -2   2  -9   42.70    7.70
   2  -2   9   52.19    8.30
   2  -2   9   44.00    7.40
  -3   2  -9   27.10    4.90
  -3   2  -9   27.70    6.90
  -3   2  -9   20.80    6.90
   3  -2   9   22.30    6.40
  -4   2  -9  101.19   11.60
  -4   2  -9   89.39   10.80
  -4   2  -9  102.19    8.10
   4  -2   9   82.39   11.10
  -5   2  -9   16.80    3.90
  -5   2  -9   14.20    4.60
   5  -2   9   17.00    3.70
   5  -2   9   19.30    6.10
  -6   2  -9   10.60    5.10
  -6   2  -9   -4.40    2.30
  -6   2  -9   -2.90    3.00
   6  -2   9    2.20    2.00
   6  -2   9   -9.30    5.40
   7   1  -9   15.10    6.30
   7   1  -9   29.90    6.50
   7   1  -9   30.90    4.30
  -7  -1   9   21.10    4.40
  -7  -1   9   14.00    6.50
   6   1  -9   -3.80    4.50
   6   1  -9   -3.70    4.50
  -6  -1   9   -0.90    2.50
  -6  -1   9    1.60    4.70
   5   1  -9  146.19   13.10
   5   1  -9  139.59   12.60
  -5  -1   9  165.28   11.10
  -5  -1   9  174.08   13.30
   4   1  -9   19.90    6.30
   4   1  -9   28.60    6.20
   4   1  -9   39.50    6.90
   4   1  -9   25.50    6.30
  -4  -1   9   30.40    6.20
  -4  -1   9   33.50    7.30
   3   1  -9   87.99   11.10
   3   1  -9   66.49    7.80
   3   1  -9   67.79    9.90
   3   1  -9   62.69    8.60
  -3  -1   9   62.29    7.60
  -3  -1   9   53.39    8.70
  -3  -1   9   47.00    7.20
   2   1  -9    1.20    2.90
   2   1  -9    1.60    3.10
   2   1  -9    4.00    3.50
   2   1  -9    0.00    3.60
  -2  -1   9    2.30    3.30
  -2  -1   9    1.70    2.00
  -2  -1   9    4.90    2.80
  -2  -1   9    0.20    3.30
   1   1  -9  787.42   29.60
   1   1  -9  810.02   32.00
   1   1  -9  800.92   28.40
  -1  -1   9  776.42   31.30
  -1  -1   9  792.42   24.60
  -1  -1   9  823.62   32.30
  -1  -1   9  769.62   28.00
   0   1  -9   38.00    6.20
   0   1  -9   21.30    5.00
   0  -1   9   53.59    9.20
   0  -1   9   36.30    5.90
   0  -1   9   33.00    7.10
  -1   1  -9   37.60    6.60
  -1   1  -9   23.00    5.00
   1  -1   9   50.09    7.10
   1  -1   9   43.20    7.90
   1  -1   9   46.10    8.90
  -2   1  -9    1.00    3.00
  -2   1  -9    6.10    3.70
   2  -1   9    2.70    4.40
   2  -1   9    4.60    3.90
  -3   1  -9   15.60    3.30
  -3   1  -9    6.50    7.40
  -3   1  -9   15.20    5.40
   3  -1   9   12.40    4.90
  -4   1  -9   65.79   10.20
  -4   1  -9   73.79    8.30
  -4   1  -9   73.99    5.80
   4  -1   9   56.59    8.90
  -5   1  -9    6.00    2.20
  -5   1  -9    2.40    3.70
   5  -1   9    2.70    4.70
   5  -1   9    6.90    2.70
  -6   1  -9    6.20    2.30
  -6   1  -9    2.00    4.20
   6  -1   9    6.00    1.40
   7   0  -9   15.60    5.90
   7   0  -9   11.50    3.30
   7   0  -9    7.30    5.20
  -7   0   9   18.70    5.00
  -7   0   9   11.60    5.40
   6   0  -9   -3.70    4.00
   6   0  -9    0.50    2.30
  -6   0   9    3.10    2.80
  -6   0   9   -1.70    3.70
  -5   0   9   -0.30    2.60
  -5   0   9   -1.40    3.50
   4   0  -9   12.00    4.70
   4   0  -9   14.90    5.30
   4   0  -9    9.10    3.70
   4   0  -9    6.20    4.40
  -4   0   9   12.60    4.70
  -4   0   9    4.60    3.30
   3   0  -9  109.99   10.70
   3   0  -9   97.89   10.70
   3   0  -9  104.29    8.40
   3   0  -9  105.89   10.60
  -3   0   9  132.09   11.40
  -3   0   9  120.89   11.20
   2   0  -9    9.20    4.30
   2   0  -9    5.70    3.00
   2   0  -9    7.90    4.10
  -2   0   9   12.30    4.60
  -2   0   9    9.60    3.40
  -2   0   9    5.20    4.10
   1   0  -9    0.30    2.50
   1   0  -9    3.30    2.30
   1   0  -9   -1.70    2.20
  -1   0   9    3.10    2.80
  -1   0   9    1.70    1.20
  -1   0   9    2.70    2.20
  -1   0   9   -5.30    2.90
   0   0  -9   29.90    5.30
   0   0  -9   25.60    6.30
   0   0  -9   30.30    5.10
   0   0   9   35.40    5.20
   0   0   9   15.10    5.20
  -1   0  -9   58.59    9.60
  -1   0  -9   63.49    5.80
  -1   0  -9   63.19    7.00
   1   0   9   49.40    6.60
   1   0   9   60.09   10.20
  -2   0  -9    4.40    3.70
  -2   0  -9    1.80    2.50
   2   0   9    7.10    4.40
   2   0   9    4.30    3.40
  -3   0  -9   40.10    7.60
  -3   0  -9   40.70    4.10
  -3   0  -9   30.10    6.70
  -3   0  -9   40.90    3.40
   3   0   9   23.60    5.80
   3   0   9   46.20    7.90
  -4   0  -9    1.00    3.40
  -4   0  -9   -0.50    3.20
   4   0   9    6.00    4.10
  -5   0  -9   -2.10    3.10
   5   0   9   -5.20    4.50
  -6   0  -9   27.60    7.00
  -6   0  -9   22.40    6.00
   6   0   9   21.70    7.20
   7  -1  -9    6.30    4.60
   7  -1  -9    7.40    5.30
   7  -1  -9   10.70    4.10
  -7   1   9    2.50    4.70
  -7   1   9    8.60    4.00
   6  -1  -9   10.40    3.90
   6  -1  -9    9.70    4.60
  -6   1   9   12.00    4.30
  -6   1   9    2.20    3.80
   5  -1  -9    3.70    4.00
   5  -1  -9   11.70    3.90
  -5   1   9   -9.60    4.70
  -5   1   9   12.20    4.50
  -5   1   9    5.70    3.60
   4  -1  -9    2.90    3.40
   4  -1  -9   -3.30    3.10
   4  -1  -9   -4.10    3.00
   4  -1  -9   -2.50    2.10
  -4   1   9    7.60    4.10
  -4   1   9    2.80    3.10
  -4   1   9   -0.40    3.00
   3  -1  -9   40.10    7.30
   3  -1  -9   47.80    9.10
  -3   1   9   39.70    8.20
  -3   1   9   41.80    7.50
  -3   1   9   40.30    6.60
   2  -1  -9   49.20    4.30
   2  -1  -9   35.00    6.30
   2  -1  -9   40.90    8.10
  -2   1   9   53.59    7.60
  -2   1   9   48.20    9.10
  -2   1   9   34.80    7.00
   1  -1  -9   13.30    5.20
   1  -1  -9   13.60    2.70
   1  -1  -9   13.50    4.00
  -1   1   9   11.40    4.80
  -1   1   9    5.80    3.50
  -1   1   9   12.80    4.10
  -1   1   9   11.90    1.30
   0  -1  -9    5.20    2.60
   0  -1  -9    5.20    3.50
   0   1   9   10.50    4.70
   0   1   9    3.10    2.30
  -1  -1  -9    1.40    3.10
  -1  -1  -9   -1.80    2.20
   1   1   9    1.70    2.50
   1   1   9   -0.30    3.00
  -2  -1  -9    6.80    4.40
  -2  -1  -9    8.90    4.60
   2   1   9    6.10    3.50
   2   1   9    7.20    4.10
  -3  -1  -9   89.79   10.00
   3   1   9   89.99   10.30
   3   1   9   87.59    9.30
  -4  -1  -9   21.10    4.00
  -4  -1  -9   29.60    7.60
  -4  -1  -9   20.40    6.00
   4   1   9   22.10    6.10
  -5  -1  -9   24.50    4.70
  -5  -1  -9   29.90    7.10
   5   1   9   30.10    7.30
   7  -2  -9   -0.20    5.40
   7  -2  -9   37.80    7.00
   7  -2  -9   31.30    5.80
   7  -2  -9   17.50    5.50
  -7   2   9   25.00    5.80
  -7   2   9   22.80    5.40
  -7   2   9   15.90    5.40
   6  -2  -9    1.90    2.90
   6  -2  -9    2.20    3.30
   6  -2  -9    4.50    3.00
   6  -2  -9   -4.30    3.90
  -6   2   9    3.60    3.60
  -6   2   9    4.30    3.60
  -6   2   9    5.90    3.70
   5  -2  -9    2.40    3.50
   5  -2  -9   11.20    4.60
  -5   2   9    7.00    4.00
  -5   2   9    4.40    3.80
  -5   2   9    9.20    4.80
   4  -2  -9   18.50    3.30
   4  -2  -9   12.70    4.90
  -4   2   9   17.10    4.90
  -4   2   9    9.70    4.30
  -4   2   9    9.80    5.10
   3  -2  -9    4.30    1.10
   3  -2  -9   -3.40    2.80
   3  -2  -9    6.00    4.70
   3  -2  -9    5.00    1.20
  -3   2   9    6.80    3.10
  -3   2   9    6.40    4.10
  -3   2   9    8.60    3.90
  -3   2   9    7.20    3.80
   2  -2  -9   37.10    6.20
   2  -2  -9   31.00    7.50
  -2   2   9   41.20    6.80
  -2   2   9   30.30    6.90
  -2   2   9   47.00    7.90
  -2   2   9   62.49    9.30
   1  -2  -9  107.09   16.20
   1  -2  -9   88.39    7.50
  -1   2   9   69.59    4.10
  -1   2   9   49.30    7.20
  -1   2   9   78.99   10.00
  -1   2   9   89.09   10.50
   0  -2  -9    6.40    4.40
   0  -2  -9    5.50    2.50
   0   2   9    7.30    3.90
   0   2   9    6.40    2.00
  -1  -2  -9    0.60    3.90
  -1  -2  -9    2.50    4.00
  -1  -2  -9    2.60    1.30
   1   2   9   -1.00    3.00
   1   2   9   -0.80    2.30
  -2  -2  -9   41.20    9.00
  -2  -2  -9   43.20    8.10
   2   2   9   37.40    6.20
   2   2   9   53.49    9.90
  -3  -2  -9   10.90    2.70
  -3  -2  -9    8.80    4.10
  -3  -2  -9    7.20    4.90
   3   2   9    5.10    3.90
   3   2   9    3.40    3.70
  -4  -2  -9    1.20    3.80
  -4  -2  -9   -4.60    2.10
  -4  -2  -9   -0.50    3.30
   4   2   9    0.80    3.60
   7  -3  -9    4.40    5.60
   7  -3  -9    9.70    4.70
   7  -3  -9    7.90    4.40
   7  -3  -9    5.50    4.20
  -7   3   9    3.50    4.30
  -7   3   9    5.60    3.90
  -7   3   9    6.80    5.10
   6  -3  -9   27.70    6.70
   6  -3  -9   25.70    4.60
   6  -3  -9   20.10    5.10
  -6   3   9   20.40    5.20
  -6   3   9   16.10    6.00
  -6   3   9   15.70    5.50
   5  -3  -9   -1.20    2.20
   5  -3  -9    4.20    3.40
   5  -3  -9    2.00    2.70
  -5   3   9   -0.70    3.20
  -5   3   9    2.00    3.80
  -5   3   9   -3.50    2.60
   4  -3  -9   -1.80    3.00
  -4   3   9   -1.10    3.00
  -4   3   9    1.70    3.90
  -4   3   9   -0.40    5.80
   3  -3  -9   35.60    6.80
  -3   3   9   34.20    6.60
  -3   3   9   38.70    7.10
  -3   3   9   26.50    6.10
  -3   3   9   46.00    9.40
   2  -3  -9   25.20    5.10
   2  -3  -9   31.50    7.60
  -2   3   9   36.60    6.20
  -2   3   9   21.00    6.10
  -2   3   9   22.30    5.40
   1  -3  -9   -4.50    2.90
   1  -3  -9   -0.30    3.20
   1  -3  -9    2.70    2.30
  -1   3   9    2.40    2.70
  -1   3   9   -4.10    2.10
  -1   3   9   -4.70    3.10
  -1   3   9   -2.70    1.80
   0  -3  -9    4.20    2.10
   0  -3  -9    2.20    4.10
   0  -3  -9   -0.50    3.00
   0   3   9    3.30    1.60
   0   3   9    1.10    3.40
   0   3   9    1.90    2.70
  -1  -3  -9   22.10    7.20
  -1  -3  -9   28.30    6.80
   1   3   9   16.20    3.60
  -2  -3  -9   13.50    5.00
  -2  -3  -9   10.00    5.40
   2   3   9   10.70    4.40
   2   3   9    2.10    3.10
  -3  -3  -9   26.40    7.40
  -3  -3  -9   23.30    6.10
   3   3   9   26.30    6.30
   3   3   9   11.50    5.10
  -4  -3  -9   95.69    8.20
  -4  -3  -9   90.19   10.70
   4   3   9  130.79    8.00
   4   3   9  113.19   10.90
   4   3   9   98.99   10.40
   7  -4  -9    2.00    3.40
   7  -4  -9    2.00    5.80
   7  -4  -9    0.70    2.90
   7  -4  -9    3.60    4.20
  -7   4   9    6.50    4.00
  -7   4   9    7.20    4.90
  -7   4   9   -6.10    3.50
   6  -4  -9    4.00    4.80
   6  -4  -9   -4.50    2.90
   6  -4  -9   -1.20    3.80
   6  -4  -9    2.50    2.20
  -6   4   9    2.90    3.90
  -6   4   9    3.80    3.60
  -6   4   9    2.20    3.20
   5  -4  -9   10.40    4.70
   5  -4  -9   -0.80    3.00
  -5   4   9    2.60    4.50
  -5   4   9   -3.90    3.70
  -5   4   9    4.70    3.80
   4  -4  -9    5.30    3.90
   4  -4  -9    3.10    3.60
  -4   4   9    8.10    5.10
  -4   4   9    7.50    4.30
  -4   4   9    4.70    3.30
  -4   4   9    7.90    4.10
   3  -4  -9  206.68   13.80
   3  -4  -9  191.18   14.20
  -3   4   9  218.08   15.40
  -3   4   9  216.88   13.10
  -3   4   9  224.28   16.60
  -3   4   9  210.28   13.60
   2  -4  -9   10.70    3.80
   2  -4  -9    5.70    4.50
  -2   4   9    8.30    2.90
  -2   4   9    6.20    4.50
  -2   4   9   11.60    4.60
  -2   4   9   12.80    5.10
  -2   4   9   10.50    3.90
   1  -4  -9    2.10    3.90
   1  -4  -9    2.50    2.40
   1  -4  -9    3.50    4.70
  -1   4   9    3.80    2.70
  -1   4   9    5.90    2.50
  -1   4   9    9.10    5.20
   0  -4  -9   11.20    4.50
   0  -4  -9   12.70    5.50
   0   4   9   10.90    4.90
   0   4   9   18.90    2.10
   0   4   9   17.30    2.10
  -1  -4  -9    3.30    4.70
  -1  -4  -9   -1.60    3.40
   1   4   9    2.10    2.20
   1   4   9    5.00    4.60
   1   4   9   -0.20    4.30
  -2  -4  -9    6.90    4.80
   2   4   9    2.80    3.00
   2   4   9   10.00    3.80
  -3  -4  -9    9.50    5.30
   3   4   9    4.10    4.10
   3   4   9   14.40    5.30
   3   4   9   19.60    4.20
   6  -5  -9   10.60    4.10
   6  -5  -9   15.00    5.90
   6  -5  -9    0.40    5.50
  -6   5   9    9.80    5.70
  -6   5   9    0.20    4.40
  -6   5   9    6.20    3.20
   5  -5  -9   -1.90    3.40
   5  -5  -9    2.50    4.20
  -5   5   9    2.50    4.10
  -5   5   9   -2.60    3.80
  -5   5   9   -5.40    2.70
   4  -5  -9   26.60    6.40
  -4   5   9   32.90    6.70
  -4   5   9   31.90    5.50
  -4   5   9   24.70    7.00
  -4   5   9   26.00    6.30
   3  -5  -9   64.79    8.40
   3  -5  -9   49.40    8.90
  -3   5   9   47.70    6.90
  -3   5   9   49.40    7.50
  -3   5   9   43.20    7.90
  -3   5   9   45.00    8.40
   2  -5  -9   -1.40    2.70
   2  -5  -9    5.00    4.10
  -2   5   9   -0.90    3.40
  -2   5   9   -5.70    3.60
  -2   5   9   -0.30    3.70
  -2   5   9    3.30    3.10
  -2   5   9   -2.00    2.30
   1  -5  -9   -4.20    3.30
   1  -5  -9    4.00    2.40
  -1   5   9   -0.40    3.90
  -1   5   9   -0.90    3.70
  -1   5   9    0.50    2.30
  -1   5   9    0.30    2.20
   0  -5  -9   49.90    9.30
   0  -5  -9   40.50    9.10
   0   5   9   38.10    7.50
   0   5   9   66.19   11.90
  -1  -5  -9   10.40    5.90
  -1  -5  -9    6.20    4.20
   1   5   9    8.60    4.80
   1   5   9    6.40    2.90
   1   5   9    5.80    2.80
   1   5   9   11.00    5.10
   1   5   9    9.00    5.30
   5  -6  -9    5.80    5.00
   5  -6  -9   -0.60    3.60
  -5   6   9    1.20    2.80
  -5   6   9    4.70    4.90
  -5   6   9    2.20    4.70
   4  -6  -9   22.60    5.70
   4  -6  -9   26.10    6.50
  -4   6   9   35.20    6.80
  -4   6   9   30.70    5.40
  -4   6   9   46.40    9.00
   3  -6  -9    7.30    4.30
   3  -6  -9    6.20    3.80
  -3   6   9    0.30    3.50
  -3   6   9   -6.50    3.50
  -3   6   9    1.80    3.50
  -3   6   9    7.10    6.00
  -3   6   9   -0.10    3.40
   2  -6  -9   -4.80    2.90
   2  -6  -9    5.90    4.00
  -2   6   9   -4.80    3.60
  -2   6   9    3.20    3.00
  -2   6   9    7.30    4.70
  -2   6   9   -0.60    3.60
  -2   6   9    1.50    3.50
  -2   6   9   -1.50    3.40
   1  -6  -9   19.90    7.10
  -1   6   9   21.50    7.30
  -1   6   9  -10.10    8.20
  -1   6   9   19.00    5.60
  -1   6   9    9.20    3.80
  -1   6   9   15.60    3.80
   0  -6  -9    0.70    3.50
   0   6   9    6.60    4.40
  -1   8 -10   25.20    6.70
  -1   8 -10   21.20    6.00
  -1   8 -10   17.20    4.80
  -1   8 -10   23.90    6.80
   1  -8  10   20.50    4.80
   1  -8  10   24.10    6.40
  -2   8 -10   30.90    8.50
  -2   8 -10   34.50    7.50
  -2   8 -10   30.70    7.00
  -2   8 -10   35.90    7.70
   2  -8  10   27.80    5.80
   2  -8  10   26.50    6.60
   2  -8  10   22.70    7.60
  -3   8 -10   20.50    6.50
  -3   8 -10   21.60    6.70
  -3   8 -10   18.60    6.90
  -3   8 -10   19.10    6.60
   3  -8  10   29.70    6.30
   3  -8  10   32.60    9.70
   3  -8  10   32.50    7.40
   3  -8  10   21.80    5.00
   2   7 -10    0.40    2.50
   2   7 -10   11.30    5.40
   2   7 -10   -2.50    4.00
  -2  -7  10   -0.80    4.10
   1   7 -10   11.20    5.20
   1   7 -10    6.90    3.60
   1   7 -10    3.00    4.70
  -1  -7  10    8.50    4.80
  -1  -7  10    0.00    4.70
   0   7 -10    7.10    4.40
   0   7 -10    9.50    5.30
   0   7 -10    6.00    3.60
   0   7 -10    4.50    5.00
   0  -7  10   17.20    5.90
  -1   7 -10   16.10    6.00
  -1   7 -10    5.80    4.90
  -1   7 -10    6.70    4.60
  -1   7 -10    4.50    4.30
   1  -7  10   14.60    5.60
   1  -7  10   12.00    3.70
   1  -7  10   13.60    4.30
   1  -7  10    7.00    4.90
  -2   7 -10   -2.30    3.80
  -2   7 -10   -0.60    4.20
  -2   7 -10    4.00    4.60
   2  -7  10    3.40    4.00
   2  -7  10    0.90    2.90
   2  -7  10   -0.80    3.50
   2  -7  10    1.80    5.00
  -3   7 -10    6.70    4.60
  -3   7 -10   -4.20    4.10
  -3   7 -10   -5.40    3.70
  -3   7 -10   -7.20    3.60
   3  -7  10    8.30    3.60
   3  -7  10    5.80    4.10
   3  -7  10    4.20    4.30
  -4   7 -10    5.80    5.10
  -4   7 -10   -3.10    4.50
  -4   7 -10    3.60    5.00
  -4   7 -10    6.20    4.40
   4  -7  10    7.00    5.70
   4  -7  10    0.40    4.30
   4  -7  10   -0.80    3.20
  -5   7 -10    2.70    5.20
  -5   7 -10    9.20    7.50
   5  -7  10    4.90    4.90
   5  -7  10   -1.60    3.20
   3   6 -10    6.60    4.80
   3   6 -10    4.60    4.60
  -3  -6  10   -0.60    5.90
  -3  -6  10   -2.90    4.10
  -3  -6  10   -5.80    3.30
   2   6 -10    2.80    4.40
   2   6 -10   -2.60    2.20
   2   6 -10   -1.80    3.60
  -2  -6  10   -9.00    3.50
  -2  -6  10    5.70    4.70
  -2  -6  10   -3.00    3.30
   1   6 -10   31.90    6.20
   1   6 -10   29.40    6.50
   1   6 -10   29.50    7.00
  -1  -6  10   28.10    6.50
   0   6 -10    2.50    3.90
   0   6 -10   -1.20    3.10
   0   6 -10   -0.90    3.30
   0   6 -10   -0.60    3.30
   0  -6  10   -2.90    2.00
   0  -6  10    4.00    3.90
   0  -6  10   -2.20    3.50
  -1   6 -10   27.60    6.70
  -1   6 -10   44.00    8.90
  -1   6 -10   49.90    8.80
   1  -6  10   38.00    7.00
   1  -6  10   47.80    8.10
   1  -6  10   49.30    6.00
  -2   6 -10    5.40    4.70
  -2   6 -10    9.30    4.50
  -2   6 -10    9.20    4.40
   2  -6  10    0.30    3.90
   2  -6  10    6.40    4.20
  -3   6 -10   29.00    6.60
  -3   6 -10   36.80    7.70
  -3   6 -10   25.00    6.10
   3  -6  10   32.30    5.80
   3  -6  10   38.50    9.60
   3  -6  10   21.20    6.20
  -4   6 -10   52.59    8.70
  -4   6 -10   63.49   11.10
  -4   6 -10   63.79   10.40
   4  -6  10   67.39    9.60
   4  -6  10   43.40    8.80
   4  -6  10   43.40    6.50
  -5   6 -10   14.80    5.00
  -5   6 -10   10.10    5.50
  -5   6 -10   17.10    6.40
   5  -6  10   12.20    4.80
   5  -6  10    8.30    4.50
   5  -6  10   23.00    7.10
   4   5 -10    6.20    5.50
   4   5 -10    8.20    5.20
  -4  -5  10   11.90    5.60
  -4  -5  10    5.20    5.30
  -4  -5  10   17.50    4.90
   3   5 -10   81.79   11.50
   3   5 -10   72.79    6.10
   3   5 -10   72.99   10.70
  -3  -5  10   69.79   10.20
  -3  -5  10   63.79   10.20
  -3  -5  10   95.19    9.60
   2   5 -10   13.40    5.40
   2   5 -10   11.80    5.30
   2   5 -10    8.70    3.50
  -2  -5  10    9.80    4.90
   1   5 -10   65.69   10.40
   1   5 -10   88.69    8.90
   1   5 -10   70.99   10.00
  -1  -5  10   82.49   10.80
   0   5 -10   75.09   10.10
   0   5 -10   69.19    9.20
   0   5 -10   65.09    9.80
   0   5 -10   72.59   10.40
   0  -5  10   59.09   10.20
   0  -5  10   77.99    6.70
   0  -5  10   56.79    8.50
  -1   5 -10  104.49   10.10
  -1   5 -10  102.39   11.00
  -1   5 -10  128.69   11.80
   1  -5  10  120.29   10.80
   1  -5  10  100.09   10.20
   1  -5  10  114.89   11.70
  -2   5 -10   -2.40    3.20
  -2   5 -10    7.60    3.80
  -2   5 -10    4.40    4.50
   2  -5  10    6.80    4.30
   2  -5  10   10.90    4.60
   2  -5  10   11.80    5.00
  -3   5 -10   10.50    4.70
  -3   5 -10   14.50    4.40
  -3   5 -10   10.50    5.80
  -3   5 -10    5.90    5.10
   3  -5  10   12.30    5.40
   3  -5  10   17.50    4.80
   3  -5  10   11.10    4.90
  -4   5 -10    1.20    3.60
  -4   5 -10   -1.10    3.60
  -4   5 -10    0.70    3.80
   4  -5  10   -3.00    3.40
   4  -5  10    1.60    3.40
   4  -5  10   -3.90    4.10
  -5   5 -10    7.70    5.10
  -5   5 -10    1.10    3.80
  -5   5 -10    0.40    3.80
   5  -5  10   -9.70    4.10
   5  -5  10    5.20    3.80
   5  -5  10    1.20    3.60
  -6   5 -10    7.50    5.50
  -6   5 -10    6.90    4.60
  -6   5 -10    7.40    4.20
   6  -5  10   -7.20    5.50
   6  -5  10    3.70    3.70
   6  -5  10    5.30    4.50
   5   4 -10   -1.00    4.10
   5   4 -10    1.20    4.90
   5   4 -10   -6.80    3.90
  -5  -4  10    1.60    4.40
  -5  -4  10    2.70    4.90
   4   4 -10    6.20    5.00
   4   4 -10   -1.30    2.10
   4   4 -10    3.10    4.70
   4   4 -10    5.90    4.80
  -4  -4  10    6.30    4.50
  -4  -4  10    5.40    4.50
   3   4 -10   14.70    5.70
   3   4 -10   21.90    6.40
   3   4 -10   29.50    5.20
   3   4 -10   28.90    6.80
  -3  -4  10    7.10    6.40
  -3  -4  10   27.30    6.80
   2   4 -10    2.90    3.60
   2   4 -10    8.40    4.80
   2   4 -10    2.30    2.60
  -2  -4  10   -2.20    2.70
  -2  -4  10    5.70    4.30
   1   4 -10   55.29    9.00
   1   4 -10   62.99    7.90
   1   4 -10   61.39    9.50
  -1  -4  10   70.79    9.50
  -1  -4  10   51.79    8.80
   0   4 -10   25.00    6.50
   0   4 -10   27.10    6.50
   0   4 -10   25.50    5.90
   0   4 -10   32.80    6.00
   0  -4  10   28.60    6.50
   0  -4  10   26.10    8.20
  -1   4 -10   65.89   10.00
  -1   4 -10   54.59    8.20
  -1   4 -10   62.29    7.20
   1  -4  10   59.39    9.70
   1  -4  10   61.49    8.70
  -2   4 -10   72.19   11.90
  -2   4 -10   80.09    7.70
  -2   4 -10   54.89    8.80
   2  -4  10   82.59    9.70
   2  -4  10   70.29   10.20
  -3   4 -10   43.90    6.60
  -3   4 -10   38.80    7.90
  -3   4 -10   37.50    7.00
   3  -4  10   26.10    6.90
   3  -4  10   35.90    6.90
   3  -4  10   34.90    7.00
  -4   4 -10   84.19    9.10
  -4   4 -10   85.59   11.50
   4  -4  10   82.79    9.10
   4  -4  10   85.29   11.40
   4  -4  10   59.79    8.80
  -5   4 -10   29.40    6.20
  -5   4 -10   28.60    6.90
  -5   4 -10   43.90    9.10
   5  -4  10   29.40    5.70
   5  -4  10   21.60    7.10
   5  -4  10   34.00    5.90
  -6   4 -10    6.00    5.00
  -6   4 -10    2.70    4.10
  -6   4 -10    1.40    3.00
   6  -4  10   -4.00    2.90
   6  -4  10   -6.00    5.50
   6   3 -10    1.60    5.10
   6   3 -10    2.30    4.80
   6   3 -10    0.40    4.80
  -6  -3  10    2.60    4.50
  -6  -3  10   13.60    6.00
   5   3 -10   57.19    9.40
   5   3 -10   59.29    9.70
   5   3 -10   74.99   10.70
  -5  -3  10   54.79    8.90
  -5  -3  10   56.99    5.30
  -5  -3  10   56.99    9.30
   4   3 -10   20.10    5.60
   4   3 -10   14.80    4.10
   4   3 -10   12.00    5.70
   4   3 -10   20.10    5.60
  -4  -3  10   18.60    5.30
  -4  -3  10    9.20    3.50
   3   3 -10    1.00    3.70
   3   3 -10    1.50    2.70
   3   3 -10   -0.20    3.30
  -3  -3  10    1.50    3.60
  -3  -3  10   -0.20    2.20
   2   3 -10   85.69    8.60
   2   3 -10   87.29    9.80
   2   3 -10   91.99   10.60
  -2  -3  10   91.19   10.50
  -2  -3  10   86.69    8.90
  -2  -3  10   82.79    8.60
   1   3 -10    6.00    3.80
   1   3 -10   11.50    5.30
   1   3 -10    5.70    4.00
  -1  -3  10    5.70    3.80
  -1  -3  10    0.10    3.30
  -1  -3  10    7.00    3.50
   0   3 -10    3.00    2.80
   0   3 -10    2.00    3.50
   0  -3  10    3.70    3.60
   0  -3  10    4.30    4.10
   0  -3  10    0.10    3.40
  -1   3 -10   -4.20    2.90
  -1   3 -10   -1.20    2.70
   1  -3  10    0.30    3.50
   1  -3  10   -5.80    3.00
  -2   3 -10  218.38   15.20
  -2   3 -10  215.68   11.20
   2  -3  10  216.88   15.10
   2  -3  10  200.38   14.30
  -3   3 -10   24.00   10.20
  -3   3 -10   22.80    5.30
   3  -3  10   23.70    8.20
   3  -3  10   20.40    5.80
  -4   3 -10    7.70    4.10
  -4   3 -10   14.50    5.70
   4  -3  10    8.30    4.70
  -5   3 -10   39.60    6.20
  -5   3 -10   31.50    7.90
  -5   3 -10   22.60    6.60
   5  -3  10   29.80    7.20
   5  -3  10   33.50    5.70
  -6   3 -10   11.00    4.20
  -6   3 -10   13.80    4.40
  -6   3 -10   18.60    7.10
   6  -3  10    6.80    3.10
   6  -3  10   16.50    7.50
   6   2 -10   86.39   11.30
   6   2 -10   76.39   11.20
   6   2 -10  107.09   17.70
  -6  -2  10  102.79    7.50
  -6  -2  10  101.69   11.10
   5   2 -10   38.50    8.00
   5   2 -10   35.30    8.00
   5   2 -10   41.60    8.20
  -5  -2  10   47.20    6.70
  -5  -2  10   29.30    7.10
  -5  -2  10   23.40    6.40
   4   2 -10    4.40    3.40
   4   2 -10    2.00    2.70
   4   2 -10   -1.10    3.60
  -4  -2  10   -3.80    2.80
  -4  -2  10    1.30    3.40
  -4  -2  10   -1.70    2.30
   3   2 -10   -3.30    3.10
   3   2 -10    0.20    2.50
   3   2 -10   -7.20    2.60
   3   2 -10    4.10    7.60
  -3  -2  10   -1.00    3.60
  -3  -2  10    2.40    3.10
  -3  -2  10    5.60    3.70
   2   2 -10  308.57   16.60
   2   2 -10  285.97   17.80
   2   2 -10  279.97   16.50
   2   2 -10  276.37   16.90
  -2  -2  10  283.17   16.60
  -2  -2  10  303.47   20.50
  -2  -2  10  294.27   15.10
   1   2 -10  292.47   15.90
   1   2 -10  260.57   16.50
  -1  -2  10  269.57   17.10
  -1  -2  10  263.97   13.00
  -1  -2  10  272.57   17.00
   0   2 -10  125.09   11.90
   0   2 -10  141.29   11.10
   0  -2  10  116.79   10.10
   0  -2  10  113.09   11.20
   0  -2  10  107.49   11.20
  -1   2 -10  541.35   17.70
  -1   2 -10  553.54   24.20
   1  -2  10  567.64   27.00
   1  -2  10  547.75   25.40
   1  -2  10  545.45   24.00
  -2   2 -10  167.98   14.20
  -2   2 -10  147.69   11.90
   2  -2  10  161.28   12.50
   2  -2  10  141.29   12.40
  -3   2 -10    2.30    4.00
  -3   2 -10    6.80    4.60
  -3   2 -10    6.00    3.40
   3  -2  10    1.00    4.50
  -4   2 -10   27.80    4.90
  -4   2 -10   27.50    6.90
   4  -2  10   21.50    6.00
  -5   2 -10   19.80    6.20
  -5   2 -10   17.10    4.10
  -5   2 -10   11.30    4.60
   5  -2  10   21.50    4.20
   5  -2  10   15.90    5.60
  -6   2 -10    7.70    7.40
  -6   2 -10    2.00    2.70
  -6   2 -10    3.00    3.60
   6  -2  10   -3.40    5.20
   6  -2  10    3.40    2.40
   7   1 -10   50.79    9.30
   7   1 -10   31.70    8.40
  -7  -1  10   34.80    5.80
  -7  -1  10   59.19    9.40
   6   1 -10   78.99   11.10
   6   1 -10  113.69   11.80
  -6  -1  10   88.29   11.20
  -6  -1  10   93.29    8.50
   5   1 -10  144.39   13.00
   5   1 -10  144.79   11.80
  -5  -1  10  136.39   12.50
  -5  -1  10  131.79   10.40
   4   1 -10    2.50    3.00
   4   1 -10    2.50    3.90
   4   1 -10   -7.40    2.60
  -4  -1  10    3.90    4.00
  -4  -1  10   -3.00    3.10
   3   1 -10  721.33   34.90
   3   1 -10  790.72   31.20
   3   1 -10  792.72   32.40
   3   1 -10  801.12   29.40
  -3  -1  10  801.52   28.80
  -3  -1  10  794.22   31.10
  -3  -1  10  775.72   36.70
   2   1 -10   79.59    9.30
   2   1 -10   84.69    8.20
   2   1 -10   84.19    9.50
   2   1 -10   67.89   10.20
  -2  -1  10   80.29    7.10
  -2  -1  10   86.19    9.70
  -2  -1  10   78.19    6.20
  -2  -1  10   75.29   10.30
   1   1 -10  160.18   11.80
   1   1 -10  145.49   10.70
   1   1 -10  165.78   13.20
  -1  -1  10  174.08   13.60
  -1  -1  10  157.48   10.50
  -1  -1  10  164.98    8.20
  -1  -1  10  162.28   13.30
   0   1 -10   34.50    5.80
   0   1 -10   42.10    8.60
   0  -1  10   44.60    8.70
   0  -1  10   37.10    6.10
   0  -1  10   33.50    7.00
  -1   1 -10    5.50    3.40
  -1   1 -10    2.00    2.80
   1  -1  10    5.40    4.20
   1  -1  10   13.00    4.20
   1  -1  10    8.10    4.20
  -2   1 -10    9.60    4.20
  -2   1 -10    7.00    4.20
   2  -1  10   10.70    4.80
   2  -1  10    8.20    5.00
  -3   1 -10   30.40    7.10
  -3   1 -10   46.70    5.10
   3  -1  10   39.60    7.40
  -4   1 -10   93.29    6.40
  -4   1 -10   99.19    9.80
   4  -1  10   92.29   10.90
  -5   1 -10   22.10    4.40
  -5   1 -10   16.40    5.60
  -5   1 -10   13.30    5.70
   5  -1  10   30.30    7.10
  -6   1 -10   -2.70    4.80
  -6   1 -10    4.00    1.60
  -6   1 -10    2.60    3.40
   6  -1  10    2.70    5.80
   7   0 -10   20.40    3.80
   7   0 -10   14.00    6.40
   7   0 -10   11.90    5.20
  -7   0  10    9.30    5.90
   6   0 -10    4.90    4.50
   6   0 -10    3.40    5.00
  -6   0  10   -1.10    4.10
  -6   0  10    5.40    3.60
   5   0 -10   35.10    6.30
   5   0 -10   17.00    5.90
  -5   0  10   32.60    7.10
  -5   0  10   29.50    6.90
   4   0 -10   34.80    5.80
   4   0 -10   48.00    8.30
   4   0 -10   25.10    6.40
   4   0 -10   29.20    5.90
  -4   0  10   44.70    8.20
  -4   0  10   30.10    6.40
   3   0 -10    0.70    2.70
   3   0 -10    0.10    2.40
   3   0 -10   -1.00    2.70
   3   0 -10   -2.90    3.00
  -3   0  10    5.60    4.00
  -3   0  10   -3.20    2.30
  -3   0  10   -0.80    2.20
   2   0 -10   32.70    6.30
   2   0 -10   30.00    4.80
   2   0 -10   43.30    7.90
  -2   0  10   36.70    6.20
  -2   0  10   34.50    7.10
  -2   0  10   28.40    6.80
   1   0 -10   53.99    6.10
   1   0 -10   47.60    7.80
   1   0 -10   61.29    8.10
  -1   0  10   56.29    8.60
  -1   0  10   63.79    6.10
  -1   0  10   55.99    9.20
   0   0 -10  185.18   11.20
   0   0 -10  189.38   14.70
   0   0 -10  184.68   11.00
   0   0  10  259.47   19.00
   0   0  10  177.68   10.60
   0   0  10  197.38   14.50
  -1   0 -10   -2.00    2.50
  -1   0 -10    0.30    2.00
  -1   0 -10   -0.70    3.10
   1   0  10   -0.90    3.10
   1   0  10    0.00    2.60
  -2   0 -10   18.60    3.00
  -2   0 -10    8.90    3.70
   2   0  10    3.60    3.60
   2   0  10    3.90    3.10
  -3   0 -10    4.40    3.60
  -3   0 -10   -1.00    1.30
  -3   0 -10    3.10    4.30
  -3   0 -10    0.00    1.20
  -3   0 -10    0.20    1.30
   3   0  10   -4.80    3.10
   3   0  10    3.40    3.90
  -4   0 -10    6.60    2.40
  -4   0 -10   -0.60    3.10
   4   0  10    2.50    4.10
  -5   0 -10    0.00    2.50
  -5   0 -10    0.50    3.90
  -5   0 -10   -1.30    2.80
   5   0  10   -3.00    4.60
   7  -1 -10   39.70    8.50
   7  -1 -10   52.59    6.50
   7  -1 -10   55.19    9.30
  -7   1  10   51.39    8.50
  -7   1  10   61.29    7.60
   6  -1 -10   -1.90    4.70
   6  -1 -10    8.50    4.60
  -6   1  10    8.10    3.60
  -6   1  10   -5.70    3.50
   5  -1 -10   30.50    9.80
   5  -1 -10   18.60    4.50
  -5   1  10   27.30    6.80
   4  -1 -10   10.00    4.70
   4  -1 -10    2.60    3.70
   4  -1 -10    1.70    2.20
   4  -1 -10    3.30    3.50
  -4   1  10    2.70    4.00
   3  -1 -10   -1.50    3.20
   3  -1 -10    6.30    3.90
   3  -1 -10   -1.00    2.80
  -3   1  10   -1.80    2.80
  -3   1  10    0.40    3.60
  -3   1  10    2.90    3.40
   2  -1 -10   11.30    4.20
   2  -1 -10    3.00    2.00
   2  -1 -10    6.30    4.10
  -2   1  10    6.80    3.40
  -2   1  10    2.00    4.00
  -2   1  10    0.10    2.70
   1  -1 -10   86.29   12.20
   1  -1 -10   75.09    7.50
   1  -1 -10   63.49    5.20
  -1   1  10   64.49    8.00
  -1   1  10   44.90    8.30
  -1   1  10   80.49   10.70
   0  -1 -10   97.89   19.00
   0  -1 -10  101.49    7.70
   0   1  10  104.49   11.20
   0   1  10  112.79    7.20
  -1  -1 -10   -0.70    3.40
  -1  -1 -10   -2.20    1.40
   1   1  10    1.00    3.10
   1   1  10    2.60    2.50
  -2  -1 -10    1.40    3.50
  -2  -1 -10   -0.80    3.00
   2   1  10   -0.70    3.00
   2   1  10    3.80    4.00
  -3  -1 -10   97.39    5.10
  -3  -1 -10   91.89   10.30
  -3  -1 -10   90.89   10.30
   3   1  10  102.99   11.30
   3   1  10  100.09    9.90
  -4  -1 -10   -0.40    2.10
  -4  -1 -10    1.70    3.80
   4   1  10   -5.70    3.80
  -5  -1 -10    7.30    5.00
  -5  -1 -10   16.90    3.80
  -5  -1 -10   20.80    5.90
   5   1  10   17.50    6.10
   7  -2 -10    6.30    4.70
   7  -2 -10    4.00    4.20
   7  -2 -10   -2.40    3.50
   7  -2 -10    9.60    5.70
  -7   2  10   -2.40    4.10
  -7   2  10    5.30    3.70
   6  -2 -10    2.90    3.20
   6  -2 -10    3.30    2.90
   6  -2 -10    0.20    3.20
   6  -2 -10   -1.80    3.70
  -6   2  10    1.00    3.50
  -6   2  10   -2.30    3.10
  -6   2  10    0.40    3.50
   5  -2 -10   -1.50    2.00
   5  -2 -10    4.20    4.80
  -5   2  10   -8.10    2.90
  -5   2  10    5.20    4.10
  -5   2  10    2.90    3.60
   4  -2 -10    4.50    4.10
   4  -2 -10    2.00    1.60
  -4   2  10   -1.80    3.20
  -4   2  10    6.10    3.80
  -4   2  10    3.30    4.20
   3  -2 -10   81.09   12.10
   3  -2 -10   57.49    8.40
  -3   2  10   71.69    8.70
  -3   2  10   65.59    9.10
  -3   2  10   53.89    8.90
  -3   2  10   61.49    8.60
   2  -2 -10  159.88   14.20
   2  -2 -10  168.98   11.50
  -2   2  10  156.98   12.70
  -2   2  10  164.08   12.50
   1  -2 -10   92.29   10.80
   1  -2 -10   76.89    7.30
  -1   2  10   92.39    9.80
  -1   2  10   63.19    9.70
  -1   2  10   88.39   10.20
   0  -2 -10   29.60    4.60
   0  -2 -10   34.50    7.80
   0   2  10   35.10   12.80
  -1  -2 -10   15.70    5.80
  -1  -2 -10   11.60    2.00
  -1  -2 -10   12.70    5.20
   1   2  10   21.00    6.60
   1   2  10   16.40    3.70
  -2  -2 -10    3.60    4.40
  -2  -2 -10   -3.80    2.90
   2   2  10   -0.90    2.50
   2   2  10    2.40    3.40
  -3  -2 -10   14.30    5.50
   3   2  10   14.60    5.70
  -4  -2 -10    2.90    3.90
  -4  -2 -10    0.10    2.40
  -4  -2 -10    0.00    3.70
   4   2  10    3.90    4.30
   4   2  10    3.40    3.60
   7  -3 -10    1.20    3.30
   7  -3 -10    0.40    5.50
   7  -3 -10   -2.30    3.50
  -7   3  10   -4.00    4.00
  -7   3  10   -9.30    3.30
  -7   3  10   -0.30    3.40
   6  -3 -10   -1.60    2.40
   6  -3 -10    8.50    4.90
   6  -3 -10   -0.30    2.30
  -6   3  10    1.10    3.90
  -6   3  10    3.40    4.30
  -6   3  10   -0.40    3.70
   5  -3 -10   89.69    4.70
   5  -3 -10   93.29   10.60
   5  -3 -10   90.69    4.80
  -5   3  10   99.19   11.40
  -5   3  10   92.49   10.60
  -5   3  10   71.29   14.50
   4  -3 -10   43.70    7.30
  -4   3  10   32.70    7.00
  -4   3  10   33.30    6.50
  -4   3  10   32.80    6.80
   3  -3 -10   25.70    5.70
  -3   3  10   44.70    7.70
  -3   3  10   37.10    7.30
  -3   3  10   36.50    7.10
  -3   3  10   48.30    9.70
   2  -3 -10  116.79    9.70
  -2   3  10  116.09    7.00
  -2   3  10  105.59   10.90
  -2   3  10  107.19   11.80
  -2   3  10  104.09   10.90
  -2   3  10  102.99    9.20
   1  -3 -10    3.30    3.10
   1  -3 -10    0.20    2.30
   1  -3 -10    3.00    3.60
  -1   3  10    7.40    4.10
  -1   3  10    5.50    4.00
  -1   3  10   -3.90    3.70
   0  -3 -10    0.60    3.80
   0  -3 -10   -3.40    2.90
   0  -3 -10   -2.80    1.60
   0   3  10    5.50    4.60
   0   3  10    1.40    1.20
  -1  -3 -10   11.50    5.80
   1   3  10   20.20    3.50
   1   3  10    9.30    4.40
  -2  -3 -10   12.50    5.50
   2   3  10    8.90    4.70
   2   3  10    6.00    3.20
  -3  -3 -10   -7.40    3.20
  -3  -3 -10    5.20    4.60
   3   3  10   -3.10    3.60
   3   3  10   -4.40    3.30
   6  -4 -10   12.00    4.30
   6  -4 -10    7.50    6.20
  -6   4  10    2.10    4.60
  -6   4  10   16.60    5.30
  -6   4  10   15.70    8.30
   5  -4 -10   -3.70    3.70
  -5   4  10    7.20    3.60
  -5   4  10   -1.50    3.50
  -5   4  10    1.70    4.40
   4  -4 -10   -4.20    3.10
  -4   4  10   -2.30    3.70
  -4   4  10   -0.50    3.80
  -4   4  10    8.70    3.90
   3  -4 -10  123.49   10.50
   3  -4 -10  108.79   11.00
  -3   4  10  102.59   11.70
  -3   4  10  118.49   12.40
  -3   4  10  117.69   10.40
   2  -4 -10   22.20    5.00
   2  -4 -10   12.00    5.40
   2  -4 -10   44.60    9.40
  -2   4  10   29.40    4.40
  -2   4  10   25.60    5.10
  -2   4  10   11.70    8.30
  -2   4  10   23.10    6.40
  -2   4  10   32.30    6.40
   1  -4 -10    0.20    3.90
   1  -4 -10   -3.20    2.20
   1  -4 -10    3.70    4.40
  -1   4  10   -2.00    3.80
  -1   4  10   -3.40    2.80
  -1   4  10    1.10    1.80
   0  -4 -10   -2.60    3.20
   0  -4 -10    1.00    3.90
   0   4  10    0.20    3.60
   0   4  10    0.70    3.90
  -1  -4 -10    6.80    4.10
  -1  -4 -10    5.80    5.00
   1   4  10    1.90    3.50
   1   4  10    7.70    5.00
   1   4  10    6.30    2.50
  -2  -4 -10    3.60    4.10
  -2  -4 -10    2.60    4.40
   2   4  10    3.60    4.20
   2   4  10    1.80    3.10
   5  -5 -10    6.10    5.10
   5  -5 -10   12.60    5.10
  -5   5  10    7.20    4.50
  -5   5  10   18.10    5.90
  -5   5  10   22.70    4.80
   4  -5 -10   89.39   10.10
   4  -5 -10   98.19   10.30
  -4   5  10   97.69   11.60
  -4   5  10   97.99   10.00
  -4   5  10   91.99   11.20
  -4   5  10  105.39    9.50
   3  -5 -10   43.20    7.10
   3  -5 -10   28.00    7.10
  -3   5  10   32.70    6.30
  -3   5  10   26.50    6.90
  -3   5  10   27.50    6.10
  -3   5  10   28.10    4.80
  -3   5  10   25.20    5.80
   2  -5 -10   13.90    5.40
   2  -5 -10   16.40    4.30
  -2   5  10   19.90    5.40
  -2   5  10   17.60    6.50
  -2   5  10   11.10    4.90
  -2   5  10   11.10    3.50
  -2   5  10   12.20    3.80
   1  -5 -10   -2.10    2.30
   1  -5 -10   -2.10    3.50
  -1   5  10   -0.10    3.30
  -1   5  10   -0.20    2.40
  -1   5  10    0.90    7.00
   0  -5 -10    3.10    4.90
   0  -5 -10   -9.20    3.60
   0   5  10    4.20    4.60
   0   5  10   -0.70    3.70
  -1  -5 -10    5.20    4.80
  -1  -5 -10    2.50    5.00
   1   5  10   -2.50    2.20
   1   5  10    1.70    4.30
   1   5  10   -0.30    3.80
   1   5  10   -3.70    2.10
   3  -6 -10   49.80    9.40
  -3   6  10   35.30    5.80
  -3   6  10   32.50    6.00
  -3   6  10   37.60    5.90
  -3   6  10   38.50   11.40
  -3   6  10   42.70    8.90
   2  -6 -10    6.40    4.40
  -2   6  10   -2.80    3.10
  -2   6  10    8.00    3.50
  -2   6  10    0.70    5.10
  -2   6  10   -1.90    3.90
  -2   6  10    4.00    4.90
   1   7 -11    8.40    4.90
  -1  -7  11    6.10    4.70
  -1  -7  11    9.70    5.10
   0   7 -11    5.60    4.70
   0   7 -11    0.20    4.40
   0   7 -11    4.00    3.90
   0   7 -11    6.70    4.80
   0  -7  11    7.70    4.90
   0  -7  11    0.40    4.00
  -1   7 -11    4.80    4.00
  -1   7 -11   -3.30    3.80
  -1   7 -11   -3.80    3.80
   1  -7  11   -2.90    4.90
   1  -7  11   -3.50    2.80
   1  -7  11    3.10    4.20
  -2   7 -11   -2.90    3.80
  -2   7 -11   -5.70    3.70
  -2   7 -11   -2.10    4.20
   2  -7  11   -2.30    4.90
   2  -7  11    3.00    3.10
   2  -7  11   -6.00    3.70
   2  -7  11    2.40    4.20
  -3   7 -11   -1.30    4.50
  -3   7 -11    4.50    4.40
  -3   7 -11   -6.70    3.90
  -3   7 -11    5.30    4.80
   3  -7  11   -7.50    3.40
   3  -7  11    9.40    5.90
   3  -7  11   -0.70    4.20
  -4   7 -11   41.60    7.90
  -4   7 -11   34.10    7.80
  -4   7 -11   40.90    8.30
  -4   7 -11   33.50    8.30
   4  -7  11   38.00    5.90
   4  -7  11   46.70    8.40
   4  -7  11   23.70    7.80
   3   6 -11   -4.60    4.70
   3   6 -11    5.00    2.50
   3   6 -11    5.70    4.80
  -3  -6  11    4.80    5.10
  -3  -6  11   -3.10    5.20
  -3  -6  11    5.20    4.10
   2   6 -11    3.20    4.00
   2   6 -11   -1.30    2.50
   2   6 -11   -2.00    4.00
  -2  -6  11    5.60    3.90
  -2  -6  11    3.80    4.80
   1   6 -11    7.20    4.70
   1   6 -11    5.90    4.40
   1   6 -11   -3.20    2.60
  -1  -6  11   -0.10    3.70
  -1  -6  11    1.30    3.70
   0   6 -11   42.60    7.70
   0   6 -11   35.20    7.20
   0   6 -11   60.39   10.20
   0  -6  11   49.40    8.30
   0  -6  11   43.70    4.80
  -1   6 -11    6.00    4.70
  -1   6 -11    2.00    3.80
  -1   6 -11    2.80    3.80
   1  -6  11    3.00    4.00
   1  -6  11    3.80    4.70
   1  -6  11    3.60    2.80
   1  -6  11    2.40    3.50
  -2   6 -11   13.00    5.10
  -2   6 -11    6.40    3.90
  -2   6 -11   13.40    5.20
   2  -6  11    0.40    3.70
   2  -6  11    9.40    3.80
   2  -6  11    3.20    4.60
  -3   6 -11   54.99    9.20
  -3   6 -11   58.19    9.70
  -3   6 -11   28.90    6.30
  -3   6 -11   43.40    8.00
   3  -6  11   46.40    7.30
   3  -6  11   42.60    8.00
   3  -6  11   54.89    9.10
  -4   6 -11   76.49   13.80
  -4   6 -11   58.89    9.10
  -4   6 -11   70.39   10.70
   4  -6  11   85.69    8.70
   4  -6  11   65.19   11.00
   4  -6  11   80.29   10.40
  -5   6 -11   14.90    6.10
  -5   6 -11   16.50    6.60
  -5   6 -11   22.60    5.90
   5  -6  11   21.00    6.00
   5  -6  11   25.10    7.90
   5  -6  11   14.80    4.90
   4   5 -11   28.90    7.50
   4   5 -11   19.20    6.40
  -4  -5  11   35.30    7.80
  -4  -5  11   15.00    7.30
  -4  -5  11   30.20    6.30
   3   5 -11   -0.30    4.00
   3   5 -11   11.40    5.40
   3   5 -11    4.30    4.70
  -3  -5  11   11.20    5.10
  -3  -5  11    6.80    4.60
   2   5 -11   19.30    4.80
   2   5 -11   28.80    7.30
   2   5 -11   10.60    5.80
  -2  -5  11   21.80    6.50
  -2  -5  11   31.00    7.30
   1   5 -11   14.30    6.10
   1   5 -11   10.00    5.30
   1   5 -11   15.50    4.80
   0   5 -11    5.40    3.90
   0   5 -11    3.60    4.50
   0   5 -11   -0.10    3.30
   0   5 -11    3.80    4.10
   0  -5  11    1.90    3.90
   0  -5  11    4.00    4.60
   0  -5  11    2.90    2.20
  -1   5 -11    3.70    3.20
  -1   5 -11    4.50    3.90
  -1   5 -11   -3.10    3.50
   1  -5  11   -0.50    3.60
   1  -5  11    3.80    4.40
  -2   5 -11   -4.10    3.40
  -2   5 -11   -0.80    2.90
  -2   5 -11    1.40    3.90
   2  -5  11    1.10    4.30
   2  -5  11   -2.40    3.30
   2  -5  11    0.60    3.90
  -3   5 -11  391.46   18.50
  -3   5 -11  345.37   21.60
  -3   5 -11  368.06   19.90
  -3   5 -11  406.56   22.20
   3  -5  11  369.26   19.10
   3  -5  11  382.66   22.20
   3  -5  11  388.76   20.10
  -4   5 -11    6.60    4.40
  -4   5 -11    9.50    5.00
  -4   5 -11   -0.70    3.80
  -4   5 -11    1.40    4.10
   4  -5  11    6.80    5.20
   4  -5  11   -1.10    3.60
   4  -5  11    0.60    3.70
  -5   5 -11   27.80    6.80
  -5   5 -11   41.20    8.60
  -5   5 -11   54.19    8.40
   5  -5  11   48.50    9.50
   5  -5  11   60.29    8.30
   5   4 -11   10.50    5.60
   5   4 -11   11.00    6.00
   5   4 -11    4.10    4.90
  -5  -4  11    2.10    5.90
  -5  -4  11    6.80    5.00
   4   4 -11   16.20    3.70
   4   4 -11   24.10    7.00
   4   4 -11   22.90    7.00
   4   4 -11   18.10    5.80
  -4  -4  11   24.30    6.30
  -4  -4  11   29.50    7.40
   3   4 -11    2.30    4.30
   3   4 -11    0.00    2.40
   3   4 -11   -0.90    3.90
   3   4 -11    1.50    4.40
  -3  -4  11   -1.20    3.90
  -3  -4  11    0.60    3.90
   2   4 -11   -2.50    3.40
   2   4 -11    6.70    4.10
   2   4 -11   -0.70    2.70
  -2  -4  11    0.40    3.50
   1   4 -11   52.69    8.80
   1   4 -11   56.29    8.90
   1   4 -11   53.19    8.00
  -1  -4  11   33.70    7.10
   0   4 -11   29.10    9.00
   0   4 -11   15.80    4.30
   0  -4  11   31.20    7.30
   0  -4  11   35.50    7.20
  -1   4 -11   56.29    6.60
  -1   4 -11   39.30    7.50
  -1   4 -11   53.69   10.30
   1  -4  11   51.99    8.70
   1  -4  11   52.59    8.70
  -2   4 -11  514.15   25.00
  -2   4 -11  504.95   25.90
  -2   4 -11  490.85   20.20
   2  -4  11  529.75   24.20
   2  -4  11  508.25   25.10
  -3   4 -11   68.19    9.50
  -3   4 -11   63.29    7.00
  -3   4 -11   69.79   10.70
  -3   4 -11   44.20   13.10
   3  -4  11   58.99    8.50
   3  -4  11   68.19   10.10
  -4   4 -11    1.00    4.10
  -4   4 -11    4.40    4.70
  -4   4 -11   -0.40    5.60
   4  -4  11    1.40    3.80
   4  -4  11    5.00    3.80
   4  -4  11    0.70    4.10
  -5   4 -11   12.90    5.00
  -5   4 -11   11.00    5.60
  -5   4 -11    8.30    7.40
   5  -4  11    9.90    4.40
   5   3 -11   71.09   10.70
   5   3 -11   69.79   10.30
  -5  -3  11   53.19   14.10
  -5  -3  11   68.49    6.40
  -5  -3  11   55.09    9.10
   4   3 -11   30.90    7.00
   4   3 -11   35.40    7.10
   4   3 -11   32.80    7.60
   4   3 -11   24.90    5.00
  -4  -3  11   31.90    8.20
  -4  -3  11   34.10    7.10
  -4  -3  11   21.70    4.70
   3   3 -11    0.20    3.50
   3   3 -11   -1.20    3.60
   3   3 -11   -0.20    2.80
  -3  -3  11    0.00    2.60
  -3  -3  11    3.00    2.70
   2   3 -11   -0.40    3.30
   2   3 -11    2.90    3.20
   2   3 -11    7.20    4.40
   2   3 -11    0.00    3.20
  -2  -3  11    2.40    3.50
  -2  -3  11   -4.90    2.80
  -2  -3  11   -0.10    2.90
   1   3 -11    0.20    3.20
   1   3 -11   -3.40    3.40
   1   3 -11    2.40    3.50
  -1  -3  11   -1.60    2.60
  -1  -3  11    0.70    3.60
   0   3 -11    1.30    3.50
   0   3 -11   -5.40    2.40
   0  -3  11    6.20    4.40
   0  -3  11   -0.30    3.20
   0  -3  11    0.80    2.70
  -1   3 -11   80.99    6.70
  -1   3 -11   82.49   10.30
  -1   3 -11  104.39   10.40
   1  -3  11   92.79   10.60
   1  -3  11   81.39    9.30
  -2   3 -11  416.46   23.20
  -2   3 -11  412.16   21.40
  -2   3 -11  408.86   16.00
   2  -3  11  406.36   21.30
   2  -3  11  416.96   21.50
  -3   3 -11   -0.60    3.20
  -3   3 -11    6.70    2.50
  -3   3 -11   -2.90    3.40
   3  -3  11   -1.20    3.30
   3  -3  11   -3.80    3.20
  -4   3 -11   11.80    6.00
  -4   3 -11   21.90    4.90
  -4   3 -11   19.40    5.70
   4  -3  11   10.30    5.40
  -5   3 -11   53.79   10.20
  -5   3 -11   36.70    6.10
   5  -3  11   36.20    7.70
   5  -3  11   46.80    6.20
   6   2 -11    6.70    5.20
   6   2 -11   18.10    6.70
   6   2 -11    6.00    4.90
  -6  -2  11   17.40    5.60
  -6  -2  11   12.10    6.10
  -6  -2  11    6.50    3.30
   5   2 -11   48.20    9.00
   5   2 -11   51.19    9.20
   5   2 -11   41.60    7.90
  -5  -2  11   33.90    7.00
  -5  -2  11   40.20    6.50
  -5  -2  11   35.40    7.60
   4   2 -11  191.48   14.60
   4   2 -11  188.78   12.50
  -4  -2  11  194.98   13.60
  -4  -2  11  185.78   14.70
  -4  -2  11  180.08   12.30
   3   2 -11  113.99   10.60
   3   2 -11  109.09   10.20
   3   2 -11  123.59   11.80
  -3  -2  11   99.69    9.70
  -3  -2  11  123.79   10.80
   2   2 -11  135.49   11.90
   2   2 -11  141.99   11.10
   2   2 -11  133.69   11.60
  -2  -2  11  147.69   10.10
  -2  -2  11  118.49   11.20
  -2  -2  11   86.59   13.30
   1   2 -11   51.59    9.30
   1   2 -11   39.10    6.90
  -1  -2  11   43.90    8.20
  -1  -2  11   32.80    6.60
   0   2 -11  173.78   12.60
   0   2 -11  181.38   14.90
   0  -2  11  169.68   22.70
   0  -2  11  161.48   12.00
   0  -2  11  175.28   14.40
  -1   2 -11  152.08   13.60
  -1   2 -11  135.79   11.80
   1  -2  11  142.79   11.60
   1  -2  11  133.19   12.80
   1  -2  11  152.98   13.40
  -2   2 -11   -5.00    2.80
  -2   2 -11    0.60    1.50
   2  -2  11    0.40    3.20
   2  -2  11    1.40    3.90
   2  -2  11    1.30    2.60
  -3   2 -11    2.40    2.90
  -3   2 -11   -8.00    5.50
   3  -2  11    1.10    4.10
  -4   2 -11   19.00    4.20
  -4   2 -11   24.10    6.80
   4  -2  11   13.20    5.70
  -5   2 -11    1.40    3.40
  -5   2 -11   -4.80    4.40
  -5   2 -11    0.40    2.50
   5  -2  11   -0.20    4.70
   5  -2  11    2.10    2.90
   6   1 -11   26.20    6.30
   6   1 -11   30.00    7.50
   6   1 -11   15.20    6.10
  -6  -1  11   23.60    6.80
  -6  -1  11   27.10    5.50
   5   1 -11  190.48   15.20
  -5  -1  11  215.98   14.30
  -5  -1  11  204.28   15.50
  -5  -1  11  209.88   13.40
   4   1 -11    0.20    3.90
   4   1 -11    7.80    4.50
   4   1 -11   10.30    4.70
  -4  -1  11    5.50    3.60
  -4  -1  11   11.20    4.80
  -4  -1  11    6.40    3.60
   3   1 -11  116.49   11.40
   3   1 -11  124.19   11.50
   3   1 -11  142.29   12.50
   3   1 -11  150.78   10.90
  -3  -1  11  144.69   10.20
  -3  -1  11  146.29   12.80
  -3  -1  11  142.79   11.90
   2   1 -11   45.40    7.10
   2   1 -11   35.10    6.50
   2   1 -11   48.70    8.30
  -2  -1  11   49.60    5.40
  -2  -1  11   24.80    6.80
  -2  -1  11   49.40    9.30
  -2  -1  11   54.49    5.70
   1   1 -11  228.08   13.00
   1   1 -11  227.18   15.80
   1   1 -11  217.08   13.90
  -1  -1  11  208.28   15.50
  -1  -1  11  201.68   12.40
  -1  -1  11  202.18   18.20
   0   1 -11  906.01   31.30
   0   1 -11  891.11   31.30
   0   1 -11  843.92   48.50
   0  -1  11  931.21   36.90
   0  -1  11  868.91   39.10
   0  -1  11  841.72   30.60
  -1   1 -11  764.22   29.00
  -1   1 -11  769.62   33.80
   1  -1  11  787.52   34.90
   1  -1  11  768.42   29.00
   1  -1  11  852.51   33.30
  -2   1 -11   63.59   10.50
  -2   1 -11   91.49    9.30
   2  -1  11   92.49   11.00
   2  -1  11   87.29    9.40
  -3   1 -11  261.47   11.90
   3  -1  11  255.17   16.10
  -4   1 -11    0.50    2.00
  -4   1 -11    0.20    3.40
  -4   1 -11   -0.40    3.40
   4  -1  11   -4.40    3.90
  -5   1 -11   11.50    2.80
  -5   1 -11   15.30    5.30
  -5   1 -11   17.40    5.70
   5  -1  11   14.30    6.30
   6   0 -11   -1.70    3.10
   6   0 -11   -5.20    3.70
  -6   0  11    5.30    3.10
  -6   0  11    2.20    3.80
   5   0 -11    3.90    3.50
   5   0 -11    0.00    4.10
   5   0 -11   -0.40    4.30
  -5   0  11   -5.00    3.90
  -5   0  11    1.30    3.30
   4   0 -11   -0.60    3.90
   4   0 -11   -0.80    3.10
   4   0 -11    1.70    6.70
   4   0 -11    0.30    2.90
  -4   0  11    5.10    4.50
  -4   0  11    0.80    2.60
   3   0 -11   18.40    5.30
   3   0 -11   32.50    9.30
   3   0 -11   28.70    5.00
  -3   0  11   33.10    5.70
  -3   0  11   17.80    5.70
  -3   0  11   24.80    6.60
   2   0 -11  163.48   12.30
   2   0 -11  122.69   18.90
   2   0 -11  159.68    9.80
  -2   0  11  153.98   13.40
  -2   0  11  161.18   13.60
  -2   0  11  151.08   10.30
  -2   0  11  155.58   10.10
   1   0 -11   26.50    6.20
   1   0 -11   44.30    6.80
   1   0 -11   33.80    5.30
  -1   0  11   34.20    7.50
  -1   0  11   34.30    8.10
   0   0 -11  442.06   18.30
   0   0 -11  407.16   22.60
   0   0 -11  410.96   17.40
   0   0  11  402.96   17.20
   0   0  11  432.46   23.40
   0   0  11  394.46   21.60
  -1   0 -11   10.70    3.70
  -1   0 -11    9.90    3.10
  -1   0 -11   25.40    7.60
   1   0  11   17.90    6.00
   1   0  11   12.20    3.70
  -2   0 -11   17.60    3.10
  -2   0 -11   11.10    5.50
   2   0  11   20.80    5.30
   2   0  11   25.00    7.30
  -3   0 -11   31.90    3.00
  -3   0 -11   31.50    7.50
  -3   0 -11   32.20    2.90
   3   0  11   30.70    6.40
   3   0  11   30.20    7.50
  -4   0 -11   11.00    4.90
  -4   0 -11    5.80    4.20
   4   0  11    4.30    4.60
  -5   0 -11   -4.30    2.40
  -5   0 -11    1.30    3.10
  -5   0 -11    3.70    4.70
   5   0  11    6.40    5.30
   7  -1 -11    9.40    4.50
  -7   1  11   -0.80    3.50
  -7   1  11    9.70    5.10
   6  -1 -11    2.80    3.70
   6  -1 -11   -2.80    3.50
  -6   1  11    4.30    4.10
  -6   1  11    2.00    3.30
   5  -1 -11   13.30    5.20
   5  -1 -11    5.50    3.20
   5  -1 -11    0.20    3.90
  -5   1  11   18.10    5.40
  -5   1  11    5.80    3.70
   4  -1 -11   49.40    5.60
   4  -1 -11   65.19   11.00
   4  -1 -11   55.79    9.10
  -4   1  11   53.69    9.60
  -4   1  11   47.00    8.50
   3  -1 -11   64.39    6.10
   3  -1 -11   66.69   10.70
   3  -1 -11   70.29    9.70
  -3   1  11   65.49    7.70
  -3   1  11   58.39   10.30
  -3   1  11   58.29    9.10
   2  -1 -11  353.06   21.50
   2  -1 -11  356.86   13.20
   2  -1 -11  352.36   18.10
  -2   1  11  416.16   19.30
  -2   1  11  369.66   20.20
   1  -1 -11  382.46   17.50
   1  -1 -11  381.26   14.20
   1  -1 -11  364.86   28.90
  -1   1  11  396.86   19.80
  -1   1  11  346.47   26.40
  -1   1  11  380.26   20.70
   0  -1 -11   27.70    4.60
   0   1  11   30.70    8.10
   0   1  11   27.00    4.20
   0   1  11   23.40    6.10
  -1  -1 -11   48.40    4.60
  -1  -1 -11   41.20    7.20
   1   1  11   58.49   10.60
   1   1  11   47.90    6.00
  -2  -1 -11    2.10    4.10
   2   1  11   13.30    5.40
   2   1  11    6.70    3.70
  -3  -1 -11    0.50    4.20
  -3  -1 -11    6.40    4.60
   3   1  11    3.00    3.80
   3   1  11    3.10    4.90
  -4  -1 -11   -2.20    3.70
  -4  -1 -11    1.00    3.50
   4   1  11   13.40    4.90
   6  -2 -11    3.10    3.20
   6  -2 -11    4.00    3.00
  -6   2  11    7.40    4.40
  -6   2  11    8.70    4.60
   5  -2 -11   59.19    5.30
   5  -2 -11   44.50    8.80
  -5   2  11   49.20    8.10
  -5   2  11   53.39    8.80
   4  -2 -11   57.69    4.00
   4  -2 -11   62.39   10.70
   4  -2 -11   85.59   13.20
  -4   2  11   57.29    8.40
  -4   2  11   65.39   10.80
   3  -2 -11    4.10    3.40
   3  -2 -11    3.50    4.10
  -3   2  11    1.20    3.00
  -3   2  11   12.70    4.60
  -3   2  11   17.90    5.00
   2  -2 -11   78.29    8.30
  -2   2  11   91.09   10.20
  -2   2  11   77.09    9.20
  -2   2  11   96.39   14.40
   1  -2 -11    5.40    3.10
  -1   2  11    2.70    3.80
  -1   2  11   11.70    5.10
  -1   2  11    7.50    3.70
   0  -2 -11    8.20    6.40
   0  -2 -11    5.70    2.60
   0   2  11    3.90    3.90
  -1  -2 -11   65.19   10.80
  -1  -2 -11   64.09    4.00
   1   2  11   91.49   11.10
   1   2  11   67.69    6.30
  -2  -2 -11    3.80    4.20
  -2  -2 -11    1.10    3.80
   2   2  11    0.00    3.80
   2   2  11   10.30    3.50
  -3  -2 -11   -1.90    3.50
  -3  -2 -11   -2.20    3.30
   3   2  11    2.30    3.90
   3   2  11   -0.90    3.50
   6  -3 -11    8.00    5.50
   6  -3 -11   -0.50    2.10
   6  -3 -11    4.90    2.10
  -6   3  11   -5.90    3.70
  -6   3  11    5.90    4.00
  -6   3  11   14.30    5.90
   5  -3 -11   11.30    5.40
  -5   3  11   19.60    5.70
  -5   3  11   11.90    5.00
  -5   3  11   24.50    5.80
  -4   3  11    5.10    4.40
  -4   3  11   -0.50    3.60
  -4   3  11    5.70    3.50
  -4   3  11    9.70    5.00
   3  -3 -11   93.19    9.20
  -3   3  11   86.69    9.90
  -3   3  11   80.69   10.10
  -3   3  11   93.39   13.50
  -3   3  11   81.49    9.00
   2  -3 -11  211.18   12.60
  -2   3  11  195.78   14.60
  -2   3  11  185.18   13.90
  -2   3  11  192.38    9.10
   1  -3 -11    7.10    2.80
   1  -3 -11    5.50    4.20
   1  -3 -11    4.70    4.60
  -1   3  11    2.70    4.10
  -1   3  11    9.20    5.20
   0  -3 -11   32.10    8.00
   0  -3 -11   21.30    3.30
   0  -3 -11   20.50    5.50
   0   3  11   12.60    5.00
   0   3  11   28.90    7.00
   0   3  11   21.70    2.00
  -1  -3 -11   27.60    7.20
  -1  -3 -11   32.70    8.30
   1   3  11   35.40    8.30
   1   3  11   26.60    3.90
  -2  -3 -11   24.20    7.40
  -2  -3 -11   18.20    6.30
   2   3  11   19.70    6.40
   2   3  11   17.10    4.20
   6  -4 -11    4.80    3.20
   6  -4 -11   -7.70    4.80
  -6   4  11    7.60    5.20
  -6   4  11    7.80    4.10
  -6   4  11   -2.50    6.50
   5  -4 -11   -4.10    2.90
   5  -4 -11   -5.00    4.20
  -5   4  11    7.80    4.80
  -5   4  11    3.90    4.80
  -5   4  11   -0.30    3.60
   4  -4 -11   -2.90    4.20
   4  -4 -11   -1.50    2.90
  -4   4  11    0.70    3.80
  -4   4  11   -3.40    4.40
  -4   4  11    3.40    4.40
  -4   4  11    0.80    4.40
   3  -4 -11    8.10    4.30
   3  -4 -11    0.10    3.30
  -3   4  11   -0.70    2.90
  -3   4  11    6.60    3.90
  -3   4  11    0.00    3.80
  -3   4  11   -7.90    4.00
   2  -4 -11    4.70    3.20
   2  -4 -11   -1.60    4.20
   2  -4 -11    0.60    3.90
  -2   4  11   -7.60    3.60
  -2   4  11   -1.40    1.80
  -2   4  11    2.30    4.20
  -2   4  11    1.60    3.90
   1  -4 -11   16.90    3.80
   1  -4 -11    7.90    5.70
   1  -4 -11   12.70    5.70
  -1   4  11   22.60    6.90
  -1   4  11    3.50    4.50
  -1   4  11   14.20    5.80
   0  -4 -11   -2.60    3.90
   0  -4 -11    2.90    4.60
   0   4  11    2.40    3.30
   0   4  11    1.80    3.40
  -1  -4 -11    4.50    5.30
  -1  -4 -11    1.40    4.80
   1   4  11    3.70    2.30
   1   4  11    7.90    5.60
   1   4  11    8.10    5.70
   5  -5 -11   19.20    6.00
   4  -5 -11   32.50    7.10
   4  -5 -11   40.20    6.80
  -4   5  11   40.70    7.60
  -4   5  11   21.50    6.50
  -4   5  11   26.50   11.60
  -4   5  11   40.50    6.70
   3  -5 -11    7.30    5.30
   3  -5 -11   14.40    4.70
  -3   5  11   10.70    7.90
  -3   5  11    2.80    3.90
  -3   5  11   12.00    5.80
  -3   5  11   10.20    4.60
  -3   5  11    6.10    3.40
   2  -5 -11    4.70    4.30
   2  -5 -11    6.50    3.70
  -2   5  11    8.70    5.40
  -2   5  11    8.50    4.60
  -2   5  11    5.30    5.50
  -2   5  11    7.60    3.70
  -2   5  11    6.90    3.10
   1  -5 -11   12.00    5.90
  -1   5  11   -2.20    4.90
  -1   5  11    2.90    4.40
   0  -5 -11    5.60    4.40
   0   7 -12   18.60    6.20
   0   7 -12   27.60    9.00
   0   7 -12   16.70    5.80
   0   7 -12   26.50    6.30
   0  -7  12   26.70    6.80
   0  -7  12   19.70    8.70
  -1   7 -12    2.40    4.20
  -1   7 -12    4.60    6.40
  -1   7 -12    5.00    4.90
   1  -7  12    3.10    3.10
   1  -7  12   -7.00    5.00
   1  -7  12    1.90    4.00
  -2   7 -12   34.90    6.80
  -2   7 -12   24.40    6.80
   2  -7  12   35.10    6.20
   2  -7  12   16.60    7.20
   2  -7  12   23.80    8.80
  -3   7 -12   -4.20    4.60
  -3   7 -12   -2.20    4.30
  -3   7 -12    5.30    4.80
   3  -7  12    0.90    6.20
   2   6 -12    0.60    4.10
   2   6 -12   10.70    5.20
   2   6 -12    1.40    2.90
  -2  -6  12   -8.60    6.50
  -2  -6  12    5.70    4.70
   1   6 -12    4.50    3.70
   1   6 -12   -3.40    3.80
   1   6 -12   -0.40    4.30
  -1  -6  12   -0.10    3.90
  -1  -6  12   -0.30    4.30
   0   6 -12  100.29   11.30
   0   6 -12  113.99   12.40
   0   6 -12  103.99   10.20
   0  -6  12  114.49   11.80
   0  -6  12   99.39   11.30
  -1   6 -12    0.90    3.70
  -1   6 -12    5.60    4.70
  -1   6 -12    1.20    3.90
   1  -6  12   -1.90    3.50
   1  -6  12   -0.10    2.70
   1  -6  12    3.60    4.80
  -2   6 -12   12.40    4.60
  -2   6 -12    2.10    5.00
  -2   6 -12    6.80    4.90
   2  -6  12    8.60    5.50
   2  -6  12    4.50    4.20
  -3   6 -12   19.60    6.90
  -3   6 -12   25.30    6.40
  -3   6 -12   34.30    7.90
  -3   6 -12   30.30    6.70
   3  -6  12   37.50    7.20
   3  -6  12   36.10    9.70
   3  -6  12   30.20    7.80
  -4   6 -12    5.00    4.10
  -4   6 -12    6.20    5.90
   4  -6  12    9.20    4.90
   4  -6  12    6.60    6.40
   3   5 -12    8.20    5.30
   3   5 -12    7.50    5.60
   3   5 -12    6.90    3.20
   3   5 -12   13.20    5.80
  -3  -5  12    8.00    4.90
  -3  -5  12    5.60    5.20
   2   5 -12   19.90    6.10
   2   5 -12   15.10    6.10
   2   5 -12   24.90    5.80
  -2  -5  12   10.30    5.50
  -2  -5  12   20.20    5.80
   1   5 -12   -1.30    3.80
   1   5 -12   -3.10    4.50
   1   5 -12   -0.20    3.00
  -1  -5  12    8.00    4.60
   0   5 -12    1.90    4.30
   0   5 -12    5.70    3.80
   0  -5  12    7.90    2.90
   0  -5  12    6.80    4.90
  -1   5 -12   67.59    7.80
  -1   5 -12   49.50    9.30
  -1   5 -12   43.10    8.00
   1  -5  12   43.30    7.90
   1  -5  12   32.60    7.40
  -2   5 -12   52.79   10.00
  -2   5 -12   58.29    7.90
  -2   5 -12   53.59    9.30
   2  -5  12   39.50    7.90
   2  -5  12   46.30    8.40
  -3   5 -12   78.09    8.10
  -3   5 -12   55.09    9.90
  -3   5 -12   78.99   11.40
  -3   5 -12   79.79   10.30
   3  -5  12   77.69   11.00
   3  -5  12   59.99   10.00
   3  -5  12   95.69   10.00
  -4   5 -12    2.10    5.40
  -4   5 -12    5.90    3.90
  -4   5 -12   -0.60    3.60
  -4   5 -12    0.00    4.30
   4  -5  12    5.80    7.90
   4  -5  12   -0.30    3.60
  -5   5 -12    2.60    4.90
  -5   5 -12   -0.90    3.50
  -5   5 -12    3.30    6.80
   5  -5  12   11.10    4.90
   5  -5  12    6.40    6.10
   5  -5  12    0.60    4.20
   4   4 -12   31.90    7.20
   4   4 -12   22.20    7.10
   4   4 -12   19.60    4.40
   4   4 -12   20.10    6.80
  -4  -4  12   31.50    8.10
  -4  -4  12   27.70    6.40
   3   4 -12    9.80    4.90
   3   4 -12    0.80    4.90
   3   4 -12   -2.40    4.10
   3   4 -12    7.00    3.60
  -3  -4  12   -0.80    4.50
  -3  -4  12   11.40    5.00
   2   4 -12   49.70    8.60
   2   4 -12   60.19    9.50
   2   4 -12   61.99    8.90
  -2  -4  12   55.69    8.00
  -2  -4  12   56.39    9.20
   1   4 -12  164.68   13.20
   1   4 -12  185.68   14.10
   1   4 -12  187.88   13.90
   0   4 -12    8.40    4.50
   0   4 -12    5.40    4.60
   0  -4  12    4.20    4.40
   0  -4  12    1.60    4.30
  -1   4 -12   36.20    7.60
  -1   4 -12   39.50    5.50
  -1   4 -12   37.40    7.70
   1  -4  12   31.30    7.20
   1  -4  12   35.10    7.50
  -2   4 -12    7.00    2.90
  -2   4 -12   -0.10    3.50
  -2   4 -12    8.40    5.40
   2  -4  12    3.30    4.70
   2  -4  12    4.80    5.00
  -3   4 -12    7.10    4.40
  -3   4 -12    1.00    2.70
  -3   4 -12    2.80    4.00
  -3   4 -12    1.50    4.10
   3  -4  12    3.20    4.70
  -4   4 -12   18.40    6.20
  -4   4 -12   18.60    6.90
  -4   4 -12   12.80    3.80
  -4   4 -12   24.40    5.90
   4  -4  12   19.40    5.60
   4  -4  12   11.00    5.40
   4  -4  12   19.20    6.40
  -5   4 -12    7.90    5.40
  -5   4 -12    5.20    5.10
  -5   4 -12    4.30    3.70
   5  -4  12   -5.30    3.90
   5  -4  12   11.70    4.20
   5  -4  12    1.40    5.40
   5   3 -12   41.40    8.30
   5   3 -12   51.19    9.30
   5   3 -12   53.69   10.20
  -5  -3  12   31.00    6.90
  -5  -3  12   34.90    7.90
  -5  -3  12   39.50    6.10
   4   3 -12    6.90    5.10
   4   3 -12    0.80    4.40
   4   3 -12   10.40    4.80
   4   3 -12    8.90    3.80
  -4  -3  12   12.00    5.50
  -4  -3  12    2.80    3.30
  -4  -3  12    1.80    3.80
   3   3 -12    6.80    4.40
   3   3 -12    7.60    4.00
   3   3 -12   10.90    4.80
   3   3 -12    2.90    4.50
  -3  -3  12    6.80    3.80
  -3  -3  12    6.30    3.50
   2   3 -12   35.80   10.90
   2   3 -12   34.40    7.60
   2   3 -12   36.00    6.50
  -2  -3  12   35.10    6.40
  -2  -3  12   32.00    6.30
   1   3 -12    2.80    3.50
   1   3 -12    2.80    3.50
  -1  -3  12   -0.90    3.40
  -1  -3  12   -7.10    2.70
   0   3 -12   51.49    9.30
   0   3 -12   29.10    6.90
   0  -3  12   36.40    9.60
   0  -3  12   40.70    7.80
   0  -3  12   46.00   14.20
  -1   3 -12  364.36   19.70
  -1   3 -12  395.36   22.30
   1  -3  12  390.16   20.30
   1  -3  12  369.56   20.80
  -2   3 -12   29.10    4.20
  -2   3 -12   31.40    6.60
  -2   3 -12   30.70    8.20
   2  -3  12   22.80    6.20
   2  -3  12   25.40    6.20
  -3   3 -12   27.40    6.50
  -3   3 -12   41.40    6.50
  -3   3 -12   29.30    4.40
   3  -3  12   23.80    6.40
  -4   3 -12    6.80    4.10
  -4   3 -12    3.30    4.20
  -4   3 -12    7.60    5.20
   4  -3  12    6.60    5.00
   4  -3  12    3.10    4.80
  -5   3 -12    5.00    5.50
  -5   3 -12   -0.50    3.00
   5  -3  12   -0.10    5.40
   6   2 -12    3.30    4.40
   6   2 -12    6.10    5.20
  -6  -2  12    1.20    5.60
   5   2 -12   -2.10    4.20
   5   2 -12   -0.80    3.90
   5   2 -12   12.10    8.60
  -5  -2  12    3.70    6.00
  -5  -2  12    2.60    3.30
  -5  -2  12    3.10    4.20
   4   2 -12    0.70    4.00
   4   2 -12    0.10    3.90
   4   2 -12    4.40    4.20
   4   2 -12    6.10    3.50
  -4  -2  12   -3.10    2.70
  -4  -2  12   10.90    5.70
  -4  -2  12   -1.00    3.20
   3   2 -12  198.28   13.60
   3   2 -12  195.88   16.70
   3   2 -12  200.78   15.50
  -3  -2  12  217.08   14.60
  -3  -2  12  219.38   13.10
   2   2 -12   -1.10    3.80
   2   2 -12   -2.30    3.40
   2   2 -12    3.30    3.50
   2   2 -12   -4.00    3.10
  -2  -2  12   -1.80    2.10
  -2  -2  12    4.30    3.60
   1   2 -12   -0.20    3.60
   1   2 -12   -0.70    3.00
   1   2 -12    0.40    3.30
  -1  -2  12    3.50    3.80
   0   2 -12    1.40    3.90
   0   2 -12   -4.40    2.80
   0  -2  12    2.50    3.80
   0  -2  12    6.50    3.90
   0  -2  12   -1.60    3.60
  -1   2 -12    0.80    3.70
  -1   2 -12   -5.90    4.30
   1  -2  12    9.50    4.40
   1  -2  12    3.60    4.00
   1  -2  12   -1.60    3.60
  -2   2 -12   34.40    6.80
   2  -2  12   37.10    7.10
   2  -2  12   34.30    8.20
  -3   2 -12    4.80    4.20
  -3   2 -12    0.50    1.50
  -3   2 -12    2.40    2.70
  -3   2 -12    2.50    3.80
   3  -2  12    1.10    3.90
   3  -2  12   -2.10    3.90
  -4   2 -12    8.00    3.00
  -4   2 -12    6.30    5.00
   4  -2  12    0.80    4.50
  -5   2 -12   16.20    5.40
  -5   2 -12   18.60    6.20
  -5   2 -12   11.90    3.50
   5  -2  12    3.70    8.00
   6   1 -12    2.70    5.70
   6   1 -12   -3.60    3.70
   6   1 -12   -5.10    4.50
  -6  -1  12    1.80    5.10
  -6  -1  12   -1.20    3.30
  -6  -1  12    0.80    3.90
   5   1 -12    1.10    4.50
   5   1 -12    3.50    3.50
   5   1 -12    0.10    4.80
  -5  -1  12   -4.00    3.50
  -5  -1  12    1.20    4.50
  -5  -1  12   -3.00    3.00
   4   1 -12   23.80    6.60
   4   1 -12   29.00    6.70
   4   1 -12   31.00    6.10
   4   1 -12   28.90    7.50
  -4  -1  12   32.00    7.20
  -4  -1  12   21.90    5.10
  -4  -1  12   37.10    7.80
   3   1 -12  155.78   13.80
   3   1 -12  179.58   11.70
   3   1 -12  174.38   13.70
   3   1 -12  176.28   14.00
  -3  -1  12  182.38   13.80
  -3  -1  12  166.98   10.80
  -3  -1  12  194.48   14.50
   2   1 -12   -1.00    2.60
   2   1 -12    2.00    3.70
   2   1 -12    0.20    3.00
  -2  -1  12    1.60    1.90
  -2  -1  12   -3.30    3.50
  -2  -1  12    2.00    2.30
  -2  -1  12   -0.20    3.60
   1   1 -12  825.42   34.30
   1   1 -12  793.72   29.00
   1   1 -12  835.82   31.10
   0   1 -12  202.78   15.60
   0   1 -12  193.18   12.50
   0   1 -12  218.28   13.10
   0  -1  12  182.38   12.00
   0  -1  12  196.28   15.60
  -1   1 -12  263.67   15.20
  -1   1 -12  292.37   14.40
   1  -1  12  285.07   15.40
   1  -1  12  269.67   18.60
  -2   1 -12   15.80    4.70
   2  -1  12   16.80    6.70
   2  -1  12    2.50    3.90
  -3   1 -12   44.00    5.30
  -3   1 -12   36.00    7.10
   3  -1  12   43.20    7.60
  -4   1 -12    5.90    3.90
  -4   1 -12    3.20    1.60
  -4   1 -12    7.00    5.00
  -4   1 -12    6.80    2.30
   4  -1  12   -1.00    4.30
   6   0 -12   15.80    4.70
   6   0 -12    6.20    5.60
   6   0 -12    9.60    4.80
  -6   0  12   12.00    5.60
  -6   0  12    9.60    4.40
   5   0 -12   38.00    8.30
   5   0 -12   36.30    7.70
   5   0 -12   38.90    6.00
  -5   0  12   46.00    8.60
  -5   0  12   40.10    8.10
   4   0 -12   62.49    7.00
   4   0 -12   51.39    9.40
   4   0 -12   65.79   10.40
   4   0 -12   72.19   10.90
  -4   0  12   71.49   10.40
  -4   0  12   66.89    9.50
   3   0 -12   50.09    8.00
   3   0 -12   39.70    6.90
   3   0 -12   52.49    6.10
  -3   0  12   63.39    6.90
  -3   0  12   47.60    5.90
  -3   0  12   50.49    8.70
  -3   0  12   37.20    7.20
   2   0 -12   87.89   17.10
   2   0 -12  119.39    8.40
   2   0 -12  136.09   12.70
  -2   0  12  125.59    6.70
  -2   0  12  104.49    8.90
  -2   0  12  109.89   11.70
  -2   0  12  134.69   12.60
   1   0 -12    0.90    2.90
   1   0 -12   -0.70    3.00
   1   0 -12   -2.40    2.40
  -1   0  12    6.90    4.80
  -1   0  12   -0.70    2.70
  -1   0  12   -0.50    4.00
   0   0 -12  130.79    9.40
   0   0 -12  125.19    9.30
   0   0  12  125.89    8.90
   0   0  12  128.19   12.40
   0   0  12   88.29   16.40
  -1   0 -12    5.30    3.30
  -1   0 -12    9.10    3.20
   1   0  12    3.00    3.50
   1   0  12   11.00    3.80
  -2   0 -12  146.09   13.50
  -2   0 -12  172.28    8.50
   2   0  12  152.68   11.50
   2   0  12  180.98   15.40
  -3   0 -12    0.00    3.50
  -3   0 -12    0.60    2.90
  -3   0 -12   -0.10    1.20
  -3   0 -12    1.80    1.30
   3   0  12   -3.50    3.50
   3   0  12   -0.90    3.10
  -4   0 -12  135.29   12.10
  -4   0 -12  128.39   12.80
   4   0  12  104.69   11.40
   6  -1 -12    3.30    4.10
   6  -1 -12    0.00    3.00
   6  -1 -12    0.60    5.00
  -6   1  12    8.90    5.40
  -6   1  12   15.80    5.80
   5  -1 -12   85.89   11.80
   5  -1 -12   85.59    7.40
  -5   1  12   85.89   10.50
  -5   1  12   80.59   10.60
   4  -1 -12    9.40    4.80
   4  -1 -12    7.40    2.80
  -4   1  12   -3.30    3.60
  -4   1  12    8.80    4.50
   3  -1 -12   27.00    3.90
   3  -1 -12   29.30    6.70
   3  -1 -12   24.30    6.00
  -3   1  12   26.70    6.80
  -3   1  12   32.00    6.10
  -3   1  12   18.00    4.70
   2  -1 -12  247.08   10.20
   2  -1 -12  248.28   14.90
   2  -1 -12  230.28   17.60
  -2   1  12  261.07   15.20
  -2   1  12  273.97   18.40
  -2   1  12  227.88   16.30
  -2   1  12  251.07    8.50
   1  -1 -12   12.50    4.10
  -1   1  12    9.80    4.80
  -1   1  12    9.20    5.30
  -1   1  12    3.20    2.60
   0  -1 -12   -4.70    2.10
   0   1  12    1.00    3.20
   0   1  12    6.10    4.40
   0   1  12    3.30    2.00
  -1  -1 -12    1.30    1.90
  -1  -1 -12    7.50    4.90
   1   1  12   -1.80    2.50
   1   1  12   -0.30    3.80
  -2  -1 -12   11.90    5.50
  -2  -1 -12    5.90    4.50
   2   1  12   14.50    4.60
   2   1  12   20.60    5.30
  -3  -1 -12    8.40    5.10
  -3  -1 -12    1.90    4.30
   3   1  12    9.00    4.40
   3   1  12   -1.30    4.10
   6  -2 -12   26.60    4.20
   6  -2 -12   14.50    3.90
   6  -2 -12   26.70    7.20
  -6   2  12   21.10    5.60
  -6   2  12   18.80    5.50
   5  -2 -12    6.20    2.40
   5  -2 -12    2.90    2.00
   5  -2 -12    3.20    4.60
  -5   2  12   10.40    4.80
  -5   2  12    6.00    5.00
   4  -2 -12    0.90    1.00
   4  -2 -12    2.10    4.60
   4  -2 -12   -1.70    0.90
  -4   2  12   -0.60    3.70
  -4   2  12   -2.40    2.30
   3  -2 -12    1.70    3.90
   3  -2 -12    4.40    3.60
  -3   2  12    7.50    4.10
  -3   2  12   -1.30    3.60
  -3   2  12    4.60    4.30
   2  -2 -12   43.30    6.50
  -2   2  12   42.80    2.40
  -2   2  12   50.09    7.80
  -2   2  12   29.80    7.00
  -2   2  12   67.39   12.90
   1  -2 -12    1.40    2.80
  -1   2  12    2.10    4.10
  -1   2  12    1.50    3.60
  -1   2  12    0.20    4.00
   0  -2 -12   81.79   11.80
   0  -2 -12   69.79    6.10
   0   2  12   63.59    9.80
   0   2  12   80.29   12.20
   0   2  12   72.19    7.40
  -1  -2 -12   -1.60    3.50
  -1  -2 -12    0.10    1.40
  -1  -2 -12    3.30    4.10
   1   2  12    1.40    4.00
   1   2  12   -1.20    2.10
  -2  -2 -12    8.90    5.50
  -2  -2 -12    8.90    5.50
   2   2  12    8.40    5.70
   2   2  12    2.80    3.20
  -3  -2 -12    3.40    4.00
  -3  -2 -12   -3.70    3.10
   3   2  12   -1.90    4.10
   3   2  12   -0.30    3.70
   6  -3 -12   42.40    3.20
   6  -3 -12   47.70    4.20
   6  -3 -12   25.60    7.30
  -6   3  12   35.00    8.20
  -6   3  12   44.20    7.60
   5  -3 -12   12.30    5.40
  -5   3  12   12.90    5.00
  -5   3  12   13.80    4.70
  -5   3  12    4.10    4.10
   4  -3 -12   92.69    9.80
  -4   3  12   95.79   13.80
  -4   3  12   87.49    9.90
   3  -3 -12  121.49   13.30
   3  -3 -12  128.89   10.60
  -3   3  12  109.89   12.50
  -3   3  12  116.69   11.40
   2  -3 -12    4.70    4.20
   2  -3 -12    5.90    3.50
  -2   3  12    2.40    1.30
  -2   3  12   -2.60    3.70
  -2   3  12   11.60    4.80
   1  -3 -12    8.00    4.90
   1  -3 -12   15.30    3.70
   1  -3 -12    9.90    5.40
  -1   3  12    8.90    4.40
  -1   3  12   14.60    5.30
  -1   3  12   12.90    6.20
   0  -3 -12    6.10    5.50
   0  -3 -12   11.20    2.90
   0  -3 -12    0.40    4.90
   0   3  12   11.70    5.90
   0   3  12   13.50    5.40
  -1  -3 -12   -5.10    3.10
  -1  -3 -12    0.00    4.80
   1   3  12    3.00    2.40
   1   3  12    9.10    5.50
  -2  -3 -12   -4.40    4.70
  -2  -3 -12    1.30    4.40
   2   3  12    1.60    4.00
   2   3  12    6.60    3.40
   5  -4 -12   12.10    4.70
  -5   4  12   13.30    5.50
  -5   4  12    3.50    4.30
  -5   4  12    1.60    5.00
   4  -4 -12    4.70    4.50
   4  -4 -12    1.50    3.40
  -4   4  12    3.90    3.60
  -4   4  12    7.50    4.70
  -4   4  12    9.70    4.50
  -4   4  12   -0.30    4.10
   3  -4 -12    6.90    4.60
   3  -4 -12    2.90    4.40
  -3   4  12   14.70    3.40
  -3   4  12   18.50    5.50
  -3   4  12   20.70    7.40
  -3   4  12   15.70    5.80
   2  -4 -12    5.30    4.40
   2  -4 -12    1.40    3.10
   2  -4 -12    3.80    6.00
  -2   4  12    1.90    4.30
  -2   4  12   -0.90    1.80
  -2   4  12   -2.70    4.20
  -2   4  12   -0.40    3.70
   1  -4 -12   14.80   10.40
   1  -4 -12   10.90    3.60
   1  -4 -12    7.80    5.80
  -1   4  12   19.00    6.90
  -1   4  12   14.10    5.80
  -1   4  12    1.70    6.30
   0  -4 -12    2.50    4.90
   0  -4 -12    3.60    4.40
   0   4  12    3.10    4.70
   0   4  12    3.40    4.80
   2   6 -13    2.80    4.90
   2   6 -13   -4.10    2.90
  -2  -6  13   -1.80    4.80
  -2  -6  13    2.90    5.20
   1   6 -13    4.70    4.80
   1   6 -13    1.40    4.10
   1   6 -13    2.90    3.70
  -1  -6  13    2.00    4.10
  -1  -6  13    1.70    5.90
   0   6 -13   16.60    6.20
   0   6 -13   21.70    5.80
   0  -6  13   29.90    6.40
   0  -6  13   18.40    6.10
  -1   6 -13   -4.20    3.20
  -1   6 -13    2.60    4.50
  -1   6 -13   -3.30    3.60
   1  -6  13    0.80    4.20
   1  -6  13    1.00    2.90
   1  -6  13   -2.80    4.40
   1  -6  13   -5.20    5.40
  -2   6 -13   -2.60    4.20
  -2   6 -13   -6.40    4.40
  -2   6 -13    0.10    3.80
   2  -6  13    2.50    4.20
   2  -6  13   -1.20    5.40
   2  -6  13   -3.30    3.80
  -3   6 -13   -0.80    3.70
  -3   6 -13   -1.40    4.30
  -3   6 -13   -2.40    4.70
   3  -6  13   -2.50    4.00
   3  -6  13    0.60    4.50
   3  -6  13    4.90    6.40
   3   5 -13   -0.50    5.10
   3   5 -13   -7.40    3.90
   3   5 -13    1.00    3.00
  -3  -5  13   -5.10    3.80
  -3  -5  13    9.20    5.20
   2   5 -13    4.30    5.20
   2   5 -13    1.80    4.30
   2   5 -13   10.40    4.30
  -2  -5  13    3.40    7.10
   1   5 -13   -0.60    4.60
   1   5 -13    1.70    3.80
   1   5 -13   -3.00    4.10
  -1  -5  13    3.20    4.80
   0   5 -13    1.40    4.40
   0   5 -13   14.90    5.70
   0  -5  13   11.30    4.90
   0  -5  13   11.30    5.50
  -1   5 -13    1.20    4.00
  -1   5 -13   -0.90    3.00
  -1   5 -13    2.20    3.20
   1  -5  13   -5.30    3.70
   1  -5  13   -0.30    4.50
  -2   5 -13   64.19    7.90
  -2   5 -13   50.89    9.10
  -2   5 -13   54.29    9.50
   2  -5  13   53.99    8.90
   2  -5  13   56.19    9.70
  -3   5 -13   10.80    3.60
  -3   5 -13   -3.50    3.70
  -3   5 -13   13.50    5.80
  -3   5 -13    7.00    6.40
   3  -5  13    1.70    4.40
   3  -5  13    7.30    9.80
   3  -5  13    5.10    4.40
  -4   5 -13    9.60    4.60
  -4   5 -13    3.60    5.10
  -4   5 -13   19.30    7.90
  -4   5 -13   10.00    6.50
   4  -5  13    9.00    4.40
   4  -5  13   19.70    5.90
   4  -5  13    1.70    5.60
   4   4 -13   10.80    5.90
   4   4 -13   -1.40    5.90
   4   4 -13    8.80    5.10
   4   4 -13    4.80    3.20
  -4  -4  13    0.80    5.40
  -4  -4  13    4.40    4.60
   3   4 -13    0.20    4.20
   3   4 -13    4.80    4.20
   3   4 -13    3.20    4.00
  -3  -4  13    8.30    4.20
   2   4 -13   21.70    5.40
   2   4 -13   41.50    8.20
   2   4 -13   27.00    7.30
   2   4 -13   32.10    7.40
  -2  -4  13   44.50    9.00
  -2  -4  13   28.50    6.10
   1   4 -13   13.00    5.20
   1   4 -13    8.30    4.40
  -1  -4  13    0.40    3.70
   0   4 -13    0.80    3.80
   0   4 -13    3.70    3.80
   0  -4  13    4.40    4.40
   0  -4  13    7.20    4.40
  -1   4 -13    1.60    2.40
  -1   4 -13    5.40    4.20
  -1   4 -13   -0.60    3.30
   1  -4  13   -2.10    3.90
   1  -4  13    6.30    6.20
  -2   4 -13   -3.10    3.70
  -2   4 -13   -3.50    3.60
  -2   4 -13    5.60    2.80
   2  -4  13    6.50    4.40
   2  -4  13   -9.80    3.70
  -3   4 -13    9.30    3.10
  -3   4 -13    7.00    4.40
  -3   4 -13    4.70    7.50
  -3   4 -13   12.30    5.50
   3  -4  13    5.00    4.40
   3  -4  13    3.40    4.40
  -4   4 -13   13.30    3.90
  -4   4 -13   16.70    5.40
  -4   4 -13   25.60    6.80
  -4   4 -13   34.80    6.50
   4  -4  13   27.00    6.40
   4  -4  13   19.00    5.70
   4  -4  13   19.20    9.90
   5   3 -13    7.60    5.40
   5   3 -13    6.10    4.90
  -5  -3  13    4.60    3.20
  -5  -3  13    6.20    4.40
   4   3 -13   18.10    5.70
   4   3 -13   16.70    7.10
   4   3 -13   18.90    6.20
   4   3 -13   13.70    5.60
  -4  -3  13   19.50    4.80
  -4  -3  13   19.00    5.20
  -4  -3  13   16.90    6.50
   3   3 -13    1.90    3.30
   3   3 -13   -1.30    3.40
   3   3 -13   -4.20    4.30
   3   3 -13    5.30    4.10
  -3  -3  13   -3.20    2.60
  -3  -3  13    3.00    4.40
  -3  -3  13   -0.50    2.70
   2   3 -13   11.50    5.10
   2   3 -13   10.50    5.30
   2   3 -13   20.30    6.10
   2   3 -13    5.30    4.90
  -2  -3  13   19.60    4.80
  -2  -3  13   13.40    5.10
  -2  -3  13   -2.60    3.50
   1   3 -13    0.00    3.40
  -1  -3  13    0.70    4.10
  -1  -3  13    1.90    3.80
   0   3 -13    5.10    4.20
   0  -3  13    2.10    4.70
   0  -3  13    3.20    4.10
  -1   3 -13  135.39   12.20
  -1   3 -13  124.09   12.90
   1  -3  13  134.59   11.60
  -2   3 -13   34.60    6.20
  -2   3 -13   50.89    8.40
   2  -3  13   44.90    8.50
   2  -3  13   53.79    8.50
  -3   3 -13   -1.40    3.80
  -3   3 -13   -3.50    3.40
  -3   3 -13    4.00    2.10
  -3   3 -13    4.10    4.10
   3  -3  13    7.80    4.90
   3  -3  13    2.80    4.50
  -4   3 -13   -1.10    4.30
  -4   3 -13    6.70    2.70
  -4   3 -13    3.70    3.50
  -4   3 -13    2.70    4.40
   4  -3  13    6.30    5.30
   4  -3  13    8.00    4.90
   5   2 -13   -0.10    4.80
   5   2 -13    0.10    4.40
   5   2 -13    2.70    4.70
  -5  -2  13    5.00    5.10
  -5  -2  13    2.10    3.90
   4   2 -13   38.80    6.90
   4   2 -13   30.50    8.00
   4   2 -13   12.90    6.10
   4   2 -13   24.80    5.80
  -4  -2  13   21.40    6.50
  -4  -2  13   26.10    6.60
   3   2 -13    1.00    3.10
   3   2 -13    5.80    3.60
   3   2 -13   -1.30    3.90
   3   2 -13    1.00    3.90
  -3  -2  13   -2.40    2.80
  -3  -2  13    0.90    2.70
  -3  -2  13   -0.60    4.00
   2   2 -13   -0.50    3.20
   2   2 -13    1.10    3.50
  -2  -2  13   -3.30    3.20
  -2  -2  13    0.70    2.30
   1   2 -13   57.59    8.80
   1   2 -13   53.19    8.10
   1   2 -13   55.39    9.90
  -1  -2  13   53.49   10.10
   0   2 -13   24.20    5.90
   0   2 -13   22.70    5.40
   0   2 -13   11.00    5.00
   0  -2  13   28.60    7.80
   0  -2  13   14.30    5.00
  -1   2 -13    5.90    4.40
  -1   2 -13   -0.40    3.20
   1  -2  13    2.30    3.00
   1  -2  13   -2.20    3.50
  -2   2 -13   -0.20    3.40
   2  -2  13    2.40    4.60
   2  -2  13    2.20    3.90
   2  -2  13    6.00    4.10
  -3   2 -13   43.80    6.50
  -3   2 -13   25.00    6.10
  -3   2 -13   20.50    5.60
   3  -2  13   30.70    7.00
   3  -2  13   40.90    7.40
  -4   2 -13   13.00    3.40
  -4   2 -13    5.70    3.20
  -4   2 -13    1.80    4.90
   4  -2  13   12.20    5.50
   5   1 -13    2.50    4.70
   5   1 -13   -0.60    3.50
   5   1 -13   -3.20    4.00
  -5  -1  13    6.70    3.50
  -5  -1  13    4.10    4.00
   4   1 -13   14.60    5.90
   4   1 -13   21.20    5.00
   4   1 -13   13.10    6.00
   4   1 -13   22.70    6.10
  -4  -1  13   28.00    7.10
  -4  -1  13   22.40    5.30
  -4  -1  13   33.20    5.90
   3   1 -13   -2.30    2.80
   3   1 -13   -1.40    4.60
   3   1 -13   -0.80    3.10
  -3  -1  13    1.30    2.60
  -3  -1  13   -1.90    3.90
  -3  -1  13   -2.90    2.90
   2   1 -13   -1.40    3.40
   2   1 -13    4.70    3.20
   2   1 -13    3.60    3.80
  -2  -1  13   -2.10    3.70
  -2  -1  13   -1.70    1.90
  -2  -1  13   -1.00    3.00
  -2  -1  13   -1.20    2.40
   1   1 -13    6.00    3.50
   1   1 -13   12.40    4.70
   1   1 -13    9.70    5.10
  -1  -1  13    8.30    4.20
   0   1 -13    9.50    4.60
   0   1 -13    8.60    4.10
   0   1 -13   10.80    3.90
   0  -1  13    9.80    5.50
   0  -1  13    2.70    3.20
  -1   1 -13   -1.20    2.60
  -1   1 -13    0.70    3.10
   1  -1  13    1.50    3.00
   1  -1  13    3.70    5.40
  -2   1 -13    7.80    3.00
  -2   1 -13   15.10    5.40
  -2   1 -13   12.00    4.40
   2  -1  13   12.50    4.60
   2  -1  13    4.00    4.40
   2  -1  13    4.90    3.90
  -3   1 -13   71.99    6.30
  -3   1 -13   68.99    6.20
  -3   1 -13   93.59   11.30
   3  -1  13   66.99    9.50
  -4   1 -13    3.70    3.70
  -4   1 -13    2.50    2.30
  -4   1 -13    4.80    2.20
  -4   1 -13    0.70    5.10
   4  -1  13   11.10    5.60
   6   0 -13   18.40    4.80
   6   0 -13    2.40    5.10
  -6   0  13    8.00    4.30
  -6   0  13    7.00    5.30
   5   0 -13   28.90    7.30
   5   0 -13   27.40    5.30
  -5   0  13   26.10    7.10
  -5   0  13   46.80    9.10
   4   0 -13   36.00    7.20
   4   0 -13   27.30    4.80
   4   0 -13   12.60    4.80
  -4   0  13   14.00    5.70
  -4   0  13   22.10    6.10
  -4   0  13   17.20    4.30
   3   0 -13   37.90    5.70
   3   0 -13   17.40    5.40
  -3   0  13   23.50    6.50
  -3   0  13   24.70    4.10
  -3   0  13   20.70    6.00
  -3   0  13   37.90    5.90
   2   0 -13   20.90    5.30
   2   0 -13    2.40    4.10
   2   0 -13   16.30    4.00
  -2   0  13   10.80    4.00
  -2   0  13   24.20    6.90
  -2   0  13   15.30    2.20
  -2   0  13    3.80    4.50
   1   0 -13   -0.20    2.40
   1   0 -13    1.30    3.10
   1   0 -13    5.20    3.50
  -1   0  13    3.90    3.70
  -1   0  13   -3.10    2.50
  -1   0  13    1.40    4.10
   0   0 -13   73.49    7.10
   0   0 -13   77.39    7.70
   0   0  13   81.19   12.70
   0   0  13   64.69    6.50
   0   0  13   57.69    9.90
  -1   0 -13   -0.10    2.30
  -1   0 -13   -7.10    3.10
   1   0  13   -3.10    3.40
   1   0  13   -1.70    2.40
  -2   0 -13  127.79    7.20
  -2   0 -13  112.09   12.40
   2   0  13  131.09   13.50
  -3   0 -13    3.30    1.30
  -3   0 -13    3.10    1.30
  -3   0 -13    8.00    6.20
  -3   0 -13    0.70    3.40
   3   0  13   -0.90    3.80
   3   0  13   -0.10    4.10
   6  -1 -13   -9.10    5.10
   6  -1 -13    8.30    3.60
  -6   1  13    2.20    3.30
   5  -1 -13   10.60    6.40
   5  -1 -13   19.50    3.90
  -5   1  13   12.50    5.60
  -5   1  13    5.50    4.20
   4  -1 -13    0.70    2.20
   4  -1 -13    5.40    4.40
   4  -1 -13   -7.50    3.70
  -4   1  13    4.00    3.40
  -4   1  13   -3.90    4.20
   3  -1 -13    2.30    2.30
   3  -1 -13    7.90    6.40
   3  -1 -13    4.20    3.20
  -3   1  13   -1.90    3.90
  -3   1  13    1.70    1.90
  -3   1  13    6.90    4.00
  -3   1  13    2.50    3.50
   2  -1 -13   46.10    6.50
   2  -1 -13   52.29    7.90
   2  -1 -13   47.70    9.20
  -2   1  13   48.20    8.50
  -2   1  13   40.80    7.50
  -2   1  13   49.20    8.30
   1  -1 -13   -2.60    2.90
  -1   1  13    4.40    4.50
  -1   1  13    2.60    4.10
  -1   1  13    4.30    3.50
   0  -1 -13   14.10    7.20
   0  -1 -13   14.00    3.60
   0   1  13    3.00    3.80
   0   1  13    7.50    4.90
   0   1  13    8.40    2.90
  -1  -1 -13    6.10    2.30
  -1  -1 -13    1.20    3.60
   1   1  13    5.80    3.00
   1   1  13    3.30    4.50
   1   1  13    3.20    4.30
  -2  -1 -13   -3.80    3.00
  -2  -1 -13    2.00    4.50
   2   1  13   -2.40    4.40
   2   1  13    3.50    3.20
  -3  -1 -13    7.40    4.60
  -3  -1 -13    1.20    4.20
   3   1  13    3.40    4.00
   3   1  13    5.20    4.20
   5  -2 -13   11.90    9.30
   5  -2 -13   -0.80    1.80
  -5   2  13    2.70    4.20
  -5   2  13    3.10    3.70
   4  -2 -13   10.50    4.80
   4  -2 -13    8.70    5.30
  -4   2  13   14.60    6.30
  -4   2  13    7.60    5.20
   3  -2 -13    1.80    4.00
   3  -2 -13   -1.70    3.70
  -3   2  13    2.60    4.30
  -3   2  13    8.10    4.20
  -3   2  13    2.20    4.20
   2  -2 -13   17.30    5.90
   2  -2 -13   13.90    4.70
  -2   2  13    6.70    5.00
  -2   2  13   27.40    6.10
  -2   2  13   13.90    5.30
   1  -2 -13    1.20    2.80
   1  -2 -13    2.20    4.50
  -1   2  13    6.50    5.10
  -1   2  13    5.40    4.30
   0  -2 -13    5.50    2.70
   0  -2 -13   13.00    5.40
   0   2  13    4.90    4.40
   0   2  13    6.00    5.40
   0   2  13   -0.10    2.80
  -1  -2 -13   -4.70    4.10
  -1  -2 -13    2.30    1.40
   1   2  13    2.90    4.10
   1   2  13    0.90    2.30
  -2  -2 -13    9.40    5.40
  -2  -2 -13   20.30    7.00
   2   2  13    3.30    3.50
   2   2  13   14.20    5.50
   5  -3 -13   -5.30    4.70
  -5   3  13   11.60    5.10
   4  -3 -13    4.60    4.70
  -4   3  13    1.60    4.70
  -4   3  13    7.80    4.60
  -4   3  13    1.20    3.00
   3  -3 -13   -4.10    4.60
  -3   3  13   -7.40    3.80
  -3   3  13    1.70    4.30
  -3   3  13    4.30    4.30
   2  -3 -13   -0.50    3.30
   2  -3 -13   -7.00    6.80
  -2   3  13   -4.70    4.50
  -2   3  13   -4.90    3.70
  -2   3  13   -0.30    4.40
   1  -3 -13   -1.90    3.20
   1  -3 -13    3.10    2.70
   1  -3 -13    2.60    4.50
  -1   3  13    3.40    4.60
  -1   3  13    8.60    5.10
  -1   3  13    1.20    4.10
   0  -3 -13    3.80    4.40
   0  -3 -13    3.60    4.40
   0  -3 -13    4.70    2.30
   0   3  13   -2.40    7.00
   0   3  13    9.60    4.70
  -1  -3 -13   25.20    7.20
  -1  -3 -13   17.50    6.80
   1   3  13    5.90    5.60
   1   3  13   28.10    7.60
   1   3  13   10.00    2.70
   3  -4 -13   -3.60    3.00
  -3   4  13   -1.60    7.20
  -3   4  13    1.50    3.40
  -3   4  13    1.90    4.40
  -3   4  13    0.20    2.10
   2  -4 -13   20.40    6.80
   2  -4 -13    4.50    4.90
   2  -4 -13    5.60    3.70
  -2   4  13    1.40    4.80
  -2   4  13    7.90    5.30
  -2   4  13   11.30    5.20
   1  -4 -13   -3.10    4.80
   1  -4 -13    1.30    4.10
   1  -4 -13    1.90    2.90
  -1   4  13   -0.40    4.70
  -1   4  13   -2.80    4.40
  -1   4  13   -3.60    8.00
   0   6 -14   -2.40    4.40
   0  -6  14    4.40    4.40
  -1   6 -14   12.30    6.00
  -1   6 -14   -2.80    6.20
   1  -6  14   -1.00    5.20
   1  -6  14    9.50    5.20
   1  -6  14    3.10    4.90
  -2   6 -14   -0.10    4.60
  -2   6 -14   -0.80    4.00
  -2   6 -14   -2.20    5.20
   2  -6  14   -6.40    4.20
   2  -6  14    4.60    5.70
   2  -6  14   -4.10    5.10
   2   5 -14   -2.50    4.30
   2   5 -14    4.30    4.80
   2   5 -14    0.80    3.00
  -2  -5  14   -0.20    4.40
   1   5 -14   10.10    5.70
   1   5 -14    1.60    4.20
   0   5 -14    1.40    4.20
   0   5 -14    1.90    4.40
   0  -5  14    0.50    4.70
  -1   5 -14    9.70    5.00
  -1   5 -14   16.40    5.80
   1  -5  14    7.40    5.60
   1  -5  14    6.50    5.10
  -2   5 -14    3.40    3.30
  -2   5 -14    0.40    4.60
  -2   5 -14    3.40    4.40
   2  -5  14    4.90    4.60
  -3   5 -14    9.10    4.60
  -3   5 -14   -2.20    3.00
  -3   5 -14    3.30    4.60
  -3   5 -14    2.60    4.70
   3  -5  14    1.20    4.40
   3  -5  14    5.60    4.70
   3  -5  14    6.70    5.50
   3   4 -14   -1.20    5.00
   3   4 -14    1.40    3.50
   3   4 -14   14.00    7.20
   3   4 -14    0.40    4.30
  -3  -4  14    0.60    4.20
  -3  -4  14    5.20    5.10
   2   4 -14   23.20    6.10
   2   4 -14   20.50    5.70
   2   4 -14   21.80    7.00
   1   4 -14   22.90    6.50
   1   4 -14    9.90    5.60
  -1  -4  14   15.00    5.80
   0   4 -14    0.40    4.50
   0   4 -14    3.30    4.30
   0  -4  14   -3.30    4.30
   0  -4  14   -1.80    4.10
  -1   4 -14   10.00    6.10
  -1   4 -14   16.30    6.00
   1  -4  14   10.30    5.30
   1  -4  14   19.30    6.00
  -2   4 -14   10.20    5.60
  -2   4 -14   10.10    3.30
  -2   4 -14   15.90    5.90
   2  -4  14   10.30    5.90
   2  -4  14   13.90    5.30
  -3   4 -14   -2.20    4.60
  -3   4 -14    3.30    2.70
  -3   4 -14   -0.10    3.60
  -3   4 -14    2.70    3.60
   3  -4  14   -9.80    3.80
   3  -4  14    0.10    4.80
   4   3 -14   -8.00    5.40
   4   3 -14   -0.60    3.20
   4   3 -14    0.20    5.10
   4   3 -14   -1.60    4.20
  -4  -3  14    0.50    3.30
  -4  -3  14   -4.10    4.60
  -4  -3  14    0.00    3.60
   3   3 -14    0.50    7.30
   3   3 -14   -3.80    3.00
   3   3 -14    2.90    3.80
   3   3 -14   -0.60    4.40
  -3  -3  14    1.10    3.30
  -3  -3  14    1.60    8.00
  -3  -3  14   -4.30    2.90
   2   3 -14   -0.20    3.60
   2   3 -14    0.00    3.90
   2   3 -14    7.70    4.30
  -2  -3  14    4.70    4.20
  -2  -3  14    3.10    4.40
   1   3 -14   16.20    5.40
   1   3 -14    4.10    5.10
   1   3 -14   17.70    5.40
  -1  -3  14   13.00    3.10
  -1  -3  14    6.80    4.20
  -1  -3  14   12.80    5.60
   0   3 -14   13.90    5.00
   0   3 -14   30.70    6.70
   0  -3  14   33.20    7.10
   0  -3  14   19.90    6.40
   0  -3  14   20.60    6.70
  -1   3 -14    5.90    4.20
  -1   3 -14   -3.90    3.80
   1  -3  14    9.50    5.40
   1  -3  14   -2.60    3.60
  -2   3 -14   17.60    6.00
  -2   3 -14   23.00    6.70
   2  -3  14   17.50    6.40
   2  -3  14   13.50    5.70
  -3   3 -14   10.70    4.30
  -3   3 -14   10.70    5.10
  -3   3 -14    5.30    4.30
  -3   3 -14   10.10    3.30
   3  -3  14    5.90    5.30
   3  -3  14    6.30    5.20
   4   2 -14    3.20    5.70
   4   2 -14   18.60    5.70
   4   2 -14   24.60    6.70
   4   2 -14   14.70    5.00
  -4  -2  14   19.30    5.60
  -4  -2  14   24.00    5.50
  -4  -2  14   15.50    6.20
   3   2 -14    1.30    3.70
   3   2 -14    4.20    3.80
   3   2 -14    0.10    4.60
  -3  -2  14   -6.50    4.00
  -3  -2  14    1.10    3.60
  -3  -2  14    1.90    2.70
   2   2 -14    9.70    4.20
   2   2 -14   13.60    5.60
   2   2 -14   30.80    7.10
  -2  -2  14   14.60    6.00
  -2  -2  14   12.60    3.10
  -2  -2  14    9.10    5.10
   1   2 -14    3.40    4.30
   1   2 -14    6.00    3.80
  -1  -2  14    9.90    5.10
  -1  -2  14   -5.80    4.30
  -1  -2  14    4.60    3.10
   0   2 -14   14.20    5.40
   0   2 -14   18.40    5.10
   0   2 -14   14.60    4.90
   0  -2  14   19.40    5.80
   0  -2  14    8.00    4.90
   0  -2  14    7.60    4.10
  -1   2 -14   37.20   11.70
  -1   2 -14   34.30    6.00
  -1   2 -14   21.70    9.20
   1  -2  14   27.70    6.40
   1  -2  14   35.50    9.00
   1  -2  14   38.30    8.10
  -2   2 -14   -7.70    3.20
  -2   2 -14    1.10    7.30
   2  -2  14    0.50    3.80
   2  -2  14    1.70    4.00
   2  -2  14    3.50    4.60
  -3   2 -14   -4.80    4.50
  -3   2 -14   -4.40    2.70
  -3   2 -14    3.40    4.30
   3  -2  14    6.80    4.60
   3  -2  14   -9.80    4.40
   5   1 -14    2.30    3.90
   5   1 -14    6.80    6.10
   5   1 -14    5.50    5.30
   5   1 -14    2.50    3.80
  -5  -1  14    2.50    3.90
  -5  -1  14    2.10    3.50
  -5  -1  14    4.10    4.80
   4   1 -14   12.60    4.40
   4   1 -14   23.70    6.30
   4   1 -14   14.70    6.10
  -4  -1  14   20.20    4.60
  -4  -1  14   12.00    6.50
  -4  -1  14    6.90    3.90
   3   1 -14   40.50    7.90
   3   1 -14   36.40    6.30
   3   1 -14   38.00    7.40
  -3  -1  14   38.40    5.30
  -3  -1  14   33.70    8.20
  -3  -1  14   30.70    6.80
   2   1 -14   -1.70    3.10
   2   1 -14   -3.00    3.60
  -2  -1  14    1.30    2.70
  -2  -1  14    0.00    2.70
  -2  -1  14    5.90    4.60
   1   1 -14    1.70    3.40
   1   1 -14   10.20    4.90
   1   1 -14    5.30    3.60
  -1  -1  14    7.70    5.40
  -1  -1  14    3.60    2.90
  -1  -1  14    5.70    4.50
   0   1 -14    4.60    4.30
   0   1 -14    4.40    3.20
   0   1 -14   11.30    4.80
   0  -1  14    5.10    3.60
   0  -1  14    3.30    6.80
   0  -1  14    1.20    3.90
  -1   1 -14    5.30    4.80
  -1   1 -14    7.10    3.60
  -1   1 -14   12.20    4.00
   1  -1  14   13.60    5.10
   1  -1  14    6.50    5.20
   1  -1  14    2.80    4.90
  -2   1 -14   16.40    7.90
  -2   1 -14   10.20    3.80
  -2   1 -14    3.10    2.90
   2  -1  14    0.10    3.90
   2  -1  14    1.90    3.90
   2  -1  14    2.50    5.10
  -3   1 -14   19.90    7.20
  -3   1 -14   12.20    3.30
  -3   1 -14   10.30    3.10
   3  -1  14    4.60    4.50
   5   0 -14   29.20    6.50
   5   0 -14   51.79    6.70
   5   0 -14   49.30    9.70
  -5   0  14   39.20    8.00
  -5   0  14   61.19    7.80
  -5   0  14   49.20    8.50
   4   0 -14   28.00    7.40
   4   0 -14   46.70    8.90
   4   0 -14   47.10    6.10
  -4   0  14   62.69    9.80
  -4   0  14   41.50    5.60
  -4   0  14   31.10    6.50
   3   0 -14    6.60    3.20
   3   0 -14    3.80    4.70
   3   0 -14   -7.40    4.10
  -3   0  14   11.10    4.00
  -3   0  14    8.10    4.80
  -3   0  14    6.10    2.30
  -3   0  14    9.50    5.20
   2   0 -14   12.60    3.80
   2   0 -14    7.20    4.80
   2   0 -14    7.70    4.70
  -2   0  14    8.70    5.50
  -2   0  14   19.40    6.30
  -2   0  14   17.00    4.40
   1   0 -14   -3.70    2.50
   1   0 -14    2.70    4.80
   1   0 -14   -2.90    2.90
  -1   0  14    7.70    5.40
  -1   0  14    2.40    3.60
   0   0 -14   11.40    5.00
   0   0 -14    7.70    3.60
   0   0 -14   13.30    3.80
   0   0  14   17.00    6.70
   0   0  14    0.30    4.70
   0   0  14   15.30    4.10
  -1   0 -14    0.90    2.60
  -1   0 -14    2.90    4.70
   1   0  14    2.30    4.10
   1   0  14    2.20    3.30
   1   0  14    2.00    4.20
  -2   0 -14   28.30    3.90
  -2   0 -14   17.00    7.10
   2   0  14   25.10    5.40
   2   0  14   21.90    6.80
   2   0  14   19.00    7.10
  -3   0 -14    2.40    3.80
  -3   0 -14   -7.50    4.60
   3   0  14    1.00    4.30
   3   0  14   -7.20    5.90
   5  -1 -14    1.10    5.00
   5  -1 -14   -2.80    2.60
  -5   1  14   -2.30    3.90
   4  -1 -14    1.70    5.00
   4  -1 -14   -3.30    2.00
  -4   1  14   -0.30    3.80
  -4   1  14   -1.10    4.90
  -4   1  14    1.50    2.30
   3  -1 -14    0.70    4.20
   3  -1 -14    2.00    3.50
  -3   1  14    2.90    4.50
  -3   1  14    5.30    3.50
  -3   1  14   -5.30    5.40
   2  -1 -14   -2.60    3.00
   2  -1 -14   -0.60    4.20
  -2   1  14    4.40    4.10
  -2   1  14   -5.30    2.90
  -2   1  14   -6.20    4.10
   1  -1 -14   16.00    6.10
   1  -1 -14    0.70    3.30
  -1   1  14   12.00    4.70
  -1   1  14    0.40    4.60
  -1   1  14   10.90    4.30
   0  -1 -14   -4.00    2.80
   0  -1 -14    2.50    4.50
   0   1  14    0.40    3.60
   0   1  14    0.10    2.10
   0   1  14   -1.00    4.60
  -1  -1 -14    3.80    2.30
  -1  -1 -14   -6.80    4.40
   1   1  14    2.10    2.70
   1   1  14    1.80    4.40
   1   1  14    4.00    5.00
  -2  -1 -14   -0.70    3.40
  -2  -1 -14    9.20    6.20
   2   1  14    0.30    5.60
   2   1  14    5.20    5.10
   4  -2 -14    2.90    4.70
   4  -2 -14    3.90    4.30
  -4   2  14    8.00    4.30
  -4   2  14    0.60    4.80
  -4   2  14    8.40    4.90
   3  -2 -14    6.30    5.30
   3  -2 -14   12.40    5.20
  -3   2  14   29.40    8.30
  -3   2  14   17.20    5.90
  -3   2  14   20.60    2.30
   2  -2 -14   -3.10    3.10
   2  -2 -14    1.40    4.40
  -2   2  14    4.30    5.50
  -2   2  14   -2.10    4.20
  -2   2  14    1.20    3.90
   1  -2 -14    4.80    4.10
   1  -2 -14    5.50    3.00
  -1   2  14    4.30    4.30
  -1   2  14    0.00    2.70
  -1   2  14    5.30    4.90
   0  -2 -14    6.00    4.50
   0  -2 -14   -0.40    5.10
   0  -2 -14    4.90    2.80
   0   2  14   10.50    5.10
   0   2  14    9.00    4.30
   0   2  14   12.90    6.10
  -1  -2 -14    5.50    4.70
  -1  -2 -14    1.30    1.30
  -1  -2 -14   -2.90    3.60
   1   2  14    3.00    5.30
   1   2  14    4.20    9.00
   1   2  14    0.70    2.60
   3  -3 -14   22.40    6.10
   3  -3 -14   12.00    7.00
  -3   3  14   16.40    1.90
  -3   3  14   10.40    5.30
  -3   3  14   11.30    6.70
  -3   3  14   14.60    5.80
   2  -3 -14   -4.30    3.30
   2  -3 -14    4.70    5.20
   2  -3 -14   -0.10    3.60
  -2   3  14    7.20    5.90
  -2   3  14    5.60    5.90
  -2   3  14   -3.80    4.20
   1  -3 -14    1.20    4.50
   1  -3 -14    7.90    5.10
   1  -3 -14   -5.50    2.70
  -1   3  14    1.00    3.80
  -1   3  14   -1.90    4.30
  -1   3  14    0.10    5.30
   1   5 -15   -0.50    3.60
   1   5 -15    3.80    4.50
  -1  -5  15  -11.10    5.00
   0   5 -15    3.10    4.50
   0   5 -15   -3.10    4.40
   0  -5  15    1.80    4.80
  -1   5 -15    5.40    4.90
  -1   5 -15   13.30    5.90
   1  -5  15    5.10    5.80
   1  -5  15   13.00    5.70
   2   4 -15    0.20    3.50
   2   4 -15    6.90    5.50
   2   4 -15    4.10    4.30
  -2  -4  15   -3.60    4.80
   1   4 -15   40.80    7.40
   1   4 -15   34.90    7.80
  -1  -4  15   35.10    8.00
   0   4 -15    4.10    4.80
   0   4 -15   -2.90    4.00
   0  -4  15    2.30    4.70
  -1   4 -15   17.20    7.40
  -1   4 -15    6.80    4.80
   1  -4  15    3.30    4.90
   1  -4  15    1.80    9.30
  -2   4 -15   -6.50    3.90
  -2   4 -15    3.20    5.70
   2  -4  15    1.50    5.40
   2  -4  15    3.90    5.70
   3   3 -15   20.70    6.80
   3   3 -15   17.40    5.40
   3   3 -15    1.60    3.80
  -3  -3  15    3.90    3.60
  -3  -3  15    4.80    3.80
  -3  -3  15    6.20    6.10
   2   3 -15    5.10    4.50
   2   3 -15   11.90    5.90
   2   3 -15   17.50    5.60
  -2  -3  15   12.00    5.20
  -2  -3  15    3.00    5.30
   1   3 -15   -0.30    4.40
   1   3 -15    2.20    3.90
   1   3 -15    1.90    3.80
  -1  -3  15   -1.10    2.30
  -1  -3  15   -2.70    3.70
   0   3 -15   -2.10    3.80
   0   3 -15   -2.90    3.80
   0   3 -15    1.80    4.90
   0  -3  15    1.80    4.60
   0  -3  15    1.50    4.30
   0  -3  15   -7.00    3.80
  -1   3 -15    2.60    4.50
  -1   3 -15    4.30    7.70
   1  -3  15   -5.30    5.80
  -2   3 -15    8.10    5.20
  -2   3 -15    5.10    4.90
   2  -3  15    2.30    5.00
   2  -3  15   12.50    4.90
   4   2 -15    4.80    3.90
   4   2 -15    9.40    4.60
   4   2 -15    7.60    5.20
   4   2 -15    7.50    6.50
  -4  -2  15   -0.70    5.10
  -4  -2  15    9.30    4.10
  -4  -2  15    5.00    3.90
   3   2 -15    3.40    3.60
   3   2 -15   -0.20    3.70
   3   2 -15   -7.50    8.20
  -3  -2  15    0.20    5.00
  -3  -2  15    2.90    3.10
  -3  -2  15    6.00    3.90
   2   2 -15   -3.60    4.00
   2   2 -15   -2.30    3.80
   2   2 -15    2.20    3.60
  -2  -2  15    0.60    3.30
  -2  -2  15    1.00    2.50
   1   2 -15   11.70    4.90
   1   2 -15   16.90    6.00
  -1  -2  15    3.20    4.50
  -1  -2  15    9.00    5.00
  -1  -2  15    5.70    3.10
   0   2 -15   37.60    6.80
   0   2 -15   20.40    6.90
   0  -2  15   30.80    6.40
   0  -2  15   17.70    6.10
   0  -2  15   17.40    6.60
  -1   2 -15   12.70    7.40
  -1   2 -15   -1.60    3.20
  -1   2 -15    5.40    3.70
   1  -2  15   -4.80    3.90
   1  -2  15   -4.10    3.40
  -2   2 -15   14.60    4.80
  -2   2 -15    1.40    3.60
  -2   2 -15    9.40    5.40
   2  -2  15   16.40    6.30
   2  -2  15   11.50    4.80
   4   1 -15    4.00    4.60
   4   1 -15    6.80    5.40
  -4  -1  15   10.10    4.60
  -4  -1  15    4.90    3.10
  -4  -1  15   -3.20    5.20
   3   1 -15    7.40    5.40
   3   1 -15   11.50    4.10
   3   1 -15   -0.70    4.40
  -3  -1  15    8.40    2.70
  -3  -1  15   -1.30    4.00
  -3  -1  15    0.00    5.40
   2   1 -15    9.10    3.60
   2   1 -15    0.70    4.00
   2   1 -15   -1.70    4.10
  -2  -1  15    0.80    5.60
  -2  -1  15    5.70    3.90
  -2  -1  15   14.50    4.00
   1   1 -15   17.30    4.80
   1   1 -15   10.20    5.80
  -1  -1  15   16.30    4.20
  -1  -1  15   14.90    6.30
  -1  -1  15   20.80    6.10
   0   1 -15   23.20    5.50
   0   1 -15   12.50    4.40
   0   1 -15    6.90    4.90
   0  -1  15   15.00    8.90
   0  -1  15   11.50    5.20
   0  -1  15   13.00    4.60
  -1   1 -15    2.10    3.80
  -1   1 -15   -3.10    3.40
  -1   1 -15    3.20    5.30
   1  -1  15    3.40    3.40
   1  -1  15    0.90    4.30
   1  -1  15    1.30    5.50
  -2   1 -15   19.40    4.00
  -2   1 -15   19.00    6.20
   2  -1  15   21.10    6.40
   2  -1  15   17.80    5.00
   2  -1  15   24.90   10.50
   4   0 -15   10.80    3.40
   4   0 -15   10.90    5.30
  -4   0  15    3.20    2.90
  -4   0  15    4.70    5.40
  -4   0  15    7.40    5.30
   3   0 -15    0.40    2.90
   3   0 -15    3.20    4.00
   3   0 -15   -6.70    3.90
  -3   0  15   12.90   10.10
  -3   0  15   -1.70    3.50
  -3   0  15    1.70    1.90
  -3   0  15    1.10    3.70
   2   0 -15   84.19   12.80
   2   0 -15  114.39    8.00
   2   0 -15  129.19   13.30
  -2   0  15  113.69   11.80
  -2   0  15  108.59   11.20
  -2   0  15   95.29   14.70
   1   0 -15   14.30    4.30
   1   0 -15   13.50    7.10
   1   0 -15   14.60    3.70
  -1   0  15   10.80    5.70
  -1   0  15   13.90    9.80
  -1   0  15   16.30    5.60
   0   0 -15   12.90    6.00
   0   0 -15   23.60    4.50
   0   0 -15   14.50    7.70
   0   0  15   20.90    4.20
   0   0  15    5.30    5.40
   0   0  15   17.00    5.80
  -1   0 -15   21.30    4.40
  -1   0 -15    8.40    5.40
   1   0  15   18.00    4.40
   1   0  15   23.50    7.40
   1   0  15   18.20    5.90
   4  -1 -15    0.90    2.00
   4  -1 -15    7.70    5.50
   4  -1 -15   -4.60    5.30
  -4   1  15    0.50    2.50
  -4   1  15   10.50    5.90
  -4   1  15    1.10    3.00
   3  -1 -15   -6.50    2.60
   3  -1 -15   -1.20    4.50
   3  -1 -15    2.40    4.00
  -3   1  15    3.00    3.90
  -3   1  15    1.60    5.30
  -3   1  15    2.80    3.80
   2  -1 -15    3.00    4.60
  -2   1  15   14.00    5.70
  -2   1  15   -3.40    2.80
  -2   1  15   11.60    8.40
   1  -1 -15    3.00    5.10
   1  -1 -15   -1.70    3.10
  -1   1  15    5.00    3.40
  -1   1  15   -3.50    3.70
  -1   1  15    4.30    4.90
   0  -1 -15   30.60    7.20
   0  -1 -15   23.80    4.30
   0   1  15   27.90    8.80
   0   1  15   31.20    7.00
   0   1  15   30.80    4.40
   0   1  15   35.70    7.80
  -1  -1 -15    7.30    5.70
  -1  -1 -15    4.60    2.70
   1   1  15    9.40    5.20
   1   1  15    7.20    3.20
   3  -2 -15    7.70    4.90
   3  -2 -15    7.50    7.40
  -3   2  15   34.60    8.20
  -3   2  15    1.10    5.20
  -3   2  15   19.20    5.80
   2  -2 -15    6.10    5.70
  -2   2  15   10.40    5.50
  -2   2  15   -0.30    4.30
  -2   2  15    0.40    4.10
   1  -2 -15    5.50    5.80
   1  -2 -15    8.70    5.40
  -1   2  15   12.40    5.70
  -1   2  15   14.30    7.20
  -1   2  15    3.50    3.90
   0   4 -16    5.40    5.00
   0   4 -16    3.20    4.00
   0  -4  16   -0.70    5.40
   2   3 -16   11.30    4.70
   2   3 -16    4.70    5.30
   2   3 -16   11.30    5.90
  -2  -3  16   12.40    8.50
  -2  -3  16    4.10    4.50
   1   3 -16   -7.50    7.10
   1   3 -16   -9.10    4.10
   1   3 -16   -8.60    3.80
  -1  -3  16    0.70    3.60
  -1  -3  16   14.80    6.00
  -1  -3  16    6.50    3.30
   0   3 -16   11.40    5.20
   0   3 -16    3.90    4.20
   0   3 -16   -5.80    4.10
   0  -3  16    2.40    4.20
   0  -3  16  -10.10    4.80
   0  -3  16    7.90    4.90
  -1   3 -16    5.90    4.60
  -1   3 -16    4.60    4.30
  -1   3 -16    6.90    4.10
   1  -3  16    1.90    4.60
   1  -3  16    3.80    5.50
   2   2 -16   20.30    9.60
   2   2 -16    1.50    6.10
   2   2 -16   10.10    4.50
  -2  -2  16   15.00    6.00
  -2  -2  16   -0.30    5.10
  -2  -2  16    7.40    3.10
   1   2 -16   15.60    5.00
   1   2 -16   10.80    5.80
   1   2 -16    5.00    5.20
  -1  -2  16    9.00    4.80
  -1  -2  16   18.70    4.60
  -1  -2  16   13.80    6.60
   0   2 -16    8.20    4.30
   0   2 -16   17.30    6.50
   0   2 -16    4.10    3.80
   0  -2  16    2.70    4.30
   0  -2  16    5.20    5.40
   0  -2  16    2.40    5.20
  -1   2 -16    3.30    4.00
  -1   2 -16   -4.20    5.10
   1  -2  16   -1.70    3.50
   1  -2  16   -1.90    4.40
   1  -2  16   -2.60    3.90
   3   1 -16   -0.80    5.00
   3   1 -16   -6.70    5.20
   3   1 -16    2.80    3.60
  -3  -1  16   -0.90    4.30
  -3  -1  16   -0.10    5.40
  -3  -1  16    3.50    2.40
   2   1 -16    6.00    5.30
   2   1 -16    3.70    3.30
   2   1 -16    2.40    4.70
  -2  -1  16    7.50    5.70
  -2  -1  16   -3.10    4.60
  -2  -1  16    8.70    3.70
   1   1 -16    9.10    4.10
   1   1 -16    5.60    4.30
   1   1 -16    3.00    4.40
  -1  -1  16    8.80    5.10
  -1  -1  16   -7.90    5.00
  -1  -1  16    4.60    3.80
   0   1 -16   13.50    5.20
   0   1 -16    4.30    4.00
   0  -1  16    7.60    5.60
   0  -1  16  -10.80    5.70
   0  -1  16    7.40    3.90
  -1   1 -16   62.19    7.60
  -1   1 -16   77.89    8.30
   1  -1  16   59.19    7.70
   1  -1  16   96.29   11.80
   2   0 -16   -1.30    4.80
   2   0 -16    0.60    4.00
   2   0 -16   -3.00    2.80
  -2   0  16   -8.80    4.40
  -2   0  16   -1.50    3.50
   1   0 -16   46.70    5.80
   1   0 -16   59.69   10.80
  -1   0  16   35.20    8.70
  -1   0  16   59.29   10.30
   0   0 -16   12.50    4.50
   0   0 -16   24.70   11.20
   0   0  16   13.20    6.80
   0   0  16    9.10    5.80
   0   0  16   10.70    4.00
   0   0   0    0.00    0.00


_computing_structure_solution     'SHELXT 2014/5 (Sheldrick, 2014)'
_computing_structure_solution     'SHELXT 2014/5 (Sheldrick, 2014)'
;
loop_
_space_group_symop_operation_xyz
'x, y, z'
'-x, -y, -z'
loop_
_atom_site_label
_atom_site_type_symbol
_atom_site_fract_x
_atom_site_fract_y
_atom_site_fract_z
_atom_site_U_iso_or_equiv
_atom_site_adp_type
_atom_site_occupancy
_atom_site_site_symmetry_order
_atom_site_calc_flag
_atom_site_refinement_flags_posn
_atom_site_refinement_flags_adp
_atom_site_refinement_flags_occupancy
_atom_site_disorder_assembly
_atom_site_disorder_group
O1 O 0.2467(2) 1.08268(19) -0.11791(11) 0.0519(3) Uani 1 1 d . . . . .
O2 O 0.84046(19) 1.02839(17) 0.59963(10) 0.0469(3) Uani 1 1 d . . . . .
O3 O 0.6287(2) 0.81285(18) 0.66314(10) 0.0479(3) Uani 1 1 d . . . . .
O4 O 0.02244(19) 0.32438(17) 0.42557(11) 0.0481(3) Uani 1 1 d . . . A 2
O5 O 0.22268(19) 0.51835(17) 0.19702(9) 0.0452(3) Uani 1 1 d . . . . .
O6 O -0.0833(2) 0.4776(2) 0.31894(11) 0.0549(4) Uani 1 1 d . . . . .
N1 N 0.0516(2) 0.4485(2) 0.37286(12) 0.0421(4) Uani 1 1 d . . . . .
N2 N 0.6880(2) 0.8835(2) 0.59039(12) 0.0407(3) Uani 1 1 d . . . B 1
C1 C 0.5691(3) 0.7892(2) 0.48646(13) 0.0371(4) Uani 1 1 d . . . . .
C2 C 0.3766(3) 0.6564(2) 0.47831(13) 0.0371(4) Uani 1 1 d . . . . .
H2 H 0.324662 0.621622 0.538031 0.044 Uiso 1 1 calc R U . . .
C3 C 0.2521(2) 0.8163(2) -0.04020(13) 0.0395(4) Uani 1 1 d . . . . .
C4 C 0.2627(2) 0.5762(2) 0.38073(14) 0.0374(4) Uani 1 1 d . . . . .
C5 C 0.2698(3) 0.5324(2) 0.02341(14) 0.0408(4) Uani 1 1 d . . . . .
H5 H 0.287257 0.406349 0.012922 0.049 Uiso 1 1 calc R U . . .
C6 C 0.3398(3) 0.6182(2) 0.29140(13) 0.0398(4) Uani 1 1 d . . . . .
C7 C 0.2349(3) 0.6219(2) 0.11781(13) 0.0393(4) Uani 1 1 d . . . . .
C8 C 0.2109(3) 0.8994(2) 0.05570(14) 0.0410(4) Uani 1 1 d . . . . .
H8 H 0.189513 1.023713 0.066190 0.049 Uiso 1 1 calc R U . . .
C9 C 0.6511(3) 0.8368(2) 0.40003(14) 0.0409(4) Uani 1 1 d . . . . .
H9 H 0.784099 0.929183 0.407888 0.049 Uiso 1 1 calc R U . . .
C10 C 0.2012(3) 0.8019(2) 0.13489(14) 0.0420(4) Uani 1 1 d . . . . .
H10 H 0.172044 0.856929 0.200038 0.050 Uiso 1 1 calc R U . . .
C11 C 0.2787(3) 0.6324(3) -0.05553(14) 0.0418(4) Uani 1 1 d . . . . .
H11 H 0.303436 0.574478 -0.121222 0.050 Uiso 1 1 calc R U . . .
C12 C 0.5370(3) 0.7480(2) 0.30267(14) 0.0426(4) Uani 1 1 d . . . . .
H12 H 0.593546 0.775753 0.242817 0.051 Uiso 1 1 calc R U . . .
C13 C 0.2704(3) 0.9237(3) -0.12384(14) 0.0446(4) Uani 1 1 d . . . . .
H13 H 0.303247 0.863968 -0.186923 0.054 Uiso 1 1 calc R U . . .
loop_
_atom_site_aniso_label
_atom_site_aniso_U_11
_atom_site_aniso_U_22
_atom_site_aniso_U_33
_atom_site_aniso_U_23
_atom_site_aniso_U_13
_atom_site_aniso_U_12
O1 0.0540(8) 0.0525(8) 0.0557(8) 0.0225(6) 0.0142(6) 0.0190(6)
O2 0.0407(7) 0.0392(6) 0.0548(8) 0.0077(5) 0.0030(6) 0.0075(6)
O3 0.0515(8) 0.0491(7) 0.0412(7) 0.0119(6) 0.0079(6) 0.0124(6)
O4 0.0451(7) 0.0404(7) 0.0614(8) 0.0172(6) 0.0191(6) 0.0110(6)
O5 0.0495(7) 0.0410(6) 0.0392(7) 0.0121(5) 0.0047(6) 0.0053(5)
O6 0.0379(7) 0.0677(9) 0.0557(9) 0.0155(7) 0.0010(6) 0.0133(6)
N1 0.0382(8) 0.0400(8) 0.0451(9) 0.0069(7) 0.0082(7) 0.0094(6)
N2 0.0401(8) 0.0372(7) 0.0452(9) 0.0084(6) 0.0054(7) 0.0142(7)
C1 0.0358(9) 0.0347(8) 0.0404(9) 0.0085(7) 0.0041(7) 0.0119(7)
C2 0.0383(9) 0.0355(8) 0.0409(9) 0.0120(7) 0.0102(7) 0.0140(7)
C3 0.0337(9) 0.0421(9) 0.0387(9) 0.0088(7) 0.0042(7) 0.0073(7)
C4 0.0343(9) 0.0325(8) 0.0451(10) 0.0112(7) 0.0078(7) 0.0086(7)
C5 0.0364(9) 0.0383(9) 0.0457(10) 0.0074(7) 0.0055(7) 0.0110(7)
C6 0.0425(9) 0.0376(9) 0.0396(10) 0.0101(7) 0.0057(7) 0.0128(7)
C7 0.0351(9) 0.0402(9) 0.0387(9) 0.0111(7) 0.0046(7) 0.0055(7)
C8 0.0386(9) 0.0385(9) 0.0440(10) 0.0087(7) 0.0067(7) 0.0105(7)
C9 0.0372(9) 0.0381(9) 0.0477(11) 0.0136(8) 0.0075(8) 0.0103(7)
C10 0.0411(10) 0.0431(9) 0.0379(10) 0.0058(7) 0.0087(8) 0.0094(8)
C11 0.0378(9) 0.0455(9) 0.0379(9) 0.0054(7) 0.0074(7) 0.0093(8)
C12 0.0423(10) 0.0431(9) 0.0433(10) 0.0153(8) 0.0105(8) 0.0107(8)
C13 0.0411(10) 0.0483(10) 0.0409(10) 0.0103(8) 0.0058(8) 0.0097(8)
loop_
_atom_type_symbol
_atom_type_description
_atom_type_scat_dispersion_real
_atom_type_scat_dispersion_imag
_atom_type_scat_source
C C 0.0033 0.0016 'International Tables Vol C Tables 4.2.6.8 and 6.1.1.4'
H H 0.0000 0.0000 'International Tables Vol C Tables 4.2.6.8 and 6.1.1.4'
N N 0.0061 0.0033 'International Tables Vol C Tables 4.2.6.8 and 6.1.1.4'
O O 0.0106 0.0060 'International Tables Vol C Tables 4.2.6.8 and 6.1.1.4'
loop_
_geom_angle_atom_site_label_1
_geom_angle_atom_site_label_2
_geom_angle_atom_site_label_3
_geom_angle
_geom_angle_site_symmetry_1
_geom_angle_site_symmetry_3
C6 O5 C7 116.79(13) . .
O4 N1 C4 117.00(15) . .
O6 N1 O4 124.45(15) . .
O6 N1 C4 118.47(15) . .
O2 N2 C1 118.12(14) . .
O3 N2 O2 124.10(15) . .
O3 N2 C1 117.78(14) . .
C2 C1 N2 118.15(15) . .
C2 C1 C9 122.21(16) . .
C9 C1 N2 119.64(15) . .
C1 C2 H2 121.2 . .
C4 C2 C1 117.58(16) . .
C4 C2 H2 121.2 . .
C8 C3 C13 120.42(16) . .
C11 C3 C8 119.44(17) . .
C11 C3 C13 120.13(16) . .
C2 C4 N1 117.58(15) . .
C2 C4 C6 122.12(16) . .
C6 C4 N1 120.26(16) . .
C7 C5 H5 121.1 . .
C7 C5 C11 117.73(16) . .
C11 C5 H5 121.1 . .
O5 C6 C4 118.11(15) . .
O5 C6 C12 123.23(16) . .
C12 C6 C4 118.48(16) . .
C5 C7 O5 117.48(15) . .
C5 C7 C10 122.80(17) . .
C10 C7 O5 119.63(15) . .
C3 C8 H8 119.9 . .
C10 C8 C3 120.24(16) . .
C10 C8 H8 119.9 . .
C1 C9 H9 120.5 . .
C12 C9 C1 119.05(16) . .
C12 C9 H9 120.5 . .
C7 C10 H10 120.7 . .
C8 C10 C7 118.67(16) . .
C8 C10 H10 120.7 . .
C3 C11 H11 119.5 . .
C5 C11 C3 121.05(16) . .
C5 C11 H11 119.5 . .
C6 C12 H12 119.8 . .
C9 C12 C6 120.45(17) . .
C9 C12 H12 119.8 . .
O1 C13 C3 124.62(17) . .
O1 C13 H13 117.7 . .
C3 C13 H13 117.7 . .
loop_
_geom_bond_atom_site_label_1
_geom_bond_atom_site_label_2
_geom_bond_distance
_geom_bond_site_symmetry_2
O1 C13 1.210(2) .
O2 N2 1.2299(18) .
O3 N2 1.2292(19) .
O4 N1 1.2304(19) .
O5 C6 1.366(2) .
O5 C7 1.403(2) .
O6 N1 1.219(2) .
N1 C4 1.466(2) .
N2 C1 1.463(2) .
C1 C2 1.378(2) .
C1 C9 1.388(2) .
C2 H2 0.9500 .
C2 C4 1.373(2) .
C3 C8 1.398(2) .
C3 C11 1.390(2) .
C3 C13 1.472(2) .
C4 C6 1.398(2) .
C5 H5 0.9500 .
C5 C7 1.379(2) .
C5 C11 1.384(3) .
C6 C12 1.389(2) .
C7 C10 1.384(2) .
C8 H8 0.9500 .
C8 C10 1.375(2) .
C9 H9 0.9500 .
C9 C12 1.377(2) .
C10 H10 0.9500 .
C11 H11 0.9500 .
C12 H12 0.9500 .
C13 H13 0.9500 .
