#------------------------------------------------------------------------------
#$Date: 2022-03-11 11:42:29 +0200 (Fri, 11 Mar 2022) $
#$Revision: 273648 $
#$URL: file:///home/coder/svn-repositories/cod/cif/8/10/47/8104737.cif $
#------------------------------------------------------------------------------
#
# This file is available in the Crystallography Open Database (COD),
# http://www.crystallography.net/
#
# All data on this site have been placed in the public domain by the
# contributors.
#
data_8104737
loop_
_publ_author_name
'Chen, Hai-Lin'
'Lan, Jian-Jing'
'Qin, Yue'
'Yao, Dong-Mei'
'Wang, Yan-Ping'
'Li, Meng-Xi'
'Tan, Chuang'
_publ_section_title
;
 The crystal structure of
 catena-poly[bis(&#x00B5;2-1,2-bis((1H-imidazol-1-yl)methyl)benzene- \k2
 N:N&#x2032;)-bis(nitrato-\kO)copper(II)], C28H28N10O6Cu
;
_journal_issue                   4
_journal_name_full
'Zeitschrift f\"ur Kristallographie - New Crystal Structures'
_journal_page_first              865
_journal_page_last               866
_journal_paper_doi               10.1515/ncrs-2021-0135
_journal_volume                  236
_journal_year                    2021
_chemical_formula_sum            'C28 H28 Cu N10 O6'
_chemical_formula_weight         664.14
_space_group_crystal_system      triclinic
_space_group_IT_number           2
_space_group_name_Hall           '-P 1'
_space_group_name_H-M_alt        'P -1'
_atom_sites_solution_hydrogens   geom
_cell_angle_alpha                74.288(7)
_cell_angle_beta                 87.672(7)
_cell_angle_gamma                76.110(7)
_cell_formula_units_Z            1
_cell_length_a                   8.6869(7)
_cell_length_b                   9.0094(8)
_cell_length_c                   9.5839(8)
_cell_measurement_reflns_used    2076
_cell_measurement_temperature    293(2)
_cell_measurement_theta_max      26.2070
_cell_measurement_theta_min      4.4030
_cell_volume                     700.69(11)
_computing_cell_refinement
'CrysAlisPro 1.171.38.41 (Rigaku OD, 2015) [1]'
_computing_data_collection
'CrysAlisPro 1.171.38.41 (Rigaku OD, 2015) [1]'
_computing_data_reduction
'CrysAlisPro 1.171.38.41 (Rigaku OD, 2015) [1]'
_computing_molecular_graphics    'Diamond 3.2 [4]'
_computing_publication_material  'SHELXL-2018/3 (Sheldrick, 2018) [3]'
_computing_structure_refinement  'SHELXL-2018/3 (Sheldrick, 2018) [3]'
_computing_structure_solution    'SHELXT 2018/2 (Sheldrick, 2018) [2]'
_diffrn_ambient_temperature      293(2)
_diffrn_measured_fraction_theta_full 0.997
_diffrn_measured_fraction_theta_max 0.818
_diffrn_measurement_device_type  'Xcalibur, Eos, Gemini'
_diffrn_measurement_method       '\w scans'
_diffrn_radiation_type           MoK\a
_diffrn_radiation_wavelength     0.71073
_diffrn_reflns_av_R_equivalents  0.0348
_diffrn_reflns_av_unetI/netI     0.0692
_diffrn_reflns_Laue_measured_fraction_full 0.997
_diffrn_reflns_Laue_measured_fraction_max 0.818
_diffrn_reflns_limit_h_max       11
_diffrn_reflns_limit_h_min       -10
_diffrn_reflns_limit_k_max       12
_diffrn_reflns_limit_k_min       -12
_diffrn_reflns_limit_l_max       12
_diffrn_reflns_limit_l_min       -12
_diffrn_reflns_number            5920
_diffrn_reflns_point_group_measured_fraction_full 0.997
_diffrn_reflns_point_group_measured_fraction_max 0.818
_diffrn_reflns_theta_full        25.242
_diffrn_reflns_theta_max         29.539
_diffrn_reflns_theta_min         3.689
_diffrn_source                   'fine-focus sealed X-ray tube'
_exptl_absorpt_coefficient_mu    0.844
_exptl_absorpt_correction_type   none
_exptl_absorpt_process_details   none
_exptl_crystal_colour            purple
_exptl_crystal_density_diffrn    1.574
_exptl_crystal_description       block
_exptl_crystal_F_000             343
_exptl_crystal_size_max          0.34
_exptl_crystal_size_mid          0.20
_exptl_crystal_size_min          0.15
_refine_diff_density_max         0.336
_refine_diff_density_min         -0.367
_refine_diff_density_rms         0.071
_refine_ls_extinction_coef       .
_refine_ls_extinction_method     none
_refine_ls_goodness_of_fit_ref   1.046
_refine_ls_hydrogen_treatment    constr
_refine_ls_matrix_type           full
_refine_ls_number_parameters     205
_refine_ls_number_reflns         3203
_refine_ls_number_restraints     0
_refine_ls_restrained_S_all      1.046
_refine_ls_R_factor_all          0.0649
_refine_ls_R_factor_gt           0.0492
_refine_ls_shift/su_max          0.000
_refine_ls_shift/su_mean         0.000
_refine_ls_structure_factor_coef Fsqd
_refine_ls_weighting_details
'w=1/[\s^2^(Fo^2^)+(0.0229P)^2^+0.3953P] where P=(Fo^2^+2Fc^2^)/3'
_refine_ls_weighting_scheme      calc
_refine_ls_wR_factor_gt          0.0882
_refine_ls_wR_factor_ref         0.0979
_reflns_Friedel_coverage         0.000
_reflns_Friedel_fraction_full    .
_reflns_Friedel_fraction_max     .
_reflns_number_gt                2607
_reflns_number_total             3203
_reflns_threshold_expression     'I > 2\s(I)'
_cod_data_source_file            suppl_j_ncrs-2021-0135_suppl.cif
_cod_data_source_block           a
_cod_database_code               8104737
_shelx_space_group_comment
;
The symmetry employed for this shelxl refinement is uniquely defined
by the following loop, which should always be used as a source of
symmetry information in preference to the above space-group names.
They are only intended as comments.
;
_shelx_res_file
;
TITL a_a.res in P-1
    a.res
    created by SHELXL-2018/3 at 10:36:54 on 22-Feb-2021
REM Old TITL a in P-1 #2
REM SHELXT solution in P-1: R1 0.123, Rweak 0.018, Alpha 0.038
REM <I/s> 0.000 for 0 systematic absences, Orientation as input
REM Formula found by SHELXT: C28 N10 O6 Cu
CELL 0.71073 8.6869 9.0094 9.5839 74.288 87.672 76.11
ZERR 1 0.0007 0.0008 0.0008 0.007 0.007 0.007
LATT 1
SFAC C H Cu N O
UNIT 28 28 1 10 6

L.S. 4 0 0
PLAN  20
BOND
list 4
fmap 2 53
ACTA
REM <olex2.extras>
REM <HklSrc "%.\\a.hkl">
REM </olex2.extras>

WGHT    0.022900    0.395300
FVAR       0.83746
CU1   3    0.000000    0.500000    1.000000    10.50000    0.01873    0.03060 =
         0.01885   -0.00806   -0.00184    0.00206
O1    5    0.035229    0.787215    0.902941    11.00000    0.04432    0.04092 =
         0.05262   -0.01214    0.00277   -0.02398
O2    5    0.082352    1.016878    0.807808    11.00000    0.05715    0.03453 =
         0.06636    0.00439   -0.02059   -0.01335
O3    5    0.237907    0.848083    0.971841    11.00000    0.05642    0.07415 =
         0.07204    0.01000   -0.03664   -0.02776
N1    4    0.217467    0.341956    0.407471    11.00000    0.03050    0.02439 =
         0.02122   -0.00334   -0.00926   -0.00241
N2    4    0.097758    0.465723    0.196649    11.00000    0.02255    0.02612 =
         0.02186   -0.00717   -0.00296    0.00042
N3    4    0.396912    0.232683    0.854173    11.00000    0.01852    0.02440 =
         0.01968   -0.00525    0.00053   -0.00025
N4    4    0.209039    0.395152    0.936502    11.00000    0.01898    0.02731 =
         0.02152   -0.00911   -0.00109   -0.00156
N5    4    0.117135    0.883865    0.896622    11.00000    0.02674    0.03124 =
         0.02787   -0.01151    0.00163   -0.00490
C1    1    0.475300    0.196060    0.534194    11.00000    0.02886    0.02273 =
         0.02073   -0.00699   -0.00233   -0.00264
C2    1    0.560663    0.133616    0.666111    11.00000    0.02431    0.01671 =
         0.02043   -0.00554    0.00096   -0.00111
C3    1    0.724761    0.108374    0.667604    11.00000    0.02558    0.02408 =
         0.02840   -0.00974   -0.00179    0.00071
AFIX  43
H3    2    0.781464    0.065099    0.755294    11.00000   -1.20000
AFIX   0
C4    1    0.805188    0.147008    0.539653    11.00000    0.02750    0.03344 =
         0.04268   -0.01490    0.00750   -0.00518
AFIX  43
H4    2    0.915180    0.128954    0.541394    11.00000   -1.20000
AFIX   0
C5    1    0.721072    0.211939    0.410869    11.00000    0.04373    0.03827 =
         0.03088   -0.01184    0.01715   -0.01272
AFIX  43
H5    2    0.774146    0.240384    0.325162    11.00000   -1.20000
AFIX   0
C6    1    0.558001    0.235491    0.407336    11.00000    0.04397    0.03434 =
         0.01878   -0.00523   -0.00131   -0.00526
AFIX  43
H6    2    0.502664    0.278310    0.318923    11.00000   -1.20000
AFIX   0
C7    1    0.297531    0.214831    0.529494    11.00000    0.03236    0.03344 =
         0.02305    0.00258   -0.00979   -0.00743
AFIX  23
H7A   2    0.276010    0.115715    0.524112    11.00000   -1.20000
H7B   2    0.253997    0.235957    0.618900    11.00000   -1.20000
AFIX   0
C8    1    0.155958    0.326260    0.287694    11.00000    0.02916    0.02312 =
         0.02754   -0.00745   -0.00768    0.00145
AFIX  43
H8    2    0.154588    0.229540    0.271104    11.00000   -1.20000
AFIX   0
C9    1    0.123582    0.576047    0.261650    11.00000    0.03688    0.02188 =
         0.03539   -0.00659   -0.01048   -0.00102
AFIX  43
H9    2    0.094762    0.685487    0.222273    11.00000   -1.20000
AFIX   0
C10   1    0.197345    0.501033    0.391682    11.00000    0.04991    0.02404 =
         0.03564   -0.01332   -0.01377   -0.00624
AFIX  43
H10   2    0.228363    0.548149    0.457533    11.00000   -1.20000
AFIX   0
C11   1    0.480847    0.091286    0.810069    11.00000    0.02730    0.02219 =
         0.02109   -0.00345   -0.00050    0.00251
AFIX  23
H11A  2    0.406033    0.029134    0.802674    11.00000   -1.20000
H11B  2    0.560257    0.026333    0.883930    11.00000   -1.20000
AFIX   0
C12   1    0.247621    0.259577    0.901170    11.00000    0.01813    0.03163 =
         0.02592   -0.00804    0.00197   -0.00577
AFIX  43
H12   2    0.180521    0.191683    0.907874    11.00000   -1.20000
AFIX   0
C13   1    0.339729    0.457119    0.912329    11.00000    0.02842    0.03013 =
         0.03716   -0.01213    0.00193   -0.00881
AFIX  43
H13   2    0.347101    0.552487    0.928392    11.00000   -1.20000
AFIX   0
C14   1    0.456712    0.357918    0.861353    11.00000    0.02284    0.03628 =
         0.04377   -0.01534    0.00637   -0.00943
AFIX  43
H14   2    0.557777    0.372017    0.836168    11.00000   -1.20000
AFIX   0
HKLF 4




REM  a_a.res in P-1
REM wR2 = 0.0979, GooF = S = 1.046, Restrained GooF = 1.046 for all data
REM R1 = 0.0492 for 2607 Fo > 4sig(Fo) and 0.0649 for all 3203 data
REM 205 parameters refined using 0 restraints

END

WGHT      0.0229      0.3953

REM Highest difference peak  0.336,  deepest hole -0.367,  1-sigma level  0.071
Q1    1   0.5186  0.1329  0.7260  11.00000  0.05    0.34
Q2    1   0.4027  0.2041  0.5370  11.00000  0.05    0.33
Q3    1   0.5079  0.1400  0.6010  11.00000  0.05    0.32
Q4    1   0.1391  0.4152  1.0032  11.00000  0.05    0.30
Q5    1   0.3877  0.4208  0.8543  11.00000  0.05    0.30
Q6    1   0.1750  0.9178  0.9954  11.00000  0.05    0.29
Q7    1   0.5065  0.1717  0.4788  11.00000  0.05    0.28
Q8    1   0.1244  0.6834  0.1439  11.00000  0.05    0.27
Q9    1   0.3468  0.5982  0.9982  11.00000  0.05    0.26
Q10   1   0.2401  0.1467  0.5983  11.00000  0.05    0.25
Q11   1   0.3215  0.5673  0.5627  11.00000  0.05    0.25
Q12   1   0.1208  0.7224  0.9485  11.00000  0.05    0.25
Q13   1   0.6423 -0.0574  1.0144  11.00000  0.05    0.24
Q14   1   0.2527  0.6985  0.3029  11.00000  0.05    0.24
Q15   1   0.5191  0.2578  0.4803  11.00000  0.05    0.24
Q16   1   0.1281  0.5179  0.2182  11.00000  0.05    0.23
Q17   1   0.1478  0.0581  0.5158  11.00000  0.05    0.23
Q18   1   0.0379  0.8387  0.9255  11.00000  0.05    0.23
Q19   1   0.9173 -0.0812  0.5818  11.00000  0.05    0.23
Q20   1   0.3212  0.5022  0.4779  11.00000  0.05    0.23
;
_shelx_hkl_file
;
 -10  -9  -1   26.51   10.15
 -10  -8  -2   26.20    9.25
 -10  -8  -1    8.23    5.32
 -10  -8   0   18.39    8.60
 -10  -7  -1   32.48   10.49
 -10  -7   0   32.46   10.75
 -10  -7   1   -5.85    5.41
 -10  -6   0   34.67   11.39
 -10  -6   1   -3.05    3.35
 -10  -6   2   11.30    7.56
 -10  -5   1   33.47   11.32
 -10  -5   2   32.47   11.49
 -10  -4   2    5.17    6.66
 -10  -4   3   88.42   18.20
 -10  -4   5   85.32   14.45
 -10  -3   2   18.23    6.38
 -10  -3   3   -0.18    3.30
 -10  -3   3    3.08    4.08
 -10  -3   4   61.68   15.49
 -10  -3   4   34.08    9.27
 -10  -3   5   29.95    8.86
 -10  -2   1   98.76   15.41
 -10  -2   2   47.53   11.20
 -10  -2   3    7.79    5.99
 -10  -2   4   63.51   15.49
 -10  -2   4   61.02   12.34
 -10  -2   5   35.06    9.73
 -10  -1   0    6.11    4.28
 -10  -1   1   29.75    8.83
 -10  -1   2   13.21    6.18
 -10  -1   3  112.83   16.94
 -10  -1   4   11.62    6.42
 -10  -1   4   27.83   10.16
 -10  -1   5  103.50   16.60
 -10   0   0   94.98   15.68
 -10   0   1   26.77    8.54
 -10   0   2   15.47    7.01
 -10   0   3    9.88    5.61
 -10   0   4    1.86    3.73
 -10   1  -1   46.84   11.23
 -10   1   0   94.37   15.55
 -10   1   1   31.06    8.96
 -10   1   2   14.32    6.21
 -10   1   3   30.74    9.06
 -10   2  -1    8.84    4.90
 -10   2   0   39.18   10.62
 -10   2   1   24.94    8.72
  -9  -9  -1   43.65   12.04
  -9  -9   0   21.81    8.80
  -9  -9   1   -0.37    3.20
  -9  -8  -2    5.79    4.47
  -9  -8  -1   83.07   16.38
  -9  -8   0   38.42   11.99
  -9  -8   1    7.08    5.04
  -9  -8   2    6.60    4.73
  -9  -7  -1    9.48    5.57
  -9  -7   0    4.05    2.52
  -9  -7   1    4.58    4.46
  -9  -7   2   19.63    8.51
  -9  -7   3   26.42   10.24
  -9  -6   0  115.96   18.72
  -9  -6   1   23.44    8.47
  -9  -6   2   38.86   11.99
  -9  -6   3    4.94    5.83
  -9  -6   4   10.19    6.06
  -9  -5   1    5.28    5.55
  -9  -5   2   30.07   10.42
  -9  -5   3   25.56   10.06
  -9  -5   4   16.82    8.43
  -9  -4   2   16.02    7.19
  -9  -4   3   69.23   15.50
  -9  -4   4   37.18    8.73
  -9  -4   4   20.15    8.48
  -9  -4   5   38.26   12.40
  -9  -4   5   45.98   10.15
  -9  -4   6   15.96    5.80
  -9  -3   2   25.59    7.36
  -9  -3   3   27.12    9.43
  -9  -3   3   27.13    7.62
  -9  -3   4   69.73   12.35
  -9  -3   4   54.29   14.29
  -9  -3   5    0.61    3.99
  -9  -3   5    6.30    4.28
  -9  -3   6   51.66   10.92
  -9  -3   7    4.56    4.41
  -9  -2   1  255.15   23.37
  -9  -2   2  170.18   19.16
  -9  -2   3   81.92   13.39
  -9  -2   4   61.15   11.75
  -9  -2   4   60.29   14.34
  -9  -2   5   14.99    5.80
  -9  -2   5   20.42    8.80
  -9  -2   6    6.23    4.99
  -9  -2   6    6.19    5.52
  -9  -2   7    9.22    5.40
  -9  -2   8    4.28    3.69
  -9  -1   0  196.70   20.74
  -9  -1   1   24.88    7.56
  -9  -1   2   29.26    8.06
  -9  -1   3    4.98    4.64
  -9  -1   4  117.66   19.57
  -9  -1   4  130.79   17.15
  -9  -1   5  131.85   21.66
  -9  -1   5  136.95   18.10
  -9  -1   6    6.86    3.88
  -9  -1   6   21.97    8.85
  -9  -1   7   15.23    6.45
  -9   0  -1  200.28   21.34
  -9   0   0  161.85   19.07
  -9   0   1   50.70   10.60
  -9   0   2   33.40    8.85
  -9   0   3    3.54    3.75
  -9   0   4   31.07    8.55
  -9   0   5   29.61    9.51
  -9   0   5   25.95    8.32
  -9   0   6   13.57    5.97
  -9   0   6    2.54    3.23
  -9   0   7    7.52    6.20
  -9   0   7   -0.05    2.87
  -9   1  -1  131.97   17.58
  -9   1   0  174.19   19.99
  -9   1   1   86.95   14.05
  -9   1   2   49.80   11.01
  -9   1   3   67.97   13.06
  -9   1   4   15.12    6.35
  -9   1   5   90.02   15.55
  -9   1   5  106.76   19.05
  -9   1   6    7.44    4.66
  -9   1   6    4.61    3.66
  -9   1   7   23.28    9.79
  -9   2  -2   96.94   15.17
  -9   2  -1   95.22   14.86
  -9   2   0  168.36   20.04
  -9   2   1    4.32    3.32
  -9   2   2   13.20    5.20
  -9   2   3   14.44    6.21
  -9   2   4   71.16   13.69
  -9   2   5   58.75   13.60
  -9   2   6   36.48   11.26
  -9   2   7    7.84    6.41
  -9   3  -2   16.53    6.31
  -9   3  -1  141.48   18.68
  -9   3   0   51.58   11.19
  -9   3   1   40.67    9.85
  -9   3   2    8.50    4.35
  -9   3   3   56.19   12.60
  -9   3   4   55.90   12.56
  -9   3   6    7.46    4.88
  -9   3   7    7.90    5.58
  -9   4  -2   -4.14    3.61
  -9   4  -1   70.63   13.39
  -9   4   0   31.15    9.21
  -9   4   1   61.77   12.51
  -9   4   2   -0.59    4.28
  -9   4   3   12.03    5.68
  -9   5  -1   17.61    7.53
  -9   5   0   36.55    9.88
  -8 -10  -3   10.58    6.74
  -8 -10  -2    5.65    5.18
  -8 -10  -1   -0.21    2.54
  -8 -10   0   19.06    8.29
  -8  -9  -2   15.78    6.50
  -8  -9  -1   31.43    9.47
  -8  -9  -1   29.05    9.50
  -8  -9   0    2.12    3.43
  -8  -9   0   14.07    7.24
  -8  -9   1   -0.87    5.70
  -8  -9   2   28.86   11.08
  -8  -8  -3   -0.16    3.99
  -8  -8  -2   20.31    7.58
  -8  -8  -1   32.59    9.44
  -8  -8  -1   38.93    9.76
  -8  -8   0   12.93    5.68
  -8  -8   0    2.44    3.07
  -8  -8   1   47.83   10.38
  -8  -8   1   85.21   16.83
  -8  -8   2   22.40    9.05
  -8  -8   3   13.13    7.88
  -8  -7  -1   60.35   12.44
  -8  -7   0    0.91    3.59
  -8  -7   0   -1.37    2.47
  -8  -7   1   -0.66    2.95
  -8  -7   1   -1.91    3.68
  -8  -7   2    3.28    4.36
  -8  -7   3    6.20    4.05
  -8  -7   4   34.57   11.53
  -8  -6   0   18.22    6.86
  -8  -6   1   25.09    8.38
  -8  -6   2  202.50   25.41
  -8  -6   3   16.47    7.52
  -8  -6   4   19.75   10.22
  -8  -6   5   24.97   10.24
  -8  -5   1  214.76   24.15
  -8  -5   2   97.06   16.69
  -8  -5   3   63.10   14.32
  -8  -5   4    9.69    8.37
  -8  -5   5    7.20    6.36
  -8  -5   6    2.24    3.80
  -8  -4   2    5.74    4.44
  -8  -4   3    1.03    3.01
  -8  -4   3   -1.48    2.79
  -8  -4   4   13.68    7.42
  -8  -4   4   10.51    4.49
  -8  -4   5   44.72    9.20
  -8  -4   5   38.39   12.24
  -8  -4   6   83.53   12.44
  -8  -4   6  107.62   21.11
  -8  -3   1   18.66    6.64
  -8  -3   2    5.11    3.41
  -8  -3   3    9.80    5.56
  -8  -3   3    5.53    3.56
  -8  -3   4   45.40   11.79
  -8  -3   4   44.27    9.10
  -8  -3   5   74.24   16.29
  -8  -3   5   60.41   10.68
  -8  -3   6   14.10    5.51
  -8  -3   6   12.05    6.82
  -8  -3   7   79.24   12.79
  -8  -3   7   75.39   17.87
  -8  -2   0   27.77    7.72
  -8  -2   1   36.58    8.77
  -8  -2   2   25.34    7.11
  -8  -2   3  248.76   21.72
  -8  -2   4  184.67   18.84
  -8  -2   4  189.18   23.79
  -8  -2   5   79.10   15.90
  -8  -2   5   70.26   11.65
  -8  -2   6   18.28    8.58
  -8  -2   6   42.07    9.28
  -8  -2   7    1.96    6.41
  -8  -2   7   18.73    6.52
  -8  -2   8    3.01    3.71
  -8  -1  -1   73.89   11.84
  -8  -1   0   10.17    5.35
  -8  -1   1    9.48    5.51
  -8  -1   2   35.30    8.38
  -8  -1   3  133.34   16.11
  -8  -1   4  300.58   24.68
  -8  -1   4  299.75   29.43
  -8  -1   5   47.59   12.81
  -8  -1   5   44.62    9.47
  -8  -1   6   74.56   12.91
  -8  -1   6   64.24   14.78
  -8  -1   7    0.58    2.14
  -8  -1   7    6.03    5.31
  -8  -1   8  106.21   16.04
  -8  -1   8  107.03   21.08
  -8  -1   9   23.69    7.83
  -8   0  -1  185.17   19.03
  -8   0   0   89.84   13.27
  -8   0   1  338.03   25.66
  -8   0   2   98.38   14.08
  -8   0   3   49.85   10.39
  -8   0   4  190.67   20.29
  -8   0   5   39.97   10.78
  -8   0   5   36.81    9.25
  -8   0   6   22.76    9.04
  -8   0   6   32.44    9.07
  -8   0   7   71.45   15.99
  -8   0   7   53.89   11.46
  -8   0   8   10.52    5.30
  -8   0   8   16.99    9.18
  -8   0   9   13.88    6.01
  -8   1  -2   41.79    9.25
  -8   1  -1   75.85   12.24
  -8   1   0  119.18   15.35
  -8   1   1    1.70    2.94
  -8   1   2  118.01   15.93
  -8   1   3  165.37   19.02
  -8   1   4  206.46   21.60
  -8   1   5  140.71   18.30
  -8   1   5  177.30   22.80
  -8   1   6   17.70    8.39
  -8   1   7   25.28    9.23
  -8   1   8   10.03    6.20
  -8   2  -2   36.70    8.84
  -8   2  -1   75.57   12.82
  -8   2   0   73.71   12.21
  -8   2   1   95.42   13.98
  -8   2   2  266.98   24.54
  -8   2   3   88.89   14.55
  -8   2   4   27.97    8.42
  -8   2   6   47.51   12.06
  -8   2   7   21.49    8.70
  -8   2   8   89.95   18.44
  -8   2   9    0.84    2.89
  -8   3  -2    9.59    4.88
  -8   3  -1  267.35   23.92
  -8   3   0  210.05   21.17
  -8   3   1  228.65   22.66
  -8   3   2   33.96    9.49
  -8   3   3  135.11   17.97
  -8   3   6   51.85   12.87
  -8   3   7    4.18    4.17
  -8   3   8    2.65    3.10
  -8   4  -2   98.74   14.64
  -8   4  -1  180.25   19.87
  -8   4   0   78.92   13.52
  -8   4   1   20.30    6.80
  -8   4   2   10.52    5.55
  -8   4   3   60.80   12.36
  -8   4   6   14.46    6.29
  -8   5  -2   23.03    7.14
  -8   5  -1  145.73   18.23
  -8   5   0   72.38   12.86
  -8   5   1   79.99   13.90
  -8   5   2    8.77    5.47
  -8   5   3   -1.03    3.25
  -8   6   0    0.54    2.49
  -8   6   1   23.11    7.26
  -8   6   2   37.08   10.41
  -8   6   3   43.25   11.25
  -8   7   1   15.42    6.92
  -7 -10  -4   20.74    8.63
  -7 -10  -3   13.27    7.31
  -7 -10  -2   28.70    9.68
  -7 -10  -1   14.71    7.25
  -7 -10   0   23.24    8.40
  -7 -10   1   13.62    7.32
  -7  -9  -3   -0.39    2.72
  -7  -9  -2   44.24   11.30
  -7  -9  -1   58.10   12.51
  -7  -9  -1   45.38   11.05
  -7  -9   0   26.61    8.91
  -7  -9   0   28.73    9.35
  -7  -9   1  105.46   18.36
  -7  -9   1  102.27   16.25
  -7  -9   2    9.53    8.25
  -7  -9   2    3.91    2.89
  -7  -9   3   17.48    9.23
  -7  -8  -3    2.51    3.18
  -7  -8  -3    9.96    5.15
  -7  -8  -2    7.82    4.48
  -7  -8  -2    9.85    5.06
  -7  -8  -1    7.97    5.19
  -7  -8  -1    6.37    4.99
  -7  -8   0   44.23   11.00
  -7  -8   0   27.84    8.07
  -7  -8   1   19.46    6.99
  -7  -8   1   29.45   10.44
  -7  -8   2   64.81   14.48
  -7  -8   2   50.33   10.38
  -7  -8   3   78.49   16.98
  -7  -8   4    2.02    4.45
  -7  -7  -2  227.63   22.14
  -7  -7  -2  194.92   20.71
  -7  -7  -1  121.66   16.06
  -7  -7  -1  143.18   18.21
  -7  -7   0   53.11   10.37
  -7  -7   0   68.07   13.25
  -7  -7   1    4.27    4.58
  -7  -7   1    7.24    4.58
  -7  -7   2  113.43   14.55
  -7  -7   2   92.10   17.45
  -7  -7   3    5.23    5.37
  -7  -7   4    3.85    5.40
  -7  -7   5    5.95    5.32
  -7  -6   0   13.63    5.12
  -7  -6   0   14.48    7.00
  -7  -6   1  470.06   28.33
  -7  -6   1  477.20   35.15
  -7  -6   2   23.48    8.09
  -7  -6   2   19.04    5.65
  -7  -6   3   22.93    9.54
  -7  -6   3   17.67    5.60
  -7  -6   4   12.99    5.50
  -7  -6   5   13.68    7.86
  -7  -6   6   69.57   16.68
  -7  -5   1    6.73    3.94
  -7  -5   1    8.17    3.57
  -7  -5   2   82.46   10.27
  -7  -5   2   66.52   13.55
  -7  -5   3  197.30   24.10
  -7  -5   3  189.49   15.27
  -7  -5   4  194.83   25.25
  -7  -5   5   26.28    9.80
  -7  -5   6   -1.49    5.01
  -7  -4   0   40.50    4.48
  -7  -4   2  650.46   40.73
  -7  -4   3   -1.36    4.90
  -7  -4   3    0.80    1.75
  -7  -4   4   98.16   17.41
  -7  -4   4  129.31   14.05
  -7  -4   5   16.58    5.69
  -7  -4   5   10.95    6.61
  -7  -4   6    1.34    3.01
  -7  -4   6   -0.25    2.92
  -7  -4   7   63.87   16.26
  -7  -3   1  277.09   14.73
  -7  -3   1  333.63   22.76
  -7  -3   2    2.46    2.51
  -7  -3   2    4.82    2.20
  -7  -3   3   85.51   14.78
  -7  -3   3  104.50   12.87
  -7  -3   4   13.47    4.93
  -7  -3   4    5.45    2.48
  -7  -3   5   -3.02    2.25
  -7  -3   5    0.70    1.55
  -7  -3   6    1.87    2.62
  -7  -3   6    7.40    4.11
  -7  -3   7   13.90    7.93
  -7  -3   7    6.05    3.54
  -7  -3   8   85.72   18.74
  -7  -2   0    3.51    3.55
  -7  -2   1   31.97    7.04
  -7  -2   2   10.02    3.56
  -7  -2   2    6.46    2.61
  -7  -2   3  211.58   18.60
  -7  -2   4   14.68    8.33
  -7  -2   4    6.63    3.98
  -7  -2   5   23.52    6.43
  -7  -2   5   37.36   10.74
  -7  -2   6   57.01   14.04
  -7  -2   6   31.88    7.60
  -7  -2   7   23.40    9.33
  -7  -2   7   28.03    7.11
  -7  -2   8   97.39   20.16
  -7  -2   8   73.41   12.23
  -7  -1  -1  259.47   20.76
  -7  -1   0   40.62    8.34
  -7  -1   1    9.31    4.32
  -7  -1   2   14.74    5.13
  -7  -1   3   -0.80    3.11
  -7  -1   4  460.94   28.94
  -7  -1   4  453.13   34.34
  -7  -1   5   21.28    6.06
  -7  -1   5   18.08    6.81
  -7  -1   6  132.07   20.33
  -7  -1   6  124.91   15.59
  -7  -1   7  171.87   24.52
  -7  -1   7  147.69   17.44
  -7  -1   8   30.89   11.10
  -7  -1   8   36.50    8.73
  -7  -1   9   48.25   14.31
  -7  -1   9   27.97    7.87
  -7   0  -1   37.39    8.49
  -7   0   0   83.49   11.80
  -7   0   1    8.52    3.29
  -7   0   2   20.52    6.08
  -7   0   3  299.98   23.33
  -7   0   4  108.44   14.10
  -7   0   5    6.98    5.36
  -7   0   6   52.28   12.67
  -7   0   7   55.81   13.93
  -7   0   8   67.67   16.03
  -7   0   9   51.69   14.43
  -7   1  -2   71.00   11.18
  -7   1  -1  301.82   22.78
  -7   1   0   24.92    6.76
  -7   1   1   42.37    8.68
  -7   1   2    7.69    4.96
  -7   1   3   20.45    6.31
  -7   1   5  188.79   22.06
  -7   1   6   84.00   15.58
  -7   1   7   67.68   14.81
  -7   1   8  138.69   22.23
  -7   1   9    6.23    5.60
  -7   2  -2  335.80   24.54
  -7   2  -1  249.54   21.00
  -7   2   0    3.12    2.28
  -7   2   1   37.93    8.77
  -7   2   2   26.80    7.14
  -7   2   6  110.40   17.36
  -7   2   7   49.94   12.16
  -7   2   8   -1.97    4.80
  -7   2   9   98.11   19.33
  -7   2  10   30.96   11.27
  -7   3  -2    9.12    4.09
  -7   3  -1    4.91    3.58
  -7   3   0   15.18    6.02
  -7   3   1    6.44    4.91
  -7   3   2  247.77   22.64
  -7   3   6   57.72   12.52
  -7   3   7   34.20   10.64
  -7   3   8   13.13    5.66
  -7   3   9   84.02   17.53
  -7   4  -2   72.77   11.61
  -7   4  -1   74.35   11.97
  -7   4   0   84.84   12.79
  -7   4   1  112.14   15.27
  -7   4   6   28.53    8.48
  -7   4   7   48.07   11.65
  -7   5  -2   66.00   11.25
  -7   5  -1  145.23   16.79
  -7   5   0  181.88   19.29
  -7   5   1  259.72   23.89
  -7   6  -1   27.65    7.21
  -7   6   0   16.36    6.23
  -7   6   1   15.89    6.13
  -7   7   1   31.62    9.09
  -7   7   2   12.99    5.55
  -7   8   2   22.87    7.94
  -6 -10  -5   18.42    7.75
  -6 -10  -4   65.38   14.68
  -6 -10  -3   28.89    9.55
  -6 -10  -2   30.15    9.51
  -6 -10  -1   -0.46    3.44
  -6 -10   0    6.12    6.43
  -6 -10   1   79.57   15.01
  -6 -10   2   47.41   11.09
  -6 -10   3   -0.88    2.26
  -6  -9  -5   86.40   16.37
  -6  -9  -4    8.35    5.97
  -6  -9  -3   36.15   10.10
  -6  -9  -2   29.83    9.30
  -6  -9  -1    6.08    4.28
  -6  -9  -1    5.96    4.52
  -6  -9   0   69.48   13.93
  -6  -9   0   56.42   12.00
  -6  -9   1   -5.38    4.57
  -6  -9   1    1.39    1.87
  -6  -9   2    4.04    2.48
  -6  -9   2    4.36    3.65
  -6  -9   3    5.15    4.99
  -6  -8  -4  124.42   14.06
  -6  -8  -4   97.86   16.25
  -6  -8  -3   45.48    8.98
  -6  -8  -3   56.38   12.28
  -6  -8  -2   16.63    6.06
  -6  -8  -2   24.52    8.23
  -6  -8  -1   36.11    9.31
  -6  -8  -1   28.90    8.10
  -6  -8   0   16.96    6.12
  -6  -8   0   26.67    8.13
  -6  -8   1   13.79    6.84
  -6  -8   1   26.52    7.32
  -6  -8   2   91.14   13.80
  -6  -8   2  101.59   17.60
  -6  -8   3   81.67   16.56
  -6  -8   3   72.65   12.17
  -6  -8   4    5.43    4.69
  -6  -8   4   -0.52    3.40
  -6  -7  -3    5.54    4.66
  -6  -7  -3   -0.03    0.97
  -6  -7  -2   99.54   15.20
  -6  -7  -2  132.88   15.41
  -6  -7  -1   -3.58    4.79
  -6  -7  -1   -3.89    3.66
  -6  -7   0    5.89    4.09
  -6  -7   0    5.65    4.02
  -6  -7   1  181.84   21.55
  -6  -7   1  156.47   16.91
  -6  -7   2    1.82    3.41
  -6  -7   2   11.95    6.94
  -6  -7   3  104.00   13.65
  -6  -7   3  111.48   18.56
  -6  -7   4   22.95    8.54
  -6  -7   4   31.04    7.52
  -6  -7   5   41.00   12.59
  -6  -6  -3    9.93    1.97
  -6  -6  -2    1.65    3.25
  -6  -6  -1    0.47    2.68
  -6  -6  -1    3.15    2.79
  -6  -6   0  221.89   21.10
  -6  -6   0  192.47   17.69
  -6  -6   1  149.71   15.40
  -6  -6   1  148.92   18.73
  -6  -6   2  254.96   19.66
  -6  -6   2  274.68   27.02
  -6  -6   3   79.46   10.94
  -6  -6   3   81.22   15.30
  -6  -6   4   -1.88    2.58
  -6  -6   4   -3.60    3.38
  -6  -6   5   65.90   14.94
  -6  -6   6   27.90   10.90
  -6  -5  -1   53.31    9.01
  -6  -5   0  160.32   14.96
  -6  -5   1  255.29   23.39
  -6  -5   1  237.02   17.75
  -6  -5   2  151.15   13.66
  -6  -5   2  100.57   15.49
  -6  -5   3    6.05    3.10
  -6  -5   3    8.32    5.34
  -6  -5   4  125.65   12.27
  -6  -5   4  158.97   21.77
  -6  -5   5   88.98   17.13
  -6  -5   6   71.13   15.66
  -6  -5   7   43.10   13.36
  -6  -4  -1   59.59    3.51
  -6  -4   0   14.71    3.35
  -6  -4   1  220.98   15.35
  -6  -4   1  228.38   15.84
  -6  -4   2   38.65    9.42
  -6  -4   2   38.87    6.31
  -6  -4   3  380.58   22.35
  -6  -4   3  391.99   19.54
  -6  -4   3  393.11   31.16
  -6  -4   4  155.65   20.71
  -6  -4   4  136.83   13.27
  -6  -4   4  145.10   11.41
  -6  -4   5  163.12   22.42
  -6  -4   5  136.71   13.42
  -6  -4   6   89.06   10.90
  -6  -4   6   87.15   17.04
  -6  -4   7   82.06   17.67
  -6  -4   8   59.24   16.47
  -6  -3   0  355.51   13.35
  -6  -3   1  194.20   15.96
  -6  -3   1  180.16   12.35
  -6  -3   2  528.64   25.79
  -6  -3   2  589.94   35.02
  -6  -3   2  594.74   28.47
  -6  -3   3  152.03   12.90
  -6  -3   3  156.16    9.95
  -6  -3   3  151.75   13.96
  -6  -3   3  143.45   18.18
  -6  -3   4   52.65    8.32
  -6  -3   4   56.99   12.15
  -6  -3   4   40.58    4.74
  -6  -3   5    7.65    3.54
  -6  -3   5    8.24    3.64
  -6  -3   6    2.98    1.44
  -6  -3   6    6.13    5.88
  -6  -3   7    0.58    4.32
  -6  -3   7    1.37    2.29
  -6  -3   8    5.64    3.06
  -6  -2   0  399.93   23.40
  -6  -2   1  161.40   10.61
  -6  -2   1  185.53   15.88
  -6  -2   2 1019.36   38.46
  -6  -2   2  949.64   33.63
  -6  -2   3   67.93    8.63
  -6  -2   3   52.49    8.42
  -6  -2   3   67.54   12.17
  -6  -2   4  291.51   17.57
  -6  -2   4  320.54   27.63
  -6  -2   4  328.25   21.85
  -6  -2   5    3.37    2.77
  -6  -2   5   -1.12    2.63
  -6  -2   6   -0.17    2.00
  -6  -2   6    3.69    5.50
  -6  -2   7   24.41    6.53
  -6  -2   7    9.78    5.98
  -6  -2   8   17.89    5.19
  -6  -2   8    1.44    3.18
  -6  -2   9    0.27    4.15
  -6  -1  -1  552.95   28.40
  -6  -1   0  507.65   26.68
  -6  -1   1   54.61    8.67
  -6  -1   2    6.91    2.58
  -6  -1   2    4.32    2.99
  -6  -1   3  859.38   36.72
  -6  -1   4   49.22   10.56
  -6  -1   4   51.54    8.89
  -6  -1   5   89.73   14.79
  -6  -1   6   25.18    8.61
  -6  -1   7   73.71   15.22
  -6  -1   8   79.94   17.04
  -6  -1   9   17.59    9.02
  -6   0  -2  637.27   30.84
  -6   0  -1  111.33   12.43
  -6   0   0   -0.67    2.16
  -6   0   1   10.09    3.61
  -6   0   2   23.40    6.22
  -6   0   3  444.53   26.39
  -6   0   4    0.53    2.29
  -6   0   5   51.57   11.28
  -6   0   6    7.94    5.21
  -6   0   7   19.29    8.87
  -6   0   8   89.74   17.86
  -6   0   9   17.82    8.29
  -6   0  10   10.58    6.19
  -6   1  -9   72.60   17.12
  -6   1  -2  422.38   25.05
  -6   1  -1  151.35   14.92
  -6   1   0  267.40   19.69
  -6   1   1  278.41   20.62
  -6   1   2  165.79   16.19
  -6   1   5  164.13   19.35
  -6   1   6   78.03   14.14
  -6   1   7   27.79    9.07
  -6   1   8   78.02   15.85
  -6   1   9  118.06   20.24
  -6   1  10   87.40   18.40
  -6   2  -9   59.67   15.52
  -6   2  -8   47.51   12.87
  -6   2  -2   -3.24    3.32
  -6   2  -1  298.66   21.08
  -6   2   0  119.07   13.34
  -6   2   1  262.47   20.60
  -6   2   5   30.24    8.86
  -6   2   6   34.85    9.40
  -6   2   7  140.19   19.81
  -6   2   8  190.39   24.38
  -6   2   9  100.90   18.36
  -6   2  10   34.81   11.41
  -6   3  -8   54.17   14.24
  -6   3  -7   42.44   12.25
  -6   3  -2  542.65   29.57
  -6   3  -1  178.24   16.49
  -6   3   0   23.14    6.21
  -6   3   1    5.90    2.93
  -6   3   6   49.69   10.61
  -6   3   7  165.65   20.79
  -6   3   8   44.71   11.32
  -6   3   9   30.06    9.95
  -6   4  -6   14.98    6.90
  -6   4  -2  669.97   33.58
  -6   4  -1   68.16   10.69
  -6   4   0   54.14    9.72
  -6   4   6  249.18   23.85
  -6   4   7   29.87    8.52
  -6   4   8   97.29   16.37
  -6   5  -2   26.52    7.03
  -6   5  -1   78.11   11.55
  -6   5   0   63.81   10.81
  -6   5   6   33.89    8.68
  -6   6  -1   16.97    5.50
  -6   6   0   60.71   10.78
  -6   7   0  222.46   21.05
  -6   7   1   68.83   12.14
  -5 -11  -3    1.59    3.77
  -5 -11  -2    9.58    6.09
  -5 -11  -1   -2.77    3.66
  -5 -10  -6   -4.69    4.79
  -5 -10  -5   22.63    8.81
  -5 -10  -4   -9.93    5.98
  -5 -10  -3   95.51   16.77
  -5 -10  -2   30.00    9.65
  -5 -10  -1   43.20   11.18
  -5 -10   0    6.67    4.97
  -5 -10   1   26.38    8.75
  -5 -10   2   -4.89    4.88
  -5 -10   3   13.45    5.94
  -5  -9  -5    7.70    5.15
  -5  -9  -4   57.17   12.11
  -5  -9  -4   62.75    9.75
  -5  -9  -3   30.02    9.65
  -5  -9  -2   38.34    9.79
  -5  -9  -1   13.78    6.73
  -5  -9  -1   23.08    7.03
  -5  -9   0   90.59   14.98
  -5  -9   0  118.63   16.71
  -5  -9   1   87.80   14.18
  -5  -9   2   23.40    7.58
  -5  -9   3    7.16    4.57
  -5  -9   4   -0.96    2.46
  -5  -9   5   10.83    5.07
  -5  -8  -5  226.77   24.60
  -5  -8  -5  262.04   18.62
  -5  -8  -4   67.49    9.17
  -5  -8  -4   76.37   14.08
  -5  -8  -4   64.08    8.68
  -5  -8  -3  231.50   23.41
  -5  -8  -3  266.78   19.81
  -5  -8  -2  126.79   17.01
  -5  -8  -2   96.14   12.77
  -5  -8  -1    0.25    4.12
  -5  -8  -1    2.01    3.04
  -5  -8   0   37.54    9.27
  -5  -8   0   57.03   11.27
  -5  -8   1   16.64    5.87
  -5  -8   1   13.21    6.12
  -5  -8   2   41.97   10.63
  -5  -8   2   54.75   10.52
  -5  -8   3   17.53    6.28
  -5  -8   4   46.89   10.15
  -5  -8   5   20.08    7.26
  -5  -7 -11    9.41    6.42
  -5  -7  -6    0.92    1.72
  -5  -7  -5  209.81   15.06
  -5  -7  -4   40.26    9.80
  -5  -7  -4   33.10    5.62
  -5  -7  -3  528.86   34.01
  -5  -7  -3  593.25   29.13
  -5  -7  -2   27.87    7.48
  -5  -7  -2   43.64    8.26
  -5  -7  -1   97.58   13.89
  -5  -7  -1   94.49   13.12
  -5  -7   0   36.93    8.49
  -5  -7   0   47.68    9.79
  -5  -7   1    4.21    4.33
  -5  -7   1    7.83    4.68
  -5  -7   2    8.82    4.26
  -5  -7   2   11.82    5.20
  -5  -7   3    4.93    4.43
  -5  -7   3    8.66    5.42
  -5  -7   4    1.43    2.59
  -5  -7   4   -4.72    3.92
  -5  -7   5  111.55   14.94
  -5  -6 -11    7.68    5.07
  -5  -6  -5   91.21    8.89
  -5  -6  -4  247.37   13.57
  -5  -6  -3   37.55    4.91
  -5  -6  -3   25.54    7.56
  -5  -6  -2  149.99   16.18
  -5  -6  -1   -0.04    2.21
  -5  -6  -1    3.55    3.83
  -5  -6   0  101.68   13.71
  -5  -6   0   78.26   11.00
  -5  -6   1   32.59    7.02
  -5  -6   1   38.96    9.02
  -5  -6   2   78.26   11.04
  -5  -6   2   98.85   15.53
  -5  -6   3  124.26   13.76
  -5  -6   3  132.46   19.54
  -5  -6   4   -0.02    2.72
  -5  -6   4   -0.23    1.76
  -5  -6   5   83.78   16.36
  -5  -6   5  126.35   14.49
  -5  -5 -11   91.22   19.73
  -5  -5  -3   89.84    6.08
  -5  -5  -2   55.83    9.30
  -5  -5  -1  158.45   15.06
  -5  -5   0   69.28    9.33
  -5  -5   0   93.27   12.14
  -5  -5   1   56.56   10.55
  -5  -5   1   40.45    6.86
  -5  -5   2   58.53    8.33
  -5  -5   2   58.70   11.57
  -5  -5   3  444.97   23.88
  -5  -5   3  439.68   33.41
  -5  -5   4  243.47   26.31
  -5  -5   4  261.81   18.55
  -5  -5   5   41.60   11.60
  -5  -5   5   42.04    7.71
  -5  -5   6   93.18   17.81
  -5  -5   6   86.08   11.46
  -5  -4  -1   42.02    7.21
  -5  -4   0   -1.91    1.55
  -5  -4   1   44.58    9.07
  -5  -4   1   38.39    6.17
  -5  -4   2   44.26    6.57
  -5  -4   2   48.16    9.69
  -5  -4   3   32.42    6.14
  -5  -4   3   38.40    6.04
  -5  -4   3   53.23   11.14
  -5  -4   4    9.71    3.50
  -5  -4   4    7.46    3.17
  -5  -4   4    4.43    3.95
  -5  -4   5    0.89    1.26
  -5  -4   5    1.84    2.30
  -5  -4   6  236.61   17.03
  -5  -4   6  276.04   17.19
  -5  -4   6  258.02   28.70
  -5  -4   7  195.69   26.55
  -5  -3   0  282.56   18.26
  -5  -3   0  232.62   11.58
  -5  -3   1  417.56   21.46
  -5  -3   1  399.75   19.36
  -5  -3   1  441.97   22.44
  -5  -3   1  418.73   19.11
  -5  -3   2  211.37   12.40
  -5  -3   2  202.12   14.79
  -5  -3   2  234.07   20.34
  -5  -3   2  214.43   14.36
  -5  -3   2  184.70   14.79
  -5  -3   3   79.71    7.27
  -5  -3   3   84.32   13.21
  -5  -3   3   64.44    8.15
  -5  -3   4  281.78   14.13
  -5  -3   4  266.76   25.21
  -5  -3   4  277.80   17.31
  -5  -3   5  213.26   23.98
  -5  -3   5  208.30   15.43
  -5  -3   5  218.22   13.05
  -5  -3   6   19.49    4.83
  -5  -3   6   16.62    6.49
  -5  -3   6   19.35    4.26
  -5  -3   7  179.18   24.15
  -5  -3   7  188.97   15.48
  -5  -3   8  -11.80    6.84
  -5  -2   0  262.77   17.18
  -5  -2   0  225.58    9.57
  -5  -2   1   88.51    9.97
  -5  -2   1  106.33    8.68
  -5  -2   1   94.14    9.72
  -5  -2   2 1216.02   37.35
  -5  -2   2 1137.51   37.49
  -5  -2   2 1192.13   38.79
  -5  -2   3 1344.38   29.40
  -5  -2   3 1415.86   43.62
  -5  -2   3 1357.49   39.12
  -5  -2   4  267.74   10.25
  -5  -2   4  276.43   18.20
  -5  -2   4  249.29   13.85
  -5  -2   4  276.25   24.35
  -5  -2   5  163.00   20.26
  -5  -2   5  175.58   14.76
  -5  -2   5  176.07    8.71
  -5  -2   5  174.96   10.16
  -5  -2   6   78.17    6.57
  -5  -2   6   75.14   14.46
  -5  -2   7  115.67   19.12
  -5  -2   8   24.95    9.27
  -5  -1 -10   62.92   15.88
  -5  -1   1  149.58    9.66
  -5  -1   1  142.23   12.25
  -5  -1   2 1088.85   34.32
  -5  -1   2 1086.63   35.33
  -5  -1   2 1020.42   37.26
  -5  -1   3   95.54   10.69
  -5  -1   3   93.53   10.57
  -5  -1   3   97.07    9.37
  -5  -1   4    3.18    2.00
  -5  -1   4    3.27    2.19
  -5  -1   5  114.39    9.39
  -5  -1   5  136.62   17.50
  -5  -1   6  121.57   17.77
  -5  -1   7   33.50    9.68
  -5  -1   8   77.10   15.84
  -5  -1   9   -2.28    4.24
  -5   0 -10   -2.37    4.88
  -5   0  -9    8.19    6.05
  -5   0  -2 1168.73   39.84
  -5   0   3  297.07   18.01
  -5   0   4   99.30   13.38
  -5   0   4   93.02    9.52
  -5   0   5    9.62    2.86
  -5   0   5   15.98    6.12
  -5   0   6   88.55    8.93
  -5   0   6   85.07   14.69
  -5   0   7  229.27   24.94
  -5   0   8   22.52    9.01
  -5   0   9   16.94    7.98
  -5   1  -9    7.29    6.10
  -5   1  -2  419.18   22.72
  -5   1  -1  182.28   14.49
  -5   1   0  741.02   31.37
  -5   1   5  420.43   29.15
  -5   1   6  141.90   17.90
  -5   1   7   96.80   15.79
  -5   1   8    3.50    2.63
  -5   1   9    4.38    3.00
  -5   1  10   11.76    7.41
  -5   2  -9   20.26    9.17
  -5   2  -8   26.31    9.59
  -5   2  -2  542.97   26.64
  -5   2  -1   41.39    7.07
  -5   2   0   22.79    5.56
  -5   2   1   66.18    8.46
  -5   2   5  130.81   15.65
  -5   2   6   34.07    8.87
  -5   2   7   19.67    6.61
  -5   2   8   64.41   13.24
  -5   2   9   15.54    6.94
  -5   2  10   88.77   17.27
  -5   3  -9  105.19   20.36
  -5   3  -8   18.82    8.32
  -5   3  -7   38.81   11.41
  -5   3  -2   96.55   10.94
  -5   3  -1   20.44    5.58
  -5   3   0   18.25    5.28
  -5   3   1  485.72   23.38
  -5   3   2  254.36   17.57
  -5   3   5   41.93    8.46
  -5   3   6  175.92   18.87
  -5   3   7   33.04    9.06
  -5   3   8  190.96   22.10
  -5   3   9  126.40   18.83
  -5   3  10   21.08    8.49
  -5   4  -8   53.89   13.82
  -5   4  -7   53.71   13.04
  -5   4  -6  122.53   18.29
  -5   4  -3  159.66   14.24
  -5   4  -2   39.44    7.19
  -5   4  -1  812.89   34.81
  -5   4   0  170.12   15.81
  -5   4   1  107.44   10.35
  -5   4   2  226.50   16.05
  -5   4   3    5.07    2.81
  -5   4   6    3.77    2.91
  -5   4   7  139.16   17.37
  -5   4   8  138.87   18.30
  -5   4   9  187.33   22.20
  -5   5  -3    3.80    2.82
  -5   5  -2  243.16   18.22
  -5   5  -1   24.62    6.20
  -5   5   6    0.60    3.35
  -5   5   7  179.29   19.08
  -5   6  -2   48.95    8.27
  -5   6  -1    6.21    3.66
  -5   6   0  201.95   18.22
  -5   7   0   80.36   11.86
  -4 -11  -5   25.28   10.10
  -4 -11  -4    2.18    2.74
  -4 -11  -3   13.36    6.40
  -4 -11  -2    4.92    4.67
  -4 -11  -1   14.06    6.72
  -4 -10  -7    0.84    4.54
  -4 -10  -6   13.03    7.10
  -4 -10  -6   10.75    4.87
  -4 -10  -5   -0.42    2.71
  -4 -10  -5   -6.10    4.83
  -4 -10  -4   35.44   10.90
  -4 -10  -3   22.99    8.15
  -4 -10  -2    0.32    3.15
  -4 -10  -1    0.74    3.04
  -4 -10   0   38.16   10.62
  -4 -10   1   29.87    9.38
  -4 -10   2    9.18    6.12
  -4 -10   3    9.41    5.51
  -4  -9  -7   49.97   10.26
  -4  -9  -6   49.55    9.36
  -4  -9  -6   54.86   13.30
  -4  -9  -5    4.58    5.85
  -4  -9  -5    4.98    4.25
  -4  -9  -4   12.32    6.52
  -4  -9  -3    7.11    4.41
  -4  -9  -2   -4.63    3.35
  -4  -9  -1   54.23   11.21
  -4  -9   0  273.63   25.47
  -4  -9   1  102.64   15.66
  -4  -9   2   30.28    8.41
  -4  -9   3   38.12   10.01
  -4  -9   4   19.84    7.11
  -4  -9   5    3.22    3.20
  -4  -8 -11   15.60    7.61
  -4  -8 -10   31.17   10.56
  -4  -8  -8    9.74    5.27
  -4  -8  -7    8.14    3.73
  -4  -8  -6   14.42    5.23
  -4  -8  -6   36.25   11.19
  -4  -8  -5   15.50    4.69
  -4  -8  -5   50.77   11.92
  -4  -8  -4  133.14   17.97
  -4  -8  -3  384.67   29.67
  -4  -8  -3  431.88   22.47
  -4  -8  -2   11.47    3.94
  -4  -8  -2    7.66    3.78
  -4  -8  -1   21.24    6.65
  -4  -8  -1   34.67    7.49
  -4  -8   0   -3.42    3.57
  -4  -8   0    3.95    3.41
  -4  -8   1  113.20   15.32
  -4  -8   2   71.72   12.44
  -4  -8   3   12.45    5.95
  -4  -8   4   65.95   12.40
  -4  -8   5   13.22    6.35
  -4  -8   6   -0.35    2.71
  -4  -7 -11   62.80   15.88
  -4  -7 -10   62.64   14.84
  -4  -7  -7   82.43   11.84
  -4  -7  -6   72.75   10.28
  -4  -7  -5  115.73   16.08
  -4  -7  -5  132.33   12.85
  -4  -7  -4  176.22   14.09
  -4  -7  -4  149.55   17.64
  -4  -7  -4  187.35   13.04
  -4  -7  -3  163.62   13.22
  -4  -7  -3  167.99   18.20
  -4  -7  -2   57.81   10.40
  -4  -7  -2   53.54    8.35
  -4  -7  -1  230.87   18.85
  -4  -7  -1  168.08   17.44
  -4  -7   0  457.64   29.26
  -4  -7   0  423.55   27.38
  -4  -7   1  151.72   17.69
  -4  -7   1  120.45   14.57
  -4  -7   2   25.77    7.64
  -4  -7   2   17.69    6.35
  -4  -7   3   52.81   10.13
  -4  -7   4    0.61    3.44
  -4  -7   5   15.43    6.15
  -4  -7   6    5.85    4.34
  -4  -6 -11    8.64    3.52
  -4  -6  -6   61.39    9.03
  -4  -6  -5  176.07   13.80
  -4  -6  -4   20.11    4.45
  -4  -6  -4   24.34    7.98
  -4  -6  -3  159.76   16.75
  -4  -6  -2   94.68   12.58
  -4  -6  -2   86.97   10.03
  -4  -6  -1  195.65   17.26
  -4  -6  -1  208.16   17.13
  -4  -6   0  511.35   29.14
  -4  -6   0  454.31   26.44
  -4  -6   1  146.20   16.59
  -4  -6   1  134.06   13.90
  -4  -6   2  537.72   29.33
  -4  -6   2  585.64   36.18
  -4  -6   3   57.56    9.77
  -4  -6   3   41.44   10.47
  -4  -6   4    9.71    5.83
  -4  -6   4   10.65    4.31
  -4  -6   5    0.84    3.07
  -4  -6   6    7.11    4.04
  -4  -6   7   22.56    6.77
  -4  -5 -11    0.45    5.26
  -4  -5  -5  430.35   20.66
  -4  -5  -4  370.34   16.95
  -4  -5  -3  232.22   19.16
  -4  -5  -3  223.20   11.73
  -4  -5  -2   37.84    7.75
  -4  -5  -1  188.46   15.79
  -4  -5  -1  216.76   16.17
  -4  -5   0  226.53   16.47
  -4  -5   0  216.02   17.50
  -4  -5   1   28.82    6.19
  -4  -5   1   40.91    8.23
  -4  -5   2    3.39    2.90
  -4  -5   2   -4.36    5.47
  -4  -5   3   13.23    6.04
  -4  -5   3   29.48    6.59
  -4  -5   4   -2.74    2.64
  -4  -5   4    4.44    2.98
  -4  -5   5  230.08   25.77
  -4  -5   5  233.69   18.98
  -4  -5   6  151.80   15.95
  -4  -5   7   91.40   12.94
  -4  -4 -11   81.26   18.06
  -4  -4 -10  118.52   21.29
  -4  -4  -3  476.32   15.25
  -4  -4  -2 1202.59   41.87
  -4  -4  -1  229.93   15.99
  -4  -4   0  146.49   12.15
  -4  -4   0  173.10   14.84
  -4  -4   1   90.82    9.23
  -4  -4   1  106.84   12.35
  -4  -4   2    4.89    2.45
  -4  -4   2    2.76    2.79
  -4  -4   3   66.53    8.25
  -4  -4   3   76.14   12.79
  -4  -4   4   -0.36    1.48
  -4  -4   4    2.73    2.03
  -4  -4   4   -0.30    2.84
  -4  -4   5    4.04    2.18
  -4  -4   5    3.77    3.16
  -4  -4   5    2.03    3.22
  -4  -4   6    6.26    3.83
  -4  -4   6    2.19    1.77
  -4  -4   6    8.03    5.28
  -4  -4   7  119.57   13.60
  -4  -3 -11   56.73   15.26
  -4  -3 -10   10.18    5.98
  -4  -3  -1    8.21    2.55
  -4  -3   0  607.83   23.58
  -4  -3   1  572.25   21.52
  -4  -3   1  584.62   28.80
  -4  -3   2  447.34   18.24
  -4  -3   2  458.85   20.19
  -4  -3   3   44.27    5.74
  -4  -3   3   50.61    6.40
  -4  -3   4   61.86    7.17
  -4  -3   4   98.58    8.97
  -4  -3   4   80.12   13.39
  -4  -3   5    1.21    2.25
  -4  -3   5   -2.61    3.12
  -4  -3   5    0.90    1.75
  -4  -3   6  320.45   17.83
  -4  -3   6  309.87   29.40
  -4  -3   6  306.49   18.67
  -4  -3   7  143.52   13.49
  -4  -3   7  158.79   12.73
  -4  -3   7  141.62   20.79
  -4  -2 -11   20.55    8.21
  -4  -2 -10   11.16    7.25
  -4  -2   0  581.33   24.00
  -4  -2   0  529.85   16.11
  -4  -2   1   82.42    6.65
  -4  -2   1   99.48    8.39
  -4  -2   1   88.93    8.46
  -4  -2   1   83.41    8.24
  -4  -2   2   66.97    8.11
  -4  -2   2   62.85    6.64
  -4  -2   2   57.01    5.08
  -4  -2   2   69.89    7.67
  -4  -2   3  136.08    7.80
  -4  -2   3  140.55    9.17
  -4  -2   3  133.39   10.89
  -4  -2   3  135.10   13.16
  -4  -2   4  318.01   13.62
  -4  -2   4  304.46   12.33
  -4  -2   4  306.63   17.34
  -4  -2   5  310.71   15.03
  -4  -2   5  285.10   25.62
  -4  -2   6  290.08   27.25
  -4  -2   6  247.03   14.67
  -4  -2   7  188.47   23.22
  -4  -2   7  184.32   13.61
  -4  -2   8  103.75   18.05
  -4  -1 -10  117.73   21.34
  -4  -1  -9  124.47   20.73
  -4  -1   0   60.82    7.24
  -4  -1   1  130.98    8.81
  -4  -1   1  136.76   10.38
  -4  -1   2 1458.87   40.98
  -4  -1   2 1443.21   38.08
  -4  -1   2 1513.25   41.90
  -4  -1   3  115.95    8.75
  -4  -1   3  109.21   11.18
  -4  -1   4  208.47   11.24
  -4  -1   4  196.81    6.90
  -4  -1   5  227.08   21.77
  -4  -1   5  246.72   11.35
  -4  -1   5  236.27   10.21
  -4  -1   6   68.04    6.31
  -4  -1   6   61.62    4.69
  -4  -1   6   67.25   12.76
  -4  -1   7  219.14   13.13
  -4  -1   7  275.85   27.14
  -4  -1   8    1.22    2.54
  -4   0 -10   43.52   12.83
  -4   0  -9   42.98   12.05
  -4   0   1    4.12    2.01
  -4   0   1    4.01    2.41
  -4   0   2 2738.92   60.18
  -4   0   2 2720.43   60.98
  -4   0   2 2702.90   66.86
  -4   0   3  251.01   16.45
  -4   0   3  264.23   14.74
  -4   0   4   70.69   10.74
  -4   0   4   75.33    7.59
  -4   0   5  104.42   14.18
  -4   0   5  104.77    8.70
  -4   0   6  201.24    9.12
  -4   0   6  223.77   22.32
  -4   0   6  193.52    8.82
  -4   0   6  200.72   11.84
  -4   0   7  125.82    8.48
  -4   0   7  143.54   18.75
  -4   0   8   84.36   15.07
  -4   1 -10   14.24    7.58
  -4   1  -9    2.08    3.66
  -4   1  -8   13.24    6.95
  -4   1  -2   82.92    8.82
  -4   1  -1  639.11   25.45
  -4   1   1 1044.28   33.95
  -4   1   1 1091.50   36.19
  -4   1   2  732.75   29.59
  -4   1   2  780.47   29.57
  -4   1   3  108.28   10.27
  -4   1   3  106.58   10.31
  -4   1   3   90.96   10.86
  -4   1   4   93.36   11.99
  -4   1   4   77.71    8.66
  -4   1   5   52.58    7.09
  -4   1   5   47.75    9.50
  -4   1   6   64.36   11.57
  -4   1   6   61.49    7.66
  -4   1   6   60.51    4.12
  -4   1   7  233.10   23.44
  -4   1   8  292.47   27.62
  -4   1   9   31.24    9.66
  -4   2 -10    6.71    4.75
  -4   2  -9   20.46    9.26
  -4   2  -8  209.62   25.97
  -4   2  -7  161.88   21.32
  -4   2  -2  466.93   22.06
  -4   2  -1   47.34    6.61
  -4   2   1  164.53   11.94
  -4   2   2   30.25    5.37
  -4   2   3  302.17   19.53
  -4   2   4  196.92    8.47
  -4   2   5  235.74   19.42
  -4   2   5  214.39    8.85
  -4   2   6  212.51    9.70
  -4   2   6  211.10   20.11
  -4   2   7  337.17   27.39
  -4   2   8    2.01    3.02
  -4   2   9   -3.87    4.86
  -4   3  -9   -0.77    4.15
  -4   3  -8    3.69    3.98
  -4   3  -7   82.64   15.52
  -4   3  -6  123.62   17.67
  -4   3  -2  539.37   24.05
  -4   3  -1  112.31   10.84
  -4   3   1    6.71    2.44
  -4   3   2  159.73   12.38
  -4   3   3   25.90    4.41
  -4   3   3   35.76    6.44
  -4   3   4  316.44   21.37
  -4   3   4  319.61   14.66
  -4   3   5  449.32   26.49
  -4   3   5  458.27   17.68
  -4   3   6  173.31   17.40
  -4   3   6  160.57   10.22
  -4   3   7   52.23   10.17
  -4   3   8   84.63   13.76
  -4   3   9   19.06    7.06
  -4   4  -9   40.99   12.88
  -4   4  -8   39.09   11.74
  -4   4  -7   92.99   16.46
  -4   4  -6   24.95    7.86
  -4   4  -5    8.57    4.55
  -4   4  -3  190.21   13.80
  -4   4  -2  333.89   19.03
  -4   4  -1   56.85    7.97
  -4   4   1  382.46   17.43
  -4   4   2  292.14   16.18
  -4   4   3  109.55   10.82
  -4   4   3  119.29   10.84
  -4   4   4  159.09   14.50
  -4   4   4  143.36   11.53
  -4   4   5    0.17    1.32
  -4   4   5    2.74    2.84
  -4   4   6   46.12    8.91
  -4   4   7   37.72    8.61
  -4   4   8  319.79   25.93
  -4   4   9   52.55   11.29
  -4   5  -6  276.12   26.69
  -4   5  -5  128.65   17.03
  -4   5  -4  109.52   14.70
  -4   5  -3  293.02   17.40
  -4   5  -3  264.76   20.75
  -4   5  -2    2.95    1.51
  -4   5  -1   40.37    7.05
  -4   5   1  139.98    9.37
  -4   5   2   65.76    6.85
  -4   5   3   79.20    8.45
  -4   5   4  122.46   11.89
  -4   5   5   56.20    8.70
  -4   5   6  202.04   17.38
  -4   5   7   85.43   12.15
  -4   6  -2   47.39    7.52
  -4   6  -1  252.03   18.25
  -4   7  -1   33.93    6.69
  -3 -12  -5    8.38    5.62
  -3 -11  -7    4.55    5.47
  -3 -11  -6   66.68   13.25
  -3 -11  -5   91.98   17.62
  -3 -11  -5   96.00   15.45
  -3 -11  -4   16.17    9.12
  -3 -11  -3    9.02    5.69
  -3 -11  -2   -1.83    2.69
  -3 -11  -1   -4.08    4.71
  -3 -10  -8    1.39    2.78
  -3 -10  -7   74.00   15.98
  -3 -10  -7   66.65   13.16
  -3 -10  -6   18.41    6.98
  -3 -10  -6    8.85    4.81
  -3 -10  -5   -1.85    4.14
  -3 -10  -5    2.95    2.97
  -3 -10  -4   48.91   11.98
  -3 -10  -3   26.27    8.61
  -3 -10  -2   29.06    8.83
  -3 -10  -1   10.43    5.73
  -3 -10   0   51.61   11.70
  -3 -10   1    8.03    5.32
  -3 -10   2    7.26    5.24
  -3 -10   3   49.35   12.22
  -3  -9  -9   40.53   11.05
  -3  -9  -8   63.29   12.73
  -3  -9  -7  189.29   24.26
  -3  -9  -7  175.85   20.31
  -3  -9  -6   44.90    9.59
  -3  -9  -6   61.30   12.57
  -3  -9  -5   61.91   13.14
  -3  -9  -5   70.03   11.52
  -3  -9  -4  116.80   17.17
  -3  -9  -3   30.91    8.95
  -3  -9  -2   97.49   15.03
  -3  -9  -1    9.87    5.18
  -3  -9   0   19.97    7.44
  -3  -9   1  219.61   23.12
  -3  -9   2   29.22    8.65
  -3  -9   3   41.33   10.59
  -3  -9   4   84.16   15.44
  -3  -9   5   34.32   10.06
  -3  -8 -11   51.37   13.95
  -3  -8 -10   16.00    8.05
  -3  -8  -9   38.21   10.84
  -3  -8  -9   43.13   10.41
  -3  -8  -8   70.49   12.66
  -3  -8  -7   25.42    7.83
  -3  -8  -6  236.93   20.82
  -3  -8  -6  214.22   23.35
  -3  -8  -5    4.64    3.34
  -3  -8  -5   -0.92    3.39
  -3  -8  -4   32.27    8.86
  -3  -8  -3   36.17    9.36
  -3  -8  -2    1.61    3.32
  -3  -8  -1   57.17   10.51
  -3  -8   0   37.44    8.85
  -3  -8   1   23.26    8.04
  -3  -8   2   28.93    8.20
  -3  -8   3   35.18    8.99
  -3  -8   4  175.12   20.71
  -3  -8   5   36.21    9.76
  -3  -8   6   32.87    9.69
  -3  -8   7   18.87    7.75
  -3  -7 -11  110.67   20.31
  -3  -7 -10  144.89   21.83
  -3  -7  -9  276.76   28.56
  -3  -7  -8   24.58    7.33
  -3  -7  -7    1.73    2.32
  -3  -7  -6    8.44    5.94
  -3  -7  -6    0.99    2.01
  -3  -7  -5   10.34    4.96
  -3  -7  -5    9.94    4.52
  -3  -7  -5   11.09    1.86
  -3  -7  -4  247.68   17.81
  -3  -7  -4  228.23   10.91
  -3  -7  -4  217.58   21.09
  -3  -7  -3  187.75   18.69
  -3  -7  -3  179.55   11.65
  -3  -7  -2  148.28   11.84
  -3  -7  -2  124.16   14.75
  -3  -7  -2  123.49   11.13
  -3  -7  -1  311.47   18.42
  -3  -7  -1  338.14   21.20
  -3  -7  -1  317.98   23.55
  -3  -7   0  384.46   26.20
  -3  -7   0  422.18   23.34
  -3  -7   1  128.06   14.98
  -3  -7   2  153.02   17.04
  -3  -7   3   -1.24    2.28
  -3  -7   4   53.54   10.71
  -3  -7   5   12.32    5.49
  -3  -7   6   13.99    6.00
  -3  -7   7    9.86    6.60
  -3  -7   8    9.55    5.03
  -3  -6 -11   61.16   15.38
  -3  -6 -10   21.58    9.06
  -3  -6  -9   32.57    9.81
  -3  -6  -7   -0.95    1.89
  -3  -6  -6   69.88   10.07
  -3  -6  -5  360.67   21.52
  -3  -6  -5  307.05   24.66
  -3  -6  -4   67.30    8.40
  -3  -6  -4   60.83   10.53
  -3  -6  -3   56.50    6.26
  -3  -6  -3   42.99    8.24
  -3  -6  -2    0.82    1.43
  -3  -6  -2    2.70    3.25
  -3  -6  -1  255.49   15.79
  -3  -6  -1  227.33   18.44
  -3  -6  -1  241.87   16.92
  -3  -6   0   20.71    4.95
  -3  -6   0   16.31    4.99
  -3  -6   0   14.44    4.88
  -3  -6   1  381.22   24.30
  -3  -6   1  433.36   27.53
  -3  -6   2  324.83   25.78
  -3  -6   2  336.52   23.36
  -3  -6   3  174.43   17.12
  -3  -6   4  380.60   26.45
  -3  -6   5   39.02    9.00
  -3  -6   6    7.65    4.88
  -3  -6   7    5.25    3.84
  -3  -6   8    1.24    3.72
  -3  -5 -11   12.59    7.30
  -3  -5 -10   -1.79    4.65
  -3  -5  -9   18.91    7.06
  -3  -5  -6  383.43   23.01
  -3  -5  -5  553.15   25.58
  -3  -5  -4  596.25   31.73
  -3  -5  -4  636.35   24.93
  -3  -5  -3  114.19   12.69
  -3  -5  -2   89.54   10.88
  -3  -5  -2   96.57    8.74
  -3  -5  -1   55.00    8.29
  -3  -5  -1   52.86    7.12
  -3  -5   0   22.02    5.17
  -3  -5   0   29.18    5.17
  -3  -5   0   24.64    5.87
  -3  -5   1  120.42   12.13
  -3  -5   1  112.31   11.81
  -3  -5   1  141.77   14.53
  -3  -5   2  229.70   20.25
  -3  -5   2  233.76   17.54
  -3  -5   3   80.36   10.62
  -3  -5   3   89.66   14.26
  -3  -5   4   18.55    5.72
  -3  -5   5   37.62    8.10
  -3  -5   6   62.07   10.80
  -3  -5   7   87.16   13.22
  -3  -5   8   -0.31    2.29
  -3  -4 -11   14.00    7.93
  -3  -4 -10   44.17   12.07
  -3  -4  -9  179.89   23.59
  -3  -4  -5  446.13   21.77
  -3  -4  -4  315.46   15.89
  -3  -4  -3   33.77    4.36
  -3  -4  -3   22.77    5.75
  -3  -4  -2  428.04   22.40
  -3  -4  -1 1237.57   38.82
  -3  -4   0 1648.33   44.30
  -3  -4   0 1609.81   46.57
  -3  -4   0 1575.03   43.92
  -3  -4   1  171.19   13.66
  -3  -4   1  176.59   12.98
  -3  -4   1  174.91   15.18
  -3  -4   2  895.33   32.56
  -3  -4   2  973.63   41.36
  -3  -4   3    3.87    3.35
  -3  -4   3    3.39    2.56
  -3  -4   4    2.89    3.36
  -3  -4   4    5.09    3.35
  -3  -4   5   12.57    5.55
  -3  -4   5   18.41    5.39
  -3  -4   6   34.76    7.47
  -3  -4   7   44.03    8.90
  -3  -4   8    4.31    2.88
  -3  -3 -11   23.01   10.18
  -3  -3 -10   55.54   14.02
  -3  -3  -9  216.53   25.91
  -3  -3  -3  110.82    7.26
  -3  -3  -2  133.85    6.24
  -3  -3  -2  125.44   11.04
  -3  -3  -1  575.74   23.12
  -3  -3   0  923.40   28.32
  -3  -3   1  866.75   31.54
  -3  -3   1  861.99   26.74
  -3  -3   1  857.81   32.87
  -3  -3   2  155.23   13.97
  -3  -3   2  157.47    9.65
  -3  -3   2  158.02   10.91
  -3  -3   3  203.53   13.09
  -3  -3   3  211.43   11.31
  -3  -3   4   10.66    2.66
  -3  -3   4   17.03    4.08
  -3  -3   5   49.09   11.00
  -3  -3   5   42.01    5.37
  -3  -3   5   48.28    7.32
  -3  -3   6  179.13   21.50
  -3  -3   6  160.94   14.20
  -3  -3   6  151.06   10.50
  -3  -3   7   32.92    5.06
  -3  -3   7   41.66    7.70
  -3  -3   8   16.98    5.37
  -3  -2 -11   56.93   15.05
  -3  -2 -10   91.15   18.05
  -3  -2  -9  276.91   29.65
  -3  -2  -1  121.68    9.89
  -3  -2   0    0.79    1.14
  -3  -2   0    2.87    1.77
  -3  -2   1  475.94   17.59
  -3  -2   1  441.28   15.31
  -3  -2   1  429.52   17.31
  -3  -2   2   53.53    5.07
  -3  -2   2   46.79    4.67
  -3  -2   2   48.13    5.39
  -3  -2   3  203.77   11.74
  -3  -2   3  206.60   11.09
  -3  -2   4    7.11    2.52
  -3  -2   5    3.20    3.03
  -3  -2   5    1.64    1.85
  -3  -2   6   72.43   13.36
  -3  -2   6   87.74    9.47
  -3  -2   7  153.82   13.50
  -3  -2   8  135.29   13.47
  -3  -2   9   84.20   11.43
  -3  -1 -11   38.51   12.56
  -3  -1 -10   23.49    9.14
  -3  -1  -9  296.35   30.65
  -3  -1  -8   57.23   12.83
  -3  -1  -4  883.46   33.18
  -3  -1   0   65.01    4.18
  -3  -1   0   59.09    6.13
  -3  -1   1 2355.85   48.69
  -3  -1   1 2322.57   48.71
  -3  -1   1 2314.49   50.78
  -3  -1   2  708.93   20.63
  -3  -1   2  704.64   25.84
  -3  -1   2  675.70   15.14
  -3  -1   3  169.85    8.51
  -3  -1   3  161.52    7.25
  -3  -1   3  171.62   13.93
  -3  -1   4  444.38   13.46
  -3  -1   4  447.02   15.20
  -3  -1   5  252.85    8.36
  -3  -1   5  280.23   13.23
  -3  -1   5  247.62   21.82
  -3  -1   6  786.55   42.45
  -3  -1   6  745.76   26.07
  -3  -1   7  210.40   14.45
  -3  -1   7  216.78   23.44
  -3  -1   8   40.16    6.90
  -3  -1   9   24.52    5.87
  -3   0 -11   36.02   12.88
  -3   0 -10   31.62   10.48
  -3   0  -9   93.37   17.36
  -3   0  -8  202.89   24.09
  -3   0  -4   65.09    8.21
  -3   0  -3  711.79   27.75
  -3   0  -1 1659.50   40.60
  -3   0   0  310.41   15.08
  -3   0   1  409.86   18.11
  -3   0   1  403.24   16.77
  -3   0   1  411.64   15.08
  -3   0   2  413.22   16.45
  -3   0   2  401.95   17.97
  -3   0   2  390.63   19.50
  -3   0   3   37.52    4.60
  -3   0   3   36.32    6.01
  -3   0   3   34.41    6.35
  -3   0   4  649.85   31.39
  -3   0   4  612.87   20.07
  -3   0   4  601.78   14.87
  -3   0   4  625.74   15.67
  -3   0   5  375.62   14.94
  -3   0   5  390.04   26.11
  -3   0   6  350.45   14.08
  -3   0   6  343.42   26.36
  -3   0   7  124.14   16.82
  -3   0   7  129.37    7.82
  -3   1 -10  238.66   30.05
  -3   1  -9  213.24   26.72
  -3   1  -8  237.47   26.47
  -3   1  -7   10.55    5.95
  -3   1  -4  243.87   16.45
  -3   1  -3  359.20   19.33
  -3   1  -2    6.84    2.88
  -3   1  -2    1.88    1.72
  -3   1  -1    5.45    2.44
  -3   1   1 1825.37   43.46
  -3   1   1 1928.48   46.71
  -3   1   2 3416.87   72.44
  -3   1   2 3492.25   70.99
  -3   1   3  122.45   10.69
  -3   1   3  115.05   11.23
  -3   1   4    6.64    1.22
  -3   1   4    2.78    1.98
  -3   1   4    8.26    3.26
  -3   1   5   80.42    5.72
  -3   1   5   88.63   11.72
  -3   1   6   18.10    3.15
  -3   1   6   11.14    4.94
  -3   1   7   49.93   10.26
  -3   1   7   42.87    5.92
  -3   1   8   -0.44    4.12
  -3   2 -10    5.81    3.97
  -3   2  -9   -7.22    5.48
  -3   2  -8   -3.24    4.41
  -3   2  -7  246.62   25.48
  -3   2  -6   90.24   14.34
  -3   2  -2  108.29   10.70
  -3   2  -2  103.36    8.58
  -3   2  -1  286.20   14.92
  -3   2   1   59.88    6.01
  -3   2   2 1602.12   41.75
  -3   2   2 1608.11   45.25
  -3   2   2 1577.89   35.64
  -3   2   3  880.87   31.78
  -3   2   3  813.12   21.95
  -3   2   4  979.22   37.89
  -3   2   4  918.39   23.85
  -3   2   4  932.16   34.73
  -3   2   5  166.59   15.17
  -3   2   5  152.63    8.80
  -3   2   6   69.58    6.52
  -3   2   6   73.57   10.99
  -3   2   7  101.26    8.85
  -3   2   7  114.50   14.80
  -3   2   8   72.64   12.52
  -3   3 -10    1.03    2.63
  -3   3  -9    5.65    5.61
  -3   3  -8   23.93    8.23
  -3   3  -7   42.02   10.59
  -3   3  -6   11.85    5.25
  -3   3  -5   -1.95    2.19
  -3   3  -2  178.71   11.61
  -3   3  -1   85.10    8.30
  -3   3   1 1494.90   35.49
  -3   3   2   81.97    7.96
  -3   3   2   90.84    8.09
  -3   3   3   73.19    8.33
  -3   3   3   62.38    6.61
  -3   3   4   32.62    6.44
  -3   3   4   20.38    3.72
  -3   3   5   13.70    3.26
  -3   3   5   12.01    4.26
  -3   3   6  204.81   17.70
  -3   3   6  220.63   13.13
  -3   3   7  651.90   25.02
  -3   3   7  695.69   35.74
  -3   3   8  346.94   26.84
  -3   4  -9   35.64   11.05
  -3   4  -8   44.59   11.91
  -3   4  -7   69.61   14.13
  -3   4  -6  228.02   23.37
  -3   4  -5   11.72    6.56
  -3   4  -4   66.79   10.71
  -3   4  -3   40.60    7.61
  -3   4  -2  297.69   15.58
  -3   4   1  751.89   21.42
  -3   4   2   12.11    2.75
  -3   4   2   16.34    4.22
  -3   4   3  223.74   13.99
  -3   4   3  249.62   15.77
  -3   4   4  205.11   15.32
  -3   4   4  216.97   14.58
  -3   4   5   27.58    5.14
  -3   4   5   23.36    5.73
  -3   4   5   19.44    4.92
  -3   4   6    1.63    1.52
  -3   4   6    1.50    2.74
  -3   4   7   17.34    5.29
  -3   4   8    8.10    3.94
  -3   5  -8   18.30    7.56
  -3   5  -7   26.04    9.05
  -3   5  -6   13.89    5.99
  -3   5  -5   20.76    6.82
  -3   5  -4  298.42   22.89
  -3   5  -3  553.69   28.70
  -3   5  -2  257.60   16.91
  -3   5  -2  256.65   14.95
  -3   5  -1  155.47   11.21
  -3   5   1  177.17    7.80
  -3   5   2  589.87   17.57
  -3   5   3   67.30    6.61
  -3   5   4  282.86   16.66
  -3   5   5   -0.07    1.93
  -3   5   5    2.21    1.80
  -3   5   6   36.43    6.82
  -3   5   7   54.97    8.71
  -3   5   8  210.51   18.41
  -3   6  -3  136.85   13.50
  -3   6  -2   96.59    9.69
  -3   6  -2   65.80    7.64
  -3   6  -1  389.55   16.07
  -3   6   5    6.01    2.74
  -2 -11  -8   -2.46    5.22
  -2 -11  -7    9.08    5.97
  -2 -11  -6   66.72   15.00
  -2 -11  -6   74.37   14.64
  -2 -11  -5    8.83    5.64
  -2 -11  -5    8.83    5.99
  -2 -11  -4   48.37   12.62
  -2 -11  -3   57.50   13.70
  -2 -11  -2    6.36    2.79
  -2 -11  -1   39.56   10.94
  -2 -10 -10   11.61    6.72
  -2 -10  -9   15.10    7.99
  -2 -10  -8   33.16   10.02
  -2 -10  -8   63.28   15.01
  -2 -10  -7   18.03    7.75
  -2 -10  -7   27.80    9.99
  -2 -10  -6    4.82    3.74
  -2 -10  -6   -1.96    2.78
  -2 -10  -5    9.88    5.27
  -2 -10  -5    3.13    2.31
  -2 -10  -4   58.81   13.09
  -2 -10  -3    2.43    2.86
  -2 -10  -2  124.28   18.02
  -2 -10  -1  153.82   20.29
  -2 -10   0   33.49    9.46
  -2 -10   1   19.59    8.74
  -2 -10   2    4.15    4.45
  -2  -9 -10    1.12    4.64
  -2  -9  -9   22.20    8.66
  -2  -9  -8   21.81    8.16
  -2  -9  -7   51.09   11.10
  -2  -9  -7   60.25   13.29
  -2  -9  -6   49.69   10.74
  -2  -9  -6   59.03   12.77
  -2  -9  -5  296.74   27.83
  -2  -9  -5  246.80   22.77
  -2  -9  -4   17.94    7.54
  -2  -9  -3   71.28   13.29
  -2  -9  -2   -1.75    2.60
  -2  -9  -1    6.32    3.55
  -2  -9   0   26.38    8.09
  -2  -9   1    7.95    4.61
  -2  -9   2    1.03    2.95
  -2  -9   3   26.02    8.67
  -2  -9   4   86.49   15.93
  -2  -8 -10   64.31   14.10
  -2  -8 -10   50.59   12.19
  -2  -8  -9   -1.31    4.28
  -2  -8  -9   14.50    6.38
  -2  -8  -8   22.01    7.35
  -2  -8  -8    8.35    4.03
  -2  -8  -7  187.53   22.36
  -2  -8  -7  242.86   23.59
  -2  -8  -7  219.61   20.52
  -2  -8  -6   46.18   11.28
  -2  -8  -6   29.43    7.54
  -2  -8  -5  246.57   21.23
  -2  -8  -5  258.14   24.34
  -2  -8  -4  525.05   34.75
  -2  -8  -3   42.29    9.21
  -2  -8  -2   15.30    6.12
  -2  -8  -1   29.75    7.63
  -2  -8   0   12.36    6.61
  -2  -8   1   11.43    5.47
  -2  -8   2    1.32    2.18
  -2  -8   3  183.19   20.91
  -2  -8   4    6.10    5.50
  -2  -8   5   56.04   12.17
  -2  -8   6   19.55    8.09
  -2  -7 -12   10.12    6.16
  -2  -7 -11  111.48   19.79
  -2  -7 -10   42.10   11.66
  -2  -7  -9  108.02   16.67
  -2  -7  -9  119.07   17.92
  -2  -7  -8   33.57    9.24
  -2  -7  -8   18.02    6.47
  -2  -7  -7  109.27   14.80
  -2  -7  -7  111.82   14.84
  -2  -7  -6  135.40   15.59
  -2  -7  -6  129.03   17.03
  -2  -7  -5   36.85    7.71
  -2  -7  -5   32.12    8.33
  -2  -7  -4  125.09   15.75
  -2  -7  -3  252.94   21.34
  -2  -7  -2  119.76    9.05
  -2  -7  -2   97.16   12.98
  -2  -7  -1  177.16   17.56
  -2  -7  -1  183.04   12.20
  -2  -7   0  289.45   22.95
  -2  -7   0  328.89   18.32
  -2  -7   1  873.22   34.68
  -2  -7   1  892.28   41.99
  -2  -7   2   10.42    5.63
  -2  -7   3   63.33   11.44
  -2  -7   4   42.95    9.70
  -2  -7   5   11.56    6.14
  -2  -7   6   30.31    8.60
  -2  -7   7   39.62   10.52
  -2  -7   8   20.12    7.82
  -2  -6 -12   22.60   10.18
  -2  -6 -11   20.05    8.63
  -2  -6 -10    9.80    6.04
  -2  -6  -9  281.71   28.12
  -2  -6  -8   66.83   12.02
  -2  -6  -8   80.77   13.92
  -2  -6  -7   34.69    8.07
  -2  -6  -6  400.14   28.80
  -2  -6  -6  387.01   25.32
  -2  -6  -6  409.60   13.13
  -2  -6  -5   23.56    5.80
  -2  -6  -5   21.35    7.03
  -2  -6  -4    1.11    3.21
  -2  -6  -4    1.81    1.91
  -2  -6  -3    5.62    3.09
  -2  -6  -2   17.56    5.04
  -2  -6  -1  414.93   18.04
  -2  -6  -1  414.32   24.82
  -2  -6   0   51.47    9.06
  -2  -6   0   61.30    7.31
  -2  -6   1   56.30   10.01
  -2  -6   1   62.18    8.32
  -2  -6   2    4.94    3.62
  -2  -6   2    3.45    2.50
  -2  -6   3   69.71   11.24
  -2  -6   4  260.55   22.67
  -2  -6   5    7.88    3.97
  -2  -6   6  228.22   22.70
  -2  -6   7    8.12    4.91
  -2  -6   8   13.42    6.27
  -2  -6   9   34.31    9.81
  -2  -5 -12   32.12   11.92
  -2  -5 -11   24.75    9.71
  -2  -5 -10  172.91   23.77
  -2  -5  -9  120.10   18.62
  -2  -5  -8   -1.53    4.07
  -2  -5  -7    3.71    2.31
  -2  -5  -7   -0.64    2.58
  -2  -5  -6   13.89    5.12
  -2  -5  -5  693.40   34.40
  -2  -5  -5  681.53   30.30
  -2  -5  -4  736.73   28.88
  -2  -5  -4  728.82   33.95
  -2  -5  -3  494.21   26.21
  -2  -5  -3  475.04   14.77
  -2  -5  -2  208.03   16.00
  -2  -5  -2  239.10   12.07
  -2  -5  -1  627.49   22.13
  -2  -5  -1  661.61   24.60
  -2  -5  -1  586.67   27.40
  -2  -5   0    7.01    2.91
  -2  -5   0    8.01    2.71
  -2  -5   1   62.57    9.48
  -2  -5   1   62.86    9.00
  -2  -5   1   53.45    7.27
  -2  -5   2  259.59   18.42
  -2  -5   2  295.42   20.40
  -2  -5   3   42.77    8.25
  -2  -5   4   92.99   12.22
  -2  -5   5  276.98   22.33
  -2  -5   6  179.27   18.81
  -2  -5   7   48.28    9.86
  -2  -5   8   13.15    6.07
  -2  -5   9   15.85    7.05
  -2  -4 -12   61.41   15.86
  -2  -4 -11   12.52    6.43
  -2  -4 -10   23.00    9.92
  -2  -4  -9   36.91   10.26
  -2  -4  -8   17.10    7.88
  -2  -4  -6  166.34   15.36
  -2  -4  -5 1099.34   38.30
  -2  -4  -4   71.62    8.04
  -2  -4  -4   57.22    8.88
  -2  -4  -3  145.23   10.10
  -2  -4  -3  165.38   13.64
  -2  -4  -2  996.78   34.45
  -2  -4  -1  670.35   26.11
  -2  -4  -1  615.84   22.04
  -2  -4   0  139.13   11.47
  -2  -4   0  147.14   10.14
  -2  -4   0  154.95   11.96
  -2  -4   1  401.86   19.54
  -2  -4   1  421.03   22.57
  -2  -4   1  387.49   20.28
  -2  -4   2  154.23   13.34
  -2  -4   2  126.01   13.66
  -2  -4   2  155.52   13.06
  -2  -4   3  603.28   33.19
  -2  -4   3  563.36   27.20
  -2  -4   4  343.21   21.46
  -2  -4   5  232.37   18.73
  -2  -4   6  105.08   13.15
  -2  -4   7   32.00    7.88
  -2  -4   8    1.37    3.27
  -2  -4   9   45.09    9.73
  -2  -3 -11    8.84    5.91
  -2  -3 -10   78.61   16.45
  -2  -3  -9  166.45   22.05
  -2  -3  -8   31.64    9.02
  -2  -3  -4 1110.02   34.08
  -2  -3  -3   20.99    3.54
  -2  -3  -3   26.46    5.65
  -2  -3  -2   29.56    5.34
  -2  -3  -1   58.46    6.58
  -2  -3   0  127.47    8.90
  -2  -3   0  135.73    9.71
  -2  -3   0  139.06   10.22
  -2  -3   1  887.68   28.04
  -2  -3   1  821.77   28.02
  -2  -3   1  932.11   32.43
  -2  -3   2  593.08   28.09
  -2  -3   2  530.44   24.86
  -2  -3   2  539.51   22.34
  -2  -3   3  254.87    9.90
  -2  -3   3  263.20   15.69
  -2  -3   4   83.12    9.10
  -2  -3   4   82.30    5.49
  -2  -3   5   80.64    5.88
  -2  -3   5   81.98   10.10
  -2  -3   6  387.42   23.22
  -2  -3   7   41.18    8.35
  -2  -3   8    1.99    3.52
  -2  -3   9   22.39    6.79
  -2  -3  10   -0.88    2.20
  -2  -2 -11  101.34   20.08
  -2  -2 -10  187.89   25.16
  -2  -2  -9  113.08   18.44
  -2  -2  -8   83.74   14.94
  -2  -2  -2 1330.25   27.16
  -2  -2  -1  853.88   25.19
  -2  -2   0 1668.37   36.18
  -2  -2   1  427.56   14.09
  -2  -2   1  412.15   17.73
  -2  -2   1  409.05   14.84
  -2  -2   1  432.60   19.43
  -2  -2   2  395.29   15.76
  -2  -2   2  432.67   20.67
  -2  -2   2  384.90   13.35
  -2  -2   3    1.34    0.94
  -2  -2   4  673.20   24.73
  -2  -2   5  175.71   13.06
  -2  -2   6   49.62    7.45
  -2  -2   7    5.47    3.06
  -2  -2   8   -1.14    1.56
  -2  -2   9   23.85    6.24
  -2  -2  10  116.56   15.27
  -2  -1 -11   -1.27    4.75
  -2  -1 -10   28.04   10.11
  -2  -1  -9  128.53   19.70
  -2  -1  -8    0.85    3.29
  -2  -1  -7  227.99   22.96
  -2  -1  -4 1642.19   44.30
  -2  -1  -3 3712.52   74.51
  -2  -1   0   76.27    5.22
  -2  -1   0   82.49    4.44
  -2  -1   1 2071.57   38.91
  -2  -1   1 1964.21   40.51
  -2  -1   1 2021.96   35.47
  -2  -1   2  108.98    5.92
  -2  -1   2  117.62    5.54
  -2  -1   3 1077.72   20.14
  -2  -1   3 1063.73   25.95
  -2  -1   4  208.36   11.15
  -2  -1   9   33.83    7.73
  -2  -1  10   96.34   13.32
  -2   0 -11   23.17    9.20
  -2   0 -10   88.55   18.03
  -2   0  -9   84.73   16.43
  -2   0  -8   -0.96    2.82
  -2   0  -7  138.03   17.98
  -2   0  -6  825.82   32.24
  -2   0  -6  934.01   44.38
  -2   0  -5   55.11    7.31
  -2   0  -4 1154.42   34.83
  -2   0  -3  113.11    8.98
  -2   0  -2    3.14    1.74
  -2   0  -1  100.40    6.73
  -2   0   1 3831.64   67.06
  -2   0   1 3821.04   70.21
  -2   0   1 3776.55   67.23
  -2   0   2  647.79   23.89
  -2   0   2  725.30   23.92
  -2   0   2  674.42   18.52
  -2   0   2  705.76   24.61
  -2   0   3  101.34    6.19
  -2   0   3  104.45   10.09
  -2   0   4   97.86   11.27
  -2   0   5  560.25   30.17
  -2   0   6  339.89   25.31
  -2   0   7  108.76    6.95
  -2   0   8  340.51   12.17
  -2   1 -11   52.93   14.60
  -2   1 -10   -0.39    2.37
  -2   1  -9  339.21   33.13
  -2   1  -8  675.68   44.25
  -2   1  -7  504.06   35.43
  -2   1  -7  472.26   24.41
  -2   1  -6  508.19   24.26
  -2   1  -6  503.18   32.81
  -2   1  -5   10.83    3.58
  -2   1  -4  145.04   11.09
  -2   1  -3   55.60    6.42
  -2   1  -2   90.56    7.83
  -2   1  -1    6.16    1.84
  -2   1  -1    4.74    1.89
  -2   1   1 4233.80   75.82
  -2   1   1 4409.16   79.09
  -2   1   2 2879.04   58.51
  -2   1   2 2934.86   60.03
  -2   1   2 2811.18   47.68
  -2   1   3   46.93    6.70
  -2   1   3   47.19    3.55
  -2   1   3   55.19    6.69
  -2   1   4 1575.36   49.25
  -2   1   4 1590.37   34.51
  -2   1   4 1556.68   46.82
  -2   1   5   12.17    2.75
  -2   1   5   15.97    5.09
  -2   1   6  460.48   20.65
  -2   1   6  413.64   26.71
  -2   1   7   44.60    6.89
  -2   2 -10   47.60   13.87
  -2   2  -9  116.94   19.74
  -2   2  -8  152.22   21.18
  -2   2  -7   53.53   11.44
  -2   2  -6    7.43    5.52
  -2   2  -6    4.62    2.32
  -2   2  -5  167.43   13.09
  -2   2  -5  184.65   18.29
  -2   2  -4   47.04    6.55
  -2   2  -3  607.11   24.20
  -2   2  -2  160.04    8.96
  -2   2  -2  150.88   11.30
  -2   2  -1  441.65   19.45
  -2   2  -1  442.62   16.12
  -2   2   1   85.93    5.93
  -2   2   1   94.70    7.15
  -2   2   2  256.37   12.84
  -2   2   2  262.61   11.55
  -2   2   3  300.69   16.44
  -2   2   3  291.32   12.11
  -2   2   4 1275.15   42.13
  -2   2   4 1326.81   31.18
  -2   2   4 1221.12   38.37
  -2   2   5  990.63   28.22
  -2   2   5  984.25   37.05
  -2   2   6 1276.91   46.79
  -2   2   6 1313.93   37.06
  -2   2   7  219.22   14.88
  -2   2   7  195.45   18.66
  -2   3 -10  140.96   22.97
  -2   3  -9   18.38    9.15
  -2   3  -8   91.55   16.28
  -2   3  -7   28.69    9.01
  -2   3  -6   51.33   10.90
  -2   3  -5    3.85    4.15
  -2   3  -4  501.26   28.21
  -2   3  -4  423.25   22.10
  -2   3  -3  377.09   20.15
  -2   3  -3  399.97   22.58
  -2   3  -2  187.17   13.87
  -2   3  -2  220.32   10.78
  -2   3  -1  132.71   11.51
  -2   3   0   91.09    8.98
  -2   3   1  106.44    6.02
  -2   3   1  102.31    8.93
  -2   3   2   73.04    6.16
  -2   3   2   65.33    6.91
  -2   3   3  543.74   21.68
  -2   3   3  514.82   20.13
  -2   3   4   13.32    3.13
  -2   3   4   17.02    4.41
  -2   3   4   13.82    3.47
  -2   3   5  322.09   21.27
  -2   3   5  306.44   15.52
  -2   3   5  325.02   18.83
  -2   3   6   11.42    4.29
  -2   3   6   10.51    3.16
  -2   3   7  403.13   20.76
  -2   3   7  418.67   26.03
  -2   4  -9   43.21   12.09
  -2   4  -8   49.50   12.31
  -2   4  -7  143.35   19.72
  -2   4  -6   26.08    7.80
  -2   4  -5   69.10   11.44
  -2   4  -4  321.12   22.81
  -2   4  -3   16.96    5.07
  -2   4  -2  102.37    9.96
  -2   4  -2  108.43    7.81
  -2   4  -1    4.13    1.85
  -2   4   1  885.53   18.70
  -2   4   1  944.04   33.43
  -2   4   2 1065.96   25.06
  -2   4   2 1088.20   35.77
  -2   4   3 1217.15   32.80
  -2   4   3 1255.27   38.43
  -2   4   4  527.65   23.56
  -2   4   4  545.51   23.80
  -2   4   4  553.58   20.82
  -2   4   5    3.98    2.46
  -2   4   5    1.93    1.80
  -2   4   6  106.20   10.36
  -2   4   6  124.22   11.83
  -2   5  -9   49.96   13.18
  -2   5  -8    1.93    3.17
  -2   5  -7   57.26   12.44
  -2   5  -6   11.14    5.38
  -2   5  -5   14.04    5.26
  -2   5  -4   92.77   12.27
  -2   5  -3   82.50   10.29
  -2   5  -2   26.56    3.94
  -2   5  -2   28.23    5.23
  -2   5  -1   37.41    4.65
  -2   5   4  328.43   14.77
  -2   5   5  100.35    8.63
  -2   5   6  283.90   16.24
  -2   6  -6   14.97    6.28
  -2   6  -5   -1.00    2.45
  -2   6  -4   71.19   10.56
  -2   6  -3    9.09    3.43
  -2   6  -2  286.94   15.89
  -2   6  -2  270.22   13.65
  -2   6  -1  240.27   10.51
  -2   6   5    0.64    1.08
  -1 -11  -7   19.84    7.99
  -1 -11  -6   13.47    7.38
  -1 -11  -6   21.37    7.97
  -1 -11  -5   19.72    7.97
  -1 -11  -5    9.83    5.75
  -1 -11  -4   84.68   16.38
  -1 -11  -3    7.44    4.71
  -1 -11  -2   35.05   10.93
  -1 -10  -9   11.01    5.78
  -1 -10  -8   58.93   14.05
  -1 -10  -8   49.45   13.15
  -1 -10  -7   35.28   10.14
  -1 -10  -7   28.71   10.01
  -1 -10  -6   13.90    7.10
  -1 -10  -6   25.04    7.90
  -1 -10  -5   45.46   12.09
  -1 -10  -5   50.57   11.28
  -1 -10  -4  148.25   20.29
  -1 -10  -3   38.49   10.33
  -1 -10  -2   13.65    7.15
  -1 -10  -1   99.16   16.46
  -1 -10   0   46.76   11.93
  -1 -10   1   63.77   14.17
  -1 -10   2   17.53    8.09
  -1  -9 -10   60.50   15.01
  -1  -9  -9   17.93    7.99
  -1  -9  -8   57.33   13.15
  -1  -9  -8   71.82   14.55
  -1  -9  -7   58.74   12.71
  -1  -9  -7   71.09   14.12
  -1  -9  -6   50.56   12.25
  -1  -9  -6   30.28    8.95
  -1  -9  -5   48.09   11.28
  -1  -9  -5   64.23   12.19
  -1  -9  -4  138.09   18.35
  -1  -9  -3    5.60    4.63
  -1  -9  -2   38.81   10.00
  -1  -9  -1   76.97   13.88
  -1  -9   0   64.65   12.96
  -1  -9   1    8.29    5.83
  -1  -9   2   15.03    6.45
  -1  -9   3   58.79   12.93
  -1  -9   4   57.68   13.27
  -1  -8 -10   14.90    7.59
  -1  -8  -9    6.02    4.20
  -1  -8  -8   46.63    9.64
  -1  -8  -8   36.58   10.29
  -1  -8  -7   36.58    7.91
  -1  -8  -7   40.06   10.18
  -1  -8  -7   25.95    8.17
  -1  -8  -6    2.43    2.16
  -1  -8  -6    2.37    2.05
  -1  -8  -6    3.53    2.93
  -1  -8  -5  106.29   10.09
  -1  -8  -5   94.76   13.61
  -1  -8  -5   93.75   14.68
  -1  -8  -4  157.83    9.94
  -1  -8  -4  140.06   17.14
  -1  -8  -3    3.40    4.21
  -1  -8  -2 1011.69   46.88
  -1  -8  -1  304.66   25.22
  -1  -8   0  108.34   15.42
  -1  -8   1   66.39   11.98
  -1  -8   2    6.06    5.08
  -1  -8   3   -2.95    4.49
  -1  -8   4  158.86   20.51
  -1  -8   5   14.94    6.54
  -1  -8   6   23.39    8.55
  -1  -7 -12   56.78   14.56
  -1  -7 -11   44.43   12.56
  -1  -7 -10   84.31   15.67
  -1  -7  -9  196.62   22.45
  -1  -7  -9  218.26   24.92
  -1  -7  -8   15.13    6.14
  -1  -7  -8   10.72    6.11
  -1  -7  -7   68.14   12.43
  -1  -7  -7   72.34   11.38
  -1  -7  -7   78.77   13.75
  -1  -7  -6    4.92    3.55
  -1  -7  -6    4.59    4.43
  -1  -7  -6   -1.05    3.30
  -1  -7  -5  170.21   17.37
  -1  -7  -5  212.54   15.53
  -1  -7  -5  193.59   19.49
  -1  -7  -4    3.23    2.91
  -1  -7  -3  513.95   30.30
  -1  -7  -2    6.33    3.45
  -1  -7  -2    7.80    1.75
  -1  -7  -1   25.70    7.15
  -1  -7  -1   18.69    2.93
  -1  -7   0   56.31    6.16
  -1  -7   0   51.18   10.17
  -1  -7   1   26.63    7.43
  -1  -7   1   26.48    5.10
  -1  -7   2   89.95   13.73
  -1  -7   3  230.77   22.64
  -1  -7   4   39.61    9.67
  -1  -7   5    4.75    3.62
  -1  -7   6  109.89   17.02
  -1  -7   7   -0.75    3.18
  -1  -6 -12  107.21   20.59
  -1  -6 -11   17.16    7.36
  -1  -6 -10  409.20   35.36
  -1  -6  -9    6.91    5.98
  -1  -6  -8   -0.88    2.68
  -1  -6  -8    9.18    5.06
  -1  -6  -7  275.78   23.02
  -1  -6  -7  262.40   23.31
  -1  -6  -6  340.38   25.38
  -1  -6  -6  328.07   22.77
  -1  -6  -6  275.94   22.39
  -1  -6  -5  442.04   26.49
  -1  -6  -5  455.38   28.45
  -1  -6  -4  132.66   13.54
  -1  -6  -4  154.85   15.64
  -1  -6  -3  187.83   16.61
  -1  -6  -2   15.04    2.53
  -1  -6  -2    8.08    3.61
  -1  -6  -1   63.50    9.72
  -1  -6  -1   60.11    5.31
  -1  -6   0   84.60    7.55
  -1  -6   0   79.96   11.19
  -1  -6   1  196.06   13.43
  -1  -6   1  171.65   16.96
  -1  -6   2    7.92    3.38
  -1  -6   2   -0.55    2.52
  -1  -6   3  350.69   25.68
  -1  -6   4    5.68    3.33
  -1  -6   5  371.20   28.63
  -1  -6   6   12.72    6.27
  -1  -6   7    4.80    3.35
  -1  -6   8   12.33    6.01
  -1  -5 -12   50.74   14.08
  -1  -5 -11  127.41   21.32
  -1  -5 -10   38.56   11.30
  -1  -5  -9  292.01   28.08
  -1  -5  -8   37.96    9.22
  -1  -5  -8   41.09    9.93
  -1  -5  -7   54.74   10.29
  -1  -5  -7   50.26   10.18
  -1  -5  -7   56.98    6.92
  -1  -5  -6  241.03   11.63
  -1  -5  -6  253.61   20.24
  -1  -5  -6  225.10   19.20
  -1  -5  -5   35.77    7.07
  -1  -5  -5   47.16    8.44
  -1  -5  -4  138.40   12.63
  -1  -5  -4  138.38   14.12
  -1  -5  -3   88.66   10.56
  -1  -5  -2 2607.09   66.02
  -1  -5  -1    3.91    2.28
  -1  -5  -1    6.54    1.76
  -1  -5   0  585.62   20.12
  -1  -5   0  568.81   27.96
  -1  -5   1 1104.23   33.96
  -1  -5   1 1084.37   40.86
  -1  -5   2   68.82    8.94
  -1  -5   2   64.39    9.83
  -1  -5   3  103.58   12.33
  -1  -5   3  113.44   13.31
  -1  -5   4   94.24   12.75
  -1  -5   5    7.03    4.43
  -1  -5   6  168.58   18.66
  -1  -5   7   66.14   12.21
  -1  -5   8   97.91   15.35
  -1  -5   9   43.75   10.66
  -1  -4 -12  -14.68    7.91
  -1  -4 -11   72.06   16.01
  -1  -4 -10   34.49   10.63
  -1  -4  -9  227.44   25.08
  -1  -4  -8   44.02   10.55
  -1  -4  -7    6.05    3.10
  -1  -4  -7    2.14    3.44
  -1  -4  -6  294.06   22.40
  -1  -4  -6  280.45   21.17
  -1  -4  -6  310.36   17.09
  -1  -4  -5   92.66   10.92
  -1  -4  -5   92.54    7.58
  -1  -4  -4   11.14    3.64
  -1  -4  -4    4.68    2.76
  -1  -4  -4    8.08    1.64
  -1  -4  -3  251.00   14.63
  -1  -4  -3  266.68   16.90
  -1  -4  -2   11.11    3.24
  -1  -4  -1 2106.04   52.91
  -1  -4   0  140.37    8.54
  -1  -4   0  131.94   11.51
  -1  -4   1  248.52   13.95
  -1  -4   1  234.68   16.16
  -1  -4   2   24.63    5.12
  -1  -4   2   21.68    5.19
  -1  -4   3   10.05    4.04
  -1  -4   3    6.76    3.67
  -1  -4   4  282.42   20.13
  -1  -4   5  125.08   13.97
  -1  -4   6  744.76   36.98
  -1  -4   7   24.76    6.93
  -1  -4   8   83.92   13.67
  -1  -4   9   70.84   13.07
  -1  -4  10    9.91    5.29
  -1  -3 -12   50.24   14.43
  -1  -3 -11   76.08   16.94
  -1  -3 -10  284.84   30.57
  -1  -3  -9   18.87    6.72
  -1  -3  -8  181.21   21.16
  -1  -3  -7   10.84    3.90
  -1  -3  -7   14.61    5.93
  -1  -3  -6   33.53    6.30
  -1  -3  -6   34.07    7.40
  -1  -3  -5  763.28   27.52
  -1  -3  -5  695.24   30.80
  -1  -3  -4   54.33    7.10
  -1  -3  -3  681.01   26.05
  -1  -3  -3  652.14   23.27
  -1  -3  -2  530.67   20.95
  -1  -3  -1 2296.52   50.90
  -1  -3  -1 2296.69   43.34
  -1  -3   0    1.43    1.59
  -1  -3   0    2.27    1.16
  -1  -3   0    1.26    1.48
  -1  -3   1  899.18   27.25
  -1  -3   1  936.56   29.94
  -1  -3   1  915.11   31.08
  -1  -3   2  696.21   27.21
  -1  -3   2  802.95   28.12
  -1  -3   3    1.72    2.50
  -1  -3   3    0.33    1.60
  -1  -3   4   30.19    5.80
  -1  -3   5  328.13    8.83
  -1  -3   5  363.73   21.78
  -1  -3   6    1.66    2.62
  -1  -3   7  130.58   14.79
  -1  -3   8   11.54    5.88
  -1  -3   9  101.04   14.69
  -1  -3  10   32.23    8.82
  -1  -3  11   -0.62    1.66
  -1  -2 -11   12.29    8.31
  -1  -2 -10   88.43   17.02
  -1  -2  -9   44.62   11.55
  -1  -2  -8  116.85   17.06
  -1  -2  -7  305.99   25.86
  -1  -2  -6  313.24   23.85
  -1  -2  -6  289.30   20.28
  -1  -2  -3    1.09    1.18
  -1  -2  -2 1309.76   29.38
  -1  -2  -2 1333.60   33.91
  -1  -2  -1  282.76   12.08
  -1  -2   0 9908.88  154.38
  -1  -2   0 9999.00  157.77
  -1  -2   1 1459.16   34.88
  -1  -2   1 1472.02   34.48
  -1  -2   1 1478.09   38.14
  -1  -2   2  631.21   24.21
  -1  -2   2  643.60   21.66
  -1  -2   2  631.29   13.57
  -1  -2   3 1268.55   41.50
  -1  -2   3 1290.45   35.63
  -1  -2   4   88.30   11.45
  -1  -2   4   77.94    8.41
  -1  -2   5  538.77   24.93
  -1  -2   6  102.49   11.29
  -1  -2   7  120.25   13.39
  -1  -2   8    3.47    3.07
  -1  -2   9   74.01   12.41
  -1  -2  10   40.60    9.39
  -1  -2  11   -1.37    4.17
  -1  -1 -11   24.19    9.85
  -1  -1 -10   68.62   15.25
  -1  -1  -9   38.69   11.44
  -1  -1  -8   36.29    9.71
  -1  -1  -7  374.46   29.10
  -1  -1  -6    4.91    4.06
  -1  -1  -5   40.04    8.10
  -1  -1   1    5.71    1.08
  -1  -1   1    3.94    1.11
  -1  -1   2  692.20   18.86
  -1  -1  11   93.37   14.73
  -1   0 -11   90.01   18.35
  -1   0 -10  115.87   20.01
  -1   0  -9   79.85   15.19
  -1   0  -8   23.76    7.72
  -1   0  -7   41.12   10.03
  -1   0  -6    2.89    3.75
  -1   0  -5  404.34   25.59
  -1   0  -4 1453.41   36.27
  -1   0  -3 3806.18   69.77
  -1   0  -2 4747.21   80.67
  -1   0   2 2272.07   49.19
  -1   0   3  259.46   15.42
  -1   0   4  344.91   20.35
  -1   0   5   58.36    4.88
  -1   0   6    2.76    1.45
  -1   0   7   61.35    5.57
  -1   0   8  202.73   10.58
  -1   1 -11   -9.02    6.44
  -1   1 -10   42.35   11.93
  -1   1  -9   80.33   15.88
  -1   1  -8   35.47   10.52
  -1   1  -7  100.18   15.39
  -1   1  -6  518.61   32.81
  -1   1  -5 1231.83   47.73
  -1   1  -5 1203.96   33.55
  -1   1  -4 1766.46   53.89
  -1   1  -4 1740.04   40.83
  -1   1  -3 1199.38   29.78
  -1   1  -2   88.24    6.30
  -1   1  -1 2115.75   42.47
  -1   1  -1 2205.29   38.31
  -1   1   0  705.71   17.69
  -1   1   1 1870.82   35.50
  -1   1   1 1916.86   34.30
  -1   1   2 1042.65   27.95
  -1   1   2 1025.68   21.46
  -1   1   2  982.21   24.95
  -1   1   3 2539.53   57.70
  -1   1   3 2483.74   47.45
  -1   1   4  199.10   15.18
  -1   1   4  202.32   14.21
  -1   1   7   89.31    8.45
  -1   1   8   60.54    6.89
  -1   1   9  150.51   11.52
  -1   2 -10    0.63    3.20
  -1   2  -9   13.18    6.71
  -1   2  -8   52.13   12.16
  -1   2  -7  280.37   26.18
  -1   2  -6  401.00   29.15
  -1   2  -6  402.26   19.00
  -1   2  -5  739.35   36.88
  -1   2  -5  667.37   24.06
  -1   2  -4 1453.31   48.61
  -1   2  -4 1331.59   35.46
  -1   2  -3  476.70   23.26
  -1   2  -3  454.26   17.76
  -1   2  -2   38.97    5.49
  -1   2  -2   34.57    4.60
  -1   2  -1   39.99    4.90
  -1   2   0   42.22    4.81
  -1   2   1    4.10    1.02
  -1   2   1    3.08    1.12
  -1   2   2  153.78    8.68
  -1   2   2  130.44    7.79
  -1   2   3    2.27    1.24
  -1   2   3    5.84    2.07
  -1   2   3    4.72    1.81
  -1   2   4  122.32   11.38
  -1   2   4  110.07    8.46
  -1   2   4  121.68    9.87
  -1   2   5  897.05   29.64
  -1   2   5  893.93   33.17
  -1   2   6  598.39   25.80
  -1   2   9   53.44    7.75
  -1   3 -10   12.81    7.35
  -1   3  -9  286.87   30.79
  -1   3  -8  455.42   36.70
  -1   3  -7   40.03   10.36
  -1   3  -6    2.26    3.10
  -1   3  -6    3.66    1.97
  -1   3  -5  135.58   15.61
  -1   3  -5  150.28   11.35
  -1   3  -4  269.85   20.17
  -1   3  -4  300.43   16.01
  -1   3  -3  366.37   17.61
  -1   3  -3  380.69   21.36
  -1   3  -2  362.97   17.93
  -1   3  -2  373.46   17.67
  -1   3  -2  361.35   10.90
  -1   3  -1  516.87   17.82
  -1   3   0  642.40   14.81
  -1   3   1 1225.39   34.54
  -1   3   2  158.98   10.72
  -1   3   3    5.40    2.35
  -1   3   3    1.85    0.96
  -1   3   4    2.69    1.67
  -1   3   4    2.28    1.67
  -1   3   5  205.63   13.60
  -1   3   5  243.93   14.45
  -1   3   6  908.99   32.64
  -1   3  10   77.60   10.65
  -1   4 -10   82.26   17.15
  -1   4  -9   13.59    7.87
  -1   4  -8   54.03   12.57
  -1   4  -7   33.23    9.17
  -1   4  -6   27.66    7.71
  -1   4  -5  241.28   21.33
  -1   4  -5  266.04   16.77
  -1   4  -4   65.00   10.16
  -1   4  -4   79.04    8.93
  -1   4  -3  194.49   15.36
  -1   4  -3  187.97   13.85
  -1   4  -2  216.74   13.78
  -1   4  -2  205.69   14.49
  -1   4  -2  200.88    8.34
  -1   4  -1  515.65   18.01
  -1   4   1    3.02    2.54
  -1   4   2  364.82   19.00
  -1   4   3  570.09   24.13
  -1   4   4  434.53   20.69
  -1   4   4  396.61   14.43
  -1   4   5  799.82   29.91
  -1   5  -9   -0.42    2.96
  -1   5  -8   98.15   17.32
  -1   5  -7   39.01   10.16
  -1   5  -6    4.09    3.32
  -1   5  -5  103.22   14.06
  -1   5  -4  194.77   17.34
  -1   5  -3   53.72    8.04
  -1   5  -2  177.83   12.44
  -1   5  -2  167.28    8.20
  -1   5  -1  198.31   10.15
  -1   5   4   37.08    3.02
  -1   6  -7   84.37   15.11
  -1   6  -6   38.91    9.28
  -1   6  -5  120.91   15.07
  -1   6  -4   65.61    9.98
  -1   6  -3    4.70    3.15
  -1   6  -2  171.99   11.89
  -1   6  -2  162.98    8.51
  -1   6  -1    4.46    1.35
  -1   7   1  144.96   13.24
  -1   7   2  186.38   12.69
  -1   7   3  353.11   13.08
   0 -11  -6    5.30    5.28
   0 -11  -5   16.17    6.91
   0 -11  -5   15.04    8.36
   0 -11  -4   12.32    6.83
   0 -11  -3   57.77   13.70
   0 -10  -8    4.02    2.97
   0 -10  -8    6.25    4.57
   0 -10  -7   46.11   12.26
   0 -10  -7   75.37   15.25
   0 -10  -6   57.54   13.21
   0 -10  -6   38.60   10.75
   0 -10  -5   17.42    7.73
   0 -10  -5   18.73    8.11
   0 -10  -4   28.44    9.27
   0 -10  -3    5.77    4.64
   0 -10  -2   21.35    8.15
   0 -10  -1   19.56    8.06
   0 -10   0   30.05   10.17
   0 -10   1   16.25    7.38
   0  -9 -10   -4.48    4.93
   0  -9  -9   -4.98    4.70
   0  -9  -8   37.79   10.57
   0  -9  -8   46.14   12.12
   0  -9  -7   22.68    8.14
   0  -9  -7   26.46    9.10
   0  -9  -6  136.63   18.88
   0  -9  -6  117.17   17.44
   0  -9  -5  219.48   23.09
   0  -9  -5  189.47   21.72
   0  -9  -4   35.56    9.53
   0  -9  -3   25.00    7.95
   0  -9  -2   92.22   15.18
   0  -9  -1   34.67    9.66
   0  -9   0   41.50   10.54
   0  -9   1   79.87   14.62
   0  -9   2  118.95   18.25
   0  -9   3   77.44   15.18
   0  -8 -10   37.59   12.11
   0  -8  -9    4.29    3.79
   0  -8  -8   75.49   14.85
   0  -8  -8   98.67   16.34
   0  -8  -7   -3.34    3.86
   0  -8  -7   -1.72    2.92
   0  -8  -6  138.08   18.14
   0  -8  -6  128.30   17.36
   0  -8  -5  206.54   21.23
   0  -8  -5  224.01   22.12
   0  -8  -4   12.78    6.46
   0  -8  -3  144.01   17.07
   0  -8  -2   28.94    7.97
   0  -8  -1  292.97   24.91
   0  -8   0  214.16   21.51
   0  -8   1   18.07    6.98
   0  -8   2   75.55   14.00
   0  -8   3   19.18    7.22
   0  -8   4    3.95    3.72
   0  -8   5   17.86    8.09
   0  -7 -11    1.24    4.00
   0  -7 -10   93.48   17.53
   0  -7 -10  109.12   17.33
   0  -7  -9   -1.36    3.20
   0  -7  -9    7.92    6.25
   0  -7  -8  170.96   18.66
   0  -7  -8  204.14   23.30
   0  -7  -7  373.75   24.89
   0  -7  -7  350.99   27.89
   0  -7  -7  383.74   30.73
   0  -7  -6  106.32   11.56
   0  -7  -6   97.88   14.65
   0  -7  -6   72.75   12.14
   0  -7  -5  136.81   16.16
   0  -7  -5  179.11   18.70
   0  -7  -5  155.89   11.74
   0  -7  -4   27.85    7.30
   0  -7  -4   23.74    3.25
   0  -7  -3   -2.54    2.76
   0  -7  -2  220.95   19.87
   0  -7  -1  125.33   14.94
   0  -7   0  234.02   21.36
   0  -7   1   14.31    6.09
   0  -7   2  123.44   16.67
   0  -7   3   17.30    6.79
   0  -7   4    1.90    4.24
   0  -7   5  151.36   19.81
   0  -7   6    5.47    4.70
   0  -7   7   17.50    7.17
   0  -6 -12   -2.61    5.52
   0  -6 -11   70.54   15.18
   0  -6 -10    6.23    4.81
   0  -6  -9   98.17   16.47
   0  -6  -9  136.06   18.14
   0  -6  -8  104.83   14.93
   0  -6  -8   80.95   14.62
   0  -6  -7  353.22   25.21
   0  -6  -7  359.51   28.37
   0  -6  -6  151.95   14.66
   0  -6  -6  145.65   16.65
   0  -6  -6  152.49   17.24
   0  -6  -5  333.92   24.05
   0  -6  -5  361.92   20.07
   0  -6  -5  361.41   24.63
   0  -6  -4   48.09    5.82
   0  -6  -4   43.14    8.18
   0  -6  -4   58.30    9.27
   0  -6  -3   77.91   10.68
   0  -6  -3   76.69    5.01
   0  -6  -2  865.05   37.25
   0  -6  -1    6.38    3.44
   0  -6   0  144.76   15.19
   0  -6   1   10.37    4.86
   0  -6   2   -0.62    2.31
   0  -6   3  188.66   19.42
   0  -6   4  266.44   23.72
   0  -6   5   72.83   13.08
   0  -6   6  112.35   16.82
   0  -6   7   11.09    5.39
   0  -6   8   19.64    7.88
   0  -5 -12    2.04    3.84
   0  -5 -11   37.11   11.75
   0  -5 -10  269.35   28.48
   0  -5  -9  158.36   20.40
   0  -5  -8   21.03    7.59
   0  -5  -8   15.33    5.37
   0  -5  -7  286.02   22.97
   0  -5  -7  259.80   23.13
   0  -5  -6  457.92   26.54
   0  -5  -6  403.74   25.66
   0  -5  -6  391.74   26.74
   0  -5  -5  142.03   12.83
   0  -5  -5  119.82   13.14
   0  -5  -5  115.90   13.18
   0  -5  -4    5.37    3.83
   0  -5  -4   11.10    4.56
   0  -5  -4    4.77    2.62
   0  -5  -3  538.72   18.17
   0  -5  -3  535.33   26.09
   0  -5  -2  121.64   12.09
   0  -5  -1   19.16    4.79
   0  -5   0   32.49    6.46
   0  -5   1  229.40   18.51
   0  -5   2  136.32   14.13
   0  -5   3  504.46   29.23
   0  -5   4   96.48   13.16
   0  -5   5  196.10   19.58
   0  -5   6   79.15   13.01
   0  -5   7    2.12    3.41
   0  -5   8   33.03    9.13
   0  -5   9   49.79   12.06
   0  -4 -12   55.60   14.45
   0  -4 -11   50.62   13.30
   0  -4 -10  384.90   34.45
   0  -4  -9    0.04    3.37
   0  -4  -8  233.41   23.07
   0  -4  -8  192.18   16.39
   0  -4  -7  156.08   17.40
   0  -4  -7  143.66   12.42
   0  -4  -6  483.60   28.16
   0  -4  -6  417.79   27.13
   0  -4  -6  436.79   19.09
   0  -4  -5  156.32   14.06
   0  -4  -5  124.04   12.44
   0  -4  -5  156.93   14.99
   0  -4  -4    1.02    2.72
   0  -4  -4    2.19    2.38
   0  -4  -4   -0.46    1.18
   0  -4  -3   64.29    8.07
   0  -4  -3   72.42    6.78
   0  -4  -2  785.82   19.26
   0  -4  -2  777.98   28.58
   0  -4  -1  263.33   16.32
   0  -4   0  308.17   10.63
   0  -4   0  335.20   18.87
   0  -4   1  119.11   11.66
   0  -4   2    6.90    3.96
   0  -4   3    2.94    2.22
   0  -4   4  100.11   12.29
   0  -4   5  599.75   32.68
   0  -4   6   31.92    7.80
   0  -4   7   54.34   10.70
   0  -4   8   66.66   12.86
   0  -4   9   86.72   15.10
   0  -4  10   67.66   14.03
   0  -3 -12   51.66   14.40
   0  -3 -11  274.65   31.28
   0  -3 -10   39.54   11.15
   0  -3  -9  562.63   39.92
   0  -3  -8   62.22   12.31
   0  -3  -7   22.70    7.05
   0  -3  -7   32.02    6.88
   0  -3  -6   55.21    9.43
   0  -3  -6   57.16    9.65
   0  -3  -6   55.15    7.69
   0  -3  -5   16.29    4.45
   0  -3  -5   20.53    5.73
   0  -3  -5   16.44    3.79
   0  -3  -4   26.03    5.46
   0  -3  -4   26.13    5.12
   0  -3  -4   24.91    3.35
   0  -3  -4   24.54    4.93
   0  -3  -3  362.10   17.57
   0  -3  -3  336.61   15.92
   0  -3  -3  361.47   17.38
   0  -3  -2 3916.25   75.83
   0  -3  -1  287.34   14.44
   0  -3   0 2874.10   49.09
   0  -3   0 2925.49   63.00
   0  -3   1 1033.30   27.74
   0  -3   1 1081.59   33.22
   0  -3   2  794.65   27.96
   0  -3   2  800.73   29.34
   0  -3   3  236.15   16.04
   0  -3   4  406.17   22.99
   0  -3   5  110.39   12.53
   0  -3   6  353.18   24.35
   0  -3   7   17.18    6.29
   0  -3   8   93.68   13.73
   0  -3   9   48.36   10.63
   0  -3  10   32.85    9.42
   0  -3  11   12.71    6.12
   0  -2 -12   36.30   12.40
   0  -2 -11  170.26   24.98
   0  -2 -10   84.48   16.59
   0  -2  -9   55.06   12.71
   0  -2  -8    4.49    3.48
   0  -2  -7  246.49   22.72
   0  -2  -6  322.20   23.81
   0  -2  -6  331.03   21.25
   0  -2  -5  616.04   30.24
   0  -2  -5  647.07   27.08
   0  -2  -4   22.42    4.95
   0  -2  -4   27.25    5.38
   0  -2  -4   35.58    5.12
   0  -2  -3   -0.01    1.71
   0  -2  -3    3.06    1.53
   0  -2  -3   -0.87    1.39
   0  -2  -3    2.53    1.16
   0  -2  -2 3731.33   68.23
   0  -2  -2 3632.76   68.07
   0  -2  -1 2818.44   53.45
   0  -2   0   21.12    3.36
   0  -2   1  728.29   20.95
   0  -2   1  755.17   23.23
   0  -2   2  875.05   28.29
   0  -2   2  910.37   27.85
   0  -2   3  996.74   31.79
   0  -2   9   46.84   10.33
   0  -2  10   72.14   13.12
   0  -2  11   35.73    9.73
   0  -1 -11   70.37   15.66
   0  -1 -10  176.05   24.20
   0  -1  -9  129.56   19.08
   0  -1  -8  621.39   40.07
   0  -1  -7    8.98    4.19
   0  -1  -6   85.24   12.43
   0  -1  -5  621.46   31.04
   0  -1  -5  642.76   29.03
   0  -1  -4  566.82   26.50
   0  -1  -4  572.77   24.05
   0  -1  -3 1096.02   33.71
   0  -1  -3 1116.63   31.08
   0  -1  -2   11.60    2.07
   0  -1  -2   11.34    2.81
   0  -1  -2   11.06    2.58
   0  -1   1 1525.44   32.54
   0  -1   1 1566.26   31.84
   0  -1   2 1366.20   35.45
   0  -1   2 1324.94   25.30
   0  -1   3  474.46   13.02
   0  -1   4   47.40    4.03
   0  -1   5  112.11    6.93
   0  -1   6  128.01    7.92
   0  -1   7  751.27   22.39
   0  -1   8    3.44    1.59
   0  -1  12   -1.45    2.10
   0   0 -11   41.05   12.87
   0   0 -10  217.75   27.20
   0   0  -9   72.14   14.66
   0   0  -8   12.07    6.06
   0   0  -7  121.80   16.94
   0   0  -6   25.60    7.49
   0   0  -5  121.70   13.60
   0   0  -5  137.64   13.99
   0   0  -4   33.33    6.12
   0   0  -4   31.86    6.36
   0   0  -3   19.77    4.09
   0   0  -3   17.81    4.10
   0   0  -2 1243.89   32.31
   0   0  -2 1275.55   31.84
   0   0   2 1260.46   24.44
   0   0   3   18.92    2.53
   0   0   4   32.86    3.74
   0   0   5  148.39    8.82
   0   0   6   24.59    3.92
   0   0   7  129.87    9.39
   0   0   8   25.00    4.44
   0   1 -11    7.55    5.25
   0   1 -10   20.33    8.89
   0   1  -9  108.19   18.21
   0   1  -8    0.54    4.25
   0   1  -7  757.19   42.77
   0   1  -6  133.33   15.98
   0   1  -5  107.59   13.41
   0   1  -4   42.14    7.47
   0   1  -4   34.62    6.76
   0   1  -4   51.07    4.27
   0   1  -3  477.42   22.51
   0   1  -3  485.21   13.45
   0   1  -3  482.55   23.33
   0   1  -2 1413.25   36.25
   0   1  -2 1355.96   25.76
   0   1   2    6.34    1.64
   0   1   3 1097.06   32.03
   0   1   4  566.21   24.83
   0   1   6   76.67    7.70
   0   1   7   12.94    3.49
   0   1   8  699.99   27.16
   0   1   9  147.71   12.08
   0   2 -10   87.59   17.40
   0   2  -9   48.02   12.77
   0   2  -8   65.46   13.77
   0   2  -7  176.20   20.60
   0   2  -6  283.50   24.00
   0   2  -5 1171.63   47.06
   0   2  -5 1124.44   27.71
   0   2  -4 1855.56   56.77
   0   2  -4 1900.42   38.45
   0   2  -3  995.08   35.15
   0   2  -3  976.23   23.57
   0   2  -3  981.99   37.43
   0   2  -2  869.11   28.08
   0   2  -2  893.46   22.02
   0   2  -2  865.09   31.05
   0   2  -1  719.37   20.34
   0   2   2 3812.84   68.58
   0   2   3    1.22    1.29
   0   2   3    0.69    1.25
   0   2   4   26.55    5.00
   0   2   4   34.63    5.15
   0   2   5  628.70   26.08
   0   2   5  638.27   28.66
   0   2   6  313.44   19.63
   0   2   8    3.81    2.60
   0   2   9   47.16    7.77
   0   3 -10   33.82   11.39
   0   3  -9   15.19    7.27
   0   3  -8   88.67   15.57
   0   3  -7   25.86    8.30
   0   3  -6  336.56   26.76
   0   3  -6  305.52   13.50
   0   3  -5  114.67   14.31
   0   3  -5  126.27    8.34
   0   3  -4  408.96   24.58
   0   3  -4  402.09   15.84
   0   3  -3  250.93   16.90
   0   3  -3  232.87   11.89
   0   3  -2  789.09   27.32
   0   3  -2  805.67   32.35
   0   3  -1 1026.44   26.48
   0   3  -1  982.08   32.27
   0   3   0 2905.87   47.82
   0   3   2 4071.94   77.59
   0   3   3  364.28   16.55
   0   3   4   28.92    4.79
   0   3   4   28.97    5.07
   0   3   5   26.76    5.20
   0   3   9  479.37   26.95
   0   3  10   53.28    9.02
   0   4 -10   16.86    7.76
   0   4  -9   86.75   16.98
   0   4  -8   69.93   13.96
   0   4  -7   57.44   12.15
   0   4  -6   36.26    9.08
   0   4  -5  636.92   34.69
   0   4  -5  552.47   21.34
   0   4  -4   95.56   11.94
   0   4  -4  106.40    8.99
   0   4  -3    3.69    2.77
   0   4  -3    2.76    1.62
   0   4  -2    1.39    2.16
   0   4  -2    4.99    2.51
   0   4  -1  130.75    8.33
   0   4  -1  122.25   11.60
   0   4   0  314.22   16.14
   0   4   1  254.32   11.65
   0   4   3   77.18    8.42
   0   4   4   -0.93    1.62
   0   4  10  336.34   24.69
   0   5  -9   59.34   14.18
   0   5  -8   60.04   13.10
   0   5  -7    3.02    4.41
   0   5  -6   76.25   12.90
   0   5  -5  187.17   18.54
   0   5  -4   82.94   11.11
   0   5  -4   76.31    8.68
   0   5  -3  475.35   24.30
   0   5  -3  450.26   22.28
   0   5  -2  123.34   10.25
   0   5  -1  213.57   10.80
   0   5  -1  198.72   16.24
   0   5   0   36.53    6.11
   0   5   1   18.63    3.71
   0   5   2   94.70    5.71
   0   5  11   44.03    9.67
   0   6  -9   -0.42    4.54
   0   6  -8   26.34    8.87
   0   6  -7    5.03    3.97
   0   6  -6   59.93   11.57
   0   6  -5   82.84   12.58
   0   6  -4  242.04   19.19
   0   6  -3  185.18   14.80
   0   6  -2    1.85    1.60
   0   6   0  149.42   13.55
   0   6   1   11.60    3.07
   0   6   2  881.88   24.00
   0   7  -5  139.10   15.82
   0   7  -4    4.75    3.48
   0   7  -3   19.75    4.76
   0   7  -2  131.62   10.05
   0   7   0  243.32   18.69
   0   7   1  149.48   12.61
   0   7   2  218.87   11.96
   1 -11  -5   33.77   10.56
   1 -10  -8   70.90   15.33
   1 -10  -7   45.13   12.02
   1 -10  -7   40.25   12.09
   1 -10  -6   69.33   14.28
   1 -10  -6   63.09   14.50
   1 -10  -5   11.80    6.98
   1 -10  -5    4.24    4.01
   1 -10  -4    4.06    4.12
   1 -10  -3    5.28    2.60
   1 -10  -2   41.42   10.91
   1 -10  -1   53.41   12.59
   1 -10   0   15.60    6.88
   1  -9  -9   43.33   12.67
   1  -9  -8   13.26    7.12
   1  -9  -8    7.75    4.16
   1  -9  -7    2.24    4.88
   1  -9  -7    2.13    2.50
   1  -9  -6   75.89   14.62
   1  -9  -6   72.87   14.61
   1  -9  -5    2.32    3.39
   1  -9  -5    8.97    6.12
   1  -9  -4   16.60    6.59
   1  -9  -3   93.09   14.68
   1  -9  -2  210.76   22.50
   1  -9  -1    9.05    5.55
   1  -9   0   16.29    6.79
   1  -9   1   -5.03    5.10
   1  -9   2   41.50   10.82
   1  -9   3   21.31    8.61
   1  -8 -10   28.59   10.71
   1  -8  -9   80.99   16.70
   1  -8  -8    4.27    4.33
   1  -8  -8    6.79    5.44
   1  -8  -7   26.48    9.12
   1  -8  -7   32.91    8.63
   1  -8  -6   21.90    7.40
   1  -8  -6   29.51    8.76
   1  -8  -5   39.45    9.23
   1  -8  -5   31.65    9.09
   1  -8  -4    1.87    5.01
   1  -8  -3  129.11   16.70
   1  -8  -2  191.25   20.28
   1  -8  -1  301.13   25.51
   1  -8   0   -3.70    4.03
   1  -8   1   19.61    7.31
   1  -8   2   72.46   14.14
   1  -8   3    5.72    4.87
   1  -8   4   74.36   14.95
   1  -8   5   43.63   11.80
   1  -7 -10   -4.99    4.79
   1  -7  -9    1.37    2.46
   1  -7  -9    1.97    3.42
   1  -7  -8   87.89   12.52
   1  -7  -8  104.09   17.67
   1  -7  -7    1.42    2.28
   1  -7  -7    0.45    2.00
   1  -7  -6  130.71   11.42
   1  -7  -6  151.34   17.41
   1  -7  -6  126.36   17.21
   1  -7  -5  113.21   14.54
   1  -7  -5   98.49    7.57
   1  -7  -5   94.66   14.17
   1  -7  -4  135.95   15.57
   1  -7  -3  390.56   26.53
   1  -7  -2  195.01   18.57
   1  -7  -1  155.23   17.30
   1  -7   0    0.13    3.65
   1  -7   1  218.82   21.57
   1  -7   2  217.78   22.45
   1  -7   3   86.39   14.49
   1  -7   4    6.75    5.62
   1  -7   5   -5.58    5.29
   1  -7   6   -0.59    4.38
   1  -6 -12   10.12    7.42
   1  -6 -11   46.54   11.97
   1  -6 -10   19.21    7.37
   1  -6  -9   31.81    9.12
   1  -6  -9   34.23   10.31
   1  -6  -8   23.15    6.97
   1  -6  -8   30.25    8.71
   1  -6  -7   30.59    7.08
   1  -6  -7   17.39    6.36
   1  -6  -6  611.28   28.41
   1  -6  -6  532.93   31.02
   1  -6  -6  589.31   36.06
   1  -6  -5  183.84   18.63
   1  -6  -5  194.42   13.22
   1  -6  -5  164.73   16.54
   1  -6  -4  104.70    6.99
   1  -6  -4  108.55   13.41
   1  -6  -4  111.82   12.68
   1  -6  -3  298.27   21.17
   1  -6  -2   56.09    9.24
   1  -6  -1  372.57   24.78
   1  -6   0  759.57   36.92
   1  -6   1    6.19    3.28
   1  -6   2  166.72   17.98
   1  -6   3    1.65    3.18
   1  -6   4   72.27   12.71
   1  -6   5  144.90   18.98
   1  -6   6   47.84   11.97
   1  -6   7   60.75   13.57
   1  -5 -12   -2.48    3.86
   1  -5 -11    5.07    5.11
   1  -5 -10   24.79    8.45
   1  -5  -9   13.62    6.57
   1  -5  -8  157.39   18.24
   1  -5  -8  177.32   21.51
   1  -5  -7  869.21   40.55
   1  -5  -7  870.29   45.38
   1  -5  -6   97.94   11.75
   1  -5  -6  115.62   15.08
   1  -5  -6  114.75   13.05
   1  -5  -5  411.21   21.30
   1  -5  -5  394.42   23.71
   1  -5  -5  423.80   27.20
   1  -5  -4   54.73    8.34
   1  -5  -4   34.92    7.32
   1  -5  -4   43.09    5.34
   1  -5  -3  749.47   18.40
   1  -5  -3  765.55   31.55
   1  -5  -2  331.20   20.47
   1  -5  -1    2.78    2.55
   1  -5   0   14.62    5.03
   1  -5   1  198.78   17.25
   1  -5   2  177.97   16.92
   1  -5   3   36.31    7.99
   1  -5   4  199.60   19.54
   1  -5   5   72.32   12.47
   1  -5   6    0.09    3.40
   1  -5   7   78.37   14.06
   1  -5   8   96.68   17.00
   1  -4 -12   34.08   11.84
   1  -4 -11   85.39   17.09
   1  -4 -10   74.15   15.03
   1  -4  -9  114.47   17.76
   1  -4  -8    7.16    5.67
   1  -4  -7  230.27   20.82
   1  -4  -7  237.44   22.88
   1  -4  -6  579.16   30.58
   1  -4  -6  595.94   33.77
   1  -4  -5  832.52   33.06
   1  -4  -5  813.53   32.24
   1  -4  -5  756.18   36.01
   1  -4  -4  424.31   23.70
   1  -4  -4  382.92   18.74
   1  -4  -4  415.40   21.29
   1  -4  -3  524.16   17.92
   1  -4  -3  541.91   25.39
   1  -4  -3  529.14   23.14
   1  -4  -2  366.35   19.03
   1  -4  -1    0.77    1.65
   1  -4   0  749.33   30.43
   1  -4   1  572.17   26.78
   1  -4   2  198.03   16.20
   1  -4   3  211.31   17.61
   1  -4   4   92.63   12.21
   1  -4   5  280.86   22.84
   1  -4   6   26.23    7.40
   1  -4   7   46.98   10.72
   1  -4   8   53.61   11.27
   1  -4   9   18.66    8.12
   1  -3 -12   53.57   14.25
   1  -3 -11   97.97   18.18
   1  -3 -10   90.90   16.63
   1  -3  -9  100.93   16.13
   1  -3  -8  218.59   22.64
   1  -3  -7  457.43   30.48
   1  -3  -7  480.99   25.74
   1  -3  -6  904.70   40.07
   1  -3  -6  860.98   40.89
   1  -3  -6  900.79   32.69
   1  -3  -5  214.34   16.69
   1  -3  -5  196.33   17.23
   1  -3  -4    1.59    1.67
   1  -3  -4    0.71    1.84
   1  -3  -4    1.33    1.83
   1  -3  -3    1.74    1.53
   1  -3  -3    4.82    2.25
   1  -3  -3    0.44    1.40
   1  -3  -2  142.67    6.89
   1  -3  -2  153.11   10.28
   1  -3  -1 1217.76   34.83
   1  -3   0  667.90   25.07
   1  -3   1  528.79   23.14
   1  -3   2  390.87   20.50
   1  -3   3  386.18   22.03
   1  -3   4  282.39   19.77
   1  -3   5  130.23   14.33
   1  -3   6    5.41    2.95
   1  -3   7   75.04   12.41
   1  -3   8  390.36   29.95
   1  -3   9  269.72   26.22
   1  -3  10    0.33    4.30
   1  -2 -12    3.86    4.43
   1  -2 -11   74.56   16.02
   1  -2 -10   43.62   11.77
   1  -2  -9   61.77   13.35
   1  -2  -8  558.23   37.07
   1  -2  -7  133.48   16.43
   1  -2  -6  530.50   31.08
   1  -2  -6  634.27   29.18
   1  -2  -5  889.53   36.83
   1  -2  -5  870.20   37.38
   1  -2  -5  915.81   32.11
   1  -2  -4  107.10    8.77
   1  -2  -4  116.52   11.20
   1  -2  -4  117.29   11.80
   1  -2  -3    3.91    3.07
   1  -2  -3    3.28    1.82
   1  -2  -3    3.71    1.92
   1  -2  -2  142.66    7.98
   1  -2  -2  142.98    9.82
   1  -2  -2  140.99    8.11
   1  -2  -1    5.57    2.04
   1  -2   0   30.07    4.46
   1  -2   1   37.92    5.28
   1  -2   2   32.30    5.07
   1  -2   3  445.12   12.30
   1  -2   4 1440.26   36.77
   1  -2   4 1402.50   28.93
   1  -2   5  693.27   19.23
   1  -2   5  673.78   23.90
   1  -2   6  444.09   19.23
   1  -2  10    4.95    3.45
   1  -2  11    7.21    5.37
   1  -1 -11  113.25   20.33
   1  -1 -10   38.57   11.87
   1  -1  -9  157.44   21.17
   1  -1  -8   52.86   11.20
   1  -1  -7   92.85   13.88
   1  -1  -6  195.29   18.52
   1  -1  -5  557.25   29.28
   1  -1  -5  591.94   27.60
   1  -1  -4  182.68   14.52
   1  -1  -4  172.81   12.65
   1  -1  -3 2443.68   56.64
   1  -1  -3 2373.47   57.50
   1  -1  -3 2474.37   52.49
   1  -1  -2  997.01   26.67
   1  -1  -2  986.15   21.83
   1  -1  -2 1010.27   28.24
   1  -1  -1 1876.35   34.63
   1  -1  -1 1923.60   37.72
   1  -1  -1 1866.65   33.91
   1  -1   0  674.94   17.31
   1  -1   1 2202.64   43.15
   1  -1   2  101.97    6.91
   1  -1   2  100.95    5.25
   1  -1   3 1191.55   29.88
   1  -1   4 1817.59   41.60
   1  -1   5 1151.37   32.13
   1  -1   6  568.62   21.98
   1  -1   7   83.93    8.25
   1  -1   8   33.28    5.34
   1   0 -11   83.37   17.93
   1   0 -10  194.52   25.12
   1   0  -9   71.95   14.67
   1   0  -8  203.84   23.01
   1   0  -7   68.53   12.23
   1   0  -6    1.70    2.82
   1   0  -5   71.13   10.46
   1   0  -5   70.94   10.05
   1   0  -4  314.01   19.85
   1   0  -4  349.43   20.23
   1   0  -3  288.67   16.43
   1   0  -3  273.33   15.44
   1   0  -2 2308.10   50.00
   1   0  -2 2341.37   48.76
   1   0   2 4772.75   80.81
   1   0   3 3800.81   69.46
   1   0   4 1460.87   35.89
   1   0   5  457.99   18.76
   1   0   6   -0.33    1.41
   1   0   7   39.70    5.99
   1   0   8   24.88    5.10
   1   0   9   74.27    8.78
   1   1 -11  110.58   20.23
   1   1 -10   71.69   16.09
   1   1  -9    3.37    4.23
   1   1  -8  276.43   27.13
   1   1  -7   -1.82    3.60
   1   1  -6  694.28   37.74
   1   1  -5  538.89   30.19
   1   1  -4    0.59    2.49
   1   1  -4    4.58    3.00
   1   1  -3   51.17    7.37
   1   1  -3   56.45    7.64
   1   1  -2  718.59   24.42
   1   1  -2  713.96   25.06
   1   1  -1    6.33    1.76
   1   1  -1    3.50    1.18
   1   1  -1    1.93    1.19
   1   1   2 1566.15   34.79
   1   1   2 1523.03   32.67
   1   1   3  768.77   23.63
   1   1   3  759.59   24.58
   1   1   4 2065.11   47.76
   1   1   4 2082.64   52.71
   1   1   5   41.81    7.21
   1   1   5   40.92    5.80
   1   1   6    5.54    2.68
   1   1   7  403.05   20.67
   1   1   8   41.05    6.75
   1   1   9   32.31    6.31
   1   2 -10   37.90   11.44
   1   2  -9   73.03   15.24
   1   2  -8   11.29    6.95
   1   2  -7  114.59   15.93
   1   2  -6  103.32   14.56
   1   2  -5  487.73   29.35
   1   2  -4   79.27   10.36
   1   2  -3 1299.99   41.12
   1   2  -3 1332.88   44.24
   1   2  -2  634.42   23.52
   1   2  -2  621.10   25.80
   1   2  -2  652.17   21.55
   1   2  -1 1522.58   34.57
   1   2  -1 1446.42   34.61
   1   2  -1 1470.66   37.65
   1   2  -1 1526.26   27.30
   1   2   0 9865.25  154.28
   1   2   3    3.96    1.51
   1   2   3    5.82    2.29
   1   2   4   46.01    6.30
   1   2   4   41.55    6.36
   1   2   5  890.08   31.34
   1   2   5  959.31   34.63
   1   2   6  276.78   17.21
   1   2   7  276.41   18.09
   1   2   8  140.68   13.38
   1   2   9   33.25    6.83
   1   2  10   91.80   11.29
   1   3 -10   66.12   15.14
   1   3  -9   59.55   14.07
   1   3  -8    1.70    4.12
   1   3  -7  111.32   16.51
   1   3  -6    6.19    4.87
   1   3  -5  378.30   26.04
   1   3  -4   34.98    6.92
   1   3  -4   27.34    2.81
   1   3  -3    1.59    1.61
   1   3  -3    2.17    0.91
   1   3  -3    5.72    3.03
   1   3  -2  751.88   26.67
   1   3  -2  694.14   29.89
   1   3  -2  731.99   26.73
   1   3  -1  925.96   25.88
   1   3  -1  909.35   29.11
   1   3  -1  881.56   30.09
   1   3   0    1.31    0.89
   1   3   4   64.84    7.06
   1   3   4   62.30    7.85
   1   3   5  795.67   29.92
   1   3   5  775.33   31.66
   1   3   7    6.25    3.39
   1   3   8  178.94   15.98
   1   3   9   32.58    7.53
   1   3  10  252.66   20.45
   1   4 -10    4.99    5.25
   1   4  -9   36.88   10.79
   1   4  -8   76.33   14.91
   1   4  -7   45.92   11.16
   1   4  -6  730.08   40.53
   1   4  -5  133.77   15.76
   1   4  -5  126.15    7.07
   1   4  -4  284.92   20.66
   1   4  -4  287.90   12.64
   1   4  -3   12.56    4.25
   1   4  -2   19.04    4.25
   1   4  -2   31.34    6.82
   1   4  -1  269.67   13.18
   1   4  -1  226.02   15.81
   1   4   0  149.79   10.67
   1   4   1 2201.10   44.23
   1   4   4   11.75    3.79
   1   4   9  209.47   19.08
   1   4  10   57.43   10.22
   1   4  11   83.56   12.70
   1   5  -9   34.22   10.76
   1   5  -8  116.05   18.32
   1   5  -7   89.91   14.99
   1   5  -6  140.25   17.55
   1   5  -5   15.97    5.85
   1   5  -4  109.26   12.83
   1   5  -4   87.74    8.24
   1   5  -3  118.52   11.98
   1   5  -2   70.36    8.00
   1   5  -2   61.27    3.34
   1   5  -1 1181.28   32.05
   1   5  -1 1146.57   41.06
   1   5   0  590.40   24.82
   1   5   1    9.85    2.54
   1   5  10   15.15    6.35
   1   5  11  110.44   15.47
   1   6  -9   17.94    7.71
   1   6  -8    6.74    3.75
   1   6  -7   11.14    6.16
   1   6  -6   15.90    6.52
   1   6  -5  374.71   26.57
   1   6  -4    2.50    2.59
   1   6  -3  339.33   20.60
   1   6  -2    3.51    2.53
   1   6  -2    4.07    0.96
   1   6   0   79.13    9.50
   1   6   1   60.46    6.71
   1   6  11    5.95    4.04
   1   7  -6   79.24   12.96
   1   7  -5    4.56    3.33
   1   7  -4   31.29    6.73
   1   7  -3  284.70   18.72
   1   7   0   57.05    8.58
   1   7   1   18.03    4.12
   1   7  12   52.06   12.41
   2 -10  -8   12.09    6.44
   2 -10  -7   20.73    8.48
   2 -10  -6   28.23    9.29
   2 -10  -5   20.23    8.51
   2 -10  -5   21.53    9.42
   2 -10  -4   48.92   12.05
   2 -10  -3    6.32    4.78
   2 -10  -2    8.96    5.76
   2 -10  -1    7.12    5.23
   2 -10   0   14.34    6.73
   2  -9  -8   -0.03    3.16
   2  -9  -8   -3.82    3.86
   2  -9  -7   67.45   13.37
   2  -9  -7   96.73   18.10
   2  -9  -6   26.22    8.15
   2  -9  -6   56.98   13.00
   2  -9  -5    8.01    4.79
   2  -9  -5   32.25    9.42
   2  -9  -4   -1.69    2.67
   2  -9  -3   88.34   14.93
   2  -9  -2   51.14   11.71
   2  -9  -1    4.41    4.32
   2  -9   0   -2.41    3.54
   2  -9   1   31.78   10.06
   2  -9   2   71.97   15.03
   2  -8  -9   80.67   17.38
   2  -8  -8   46.62   12.48
   2  -8  -8   61.07   12.19
   2  -8  -7   38.25   11.81
   2  -8  -7   48.10   10.74
   2  -8  -6  131.61   17.12
   2  -8  -6  109.73   17.74
   2  -8  -5   -4.20    2.96
   2  -8  -5    2.77    4.37
   2  -8  -4    0.36    3.18
   2  -8  -3   23.58    7.52
   2  -8  -2   42.83   10.17
   2  -8  -1   52.77   11.64
   2  -8   0   41.85   10.40
   2  -8   1  287.01   27.21
   2  -8   2   55.27   12.39
   2  -8   3    1.55    2.93
   2  -8   4    2.87    4.15
   2  -7 -10    9.83    5.25
   2  -7  -9   65.06   15.00
   2  -7  -8   39.98   11.45
   2  -7  -7   56.07   12.75
   2  -7  -7   25.17    7.98
   2  -7  -6   95.97   13.52
   2  -7  -6  106.38   16.40
   2  -7  -5   49.47    9.74
   2  -7  -5   37.24    9.13
   2  -7  -4    7.25    3.70
   2  -7  -4    3.16    3.47
   2  -7  -3   43.72    8.98
   2  -7  -2  345.66   25.58
   2  -7  -1  247.14   21.93
   2  -7   0   31.06    8.18
   2  -7   1  133.90   17.42
   2  -7   2  170.60   20.29
   2  -7   3   78.50   14.28
   2  -7   4  143.37   19.73
   2  -7   5   50.04   12.12
   2  -6 -12   42.10   12.56
   2  -6 -11  144.68   20.71
   2  -6 -10   34.65   11.51
   2  -6 -10   28.12    8.70
   2  -6  -9   85.14   13.52
   2  -6  -9   65.03   15.05
   2  -6  -8   51.67    9.88
   2  -6  -8   44.23   11.15
   2  -6  -7   23.46    7.45
   2  -6  -7   17.14    5.24
   2  -6  -7   25.62    7.03
   2  -6  -6    5.31    2.66
   2  -6  -6    0.96    3.82
   2  -6  -5    0.59    2.42
   2  -6  -5   -0.57    0.83
   2  -6  -4   27.60    6.40
   2  -6  -4   23.42    6.67
   2  -6  -3  297.87   21.14
   2  -6  -2   86.25   11.63
   2  -6  -1  404.39   26.24
   2  -6   0   86.79   12.49
   2  -6   1  239.32   21.33
   2  -6   2  275.17   23.73
   2  -6   3   20.35    7.27
   2  -6   4   81.99   14.06
   2  -6   5   -0.53    4.14
   2  -6   6   27.85    9.04
   2  -6   7   -1.23    4.39
   2  -5 -12   90.89   17.92
   2  -5 -11   58.60   13.58
   2  -5 -10    2.60    4.30
   2  -5  -9   25.03    8.54
   2  -5  -9   32.86    8.98
   2  -5  -8   51.11   10.27
   2  -5  -8   42.53   11.24
   2  -5  -7   25.89    6.48
   2  -5  -7   34.26    9.20
   2  -5  -6  280.97   19.31
   2  -5  -6  263.51   23.95
   2  -5  -6  256.22   19.24
   2  -5  -5  101.33    9.77
   2  -5  -5  102.84   11.54
   2  -5  -5   91.53   13.04
   2  -5  -4  331.68   14.79
   2  -5  -4  321.73   22.96
   2  -5  -4  316.22   19.87
   2  -5  -3  722.20   30.93
   2  -5  -2  183.80   15.58
   2  -5  -1  667.39   31.60
   2  -5   0   85.42   11.33
   2  -5   1   48.05    8.67
   2  -5   2   29.52    7.28
   2  -5   3   82.66   12.56
   2  -5   4  114.57   15.43
   2  -5   5    3.90    3.19
   2  -5   6    3.27    4.40
   2  -5   7   43.29   11.04
   2  -5   8   13.75    6.53
   2  -4 -12   14.66    7.41
   2  -4 -11   34.22   11.55
   2  -4 -10    3.51    3.23
   2  -4  -9   -4.36    4.03
   2  -4  -8   33.09    9.53
   2  -4  -8   41.54    9.20
   2  -4  -7  115.94   14.32
   2  -4  -7   97.71   15.10
   2  -4  -6  115.12   12.98
   2  -4  -6  103.54   14.28
   2  -4  -5    5.24    2.43
   2  -4  -5    1.89    2.92
   2  -4  -5    2.56    2.97
   2  -4  -4  570.66   29.46
   2  -4  -4  543.06   22.05
   2  -4  -4  549.19   23.98
   2  -4  -3 1243.31   29.79
   2  -4  -3 1240.98   42.70
   2  -4  -3 1143.50   36.65
   2  -4  -2 1100.39   36.34
   2  -4  -1 1001.32   35.98
   2  -4   0 1015.45   37.22
   2  -4   1    0.67    2.18
   2  -4   2  106.37   12.18
   2  -4   3   16.22    5.64
   2  -4   4  300.72   23.26
   2  -4   5   73.76   12.31
   2  -4   6   25.47    7.91
   2  -4   7  166.39   20.35
   2  -4   8   59.14   12.80
   2  -4   9   52.52   13.54
   2  -3 -12   14.10    7.56
   2  -3 -11   40.91   12.34
   2  -3 -10   92.59   16.54
   2  -3  -9  115.42   17.31
   2  -3  -8  109.75   15.68
   2  -3  -7  423.37   28.65
   2  -3  -7  339.20   27.93
   2  -3  -6   11.18    5.00
   2  -3  -6   11.80    4.80
   2  -3  -5  315.88   20.09
   2  -3  -5  275.19   21.23
   2  -3  -4   11.94    3.61
   2  -3  -4   18.53    4.28
   2  -3  -4   10.68    3.89
   2  -3  -3  480.24   23.97
   2  -3  -3  532.62   19.60
   2  -3  -3  546.50   20.44
   2  -3  -2   69.94    7.19
   2  -3  -1  105.74    9.36
   2  -3   0   83.36    8.84
   2  -3   1  134.48   11.72
   2  -3   2  210.81   15.78
   2  -3   3  414.65   23.94
   2  -3   4  438.33   26.13
   2  -3   5    2.14    2.91
   2  -3   6   64.49   11.24
   2  -3   7   24.86    7.36
   2  -3   8   85.50   15.40
   2  -3   9   17.44    8.21
   2  -3  10  125.97   19.49
   2  -2 -11   26.64    9.54
   2  -2 -10   19.94    7.90
   2  -2  -9   25.73    8.08
   2  -2  -8   14.32    7.90
   2  -2  -7  223.05   20.85
   2  -2  -6 1346.45   50.65
   2  -2  -5  987.13   38.69
   2  -2  -5  943.74   40.68
   2  -2  -4 1286.31   40.58
   2  -2  -4 1267.64   44.08
   2  -2  -3  286.71   15.02
   2  -2  -3  297.81   12.42
   2  -2  -3  263.70   16.85
   2  -2  -2  265.04   11.91
   2  -2  -2  238.41   14.02
   2  -2  -2  262.41   11.46
   2  -2  -1   87.91    7.13
   2  -2   0   60.90    6.24
   2  -2   1  439.92   19.34
   2  -2   3  565.22   23.54
   2  -2   4   37.15    5.96
   2  -2   4   47.77    4.86
   2  -2   5  136.18   11.84
   2  -2   5  153.17    9.33
   2  -2   6    1.85    1.31
   2  -2   6    4.09    1.92
   2  -2   7   35.62    6.42
   2  -2   8  152.83   13.47
   2  -1 -11   92.88   18.21
   2  -1 -10    8.91    6.53
   2  -1  -9   88.42   15.74
   2  -1  -8   37.21    9.53
   2  -1  -7   72.27   12.24
   2  -1  -6  458.97   28.93
   2  -1  -5   18.17    5.28
   2  -1  -5   11.55    3.79
   2  -1  -4 1571.25   47.61
   2  -1  -4 1637.64   50.68
   2  -1  -3   58.34    7.26
   2  -1  -3   45.19    6.98
   2  -1  -2 2877.26   57.83
   2  -1  -2 2871.13   47.51
   2  -1  -2 2795.19   60.79
   2  -1  -1 4439.69   78.56
   2  -1  -1 4405.81   72.76
   2  -1   0  228.49   12.10
   2  -1   0  221.66   10.05
   2  -1   1    2.28    1.82
   2  -1   2   84.08    7.67
   2  -1   2   82.32    6.19
   2  -1   3   50.02    6.43
   2  -1   3   64.98    5.72
   2  -1   4  139.08    9.06
   2  -1   4  121.75   10.14
   2  -1   5   10.18    3.66
   2  -1   6  506.26   23.66
   2  -1   7  494.40   24.34
   2  -1   8  768.73   31.78
   2   0 -11   82.32   17.03
   2   0 -10    2.13    4.68
   2   0  -9  126.76   19.31
   2   0  -8  358.20   30.07
   2   0  -7  126.49   16.75
   2   0  -6  377.20   26.63
   2   0  -5  545.38   29.67
   2   0  -4  119.60   12.15
   2   0  -4  133.03   12.32
   2   0  -3  112.50   10.51
   2   0  -2  704.65   23.99
   2   0  -2  720.64   24.93
   2   0  -1 3819.08   68.03
   2   0  -1 3903.03   69.67
   2   0   0    3.50    1.74
   2   0   1   97.23    7.41
   2   0   1   91.81    6.40
   2   0   2    4.70    1.87
   2   0   2    4.04    1.73
   2   0   3  120.35    9.48
   2   0   4 1188.21   35.47
   2   0   5   55.29    7.12
   2   0   6  893.82   32.58
   2   0   7  172.38   14.00
   2   0   8    2.10    2.77
   2   0   9   95.92   11.20
   2   1 -11   -1.62    5.36
   2   1 -10   80.76   16.35
   2   1  -9   35.59   10.73
   2   1  -8  159.62   20.55
   2   1  -7  170.12   19.61
   2   1  -6  427.86   29.23
   2   1  -5  173.30   17.03
   2   1  -4  211.99   16.80
   2   1  -4  213.44   16.77
   2   1  -3 1082.19   36.61
   2   1  -3 1116.43   37.06
   2   1  -2  108.23    9.22
   2   1  -2  110.75    5.35
   2   1  -1 1984.33   38.59
   2   1  -1 2009.67   36.12
   2   1   0   88.63    6.28
   2   1   0   87.79    5.32
   2   1   0   92.49    6.35
   2   1   1 1674.80   36.18
   2   1   1 1643.31   37.93
   2   1   2  115.55    8.73
   2   1   3 3571.81   72.98
   2   1   4 1627.00   43.76
   2   1   5  905.79   32.10
   2   1   6  130.33   11.86
   2   1   7  228.14   16.59
   2   1   8    0.37    2.21
   2   1   9  173.64   15.63
   2   2 -10  135.76   21.45
   2   2  -9   39.66   10.75
   2   2  -8    2.87    5.30
   2   2  -7    0.72    2.41
   2   2  -6   47.75   10.38
   2   2  -5  179.03   17.33
   2   2  -4  658.58   31.59
   2   2  -3    1.49    2.50
   2   2  -3    2.30    1.72
   2   2  -2  414.36   19.29
   2   2  -2  406.40   11.57
   2   2  -2  412.99   20.52
   2   2  -2  398.56   15.71
   2   2  -1  432.33   17.48
   2   2  -1  435.89   14.34
   2   2  -1  444.46   15.89
   2   2  -1  446.05   14.88
   2   2   0 1711.52   36.55
   2   2   0 1693.18   37.91
   2   2   0 1727.13   36.97
   2   2   1  840.80   25.71
   2   2   1  857.41   24.29
   2   2   2 1368.42   36.71
   2   2   3    9.92    2.19
   2   2   3   10.82    3.67
   2   2   4  420.60   20.68
   2   2   4  457.35   19.21
   2   2   5  560.63   25.62
   2   2   5  571.97   25.09
   2   2   6  264.72   18.03
   2   2   6  312.47   20.36
   2   2   7  579.98   28.29
   2   2   8   82.08   10.77
   2   2   9  131.16   14.24
   2   2  10  178.51   16.92
   2   3 -10   -8.63    5.89
   2   3  -9   16.10    7.80
   2   3  -8    8.22    7.52
   2   3  -7   29.27    8.58
   2   3  -6  345.28   27.03
   2   3  -5   70.67   11.25
   2   3  -4   73.96   10.42
   2   3  -3  228.61   16.51
   2   3  -3  249.32    8.66
   2   3  -2  590.47   24.44
   2   3  -2  608.64   27.34
   2   3  -2  585.97   23.04
   2   3  -1  902.42   28.02
   2   3  -1  909.95   28.50
   2   3  -1  885.17   30.33
   2   3  -1  901.17   23.05
   2   3   0  144.06   10.01
   2   3   1   45.40    5.64
   2   3   4 1200.45   32.37
   2   3   5  122.51   10.57
   2   3   5  102.49   11.12
   2   3   6  171.53   15.13
   2   3   6  178.63   14.59
   2   3   7   33.33    7.30
   2   3   8   40.04    7.90
   2   3   9  135.19   14.98
   2   3  10   74.09   11.56
   2   4 -10   60.29   14.76
   2   4  -9   71.88   15.46
   2   4  -8    1.85    3.28
   2   4  -7   35.43    9.72
   2   4  -6   72.07   12.50
   2   4  -5  244.56   21.16
   2   4  -4  402.14   24.89
   2   4  -4  342.70   11.14
   2   4  -3  565.14   27.32
   2   4  -2  136.51   11.54
   2   4  -2  156.95   14.46
   2   4  -2  137.24   12.19
   2   4  -1  409.92   14.83
   2   4  -1  440.19   21.54
   2   4  -1  388.87   20.78
   2   4   0  151.03   12.05
   2   4   7   32.00    7.50
   2   4   8    8.70    3.96
   2   4   9   39.31    8.59
   2   4  10    2.93    2.93
   2   4  11    6.45    3.78
   2   5  -9   -2.11    4.22
   2   5  -8    4.39    4.53
   2   5  -7   52.63   11.82
   2   5  -6  180.76   19.91
   2   5  -5  299.24   23.72
   2   5  -4  106.24   12.74
   2   5  -4   94.57    7.42
   2   5  -3   44.60    7.54
   2   5  -2  326.99   18.51
   2   5  -2  286.64   11.12
   2   5  -1   63.75    8.85
   2   5   8    9.99    4.55
   2   5   9  112.75   15.22
   2   5  10  161.66   18.95
   2   5  11   36.81    9.36
   2   6  -9   38.69   11.41
   2   6  -8    8.17    5.53
   2   6  -7   10.20    5.46
   2   6  -6  214.72   21.89
   2   6  -5    4.95    3.84
   2   6  -4  326.28   23.01
   2   6  -3   78.90   10.07
   2   6  -2    5.33    1.42
   2   6   0   65.34    8.55
   2   6  10   -0.26    3.68
   2   6  11   18.48    7.02
   2   6  12    8.52    6.09
   2   7  -8   17.98    7.35
   2   7  -7   52.29   11.66
   2   7  -6   49.72   10.46
   2   7  -5    7.77    4.39
   2   7  -4   41.25    8.38
   2   7  -3   51.51    8.76
   2   7   0  299.90   20.00
   2   7  10   17.51    7.16
   2   7  11   79.72   14.82
   2   7  12   35.40   10.42
   2   8  11    3.03    2.52
   3 -10  -6   26.38    9.24
   3 -10  -5   28.70    9.34
   3 -10  -4    3.65    3.40
   3 -10  -3   51.01   12.14
   3 -10  -2   20.46    7.97
   3  -9  -7   69.81   13.70
   3  -9  -6   14.17    6.47
   3  -9  -6    6.26    4.30
   3  -9  -5    1.45    3.41
   3  -9  -5    6.17    4.83
   3  -9  -4   84.49   14.39
   3  -9  -4   79.01   15.08
   3  -9  -3  176.14   21.03
   3  -9  -2   26.20    8.37
   3  -9  -1    8.82    5.65
   3  -9   0    0.36    3.41
   3  -9   1    5.28    5.64
   3  -8  -8   22.30    8.94
   3  -8  -7  158.96   23.26
   3  -8  -7  116.12   16.40
   3  -8  -6   79.33   15.44
   3  -8  -6   96.06   14.52
   3  -8  -5   27.66    7.78
   3  -8  -5   25.81    9.35
   3  -8  -4  186.22   21.91
   3  -8  -4  158.34   18.44
   3  -8  -3   31.38    8.54
   3  -8  -2  100.99   15.38
   3  -8  -1   15.51    6.52
   3  -8   0    5.99    4.90
   3  -8   1   74.56   14.22
   3  -8   2   20.45    7.84
   3  -8   3   38.07   10.95
   3  -7  -9   89.66   18.23
   3  -7  -8   20.21    9.02
   3  -7  -7  140.78   20.62
   3  -7  -7  138.82   16.77
   3  -7  -6   69.16   11.62
   3  -7  -6   86.98   15.79
   3  -7  -5   51.01    9.86
   3  -7  -5   18.67    6.50
   3  -7  -4   20.91    6.01
   3  -7  -4   27.64    8.02
   3  -7  -3  103.19   13.85
   3  -7  -2   30.36    7.67
   3  -7  -1   19.04    7.08
   3  -7   0    7.05    5.41
   3  -7   1  172.50   20.22
   3  -7   2   68.09   13.25
   3  -7   3   74.08   14.06
   3  -7   4  111.85   17.89
   3  -7   5    8.80    6.27
   3  -6 -10   61.63   15.23
   3  -6 -10   60.86   12.19
   3  -6  -9  119.30   15.69
   3  -6  -9  106.80   19.49
   3  -6  -8  173.87   17.25
   3  -6  -8  161.98   22.60
   3  -6  -7  220.69   17.43
   3  -6  -7  187.36   17.92
   3  -6  -7  247.64   26.50
   3  -6  -6  122.28   11.27
   3  -6  -6   99.84   12.63
   3  -6  -6  110.35   16.66
   3  -6  -5    7.71    3.59
   3  -6  -5   16.47    6.78
   3  -6  -4   10.24    3.92
   3  -6  -4   14.62    6.10
   3  -6  -3    0.69    1.81
   3  -6  -2   11.07    5.36
   3  -6  -1  163.56   16.86
   3  -6   0   26.45    7.35
   3  -6   1  379.51   27.78
   3  -6   2   75.44   12.53
   3  -6   3  112.29   16.27
   3  -6   4   50.95   11.76
   3  -6   5   84.49   15.23
   3  -6   6   17.78    7.52
   3  -5 -12   52.69   13.68
   3  -5 -11   83.45   15.98
   3  -5 -10    1.66    4.07
   3  -5  -9   36.51    9.62
   3  -5  -9   47.84   13.00
   3  -5  -8  205.52   20.00
   3  -5  -8  160.78   21.91
   3  -5  -7   65.26   10.05
   3  -5  -7   56.26   12.36
   3  -5  -6   40.92    9.90
   3  -5  -6   44.66    7.50
   3  -5  -6   48.61    8.13
   3  -5  -5    4.25    2.98
   3  -5  -5    3.14    1.91
   3  -5  -5   -1.90    3.21
   3  -5  -4  277.48   22.44
   3  -5  -4  291.73   18.93
   3  -5  -3   50.91    8.13
   3  -5  -2  593.21   29.22
   3  -5  -1  178.11   16.25
   3  -5   0   -0.82    2.79
   3  -5   1  184.42   17.62
   3  -5   2  281.88   22.77
   3  -5   3  538.78   33.59
   3  -5   4  293.40   25.49
   3  -5   5   30.06    9.30
   3  -5   6    7.81    5.07
   3  -5   7   57.07   13.79
   3  -4 -11  123.60   19.82
   3  -4 -10   15.18    7.06
   3  -4  -9   36.77    9.45
   3  -4  -8   11.75    5.41
   3  -4  -8    3.39    5.00
   3  -4  -7   23.64    6.83
   3  -4  -7   13.35    7.65
   3  -4  -6    4.34    3.05
   3  -4  -6    0.14    2.55
   3  -4  -5   25.86    5.34
   3  -4  -5   27.62    7.63
   3  -4  -5   31.40    5.56
   3  -4  -4  215.36   18.93
   3  -4  -4  213.52   13.45
   3  -4  -4  243.36   15.15
   3  -4  -3  261.25   19.40
   3  -4  -3  219.38   14.67
   3  -4  -2   27.01    5.58
   3  -4  -1  791.20   32.31
   3  -4   0  780.50   33.08
   3  -4   1  398.67   24.03
   3  -4   2  271.37   20.56
   3  -4   3   17.55    6.03
   3  -4   4  107.49   14.50
   3  -4   5    6.23    3.46
   3  -4   6  219.20   23.13
   3  -4   7   94.77   16.19
   3  -4   8   50.79   12.27
   3  -3 -11    0.17    2.00
   3  -3 -10   17.85    7.40
   3  -3  -9    6.65    4.73
   3  -3  -8  353.58   28.20
   3  -3  -7  640.36   35.33
   3  -3  -7  610.88   39.10
   3  -3  -6  242.82   19.50
   3  -3  -6  237.93   22.45
   3  -3  -5   15.12    4.56
   3  -3  -5   15.60    5.88
   3  -3  -4   24.43    4.08
   3  -3  -4   27.39    5.14
   3  -3  -4   19.48    5.84
   3  -3  -3   62.36    8.89
   3  -3  -3   75.65    7.12
   3  -3  -2   87.17    8.36
   3  -3  -1 1451.33   41.49
   3  -3   0  259.96   16.40
   3  -3   1   74.79    9.35
   3  -3   2  178.55   15.25
   3  -3   3  724.81   34.03
   3  -3   4  373.43   25.15
   3  -3   5    2.65    2.84
   3  -3   6   11.23    5.25
   3  -3   7   29.78    8.56
   3  -3   8    7.45    4.13
   3  -3   9    2.69    3.38
   3  -2 -11   -4.88    4.44
   3  -2 -10   62.95   14.06
   3  -2  -9   86.69   15.06
   3  -2  -8  104.21   15.81
   3  -2  -7   97.98   13.87
   3  -2  -6   75.82   12.61
   3  -2  -6   62.73   10.37
   3  -2  -5  154.91   14.46
   3  -2  -5  154.71   16.57
   3  -2  -4  906.81   33.42
   3  -2  -4  877.24   37.56
   3  -2  -3  874.11   29.15
   3  -2  -3  846.30   22.29
   3  -2  -3  877.99   34.21
   3  -2  -2 1561.03   43.90
   3  -2  -2 1562.99   36.13
   3  -2  -1   67.38    6.58
   3  -2   0  700.21   24.62
   3  -2   1  278.92   16.07
   3  -2   2  100.22   10.37
   3  -2   3  606.89   27.53
   3  -2   4  309.14   19.79
   3  -2   5  325.10   21.13
   3  -2   5  336.67   16.58
   3  -2   6  113.78   12.51
   3  -2   6   92.40    8.82
   3  -2   7  225.55   18.25
   3  -2   8    4.15    3.35
   3  -1 -11  111.58   19.79
   3  -1 -10   66.93   14.50
   3  -1  -9  155.26   20.79
   3  -1  -8    7.49    3.78
   3  -1  -7   47.71   10.25
   3  -1  -6   20.97    6.82
   3  -1  -5   74.14   10.69
   3  -1  -4    6.77    2.93
   3  -1  -4    2.81    2.56
   3  -1  -3  109.02    9.99
   3  -1  -3   90.75   10.38
   3  -1  -2 3379.73   55.65
   3  -1  -2 3350.86   72.29
   3  -1  -1 1834.67   43.34
   3  -1  -1 1880.46   37.62
   3  -1   0  343.90   17.62
   3  -1   1    0.55    1.39
   3  -1   2    3.50    1.88
   3  -1   2    5.64    2.70
   3  -1   3  353.77   19.66
   3  -1   3  338.55   16.05
   3  -1   4  248.03   17.03
   3  -1   4  232.61   13.50
   3  -1   5    1.85    1.61
   3  -1   5    5.05    3.17
   3  -1   6    2.43    2.08
   3  -1   6    2.02    2.16
   3  -1   7    6.77    4.21
   3  -1   8  256.37   19.77
   3   0 -11   10.48    7.88
   3   0 -10   12.35    6.09
   3   0  -9  109.45   18.05
   3   0  -8   98.64   16.07
   3   0  -7  163.68   19.02
   3   0  -6  373.52   26.84
   3   0  -5  371.67   24.30
   3   0  -4  611.25   28.93
   3   0  -3   36.48    6.19
   3   0  -2  416.23   18.93
   3   0  -2  388.99   19.07
   3   0  -1  396.96   16.96
   3   0  -1  389.37   16.13
   3   0   0  327.61   11.82
   3   0   0  289.06   15.04
   3   0   1 1634.60   42.44
   3   0   1 1569.50   39.39
   3   0   2  799.94   28.64
   3   0   2  822.15   25.91
   3   0   3  715.11   24.92
   3   0   3  754.76   28.57
   3   0   4   48.95    6.31
   3   0   4   61.28    7.94
   3   0   5   30.79    6.37
   3   0   6   74.09    9.70
   3   0   7    2.80    2.87
   3   0   8  198.33   17.24
   3   0   9  143.15   15.29
   3   1 -10   -2.27    5.26
   3   1  -9   26.20    9.66
   3   1  -8   14.50    6.54
   3   1  -7  232.07   22.84
   3   1  -6  733.89   38.72
   3   1  -5  267.96   21.15
   3   1  -4  422.65   24.38
   3   1  -3  161.42   13.40
   3   1  -2  728.68   26.85
   3   1  -2  690.87   20.62
   3   1  -2  662.00   15.07
   3   1  -1 2351.11   49.38
   3   1  -1 2342.84   41.41
   3   1   0   60.58    5.14
   3   1   0   64.84    6.66
   3   1   0   63.63    6.53
   3   1   1  101.14    8.90
   3   1   1   92.06    7.75
   3   1   2   94.51    8.13
   3   1   2   95.42    9.00
   3   1   3  675.92   26.77
   3   1   4  897.18   33.10
   3   1   5  394.16   21.95
   3   1   6  846.48   34.89
   3   1   7  155.38   14.96
   3   1   8   77.92   10.74
   3   1   9  304.72   22.79
   3   1  10   28.99    7.12
   3   2 -10   24.72    9.84
   3   2  -9   77.34   15.03
   3   2  -8  126.06   18.36
   3   2  -7  133.37   17.99
   3   2  -6   89.54   13.61
   3   2  -5    1.85    3.52
   3   2  -4    4.64    2.90
   3   2  -3  221.60   16.22
   3   2  -3  206.58    8.45
   3   2  -2   56.11    7.56
   3   2  -2   48.15    4.61
   3   2  -2   46.61    4.74
   3   2  -1  413.26   16.19
   3   2  -1  455.39   15.84
   3   2   0    5.79    1.69
   3   2   0    5.11    2.13
   3   2   0    5.69    2.35
   3   2   1  135.26    9.63
   3   2   1  122.39    9.90
   3   2   1  117.38    8.95
   3   2   2  322.97   16.91
   3   2   2  307.60   17.06
   3   2   3  165.84   13.26
   3   2   3  182.73    8.27
   3   2   4  579.81   20.91
   3   2   4  597.55   27.06
   3   2   5    7.07    2.79
   3   2   5    2.62    2.66
   3   2   6  448.96   24.97
   3   2   6  426.33   23.64
   3   2   7  141.41   14.30
   3   2   8   36.87    7.89
   3   2   9  264.52   21.32
   3   2  10  102.89   13.60
   3   3 -10  224.74   28.26
   3   3  -9    8.08    5.78
   3   3  -8   15.46    7.37
   3   3  -7   29.07    8.41
   3   3  -6  145.58   17.73
   3   3  -5   33.67    7.94
   3   3  -4   14.70    5.25
   3   3  -3  194.01   15.84
   3   3  -3  192.42    8.41
   3   3  -3  182.29   12.29
   3   3  -2  129.84   11.82
   3   3  -2  147.36    8.72
   3   3  -2  139.77   10.47
   3   3  -1  856.13   26.24
   3   3  -1  890.80   27.80
   3   3  -1  850.15   26.22
   3   3   0  904.66   27.64
   3   3   0  943.94   28.19
   3   3   0  863.92   28.57
   3   3   1  576.95   23.72
   3   3   1  592.67   22.14
   3   3   2  137.56   11.19
   3   3   2  132.71   11.57
   3   3   3  119.67   11.50
   3   3   4  229.49   11.22
   3   3   4  216.23   16.63
   3   3   5  211.14   16.87
   3   3   5  220.89   13.35
   3   3   6    3.41    3.92
   3   3   6    3.48    1.84
   3   3   7   69.01   10.62
   3   3   8   55.96    9.93
   3   3   9  163.69   17.39
   3   3  10   75.09   12.03
   3   3  11   18.73    6.14
   3   4  -9   11.92    5.92
   3   4  -8    4.77    5.46
   3   4  -7   62.20   12.30
   3   4  -6   23.03    7.14
   3   4  -5   10.33    4.91
   3   4  -4    8.65    3.97
   3   4  -4    1.86    0.66
   3   4  -3    0.89    1.36
   3   4  -3    2.69    1.25
   3   4  -2  961.25   34.89
   3   4  -2  898.80   27.22
   3   4  -2  975.71   34.02
   3   4  -1  182.88   13.53
   3   4  -1  208.10   12.97
   3   4  -1  193.42   11.37
   3   4   0 1565.76   40.02
   3   4   0 1625.54   44.83
   3   4   1 1223.81   37.42
   3   4   3   34.23    6.66
   3   4   4  340.34   21.72
   3   4   5  378.74   24.01
   3   4   6  113.12   10.34
   3   4   6   93.14   12.21
   3   4   7  204.60   18.99
   3   4   8  227.49   20.88
   3   4   9  195.91   19.79
   3   4  10   49.15   10.22
   3   4  11   13.64    5.93
   3   5  -9   48.45   12.54
   3   5  -8   -5.20    5.34
   3   5  -7   63.75   12.68
   3   5  -6   54.99   11.07
   3   5  -5   31.81    7.91
   3   5  -4   10.99    4.15
   3   5  -4    8.41    2.03
   3   5  -3   88.07   11.00
   3   5  -3   75.21    7.15
   3   5  -1  116.75    8.99
   3   5   6  385.83   26.52
   3   5   7    6.55    4.51
   3   5   8   73.22   12.31
   3   5   9   29.66    8.30
   3   5  10    3.32    3.41
   3   5  11   16.24    7.03
   3   6  -8   -0.12    3.77
   3   6  -7    5.69    4.81
   3   6  -6    8.23    5.57
   3   6  -5   46.19    9.71
   3   6  -4  389.52   25.83
   3   6  -4  359.96   16.16
   3   6  -3  216.69   17.71
   3   6  -2  298.51   14.18
   3   6  -1  357.43   16.88
   3   6   8   28.82    8.15
   3   6   9   57.27   11.54
   3   6  10   15.38    6.45
   3   6  11   57.27   12.28
   3   6  12   23.24    8.83
   3   7  -8   -2.51    3.12
   3   7  -7   17.24    7.20
   3   7  -6   17.34    6.08
   3   7  -5   18.28    6.40
   3   7  -4   68.37   10.78
   3   7  -1  100.42    8.95
   3   7   9  270.01   26.61
   3   7  10  119.91   18.00
   3   7  11   79.17   15.11
   3   7  12    8.04    4.64
   3   8  10    8.36    5.84
   4 -10  -4  125.88   19.20
   4 -10  -3   13.56    6.62
   4  -9  -5   20.78    7.50
   4  -9  -4   21.04    7.73
   4  -9  -4   41.77   11.98
   4  -9  -3   25.72    8.69
   4  -9  -2   19.13    7.58
   4  -9  -1   95.45   16.53
   4  -9   0  -12.46    6.41
   4  -8  -7    3.49    5.06
   4  -8  -6   29.26    7.94
   4  -8  -6   41.22   12.14
   4  -8  -5   21.19    6.74
   4  -8  -5   29.95    9.94
   4  -8  -4   54.19   11.22
   4  -8  -4   85.78   15.70
   4  -8  -3  283.50   25.36
   4  -8  -2   12.47    5.83
   4  -8  -1   -0.29    2.20
   4  -8   0  119.81   17.79
   4  -8   1   56.22   12.96
   4  -8   2    2.36    3.91
   4  -7  -8    3.38    4.00
   4  -7  -7  164.28   23.10
   4  -7  -6    9.02    5.13
   4  -7  -6    3.60    4.38
   4  -7  -5   43.00    9.06
   4  -7  -5   36.02   10.00
   4  -7  -4  152.52   19.63
   4  -7  -4  141.32   16.16
   4  -7  -3  189.31   18.84
   4  -7  -2  189.15   19.46
   4  -7  -1    7.21    4.83
   4  -7   0   93.58   14.89
   4  -7   1   35.42    9.39
   4  -7   2    9.30    5.11
   4  -7   3   19.09    7.76
   4  -7   4   43.89   11.76
   4  -6  -9  128.29   22.24
   4  -6  -8   93.71   18.34
   4  -6  -7  254.47   27.86
   4  -6  -6   18.89    5.75
   4  -6  -6   14.64    6.79
   4  -6  -5  249.43   19.50
   4  -6  -5  233.16   24.36
   4  -6  -4  278.06   24.95
   4  -6  -4  217.03   18.56
   4  -6  -3   13.04    5.05
   4  -6  -3   27.27    8.06
   4  -6  -2  164.01   16.75
   4  -6  -1   83.09   12.60
   4  -6   0    0.16    2.29
   4  -6   1  354.39   27.50
   4  -6   2   56.29   11.85
   4  -6   3  148.61   19.28
   4  -6   4   56.82   12.42
   4  -6   5   21.50    8.04
   4  -5 -11   13.72    6.63
   4  -5 -10    1.94    2.11
   4  -5  -9  115.25   15.97
   4  -5  -9  106.13   19.44
   4  -5  -8   58.70   10.50
   4  -5  -8   56.57   13.05
   4  -5  -7   90.23   11.87
   4  -5  -7   68.53   14.10
   4  -5  -6  210.94   16.41
   4  -5  -6  182.62   15.37
   4  -5  -6  194.74   22.53
   4  -5  -5   58.68    8.42
   4  -5  -5   56.11   11.19
   4  -5  -4  139.82   16.93
   4  -5  -4  116.69   11.85
   4  -5  -3   72.29    9.51
   4  -5  -3   93.03   13.33
   4  -5  -2   77.85   10.48
   4  -5  -1  121.87   13.89
   4  -5   0   12.94    4.50
   4  -5   1   40.09    8.57
   4  -5   2    1.15    2.72
   4  -5   3  250.53   23.56
   4  -5   4  108.83   16.13
   4  -5   5  119.30   17.28
   4  -5   6  283.41   28.64
   4  -5   7   49.53   13.18
   4  -4 -11   50.44   12.63
   4  -4 -10   97.71   16.30
   4  -4  -9   58.62   11.82
   4  -4  -8  250.15   22.73
   4  -4  -8  236.81   27.10
   4  -4  -7   38.72    8.30
   4  -4  -7   43.27   10.99
   4  -4  -6   42.82    8.04
   4  -4  -6   35.60    9.52
   4  -4  -5    3.47    2.31
   4  -4  -5   -1.69    1.96
   4  -4  -5    0.28    3.13
   4  -4  -4  176.21   12.74
   4  -4  -4  136.47   16.09
   4  -4  -3  120.68   13.91
   4  -4  -3  123.81   11.21
   4  -4  -2  267.52   17.82
   4  -4  -1  398.31   23.27
   4  -4   0    4.49    3.31
   4  -4   1   76.78   10.97
   4  -4   2  354.31   24.81
   4  -4   3  207.22   19.79
   4  -4   4   16.73    6.48
   4  -4   5    8.44    4.80
   4  -4   6   29.95    9.38
   4  -4   7  121.80   18.72
   4  -4   8   23.22    8.37
   4  -3 -11   54.51   13.45
   4  -3 -10   13.13    6.29
   4  -3  -9   21.04    7.90
   4  -3  -8   83.03   13.32
   4  -3  -7   55.66   10.30
   4  -3  -7   52.98   12.00
   4  -3  -6  169.87   16.23
   4  -3  -6  157.51   19.07
   4  -3  -5  434.85   24.17
   4  -3  -5  439.28   29.91
   4  -3  -4  355.98   15.89
   4  -3  -4  335.95   24.51
   4  -3  -3   30.19    6.75
   4  -3  -3   31.64    4.84
   4  -3  -2  175.85   14.84
   4  -3  -2  184.42   12.85
   4  -3  -1    7.43    3.33
   4  -3   0  232.15   16.22
   4  -3   1  122.72   12.56
   4  -3   2  588.50   29.83
   4  -3   3  886.85   39.66
   4  -3   4  389.19   27.07
   4  -3   5   11.90    4.22
   4  -3   6  102.79   15.65
   4  -3   7   65.28   13.26
   4  -3   8    9.01    5.80
   4  -2 -11    5.80    3.64
   4  -2 -10   10.85    7.36
   4  -2  -9   -4.15    4.92
   4  -2  -8    7.32    4.65
   4  -2  -7  289.80   24.09
   4  -2  -6  202.69   18.61
   4  -2  -6  272.30   24.46
   4  -2  -5  237.85   18.37
   4  -2  -5  237.35   21.67
   4  -2  -4  209.47   15.79
   4  -2  -4  226.20   19.45
   4  -2  -3  331.82   12.44
   4  -2  -3  293.89   20.35
   4  -2  -2   30.26    4.21
   4  -2  -2   18.18    4.85
   4  -2  -1  161.31   10.99
   4  -2   0   83.94    8.60
   4  -2   1   38.53    6.98
   4  -2   1   45.65    6.95
   4  -2   2  446.57   25.46
   4  -2   3  575.41   29.85
   4  -2   4  210.08   17.92
   4  -2   5   68.33   10.54
   4  -2   6  396.25   26.42
   4  -2   7  220.16   19.99
   4  -2   8  194.05   19.08
   4  -1 -11    5.95    6.41
   4  -1 -10   78.35   15.63
   4  -1  -9   37.67   10.37
   4  -1  -8  302.62   27.17
   4  -1  -7  197.21   20.46
   4  -1  -6   60.15   10.19
   4  -1  -5   58.25    9.67
   4  -1  -4   62.58    9.02
   4  -1  -4   97.14   12.48
   4  -1  -3  110.43   12.23
   4  -1  -2  741.97   18.41
   4  -1  -2  698.46   28.73
   4  -1  -1 1134.86   33.92
   4  -1  -1 1128.23   28.50
   4  -1   0  273.92   17.66
   4  -1   1  614.78   27.90
   4  -1   2   74.83    9.55
   4  -1   3  143.72   13.83
   4  -1   3  129.39   11.03
   4  -1   4   14.55    5.02
   4  -1   5   73.70   10.84
   4  -1   6    3.76    2.95
   4  -1   7  134.88   15.33
   4  -1   8   53.31    9.97
   4  -1   9   -0.13    1.64
   4   0 -10   58.43   14.25
   4   0  -9   99.77   17.08
   4   0  -8   96.31   15.89
   4   0  -7  133.56   16.82
   4   0  -6  191.40   19.12
   4   0  -5  127.10   14.48
   4   0  -4   77.52   10.46
   4   0  -3  260.47   17.54
   4   0  -2 2645.99   61.08
   4   0  -2 2739.03   64.99
   4   0  -1    3.83    2.27
   4   0  -1    1.56    1.62
   4   0   0 1087.45   28.23
   4   0   0 1083.02   35.71
   4   0   1  202.86   14.75
   4   0   2  815.05   32.42
   4   0   2  873.94   30.35
   4   0   3  938.21   35.95
   4   0   3  907.28   31.47
   4   0   4  103.56   11.71
   4   0   5  347.42   22.70
   4   0   6   36.34    7.71
   4   0   7   13.52    5.56
   4   0   8   13.32    5.00
   4   0   9   40.38    8.78
   4   1 -10    3.96    4.84
   4   1  -9   84.88   15.79
   4   1  -8    4.13    4.11
   4   1  -7  218.24   22.43
   4   1  -6   75.70   12.35
   4   1  -5  247.78   20.77
   4   1  -4  227.33   18.18
   4   1  -3   95.82   10.88
   4   1  -2 1482.44   38.42
   4   1  -2 1369.61   25.40
   4   1  -1  139.21   10.78
   4   1  -1  132.04    6.80
   4   1   0   74.45    8.49
   4   1   0   67.25    6.16
   4   1   0   69.55    5.74
   4   1   1   29.41    5.05
   4   1   1   38.71    6.02
   4   1   1   27.91    2.70
   4   1   2  132.62   12.22
   4   1   2  173.24   12.47
   4   1   3  486.50   24.92
   4   1   4  205.42   16.44
   4   1   5  247.28   19.09
   4   1   6  355.52   23.86
   4   1   7    1.73    2.36
   4   1   8  644.19   34.96
   4   1   9  102.55   14.15
   4   1  10   96.70   13.87
   4   2 -10    5.23    6.56
   4   2  -9   15.44    7.50
   4   2  -8  133.03   18.80
   4   2  -7  191.70   21.44
   4   2  -6  253.19   22.85
   4   2  -5  282.51   22.59
   4   2  -4  322.75   22.48
   4   2  -3  145.66   14.06
   4   2  -3  133.70    8.89
   4   2  -2   48.27    5.72
   4   2  -2   62.81    5.39
   4   2  -1   90.04    8.41
   4   2  -1   94.74    6.87
   4   2   0  551.64   23.26
   4   2   0  554.91   19.54
   4   2   0  530.45   22.77
   4   2   1  777.71   29.43
   4   2   1  759.04   26.59
   4   2   1  753.40   27.63
   4   2   2   25.11    4.90
   4   2   2   17.10    4.34
   4   2   2   16.77    4.37
   4   2   3  322.36   20.06
   4   2   3  306.91    9.20
   4   2   4    5.95    1.94
   4   2   4    2.42    2.26
   4   2   5   48.76    6.45
   4   2   5   59.02    9.55
   4   2   6  322.74   22.86
   4   2   6  340.19   20.20
   4   2   7   19.48    5.95
   4   2   8   82.92   12.27
   4   2   9   19.86    6.14
   4   2  10   15.13    5.82
   4   3  -9   10.25    6.10
   4   3  -8  126.30   18.42
   4   3  -7  148.72   19.04
   4   3  -6  310.83   25.99
   4   3  -5    5.37    3.71
   4   3  -4   73.07   11.07
   4   3  -4   83.02    5.31
   4   3  -3   50.21    8.40
   4   3  -3   43.85    4.87
   4   3  -3   58.49    6.63
   4   3  -2  448.78   18.14
   4   3  -2  415.47   18.30
   4   3  -1  604.57   23.32
   4   3  -1  597.41   22.11
   4   3  -1  583.46   23.86
   4   3   0  662.03   26.28
   4   3   0  672.17   23.79
   4   3   0  690.37   26.04
   4   3   1    5.81    2.35
   4   3   1    9.41    3.21
   4   3   1    3.73    1.83
   4   3   2   53.64    7.66
   4   3   2   59.37    8.35
   4   3   3  592.23   28.71
   4   3   4 1101.30   41.97
   4   3   5  426.49   26.02
   4   3   5  449.18   17.79
   4   3   6  125.40   14.43
   4   3   6  127.15   11.04
   4   3   7   33.01    7.96
   4   3   8   25.05    7.45
   4   3   9  303.48   24.89
   4   3  10    3.27    3.17
   4   3  11   60.51   11.72
   4   4  -9   65.02   14.67
   4   4  -8   35.75   10.03
   4   4  -7  118.82   17.03
   4   4  -6   -0.18    3.68
   4   4  -5    5.76    3.86
   4   4  -4    1.22    2.53
   4   4  -4    0.47    0.64
   4   4  -3   91.77   11.66
   4   4  -3   87.05    7.04
   4   4  -3   71.60    8.73
   4   4  -2    2.42    1.48
   4   4  -2    6.27    2.50
   4   4  -1   89.58    8.94
   4   4  -1  102.55    9.92
   4   4  -1   93.59    9.08
   4   4   0  156.38   12.73
   4   4   0  173.30   12.86
   4   4   0  136.55   11.17
   4   4   1  222.90   14.86
   4   4   1  222.38   16.17
   4   4   1  234.06   15.21
   4   4   2 1311.04   44.51
   4   4   3  503.50   27.01
   4   4   4  760.39   35.24
   4   4   5    7.74    4.74
   4   4   6   13.15    5.37
   4   4   7   19.87    5.85
   4   4   7   27.79    5.51
   4   4   8  218.66   21.04
   4   4   9  106.17   14.99
   4   4  10  113.74   16.09
   4   4  11   87.84   14.48
   4   5  -8    4.09    4.18
   4   5  -7   95.56   16.13
   4   5  -6  140.39   18.10
   4   5  -5  234.28   21.93
   4   5  -4    1.60    3.11
   4   5  -4    3.66    1.37
   4   5  -3   17.27    3.44
   4   5  -2    1.94    1.77
   4   5  -1   35.35    5.71
   4   5  -1   38.26    6.37
   4   5   0  220.69   14.72
   4   5   0  212.77   15.82
   4   5   1  210.43   16.60
   4   5   2   21.58    5.41
   4   5   3  208.17   17.91
   4   5   4  327.44   23.54
   4   5   5  407.34   27.06
   4   5   6    2.46    2.31
   4   5   7   41.95    9.46
   4   5   8  196.89   20.75
   4   5   9   65.48   12.54
   4   5  10   51.19   11.50
   4   5  11    4.74    4.24
   4   5  12    7.90    4.92
   4   6  -8   47.71   12.16
   4   6  -7   37.47    9.77
   4   6  -6    2.24    2.45
   4   6  -5    3.54    3.88
   4   6  -3   45.10    6.23
   4   6  -2  572.18   25.69
   4   6  -1  132.33   12.60
   4   6  -1  130.48   11.16
   4   6   0  470.20   25.80
   4   6   3  130.69   14.77
   4   6   4   12.91    5.54
   4   6   5  147.26   17.11
   4   6   6   57.95   11.05
   4   6   7  189.06   20.51
   4   6   8  232.55   23.44
   4   6   9   56.57   12.32
   4   6  10   11.51    5.83
   4   6  11    3.58    2.89
   4   6  12  -17.91    7.45
   4   7  -7   29.25    8.77
   4   7  -6   -3.74    2.14
   4   7  -3   68.00    8.59
   4   7  -2   19.90    4.88
   4   7  -1  116.63   10.58
   4   7   6   76.08   13.02
   4   7   7   50.43   11.14
   4   7   8    9.62    6.03
   4   7   9   11.03    5.94
   4   7  10   33.88   10.25
   4   7  11   73.24   14.93
   4   8   7    8.46    6.93
   4   8   8    6.97    4.91
   4   8   9   -2.40    3.35
   4   8  10   34.21   10.98
   4   9   8   10.82    6.01
   4   9   9   50.59   12.69
   5  -9  -3   14.17    6.54
   5  -9  -2   11.93    5.37
   5  -9  -1   -7.04    5.36
   5  -8  -5   42.44   12.22
   5  -8  -4   57.00   12.91
   5  -8  -4   84.21   13.97
   5  -8  -3   39.10    9.71
   5  -8  -3   68.26   14.48
   5  -8  -2    2.87    3.53
   5  -8  -1   54.03   11.50
   5  -8   0  131.37   19.25
   5  -8   1    1.19    2.75
   5  -7  -7   16.90    8.25
   5  -7  -6   13.20    7.38
   5  -7  -5   56.72   13.79
   5  -7  -4   38.81    8.46
   5  -7  -4   39.06   10.54
   5  -7  -3  100.20   16.00
   5  -7  -3  142.74   16.96
   5  -7  -2   69.58   11.94
   5  -7  -1  178.30   20.40
   5  -7   0  118.42   17.22
   5  -7   1  248.92   25.63
   5  -7   2   -0.49    2.92
   5  -7   3   25.45    9.23
   5  -6  -8   60.99   14.98
   5  -6  -7   -0.14    3.97
   5  -6  -6  276.58   29.27
   5  -6  -5   36.07    7.38
   5  -6  -5   52.14   12.42
   5  -6  -4  162.39   20.19
   5  -6  -4  139.22   14.80
   5  -6  -3  211.02   22.24
   5  -6  -3  238.77   20.02
   5  -6  -2   25.74    7.07
   5  -6  -1   -0.07    2.76
   5  -6   0  197.51   20.43
   5  -6   1    2.06    3.67
   5  -6   2   13.31    5.71
   5  -6   3   92.62   15.68
   5  -6   4    3.84    4.49
   5  -6   5   29.26    9.97
   5  -5  -9   25.56    7.67
   5  -5  -9   15.53    6.82
   5  -5  -8   14.86    5.56
   5  -5  -8   18.12    7.30
   5  -5  -7  139.14   20.90
   5  -5  -6    4.89    5.02
   5  -5  -5  365.95   21.36
   5  -5  -5  367.55   30.65
   5  -5  -4  122.65   16.93
   5  -5  -4  160.69   14.08
   5  -5  -3  149.75   17.50
   5  -5  -3  127.00   13.10
   5  -5  -2  203.43   17.69
   5  -5  -1    5.56    3.68
   5  -5   0   48.10    9.50
   5  -5   1   16.33    7.09
   5  -5   2  276.50   24.44
   5  -5   3   10.84    6.55
   5  -5   4    1.95    3.51
   5  -5   5   67.82   14.03
   5  -5   6   23.69    8.81
   5  -4 -11   32.94   10.52
   5  -4 -10   22.42    8.04
   5  -4  -9  224.64   23.24
   5  -4  -8  194.05   19.92
   5  -4  -8  129.18   20.52
   5  -4  -7   88.74   12.59
   5  -4  -7  109.14   18.15
   5  -4  -6    7.68    5.75
   5  -4  -5  208.20   13.56
   5  -4  -5  234.35   23.64
   5  -4  -4    6.66    2.70
   5  -4  -4    7.94    4.98
   5  -4  -3    6.03    2.39
   5  -4  -3    4.44    3.56
   5  -4  -2  255.48   20.49
   5  -4  -2  224.71   16.79
   5  -4  -1  121.39   13.18
   5  -4   0  175.20   16.22
   5  -4   1  858.98   39.46
   5  -4   2   31.85    8.05
   5  -4   3  199.61   20.06
   5  -4   4   58.72   11.75
   5  -4   5    2.38    3.37
   5  -4   6  107.13   16.99
   5  -4   7   32.57    9.82
   5  -3 -11   16.19    8.47
   5  -3 -10   30.21    9.64
   5  -3  -9  144.73   19.07
   5  -3  -8  162.52   18.92
   5  -3  -7   50.39    9.61
   5  -3  -7   61.71   13.32
   5  -3  -6  206.51   18.51
   5  -3  -6  165.02   20.63
   5  -3  -5   68.85   12.46
   5  -3  -4  232.33   12.20
   5  -3  -4  203.12   19.87
   5  -3  -3   46.08    5.97
   5  -3  -3   58.34    9.94
   5  -3  -2  222.38   18.23
   5  -3  -2  223.01   14.77
   5  -3  -1  486.86   23.89
   5  -3   0   24.56    5.68
   5  -3   1    9.86    4.58
   5  -3   2   97.34   12.39
   5  -3   3  650.64   34.98
   5  -3   4   44.69   10.03
   5  -3   5  264.14   24.74
   5  -3   6  256.58   25.43
   5  -3   7   27.16    9.45
   5  -3   8   16.72    7.57
   5  -2 -10  104.11   17.50
   5  -2  -9   10.55    5.09
   5  -2  -8   56.17   11.54
   5  -2  -7   15.24    5.93
   5  -2  -6   28.62    7.24
   5  -2  -6   23.63    6.56
   5  -2  -5  151.56   15.11
   5  -2  -5  115.29   15.46
   5  -2  -4  472.51   29.66
   5  -2  -3  816.06   21.78
   5  -2  -3  762.89   36.13
   5  -2  -2  443.19   18.28
   5  -2  -2  423.16   24.08
   5  -2  -1   92.42   10.20
   5  -2  -1   60.50    7.12
   5  -2   0   22.41    4.84
   5  -2   1   40.68    8.44
   5  -2   1   29.75    5.97
   5  -2   2  524.56   30.08
   5  -2   3   19.64    6.69
   5  -2   4  183.15   18.43
   5  -2   5    5.74    4.21
   5  -2   6  213.93   20.80
   5  -2   7  271.02   24.14
   5  -2   8   45.93   10.50
   5  -1 -10   37.04   10.96
   5  -1  -9    1.23    2.84
   5  -1  -8   12.04    6.06
   5  -1  -7   99.88   14.10
   5  -1  -6  156.69   17.17
   5  -1  -5  432.65   26.72
   5  -1  -4   12.90    6.08
   5  -1  -3  715.54   33.67
   5  -1  -2  136.43    7.68
   5  -1  -2  148.32   13.45
   5  -1  -1   59.72    7.67
   5  -1  -1   49.31    8.40
   5  -1  -1   55.75    5.79
   5  -1   0  762.66   26.81
   5  -1   0  700.17   32.55
   5  -1   1  154.78   14.99
   5  -1   2  392.12   24.74
   5  -1   3  497.78   28.81
   5  -1   4  202.25   18.78
   5  -1   5   27.39    7.80
   5  -1   6   28.51    7.65
   5  -1   7   26.85    7.63
   5  -1   8   22.81    6.97
   5  -1   9   28.80    8.10
   5   0 -10   26.78    9.50
   5   0  -9   11.37    6.66
   5   0  -8   42.05   10.76
   5   0  -7  266.43   24.44
   5   0  -6   92.77   13.59
   5   0  -5    4.11    3.95
   5   0  -3  316.81   21.46
   5   0  -2  280.08   18.17
   5   0  -2  280.83    8.05
   5   0  -2  301.55   19.10
   5   0  -2  284.86    8.20
   5   0  -1   35.67    6.72
   5   0  -1   48.33    6.63
   5   0   0  128.16   12.77
   5   0   0  127.10    9.52
   5   0   1  781.74   34.09
   5   0   2 1122.12   42.68
   5   0   3  879.56   38.27
   5   0   4    4.95    4.22
   5   0   5  384.30   26.32
   5   0   6   10.73    4.84
   5   0   7  204.38   20.23
   5   0   8  226.41   22.12
   5   0   9    3.37    2.13
   5   1 -10   10.90    6.46
   5   1  -9   18.43    7.10
   5   1  -8   75.57   14.14
   5   1  -7   25.22    8.07
   5   1  -6  106.13   14.79
   5   1  -5  118.01   14.48
   5   1  -4    3.59    3.46
   5   1  -3  133.27   11.22
   5   1  -2  999.61   34.50
   5   1  -2  968.72   19.98
   5   1  -1  146.11   12.74
   5   1  -1  146.54    8.29
   5   1   0  301.16   15.09
   5   1   0  261.89   17.95
   5   1   0  295.97   13.77
   5   1   1  231.62   17.32
   5   1   1  219.13    9.74
   5   1   2   23.84    5.97
   5   1   3   39.19    7.56
   5   1   4   68.34   10.58
   5   1   5  197.30   18.57
   5   1   6    7.62    4.28
   5   1   7   37.55    8.85
   5   1   8   62.82   11.33
   5   1   9   69.49   12.33
   5   1  10   34.33    9.06
   5   2  -9    5.40    4.98
   5   2  -8   22.29    7.25
   5   2  -7  116.64   16.67
   5   2  -6   82.03   13.38
   5   2  -5  158.36   17.34
   5   2  -4  265.48   21.13
   5   2  -3 1382.29   39.00
   5   2  -2 1210.03   37.20
   5   2  -2 1149.37   28.04
   5   2  -1   88.39    9.59
   5   2  -1  105.62    7.56
   5   2   0  250.79   16.98
   5   2   0  224.89   12.81
   5   2   1   31.70    6.19
   5   2   1   28.06    5.48
   5   2   2  462.35   25.48
   5   2   2  440.22   23.21
   5   2   3  311.34   21.34
   5   2   4    7.14    1.69
   5   2   4    3.40    2.88
   5   2   5   36.43    5.13
   5   2   5   47.16    9.05
   5   2   6   82.70    9.26
   5   2   6   61.43   10.58
   5   2   7   20.36    6.47
   5   2   8  327.30   26.46
   5   2   9  106.33   15.31
   5   2  10   28.06    8.11
   5   3  -9    5.34    3.52
   5   3  -8   12.19    6.89
   5   3  -7  149.69   19.49
   5   3  -6   22.33    7.86
   5   3  -5  218.36   20.64
   5   3  -4  292.78   22.74
   5   3  -4  278.65   13.70
   5   3  -3   78.13    7.75
   5   3  -3   86.64    7.81
   5   3  -2  229.92   14.53
   5   3  -2  201.83   12.31
   5   3  -1  425.69   21.47
   5   3  -1  417.36   18.46
   5   3   0  242.97   16.91
   5   3   0  270.72   14.78
   5   3   1  251.02   17.59
   5   3   1  202.40   13.94
   5   3   2    1.92    2.04
   5   3   3   86.92   11.35
   5   3   4    6.24    4.04
   5   3   5  350.98   13.29
   5   3   5  344.08   24.80
   5   3   6  207.24   19.57
   5   3   6  208.24   12.92
   5   3   7  167.06   18.20
   5   3   8  447.91   31.19
   5   3   9   21.31    7.07
   5   3  10   73.30   13.33
   5   3  11    2.66    4.60
   5   4  -8  237.26   26.50
   5   4  -7  263.26   26.45
   5   4  -6  233.32   23.51
   5   4  -5    3.50    3.66
   5   4  -4    7.45    2.12
   5   4  -3   41.69    5.72
   5   4  -3   46.48    6.84
   5   4  -2   40.40    6.38
   5   4  -2   45.68    6.65
   5   4  -1   51.89    7.29
   5   4  -1   48.32    6.95
   5   4   0   -0.61    1.35
   5   4   0    0.46    2.39
   5   4   1   58.82    8.98
   5   4   2   84.06   10.86
   5   4   3  494.29   28.48
   5   4   4  294.61   22.49
   5   4   5   16.00    5.99
   5   4   6   30.15    8.02
   5   4   7   72.20   12.11
   5   4   8   26.13    7.66
   5   4   9   40.24    9.59
   5   4  10   15.32    6.27
   5   4  11   45.08   10.85
   5   5  -8   42.99   11.43
   5   5  -7   26.19    8.58
   5   5  -6  115.17   16.69
   5   5  -5   41.63    9.35
   5   5  -4  237.49   11.98
   5   5  -3  407.71   19.04
   5   5  -2   46.70    6.77
   5   5  -1   48.98    7.66
   5   5   0   72.41    9.70
   5   5   1  147.32   14.61
   5   5   2   52.63    9.21
   5   5   3   86.99   12.10
   5   5   4  692.52   36.48
   5   5   5  310.86   24.71
   5   5   6  153.60   17.58
   5   5   7   96.75   14.77
   5   5   8   54.98   11.66
   5   5   9   52.45   11.14
   5   5  10    9.15    5.79
   5   5  11   76.56   14.53
   5   5  12   18.30    7.40
   5   6  -7   18.66    7.86
   5   6  -6    3.11    2.55
   5   6  -3  113.17   10.36
   5   6  -2   84.55    9.93
   5   6  -1   29.68    6.03
   5   6   0  109.55   12.67
   5   6   1   10.38    4.79
   5   6   2  144.08   15.63
   5   6   3   39.49    8.72
   5   6   4  217.14   20.77
   5   6   5   99.08   14.42
   5   6   6    4.45    4.97
   5   6   7  174.04   20.42
   5   6   8  320.28   28.43
   5   6   9   62.24   13.15
   5   6  10  167.70   21.42
   5   6  11   15.89    6.33
   5   7  -2    4.25    2.95
   5   7  -1    0.60    1.65
   5   7   0   32.39    7.60
   5   7   1   64.98   10.75
   5   7   2   38.17    8.37
   5   7   3  527.41   32.93
   5   7   4   28.10    8.15
   5   7   5  216.70   22.18
   5   7   6    1.41    3.10
   5   7   7   21.69    6.75
   5   7   8   56.24   12.57
   5   7   9    9.44    6.11
   5   7  10   41.75   11.48
   5   8  -2   52.13    8.79
   5   8  -1    5.10    2.48
   5   8   0   38.75    8.27
   5   8   1    2.94    4.41
   5   8   2   96.98   14.03
   5   8   3  222.33   22.14
   5   8   4   62.53   12.26
   5   8   5  242.10   24.62
   5   8   6  118.70   17.61
   5   8   7   58.15   12.35
   5   8   8   15.15    5.66
   5   8   9   -4.58    5.27
   5   9  -1   99.98   13.73
   5   9   0  100.74   14.15
   5   9   1    7.26    4.59
   5   9   2   30.06    8.24
   5   9   3   44.86   11.15
   5   9   4   57.90   12.27
   5   9   5    5.05    6.00
   5   9   6   40.38   11.13
   5   9   7    5.92    4.84
   5   9   8   16.97    7.58
   5  10   0   10.47    4.40
   5  10   1   28.05    8.11
   5  10   2   31.20    9.71
   5  10   4    5.15    5.26
   5  10   5   -0.96    3.00
   5  10   6   14.26    7.04
   5  10   7    6.23    5.69
   5  11   1   10.84    5.02
   5  11   5   67.06   14.78
   5  12   2   12.20    4.91
   6  -8  -2   20.12    7.40
   6  -8  -1   30.18    9.12
   6  -8   0   -4.37    5.09
   6  -7  -6   86.40   17.97
   6  -7  -5   -4.29    4.65
   6  -7  -4    4.97    4.74
   6  -7  -3   31.57    9.30
   6  -7  -2  -10.07    4.99
   6  -7  -2    3.59    4.38
   6  -7  -1   81.28   13.99
   6  -7   0  173.90   21.27
   6  -7   1   30.40    9.36
   6  -7   2  111.65   18.36
   6  -6  -7   66.26   15.52
   6  -6  -6   -4.46    5.14
   6  -6  -5  108.74   18.18
   6  -6  -4   85.30   15.44
   6  -6  -3  138.50   18.75
   6  -6  -3  120.03   14.28
   6  -6  -2    7.78    5.30
   6  -6  -2    5.64    2.86
   6  -6  -1   63.64   12.02
   6  -6   0   40.42    9.44
   6  -6   1   32.55    9.71
   6  -6   2  187.62   22.30
   6  -6   3    3.46    2.58
   6  -6   4   16.82    7.50
   6  -5  -8   30.59   10.43
   6  -5  -7   -1.13    2.82
   6  -5  -6   44.98   11.53
   6  -5  -5  182.98   22.66
   6  -5  -4   82.00   14.48
   6  -5  -3  255.38   24.21
   6  -5  -3  201.80   17.05
   6  -5  -2  271.90   23.94
   6  -5  -2  262.64   20.90
   6  -5  -1   93.04   12.96
   6  -5   0   78.83   12.44
   6  -5   1   82.18   13.33
   6  -5   2   23.10    7.13
   6  -5   3   12.93    6.19
   6  -5   4   34.92   10.11
   6  -5   5   76.32   15.40
   6  -4 -10   22.14    7.96
   6  -4  -9  135.79   18.11
   6  -4  -8  110.49   19.87
   6  -4  -7   31.90   10.52
   6  -4  -6  259.27   27.42
   6  -4  -5    4.25    4.08
   6  -4  -4  194.27   13.44
   6  -4  -4  183.91   20.52
   6  -4  -3  136.35   16.62
   6  -4  -3  124.45   11.89
   6  -4  -2   30.86    7.87
   6  -4  -2   54.10    8.47
   6  -4  -1    7.29    3.80
   6  -4   0   37.33    8.15
   6  -4   1   55.03   10.11
   6  -4   2  671.60   37.51
   6  -4   3  172.99   19.64
   6  -4   4   10.90    4.58
   6  -4   5    4.64    4.30
   6  -4   6   27.77   10.08
   6  -3 -10   28.38    9.23
   6  -3  -9   59.03   13.03
   6  -3  -8   87.80   14.22
   6  -3  -7  168.33   22.75
   6  -3  -6   43.89   10.97
   6  -3  -5  592.84   38.73
   6  -3  -4   23.22    3.56
   6  -3  -4   23.56    7.19
   6  -3  -3    1.92    1.26
   6  -3  -3    2.84    3.84
   6  -3  -2    1.52    1.80
   6  -3  -2   -1.12    1.20
   6  -3  -1    9.45    4.60
   6  -3  -1    1.65    2.15
   6  -3   0   19.99    5.68
   6  -3   1  183.70   16.95
   6  -3   2  552.93   32.04
   6  -3   3   -1.03    2.59
   6  -3   4   30.90    8.87
   6  -3   5  127.74   18.14
   6  -3   6   93.24   16.07
   6  -3   7   17.32    8.11
   6  -2 -10   29.26    9.72
   6  -2  -9  110.52   17.31
   6  -2  -8  177.95   20.85
   6  -2  -7  136.38   17.03
   6  -2  -6   31.43    8.98
   6  -2  -5   14.37    6.26
   6  -2  -4    0.71    2.96
   6  -2  -3  202.33    9.87
   6  -2  -3  196.75   18.53
   6  -2  -2  297.83   15.63
   6  -2  -2  331.77   22.54
   6  -2  -1  237.02   17.89
   6  -2  -1  270.09   16.31
   6  -2   0  112.93   11.32
   6  -2   1  298.26   20.18
   6  -2   2   16.59    6.40
   6  -2   3  224.74   21.61
   6  -2   4   64.64   12.22
   6  -2   5   34.33    9.18
   6  -2   6   96.59   15.16
   6  -2   7  142.80   19.03
   6  -2   8   28.81    8.72
   6  -1 -10   88.19   16.66
   6  -1  -9  145.92   20.55
   6  -1  -8   95.84   15.59
   6  -1  -7   21.46    7.68
   6  -1  -4  580.50   34.48
   6  -1  -3   45.45    8.75
   6  -1  -2  161.10    9.19
   6  -1  -2  164.14   15.40
   6  -1  -1  267.54   14.39
   6  -1  -1  247.86   17.33
   6  -1   0  244.96   15.71
   6  -1   0  220.90   19.43
   6  -1   1  166.57   17.16
   6  -1   2  374.26   26.66
   6  -1   3  100.14   14.05
   6  -1   4   76.44   12.44
   6  -1   5  259.55   23.60
   6  -1   6  276.48   25.20
   6  -1   7   71.16   13.31
   6  -1   8   21.07    7.42
   6  -1   9   58.16   12.54
   6   0  -9   10.13    5.56
   6   0  -8   67.66   13.44
   6   0  -7   25.69    8.36
   6   0  -6    5.03    4.14
   6   0  -2   17.53    5.05
   6   0  -2   23.63    2.60
   6   0  -2   16.09    5.17
   6   0  -2   19.16    2.37
   6   0  -1   18.47    5.33
   6   0  -1   15.80    4.46
   6   0   0    2.17    1.97
   6   0   0    4.58    3.28
   6   0   1   96.77    8.29
   6   0   1  113.01   13.63
   6   0   2  633.85   34.03
   6   0   3    7.74    5.00
   6   0   4 1143.06   49.47
   6   0   5   -0.69    2.94
   6   0   6   94.56   14.34
   6   0   7  134.49   17.64
   6   0   8   47.58   11.05
   6   0   9   22.90    8.20
   6   1  -9   28.11    9.77
   6   1  -8   75.54   14.64
   6   1  -7   75.43   13.61
   6   1  -6   35.83    9.30
   6   1  -3  812.16   33.37
   6   1  -2    8.58    1.52
   6   1  -2   13.88    5.00
   6   1  -1   69.13    6.30
   6   1  -1   63.35    9.48
   6   1   0  478.37   26.94
   6   1   0  465.76   20.91
   6   1   0  479.21   19.94
   6   1   1  530.81   29.26
   6   1   1  537.77   18.40
   6   1   2  458.35   27.82
   6   1   2  445.32   14.71
   6   1   3  330.34   24.27
   6   1   4   20.53    6.44
   6   1   5  182.15   19.00
   6   1   6    3.98    3.71
   6   1   7   89.06   14.31
   6   1   8   12.40    6.33
   6   1   9   42.62   10.43
   6   1  10   -2.23    4.05
   6   2  -9    6.88    6.22
   6   2  -8   20.36    7.96
   6   2  -7   17.44    6.62
   6   2  -6    0.02    2.64
   6   2  -3   59.83    8.18
   6   2  -2  945.05   36.05
   6   2  -2  972.61   24.92
   6   2  -1  161.40   14.67
   6   2  -1  177.30   10.43
   6   2   0  423.45   24.62
   6   2   0  384.31   18.31
   6   2   1  246.00   19.21
   6   2   1  232.54   16.02
   6   2   2  569.51   31.09
   6   2   3  258.19   21.17
   6   2   4   26.29    7.53
   6   2   4   24.27    2.41
   6   2   5  670.42   37.32
   6   2   5  674.65   22.15
   6   2   6   11.37    5.09
   6   2   7  184.29   20.52
   6   2   8  100.52   15.57
   6   2   9   15.85    6.93
   6   2  10    1.98    3.18
   6   3  -8   12.52    6.23
   6   3  -7    7.28    5.26
   6   3  -6    0.54    2.32
   6   3  -4   45.91    6.38
   6   3  -3  153.36   12.65
   6   3  -3  156.41    9.93
   6   3  -2  565.28   26.48
   6   3  -2  525.87   20.78
   6   3  -1  195.30   15.80
   6   3  -1  205.00   12.75
   6   3   0  346.48   22.22
   6   3   0  368.18   18.28
   6   3   1  128.43   13.88
   6   3   1  152.19   12.75
   6   3   2   90.07   12.09
   6   3   3   11.75    4.37
   6   3   4  142.16   16.14
   6   3   5   52.31   10.57
   6   3   6   27.32    7.84
   6   3   7    0.44    3.01
   6   3   8   99.87   15.34
   6   3   9   93.87   15.50
   6   3  10  104.03   16.45
   6   3  11   13.98    7.10
   6   4  -8   12.69    7.14
   6   4  -7   83.35   15.07
   6   4  -4  140.80   10.74
   6   4  -3  398.62   20.62
   6   4  -3  373.47   19.29
   6   4  -2   43.80    6.61
   6   4  -2   39.25    7.13
   6   4  -1  185.99   15.48
   6   4  -1  205.14   14.57
   6   4   0   22.98    4.66
   6   4   0   15.48    5.09
   6   4   1   67.13   10.08
   6   4   2  496.63   29.13
   6   4   3  622.45   33.99
   6   4   4   13.07    5.07
   6   4   5    8.53    4.43
   6   4   6    4.52    3.36
   6   4   7    1.68    2.63
   6   4   8   95.74   15.37
   6   4   9   25.28    7.72
   6   4  10   17.65    7.20
   6   4  11    7.81    6.07
   6   5  -7   55.62   12.19
   6   5  -3   17.37    4.33
   6   5  -2  135.76   12.67
   6   5  -1  239.55   17.91
   6   5   0  140.31   14.16
   6   5   1   46.02    8.54
   6   5   2    1.23    1.99
   6   5   3   24.43    7.32
   6   5   4   25.91    7.41
   6   5   5  193.14   20.24
   6   5   6   31.13    9.37
   6   5   7  532.49   35.94
   6   5   8   66.71   12.97
   6   5   9   45.19   11.34
   6   5  10   54.35   12.50
   6   5  11   32.81    9.81
   6   6  -3   93.64   10.09
   6   6  -2  250.07   17.87
   6   6  -1  159.99   15.02
   6   6   0  165.05   16.26
   6   6   1    4.49    2.76
   6   6   2    1.61    2.37
   6   6   3   21.64    6.56
   6   6   4   11.33    4.32
   6   6   5  144.26   18.24
   6   6   6   33.23    9.38
   6   6   7   97.15   15.84
   6   6   8   89.18   15.50
   6   6   9   88.19   15.86
   6   6  10   57.20   13.36
   6   7  -2   -0.79    1.49
   6   7  -1  144.64   15.04
   6   7   0    6.71    2.85
   6   7   1    2.57    4.95
   6   7   2  106.34   14.49
   6   7   3    1.30    2.93
   6   7   4  125.47   16.77
   6   7   5   97.96   15.25
   6   7   6   43.08   10.82
   6   7   7   27.50    9.03
   6   7   8   51.01   12.64
   6   7   9   18.78    7.48
   6   8  -1   14.88    4.91
   6   8   0   19.42    6.35
   6   8   1   38.63    8.83
   6   8   2   21.94    6.78
   6   8   3   58.86   11.43
   6   8   4   80.61   14.03
   6   8   5  176.07   21.06
   6   8   6   -4.60    5.58
   6   8   7  249.86   26.92
   6   8   8   32.51   10.06
   6   8   9   82.53   16.35
   6   9   0   68.82   12.09
   6   9   1   -1.69    3.14
   6   9   2   29.80    8.32
   6   9   3   47.33   10.97
   6   9   4    1.83    4.11
   6   9   5   45.00   11.23
   6   9   6   76.77   14.88
   6   9   7   31.60    9.96
   6  10   1    0.35    1.97
   6  10   2   33.86    9.88
   6  10   3   40.03   11.16
   6  10   4   72.79   14.53
   6  10   5   30.70    9.83
   6  10   6   -0.35    4.73
   6  11   1   38.73   10.21
   6  11   2   28.20    8.89
   6  11   3   28.47   10.51
   6  11   4   40.04   10.79
   7  -7  -3    0.55    3.16
   7  -7  -2    1.04    3.59
   7  -7   0    1.80    4.51
   7  -7   1   43.32   11.44
   7  -6  -6   55.37   14.06
   7  -6  -5  108.12   19.20
   7  -6  -4   68.89   14.52
   7  -6  -3   14.10    6.84
   7  -6  -2    3.38    2.62
   7  -6  -1   42.12    9.68
   7  -6   0    5.91    5.25
   7  -6   1   68.74   13.49
   7  -6   2   51.79   12.15
   7  -6   3   41.77   11.42
   7  -5  -7    9.98    6.16
   7  -5  -6   49.08   13.05
   7  -5  -5   -1.58    4.63
   7  -5  -4   29.78    8.64
   7  -5  -3  185.77   21.69
   7  -5  -2   10.18    5.07
   7  -5  -1  305.57   26.22
   7  -5  -1  265.67   22.75
   7  -5   0  142.63   17.36
   7  -5   1  141.77   17.83
   7  -5   2   74.17   13.64
   7  -5   3   -0.36    3.05
   7  -5   4    4.77    4.40
   7  -4  -8   57.08   14.65
   7  -4  -7   36.39   11.46
   7  -4  -6   17.57    7.71
   7  -4  -5   57.97   13.12
   7  -4  -4   35.19    9.89
   7  -4  -3  104.85   15.33
   7  -4  -2  103.47   14.69
   7  -4  -2  121.74   13.08
   7  -4  -1   95.74   12.78
   7  -4  -1   92.59   13.52
   7  -4   0   76.65   12.00
   7  -4   1   70.12   12.04
   7  -4   2   73.32   12.82
   7  -4   3   10.12    5.34
   7  -4   4   43.66   11.19
   7  -4   5  150.90   21.29
   7  -3  -7   36.80   10.93
   7  -3  -6   97.46   17.11
   7  -3  -5  188.35   22.54
   7  -3  -4  153.37   19.23
   7  -3  -3  337.30   27.03
   7  -3  -2  283.18   18.23
   7  -3  -2  289.13   23.64
   7  -3  -1   14.47    4.75
   7  -3  -1    6.74    3.52
   7  -3   0    4.32    3.50
   7  -3   0    7.27    3.50
   7  -3   1  -10.47    4.48
   7  -3   2    9.05    5.34
   7  -3   3   16.49    7.27
   7  -3   4   70.24   12.98
   7  -3   5  135.11   19.06
   7  -3   6   60.00   13.27
   7  -2  -5   72.63   13.68
   7  -2  -4  439.34   31.98
   7  -2  -3  125.43   15.68
   7  -2  -2   23.95    6.40
   7  -2  -2   23.59    4.46
   7  -2  -1   35.82    7.61
   7  -2  -1   35.96    6.19
   7  -2   0    5.77    3.36
   7  -2   0    8.39    3.84
   7  -2   1  213.15   18.02
   7  -2   2  314.26   27.17
   7  -2   2  331.08   23.88
   7  -2   3   96.14   15.40
   7  -2   4   14.61    6.86
   7  -2   5   54.29   12.09
   7  -2   6   72.16   14.02
   7  -2   7    5.25    4.47
   7  -2   8  109.52   18.35
   7  -1  -9    7.97    5.92
   7  -1  -4   60.53   12.04
   7  -1  -3   12.66    4.82
   7  -1  -2    3.65    1.67
   7  -1  -2   -1.17    1.59
   7  -1  -1   40.69    7.88
   7  -1  -1   50.18    6.53
   7  -1   0   35.95    8.97
   7  -1   0   25.39    5.55
   7  -1   0   28.92    5.76
   7  -1   1  286.69   17.51
   7  -1   1  270.32   23.92
   7  -1   2   59.96   11.53
   7  -1   3   18.20    6.69
   7  -1   4   78.82   13.61
   7  -1   5   76.15   14.02
   7  -1   6   60.79   12.26
   7  -1   7  135.07   19.31
   7  -1   8   27.64    9.96
   7  -1   9   46.98   12.01
   7   0  -9   94.94   16.96
   7   0  -2   20.47    2.68
   7   0  -2   19.95    5.75
   7   0  -2   16.66    2.51
   7   0  -2   12.71    4.86
   7   0  -1    2.64    3.77
   7   0  -1   10.12    2.86
   7   0   0   52.86   10.21
   7   0   0   66.12    8.26
   7   0   1   33.17    8.38
   7   0   1   34.67    5.43
   7   0   2   20.63    6.99
   7   0   2   24.68    4.39
   7   0   3  147.44   17.85
   7   0   4   43.58   10.54
   7   0   5    9.73    5.95
   7   0   6  148.84   19.30
   7   0   7  130.39   18.69
   7   0   8   37.80   10.31
   7   0   9   50.59   12.17
   7   1  -8   43.15   11.24
   7   1  -2    3.16    0.98
   7   1  -2    4.00    3.38
   7   1  -1    7.88    2.58
   7   1  -1    7.79    3.81
   7   1   0   40.19    8.34
   7   1   0   44.29    6.71
   7   1   1  255.41   21.80
   7   1   1  244.22   13.08
   7   1   2  256.43   22.48
   7   1   2  258.67   11.95
   7   1   3  107.02    6.93
   7   1   3   96.44   14.39
   7   1   4  605.03   36.97
   7   1   5  272.39   25.24
   7   1   6  187.14   21.34
   7   1   7   77.06   13.99
   7   1   8   53.69   12.32
   7   1   9    2.26    2.59
   7   1  10   -0.43    2.24
   7   2  -8   92.26   16.76
   7   2  -3  231.16   18.29
   7   2  -2    9.78    2.11
   7   2  -2    7.57    3.37
   7   2  -1   24.01    4.02
   7   2  -1   16.49    5.77
   7   2   0    2.86    1.70
   7   2   0    3.41    3.27
   7   2   1  161.94   17.07
   7   2   2  214.47   20.25
   7   2   3  107.16   14.72
   7   2   4  531.14   34.32
   7   2   5    2.08    3.18
   7   2   6   65.33   12.74
   7   2   7  308.53   28.29
   7   2   8   65.62   13.08
   7   2   9   42.12   10.93
   7   2  10   -4.87    5.36
   7   3  -4   14.80    4.44
   7   3  -3   94.48   11.31
   7   3  -2    5.32    1.95
   7   3  -2    2.34    1.86
   7   3  -1  345.26   23.24
   7   3  -1  310.61   16.56
   7   3   0  516.18   29.79
   7   3   0  530.53   23.45
   7   3   1  324.30   24.15
   7   3   2  375.87   26.83
   7   3   3   60.07   10.77
   7   3   4   16.42    5.59
   7   3   5   87.44   14.09
   7   3   6    6.24    4.04
   7   3   7  107.97   16.75
   7   3   8   -3.70    4.33
   7   3   9   13.59    6.54
   7   3  10    0.15    2.89
   7   4  -3    8.12    3.86
   7   4  -2  647.90   31.09
   7   4  -1   58.75    7.87
   7   4  -1   49.33    9.00
   7   4   0   41.58    8.34
   7   4   1   -2.91    2.80
   7   4   2  356.31   26.18
   7   4   3  498.97   32.17
   7   4   4  345.24   27.34
   7   4   5  298.86   26.25
   7   4   6   -2.01    3.33
   7   4   7   78.25   14.63
   7   4   8   14.09    6.48
   7   4   9   -4.22    3.20
   7   4  10   10.48    6.93
   7   5  -3  214.23   16.55
   7   5  -2   98.96   11.81
   7   5  -1    7.45    3.69
   7   5   0   -4.82    2.92
   7   5   1   23.53    6.30
   7   5   2   29.63    7.57
   7   5   3  193.55   20.01
   7   5   4   79.41   13.15
   7   5   5   31.61    9.13
   7   5   6  314.53   27.87
   7   5   7   16.41    6.75
   7   5   8   24.35    8.67
   7   5   9    5.02    5.41
   7   6  -2   20.43    5.33
   7   6  -1  436.63   26.97
   7   6   0   14.66    4.54
   7   6   1  202.17   19.70
   7   6   2  180.07   19.00
   7   6   3  219.69   21.74
   7   6   4    4.90    3.76
   7   6   5   25.51    8.51
   7   6   6   30.13    9.04
   7   6   7   -7.10    5.31
   7   6   8    3.57    3.38
   7   6   9   56.64   13.23
   7   7  -1    5.97    4.94
   7   7   0   56.04   10.22
   7   7   1  133.17   16.13
   7   7   2  201.85   20.92
   7   7   3   24.48    8.40
   7   7   4   75.75   13.75
   7   7   5    2.39    4.10
   7   7   6    4.73    5.43
   7   7   7  171.81   22.25
   7   7   8   15.09    7.44
   7   8  -1   21.74    6.47
   7   8   0   32.44    8.09
   7   8   1   11.69    4.94
   7   8   2    8.99    5.69
   7   8   3    1.17    3.06
   7   8   4   24.57    8.02
   7   8   5   -0.18    4.64
   7   8   6   75.72   15.24
   7   8   7   17.30    7.78
   7   9   0   30.54    8.17
   7   9   1   39.27    9.58
   7   9   2   35.56    9.70
   7   9   3    0.57    4.08
   7   9   4    5.58    3.94
   7   9   5   32.60    9.48
   7   9   6    4.20    4.51
   7  10   1   14.09    6.01
   7  10   2   20.24    7.41
   7  10   3   10.08    6.43
   7  10   4   19.33    7.67
   7  10   5   19.86    8.11
   7  11   2   13.22    5.62
   7  11   3   10.83    7.11
   8  -6  -4   51.81   13.45
   8  -6  -3   23.77    8.66
   8  -6  -2   21.91    7.81
   8  -6  -1   26.92    8.69
   8  -6   2   60.57   13.45
   8  -5  -6   20.07    8.68
   8  -5  -5    8.57    6.21
   8  -5  -4   49.18   11.69
   8  -5  -3    6.22    4.72
   8  -5  -2   14.77    6.05
   8  -5  -1   77.55   13.90
   8  -5   0   67.68   12.88
   8  -5   1  139.79   18.63
   8  -5   2   22.19    7.86
   8  -5   3   51.76   12.77
   8  -4  -7    2.08    3.84
   8  -4  -6   26.78   10.05
   8  -4  -5   26.30    9.15
   8  -4  -4   33.33    9.76
   8  -4  -3   36.40    9.86
   8  -4  -2   19.02    6.73
   8  -4  -1    9.45    4.88
   8  -4   0   99.89   14.39
   8  -4   0   78.19   12.65
   8  -4   1  202.65   21.17
   8  -4   2  107.75   16.09
   8  -4   3   32.79    9.33
   8  -4   4   48.49   12.22
   8  -3  -6   56.40   13.77
   8  -3  -5   69.31   14.35
   8  -3  -4   62.38   12.77
   8  -3  -3  119.49   16.91
   8  -3  -2   16.71    5.85
   8  -3  -1  207.18   20.05
   8  -3   0  241.55   20.85
   8  -3   0  241.04   20.41
   8  -3   1  297.96   24.04
   8  -3   2   19.78    6.58
   8  -3   3   23.93    7.56
   8  -3   4   -3.37    3.68
   8  -3   5   80.05   15.22
   8  -2  -5   29.39    9.89
   8  -2  -4   51.48   11.82
   8  -2  -3   92.21   14.44
   8  -2  -2  285.07   23.99
   8  -2  -1   76.56   11.44
   8  -2   0   99.92   12.56
   8  -2   0  100.21   11.97
   8  -2   1   76.57   10.52
   8  -2   1   63.69   10.39
   8  -2   2   34.71    8.63
   8  -2   3    1.11    2.41
   8  -2   4   85.37   16.26
   8  -2   4   96.82   15.38
   8  -2   5  123.98   19.43
   8  -2   5  164.35   21.09
   8  -2   6    4.34    4.62
   8  -1  -4  195.42   21.32
   8  -1  -3  179.28   19.22
   8  -1  -2  119.98   14.72
   8  -1  -1   12.53    4.88
   8  -1  -1    6.64    2.84
   8  -1   0  113.88   16.18
   8  -1   0  123.35   12.35
   8  -1   0  117.13   12.87
   8  -1   1   78.51    9.90
   8  -1   1   77.60   13.61
   8  -1   1   78.02   10.81
   8  -1   2   35.66   10.04
   8  -1   2   41.13    6.68
   8  -1   3   16.45    7.42
   8  -1   4   -1.09    3.33
   8  -1   5   12.49    5.08
   8  -1   6   65.20   13.64
   8  -1   7    9.55    6.34
   8   0  -2   84.26   11.85
   8   0  -1  335.97   26.76
   8   0  -1  315.39   21.55
   8   0  -1  303.58   16.11
   8   0   0   80.91   13.32
   8   0   0   91.73   10.58
   8   0   1  212.34   22.31
   8   0   1  187.83   14.04
   8   0   2    3.13    2.83
   8   0   3   78.01   14.20
   8   0   4    3.03    5.60
   8   0   5   11.76    6.22
   8   0   6   60.00   13.32
   8   0   7    8.13    6.02
   8   0   8  126.59   20.04
   8   1  -2   57.07   10.70
   8   1  -1    8.06    4.55
   8   1   0    5.15    4.56
   8   1   1   54.97   11.42
   8   1   2    2.64    3.06
   8   1   3   31.44    9.47
   8   1   4  119.39   17.22
   8   1   5   27.08    8.95
   8   1   6  258.11   26.99
   8   1   7  273.82   28.48
   8   1   8   27.86    9.34
   8   2  -3  273.08   21.85
   8   2  -2    6.80    4.18
   8   2  -1   14.07    5.52
   8   2   0   17.10    6.35
   8   2   1   16.27    7.03
   8   2   2   -3.66    3.35
   8   2   3   13.72    6.75
   8   2   4  121.37   17.34
   8   2   5   35.01    9.69
   8   2   6  185.63   22.72
   8   2   7   55.38   12.70
   8   2   8   49.27   12.58
   8   3  -3    7.95    4.65
   8   3  -2    3.32    4.11
   8   3  -1   13.21    4.78
   8   3   0    4.00    3.74
   8   3   1  483.65   31.95
   8   3   2  414.23   30.31
   8   3   3  211.74   22.01
   8   3   4  117.69   16.91
   8   3   5   14.92    6.22
   8   3   6   12.52    5.50
   8   3   7   51.31   12.30
   8   3   8   64.12   13.62
   8   4  -3    4.17    3.14
   8   4  -2   12.95    5.52
   8   4  -1    6.10    3.88
   8   4   0   14.14    5.60
   8   4   1  107.21   14.79
   8   4   2  120.28   16.18
   8   4   3  137.79   17.85
   8   4   4   68.51   13.19
   8   4   5   38.76    9.97
   8   4   6  204.57   23.67
   8   4   7  199.23   24.13
   8   4   8   22.94    8.68
   8   5  -2  100.55   12.95
   8   5  -1  210.68   19.61
   8   5   0   51.08   10.07
   8   5   1   12.96    6.24
   8   5   2   68.57   12.45
   8   5   3    4.47    6.07
   8   5   4   10.35    5.61
   8   5   5   54.57   12.47
   8   5   6  177.04   22.19
   8   5   7   94.02   16.49
   8   5   8   25.43    8.33
   8   6  -2  175.26   17.20
   8   6  -1   23.09    6.48
   8   6   0    8.60    4.58
   8   6   1   44.95    9.82
   8   6   2   85.21   14.23
   8   6   3  201.32   21.87
   8   6   4   86.26   14.97
   8   6   5   46.08   11.01
   8   6   6   37.21   10.49
   8   6   7   28.95    9.58
   8   6   8    6.96    5.79
   8   7  -1    4.32    3.67
   8   7   0    3.72    4.27
   8   7   1   47.30   10.55
   8   7   2   17.26    6.13
   8   7   3  216.80   23.35
   8   7   4   27.05    8.37
   8   7   5   17.29    7.75
   8   7   6  120.52   18.54
   8   7   7    3.35    4.55
   8   8   0   16.69    6.84
   8   8   1   37.63    9.39
   8   8   2   17.22    7.49
   8   8   3    5.54    3.19
   8   8   4   26.55    8.53
   8   8   5    8.14    5.68
   8   8   6    4.22    3.85
   8   9   1   28.21    8.45
   8   9   2   37.11    9.60
   8   9   3    8.33    5.01
   8   9   4   45.35   11.43
   8   9   5    7.24    6.51
   8  10   2   11.77    6.13
   8  10   3   16.64    6.60
   9  -5  -4    8.56    6.10
   9  -5  -3   -3.91    5.60
   9  -5  -2   19.38    7.73
   9  -4  -6    6.07    5.62
   9  -4  -5   16.96    7.85
   9  -4  -4    8.35    5.51
   9  -4  -3   11.02    5.91
   9  -4  -2   13.47    5.67
   9  -4   3   74.54   14.82
   9  -3  -6    6.81    6.53
   9  -3  -5    5.36    5.61
   9  -3  -4   36.64   10.69
   9  -3  -3   49.22   11.75
   9  -3  -2    6.97    4.31
   9  -3   2   18.69    6.91
   9  -3   3  130.66   18.50
   9  -3   4   57.19   12.93
   9  -2  -4   53.79   11.79
   9  -2  -3   22.39    7.74
   9  -2  -2   22.19    7.05
   9  -2   2   81.16   13.13
   9  -2   3   -0.47    2.89
   9  -2   4   79.49   14.99
   9  -2   5   31.24    9.67
   9  -1  -3   55.97   11.22
   9  -1  -2   50.79    9.91
   9  -1   1   93.78   15.97
   9  -1   1  114.39   13.75
   9  -1   2   72.68   14.76
   9  -1   2   54.59   10.02
   9  -1   3    9.56    5.78
   9  -1   4   68.82   14.74
   9  -1   5   32.63   11.07
   9   0  -1   71.84   13.97
   9   0   0  161.67   20.36
   9   0   1  185.35   22.34
   9   0   2  173.56   22.12
   9   0   3  247.00   26.58
   9   0   4    9.77    6.64
   9   0   5   77.26   15.77
   9   0   6    4.87    4.80
   9   1  -2   56.30   11.09
   9   1  -1   33.59    9.27
   9   1   0  185.29   21.70
   9   1   1   39.30   10.40
   9   1   2   47.07   11.27
   9   1   3   42.81   11.31
   9   1   4    1.77    4.14
   9   1   5    9.78    6.55
   9   1   6   50.44   12.56
   9   2  -3   58.47   11.12
   9   2  -2  150.86   18.26
   9   2  -1  283.80   25.18
   9   2   0  179.18   20.81
   9   2   1   78.02   14.01
   9   2   2    1.91    2.55
   9   2   3    1.47    3.15
   9   2   4   -1.11    4.37
   9   2   5    5.78    3.87
   9   2   6  105.93   18.10
   9   2   7   71.78   15.42
   9   3  -3   27.29    7.47
   9   3  -2   37.58    9.55
   9   3  -1   17.64    6.15
   9   3   0   59.31   12.04
   9   3   1  120.15   16.78
   9   3   2   21.38    7.58
   9   3   3   51.60   12.03
   9   3   4   79.88   15.42
   9   3   5   57.45   12.73
   9   3   6  184.93   23.87
   9   3   7   50.80   12.82
   9   4  -3   88.82   12.88
   9   4  -2   20.42    6.80
   9   4  -1    3.35    4.66
   9   4   0   12.86    6.43
   9   4   1   10.38    5.89
   9   4   2   51.04   11.55
   9   4   3   37.59    9.65
   9   4   4  114.84   18.00
   9   4   5   71.38   14.62
   9   4   6   35.81   10.54
   9   4   7    0.74    5.32
   9   5  -2   41.33    9.01
   9   5  -1   10.26    5.52
   9   5   0   33.23    9.13
   9   5   1  194.84   21.48
   9   5   2  168.95   20.52
   9   5   3    6.43    4.27
   9   5   4   14.85    7.37
   9   5   5    5.38    4.12
   9   5   6   29.18    9.39
   9   6  -1   25.18    7.32
   9   6   0  102.80   15.18
   9   6   1   42.27   10.20
   9   6   2   58.48   12.28
   9   6   3   44.98   11.15
   9   6   4   -4.66    4.29
   9   6   5   67.54   14.16
   9   6   6   75.57   15.31
   9   7   0   -3.03    3.75
   9   7   1    7.49    4.89
   9   7   2   43.53   10.78
   9   7   3   19.54    7.59
   9   7   4   10.64    6.77
   9   7   5   19.98    8.12
   9   8   0   31.81    8.53
   9   8   1   65.55   12.48
   9   8   2    4.97    3.50
   9   8   3   68.51   13.68
   9   8   4   14.32    7.01
   9   8   5   10.72    6.14
   9   9   1   25.89    8.61
   9   9   2    3.01    3.00
   9   9   3   17.62    7.48
   9  10   2    1.34    3.70
  10  -1   4    3.58    3.64
  10   0   0   69.47   13.72
  10   0   1    8.79    5.14
  10   0   2   78.96   15.71
  10   0   3    9.53    4.32
  10   1  -1    3.55    3.15
  10   1   0   12.85    6.56
  10   1   1   23.77    8.47
  10   1   2   88.41   16.26
  10   1   3  110.45   18.15
  10   1   4   17.53    8.90
  10   2  -2   32.74    9.17
  10   2  -1   82.86   14.40
  10   2   0  150.92   20.09
  10   2   1  103.59   17.00
  10   2   2   30.31    9.42
  10   2   3  129.56   19.93
  10   2   4    5.42    5.27
  10   3  -3   -2.30    2.85
  10   3  -2   34.30    8.80
  10   3  -1   -3.86    2.67
  10   3   0   64.10   13.17
  10   3   1   57.30   12.88
  10   3   2  102.17   17.12
  10   3   3   34.78   10.35
  10   3   4   15.01    7.59
  10   3   5    3.55    4.75
  10   4  -2    2.95    3.62
  10   4  -1   42.93   10.49
  10   4   0   21.56    7.82
  10   4   1   40.83   10.26
  10   4   2   -5.43    4.95
  10   4   3   -7.69    5.02
  10   4   4    9.96    5.34
  10   4   5   35.84   11.06
  10   5  -1   29.72    8.64
  10   5   0   17.74    6.03
  10   5   1   67.25   13.38
  10   5   2    7.44    4.98
  10   5   3   32.37    9.70
  10   5   4   11.64    5.66
  10   6  -1   -2.00    3.48
  10   6   0   22.05    7.62
  10   6   1   24.78    8.29
  10   6   2  109.09   17.36
  10   6   3   -1.44    4.24
  10   6   4   25.54    9.87
  10   7   0   18.81    7.67
  10   7   1    8.24    6.59
  10   7   2   38.08   10.03
  10   7   3    3.83    4.63
  10   8   1    6.47    4.84
  10   8   2   13.23    5.70
  11   1   0   22.04    8.82
  11   2  -1   70.04   14.39
  11   2   0   41.49   11.89
  11   2   1   56.00   13.41
  11   3  -2    4.62    4.21
  11   3  -1   37.01   10.46
  11   3   0   35.34   10.47
  11   3   1    3.59    3.44
  11   3   2   23.82    9.62
  11   4  -1    7.12    4.98
  11   4   0   28.99    9.13
  11   4   1    6.21    4.06
  11   4   2    5.82    5.48
  11   5  -1   -2.15    5.76
  11   5   0   33.25   10.22
  11   5   1   37.52   10.76
  11   5   2    1.16    3.55
  11   6   0   -3.62    4.45
  11   6   1   31.89    9.90
  11   7   1   19.15    6.63
   0   0   0    0.00    0.00

_computing_structure_solution     'SHELXT 2018/2 (Sheldrick, 2018)'
;
loop_
_space_group_symop_operation_xyz
'x, y, z'
'-x, -y, -z'
loop_
_atom_site_label
_atom_site_type_symbol
_atom_site_fract_x
_atom_site_fract_y
_atom_site_fract_z
_atom_site_U_iso_or_equiv
_atom_site_adp_type
_atom_site_occupancy
_atom_site_site_symmetry_order
_atom_site_calc_flag
_atom_site_refinement_flags_posn
_atom_site_refinement_flags_adp
_atom_site_refinement_flags_occupancy
_atom_site_disorder_assembly
_atom_site_disorder_group
Cu1 Cu 0.000000 0.500000 1.000000 0.02377(14) Uani 1 2 d S . P . .
O1 O 0.0352(3) 0.7872(3) 0.9029(2) 0.0436(6) Uani 1 1 d . . . . .
O2 O 0.0824(3) 1.0169(3) 0.8078(3) 0.0552(7) Uani 1 1 d . . . . .
O3 O 0.2379(3) 0.8481(3) 0.9718(3) 0.0702(8) Uani 1 1 d . . . . .
N1 N 0.2175(3) 0.3420(3) 0.4075(2) 0.0264(5) Uani 1 1 d . . . . .
N2 N 0.0978(2) 0.4657(3) 0.1966(2) 0.0244(5) Uani 1 1 d . . . . .
N3 N 0.3969(2) 0.2327(2) 0.8542(2) 0.0219(5) Uani 1 1 d . . . . .
N4 N 0.2090(2) 0.3952(3) 0.9365(2) 0.0227(5) Uani 1 1 d . . . . .
N5 N 0.1171(3) 0.8839(3) 0.8966(2) 0.0283(5) Uani 1 1 d . . . . .
C1 C 0.4753(3) 0.1961(3) 0.5342(3) 0.0244(6) Uani 1 1 d . . . . .
C2 C 0.5607(3) 0.1336(3) 0.6661(3) 0.0210(5) Uani 1 1 d . . . . .
C3 C 0.7248(3) 0.1084(3) 0.6676(3) 0.0266(6) Uani 1 1 d . . . . .
H3 H 0.781464 0.065099 0.755294 0.032 Uiso 1 1 calc R U . . .
C4 C 0.8052(3) 0.1470(3) 0.5397(3) 0.0342(7) Uani 1 1 d . . . . .
H4 H 0.915180 0.128954 0.541394 0.041 Uiso 1 1 calc R U . . .
C5 C 0.7211(4) 0.2119(4) 0.4109(3) 0.0371(7) Uani 1 1 d . . . . .
H5 H 0.774146 0.240384 0.325162 0.044 Uiso 1 1 calc R U . . .
C6 C 0.5580(4) 0.2355(3) 0.4073(3) 0.0334(7) Uani 1 1 d . . . . .
H6 H 0.502664 0.278310 0.318923 0.040 Uiso 1 1 calc R U . . .
C7 C 0.2975(3) 0.2148(3) 0.5295(3) 0.0314(7) Uani 1 1 d . . . . .
H7A H 0.276010 0.115715 0.524112 0.038 Uiso 1 1 calc R U . . .
H7B H 0.253997 0.235957 0.618900 0.038 Uiso 1 1 calc R U . . .
C8 C 0.1560(3) 0.3263(3) 0.2877(3) 0.0276(6) Uani 1 1 d . . . . .
H8 H 0.154588 0.229540 0.271104 0.033 Uiso 1 1 calc R U . . .
C9 C 0.1236(3) 0.5760(3) 0.2617(3) 0.0323(7) Uani 1 1 d . . . . .
H9 H 0.094762 0.685487 0.222273 0.039 Uiso 1 1 calc R U . . .
C10 C 0.1973(4) 0.5010(3) 0.3917(3) 0.0355(7) Uani 1 1 d . . . . .
H10 H 0.228363 0.548149 0.457533 0.043 Uiso 1 1 calc R U . . .
C11 C 0.4808(3) 0.0913(3) 0.8101(3) 0.0255(6) Uani 1 1 d . . . . .
H11A H 0.406033 0.029134 0.802674 0.031 Uiso 1 1 calc R U . . .
H11B H 0.560257 0.026333 0.883930 0.031 Uiso 1 1 calc R U . . .
C12 C 0.2476(3) 0.2596(3) 0.9012(3) 0.0252(6) Uani 1 1 d . . . . .
H12 H 0.180521 0.191683 0.907874 0.030 Uiso 1 1 calc R U . . .
C13 C 0.3397(3) 0.4571(3) 0.9123(3) 0.0310(7) Uani 1 1 d . . . . .
H13 H 0.347101 0.552487 0.928392 0.037 Uiso 1 1 calc R U . . .
C14 C 0.4567(3) 0.3579(3) 0.8614(3) 0.0331(7) Uani 1 1 d . . . . .
H14 H 0.557777 0.372017 0.836168 0.040 Uiso 1 1 calc R U . . .
loop_
_atom_site_aniso_label
_atom_site_aniso_U_11
_atom_site_aniso_U_22
_atom_site_aniso_U_33
_atom_site_aniso_U_23
_atom_site_aniso_U_13
_atom_site_aniso_U_12
Cu1 0.0187(2) 0.0306(3) 0.0188(3) -0.00806(19) -0.00184(18) 0.00206(19)
O1 0.0443(13) 0.0409(13) 0.0526(15) -0.0121(11) 0.0028(11) -0.0240(11)
O2 0.0572(16) 0.0345(14) 0.0664(17) 0.0044(12) -0.0206(13) -0.0133(11)
O3 0.0564(17) 0.0742(19) 0.0720(19) 0.0100(14) -0.0366(14) -0.0278(14)
N1 0.0305(13) 0.0244(12) 0.0212(12) -0.0033(9) -0.0093(10) -0.0024(10)
N2 0.0225(12) 0.0261(13) 0.0219(12) -0.0072(10) -0.0030(9) 0.0004(9)
N3 0.0185(11) 0.0244(12) 0.0197(11) -0.0052(9) 0.0005(9) -0.0003(9)
N4 0.0190(11) 0.0273(12) 0.0215(12) -0.0091(9) -0.0011(9) -0.0016(9)
N5 0.0267(13) 0.0312(14) 0.0279(13) -0.0115(11) 0.0016(10) -0.0049(10)
C1 0.0289(14) 0.0227(14) 0.0207(14) -0.0070(11) -0.0023(11) -0.0026(11)
C2 0.0243(13) 0.0167(13) 0.0204(13) -0.0055(10) 0.0010(11) -0.0011(10)
C3 0.0256(14) 0.0241(15) 0.0284(15) -0.0097(11) -0.0018(12) 0.0007(11)
C4 0.0275(15) 0.0334(17) 0.0427(19) -0.0149(14) 0.0075(14) -0.0052(12)
C5 0.0437(19) 0.0383(18) 0.0309(17) -0.0118(14) 0.0172(14) -0.0127(14)
C6 0.0440(18) 0.0343(17) 0.0188(14) -0.0052(12) -0.0013(13) -0.0053(14)
C7 0.0324(16) 0.0334(16) 0.0230(15) 0.0026(12) -0.0098(12) -0.0074(13)
C8 0.0292(15) 0.0231(15) 0.0275(15) -0.0075(12) -0.0077(12) 0.0014(11)
C9 0.0369(17) 0.0219(15) 0.0354(17) -0.0066(12) -0.0105(13) -0.0010(12)
C10 0.0499(19) 0.0240(16) 0.0356(17) -0.0133(13) -0.0138(14) -0.0062(13)
C11 0.0273(14) 0.0222(14) 0.0211(14) -0.0034(11) -0.0005(11) 0.0025(11)
C12 0.0181(13) 0.0316(15) 0.0259(15) -0.0080(12) 0.0020(11) -0.0058(11)
C13 0.0284(15) 0.0301(16) 0.0372(17) -0.0121(13) 0.0019(13) -0.0088(12)
C14 0.0228(14) 0.0363(17) 0.0438(18) -0.0153(14) 0.0064(13) -0.0094(12)
loop_
_atom_type_symbol
_atom_type_description
_atom_type_scat_dispersion_real
_atom_type_scat_dispersion_imag
_atom_type_scat_source
C C 0.0033 0.0016 'International Tables Vol C Tables 4.2.6.8 and 6.1.1.4'
H H 0.0000 0.0000 'International Tables Vol C Tables 4.2.6.8 and 6.1.1.4'
Cu Cu 0.3201 1.2651 'International Tables Vol C Tables 4.2.6.8 and 6.1.1.4'
N N 0.0061 0.0033 'International Tables Vol C Tables 4.2.6.8 and 6.1.1.4'
O O 0.0106 0.0060 'International Tables Vol C Tables 4.2.6.8 and 6.1.1.4'
loop_
_geom_angle_atom_site_label_1
_geom_angle_atom_site_label_2
_geom_angle_atom_site_label_3
_geom_angle
_geom_angle_site_symmetry_1
_geom_angle_site_symmetry_3
N4 Cu1 N4 180.0 2_567 .
N4 Cu1 N2 90.67(8) 2_567 1_556
N4 Cu1 N2 89.33(8) . 1_556
N4 Cu1 N2 89.33(8) 2_567 2_566
N4 Cu1 N2 90.67(8) . 2_566
N2 Cu1 N2 180.0 1_556 2_566
C8 N1 C10 107.2(2) . .
C8 N1 C7 127.0(2) . .
C10 N1 C7 125.8(2) . .
C8 N2 C9 105.9(2) . .
C8 N2 Cu1 125.05(19) . 1_554
C9 N2 Cu1 128.98(18) . 1_554
C12 N3 C14 107.2(2) . .
C12 N3 C11 125.8(2) . .
C14 N3 C11 127.0(2) . .
C12 N4 C13 106.3(2) . .
C12 N4 Cu1 128.01(18) . .
C13 N4 Cu1 125.62(18) . .
O3 N5 O1 121.0(3) . .
O3 N5 O2 118.6(3) . .
O1 N5 O2 120.3(3) . .
C6 C1 C2 118.6(2) . .
C6 C1 C7 120.9(2) . .
C2 C1 C7 120.5(2) . .
C3 C2 C1 119.8(2) . .
C3 C2 C11 117.8(2) . .
C1 C2 C11 122.4(2) . .
C2 C3 C4 120.8(3) . .
C5 C4 C3 119.4(3) . .
C4 C5 C6 120.5(3) . .
C5 C6 C1 121.0(3) . .
N1 C7 C1 113.4(2) . .
N2 C8 N1 111.1(2) . .
C10 C9 N2 109.4(2) . .
C9 C10 N1 106.4(3) . .
N3 C11 C2 112.1(2) . .
N4 C12 N3 110.9(2) . .
C14 C13 N4 109.3(3) . .
C13 C14 N3 106.4(2) . .
loop_
_geom_bond_atom_site_label_1
_geom_bond_atom_site_label_2
_geom_bond_distance
_geom_bond_site_symmetry_2
Cu1 N4 1.989(2) 2_567
Cu1 N4 1.990(2) .
Cu1 N2 2.014(2) 1_556
Cu1 N2 2.014(2) 2_566
O1 N5 1.238(3) .
O2 N5 1.244(3) .
O3 N5 1.224(3) .
N1 C8 1.341(3) .
N1 C10 1.368(3) .
N1 C7 1.456(3) .
N2 C8 1.316(3) .
N2 C9 1.371(3) .
N3 C12 1.343(3) .
N3 C14 1.369(3) .
N3 C11 1.468(3) .
N4 C12 1.318(3) .
N4 C13 1.366(3) .
C1 C6 1.392(4) .
C1 C2 1.398(4) .
C1 C7 1.514(4) .
C2 C3 1.389(3) .
C2 C11 1.515(3) .
C3 C4 1.389(4) .
C4 C5 1.370(4) .
C5 C6 1.382(4) .
C9 C10 1.350(4) .
C13 C14 1.353(4) .
