#------------------------------------------------------------------------------
#$Date: 2022-03-31 12:13:19 +0300 (Thu, 31 Mar 2022) $
#$Revision: 274175 $
#$URL: file:///home/coder/svn-repositories/cod/cif/8/10/49/8104981.cif $
#------------------------------------------------------------------------------
#
# This file is available in the Crystallography Open Database (COD),
# http://www.crystallography.net/
#
# All data on this site have been placed in the public domain by the
# contributors.
#
data_8104981
loop_
_publ_author_name
'Li, Dan-Xia'
'Wang, Hai-Jun'
'Yan, Zhen-Li'
'Du, Chao-Jun'
_publ_section_title
;
 The crystal structure of 6-amino-5-carboxypyridin-1-ium pentaiodide
 monohydrate C6H9I5N2O3
;
_journal_issue                   1
_journal_name_full
'Zeitschrift f\"ur Kristallographie - New Crystal Structures'
_journal_page_first              135
_journal_page_last               136
_journal_paper_doi               10.1515/ncrs-2021-0422
_journal_volume                  237
_journal_year                    2022
_chemical_formula_moiety         'C6 H7 N2 O2, I5, H2 O'
_chemical_formula_sum            'C6 H9 I5 N2 O3'
_chemical_formula_weight         791.65
_space_group_crystal_system      triclinic
_space_group_IT_number           2
_space_group_name_Hall           '-P 1'
_space_group_name_H-M_alt        'P -1'
_atom_sites_solution_hydrogens   mixed
_atom_sites_solution_primary     dual
_cell_angle_alpha                109.119(3)
_cell_angle_beta                 99.341(3)
_cell_angle_gamma                92.334(3)
_cell_formula_units_Z            2
_cell_length_a                   7.4851(5)
_cell_length_b                   9.6056(6)
_cell_length_c                   12.4084(7)
_cell_measurement_reflns_used    5876
_cell_measurement_temperature    150.0
_cell_measurement_theta_max      26.34
_cell_measurement_theta_min      2.26
_cell_volume                     827.53(9)
_computing_cell_refinement       'SAINT v8.37A (Bruker, 2015) [1]'
_computing_data_collection       'Bruker APEX-II [1]'
_computing_data_reduction        'SAINT v8.37A (Bruker, 2015) [1]'
_computing_molecular_graphics    'Olex2 1.3 (Dolomanov et al., 2009) [2]'
_computing_publication_material  'Olex2 1.3 (Dolomanov et al., 2009) [2]'
_computing_structure_refinement  'SHELXL 2018/3 (Sheldrick, 2015) [3]'
_computing_structure_solution    'SHELXT 2018/2 (Sheldrick, 2018) [4]'
_diffrn_ambient_temperature      150.0
_diffrn_measured_fraction_theta_full 0.999
_diffrn_measured_fraction_theta_max 0.998
_diffrn_measurement_device_type  'Bruker APEX-II CCD'
_diffrn_measurement_method       '\f and \w scans'
_diffrn_radiation_type           MoK\a
_diffrn_radiation_wavelength     0.71073
_diffrn_reflns_av_R_equivalents  0.0449
_diffrn_reflns_av_unetI/netI     0.0309
_diffrn_reflns_Laue_measured_fraction_full 0.999
_diffrn_reflns_Laue_measured_fraction_max 0.998
_diffrn_reflns_limit_h_max       9
_diffrn_reflns_limit_h_min       -9
_diffrn_reflns_limit_k_max       11
_diffrn_reflns_limit_k_min       -11
_diffrn_reflns_limit_l_max       15
_diffrn_reflns_limit_l_min       -15
_diffrn_reflns_number            17263
_diffrn_reflns_point_group_measured_fraction_full 0.999
_diffrn_reflns_point_group_measured_fraction_max 0.998
_diffrn_reflns_theta_full        25.242
_diffrn_reflns_theta_max         26.407
_diffrn_reflns_theta_min         2.255
_diffrn_source_current           30.0
_diffrn_source_power             1.5
_diffrn_source_voltage           50.0
_diffrn_standards_number         0
_exptl_absorpt_coefficient_mu    9.392
_exptl_absorpt_correction_T_max  0.7454
_exptl_absorpt_correction_T_min  0.6098
_exptl_absorpt_correction_type   multi-scan
_exptl_absorpt_process_details
;
SADABS-2016/2 (Bruker,2016/2) was used for absorption correction.
wR2(int) was 0.0723 before and 0.0507 after correction.
The Ratio of minimum to maximum transmission is 0.8181.
The \l/2 correction factor is Not present.
;
_exptl_crystal_colour            red
_exptl_crystal_density_diffrn    3.177
_exptl_crystal_description       block
_exptl_crystal_F_000             696
_exptl_crystal_size_max          0.2
_exptl_crystal_size_mid          0.15
_exptl_crystal_size_min          0.1
_refine_diff_density_max         0.690
_refine_diff_density_min         -0.697
_refine_diff_density_rms         0.158
_refine_ls_extinction_coef       .
_refine_ls_extinction_method     none
_refine_ls_goodness_of_fit_ref   1.061
_refine_ls_hydrogen_treatment    constr
_refine_ls_matrix_type           full
_refine_ls_number_parameters     149
_refine_ls_number_reflns         3386
_refine_ls_number_restraints     0
_refine_ls_restrained_S_all      1.061
_refine_ls_R_factor_all          0.0336
_refine_ls_R_factor_gt           0.0234
_refine_ls_shift/su_max          0.002
_refine_ls_shift/su_mean         0.000
_refine_ls_structure_factor_coef Fsqd
_refine_ls_weighting_details
'w=1/[\s^2^(Fo^2^)+(0.0151P)^2^+0.2158P] where P=(Fo^2^+2Fc^2^)/3'
_refine_ls_weighting_scheme      calc
_refine_ls_wR_factor_gt          0.0422
_refine_ls_wR_factor_ref         0.0449
_reflns_Friedel_coverage         0.000
_reflns_Friedel_fraction_full    .
_reflns_Friedel_fraction_max     .
_reflns_number_gt                2864
_reflns_number_total             3386
_reflns_threshold_expression     'I > 2\s(I)'
_cod_data_source_file            suppl_j_ncrs-2021-0422_suppl.cif
_cod_data_source_block           1
_cod_database_code               8104981
_shelx_space_group_comment
;
The symmetry employed for this shelxl refinement is uniquely defined
by the following loop, which should always be used as a source of
symmetry information in preference to the above space-group names.
They are only intended as comments.
;
_shelx_estimated_absorpt_t_max   0.454
_shelx_estimated_absorpt_t_min   0.255
_olex2_refinement_description
;
1. Fixed Uiso
 At 1.2 times of:
  All C(H) groups, All N(H) groups, All N(H,H) groups
 At 1.5 times of:
  All O(H) groups, All O(H,H) groups
2.a Free rotating group:
 O1W(H1WA,H1WB)
2.b Aromatic/amide H refined with riding coordinates:
 C3(H3), C4(H4), C5(H5), N1(H1)
2.c X=CH2 refined with riding coordinates:
 N2(H2A,H2B)
2.d Idealised tetrahedral OH refined as rotating group:
 O1(H1A)
;
_shelx_res_file
;
TITL 1_a.res in P-1
    1.res
    created by SHELXL-2018/3 at 11:13:32 on 21-Oct-2021
CELL 0.71073 7.4851 9.6056 12.4084 109.119 99.341 92.334
ZERR 2 0.0005 0.0006 0.0007 0.003 0.003 0.003
LATT 1
SFAC C H I O N
UNIT 12 18 10 6 4

L.S. 4
PLAN  10
SIZE 0.2 0.15 0.1
TEMP -123.15
CONF
BOND
MORE -1
BOND $H
fmap 2
acta
REM <olex2.extras>
REM <HklSrc "%.\\1.hkl">
REM </olex2.extras>

WGHT    0.015100    0.215800
FVAR       0.29216
C1    1    0.954028    0.252601    0.613601    11.00000    0.01264    0.02001 =
         0.02786    0.00685    0.00431    0.00204
C2    1    0.874400    0.267842    0.501162    11.00000    0.01605    0.02173 =
         0.02535    0.00835    0.00393    0.00219
C3    1    0.811045    0.390405    0.486187    11.00000    0.01813    0.02576 =
         0.03520    0.01183    0.00670    0.00457
AFIX  43
H3    2    0.816407    0.478628    0.550662    11.00000   -1.20000
AFIX   0
C4    1    0.735732    0.385558    0.371872    11.00000    0.02338    0.02776 =
         0.04070    0.02261    0.00523    0.00439
AFIX  43
H4    2    0.687965    0.470450    0.359699    11.00000   -1.20000
AFIX   0
C5    1    0.732168    0.259205    0.279967    11.00000    0.02047    0.03586 =
         0.03091    0.02066    0.00389    0.00251
AFIX  43
H5    2    0.682366    0.256349    0.203720    11.00000   -1.20000
AFIX   0
C6    1    0.802780    0.131376    0.297695    11.00000    0.01917    0.02197 =
         0.02348    0.01210    0.00125    0.00145

I1    3    0.627293    0.316663    0.968641    11.00000    0.03926    0.02434 =
         0.02273    0.00603    0.00170    0.00847
I2    3    0.489001    0.254683    0.699384    11.00000    0.02119    0.02342 =
         0.02688    0.01077    0.00425    0.00362
I3    3    0.365350    0.188937    0.464520    11.00000    0.02185    0.04789 =
         0.02499    0.01357    0.00348   -0.00068
I4    3    0.807762   -0.301127    0.817720    11.00000    0.04065    0.02846 =
         0.02514    0.00885    0.00666    0.01365
I5    3    0.723378   -0.008102    0.893098    11.00000    0.02464    0.02854 =
         0.02015    0.00882    0.00291    0.00582
N1    5    0.866802    0.140909    0.407769    11.00000    0.01784    0.01935 =
         0.02419    0.01414    0.00225    0.00287
AFIX  43
H1    2    0.905890    0.061554    0.420587    11.00000   -1.20000
AFIX   0
N2    5    0.807851    0.007587    0.211929    11.00000    0.03493    0.03205 =
         0.01991    0.01353    0.00514    0.00712
AFIX  93
H2A   2    0.853126   -0.068723    0.226765    11.00000   -1.20000
H2B   2    0.765963    0.001213    0.139807    11.00000   -1.20000
AFIX   0
O1    4    0.981150    0.378242    0.700948    11.00000    0.03250    0.02028 =
         0.02354    0.00251   -0.00204    0.00414
AFIX 147
H1A   2    1.020862    0.362390    0.762739    11.00000   -1.50000
AFIX   0
O2    4    0.992668    0.133573    0.621762    11.00000    0.02762    0.01802 =
         0.02237    0.00750    0.00524    0.00569

AFIX   6
O1W   4    0.092023    0.314903    0.887811    11.00000    0.04546    0.04675 =
         0.02369    0.00855    0.00458   -0.00298
H1WA  2    0.199111    0.349720    0.930224    11.00000   -1.50000
H1WB  2    0.017030    0.342507    0.935769    11.00000   -1.50000
AFIX   0
HKLF 4




REM  1_a.res in P-1
REM wR2 = 0.0449, GooF = S = 1.061, Restrained GooF = 1.061 for all data
REM R1 = 0.0234 for 2864 Fo > 4sig(Fo) and 0.0336 for all 3386 data
REM 149 parameters refined using 0 restraints

END

WGHT      0.0151      0.2158

REM Highest difference peak  0.690,  deepest hole -0.697,  1-sigma level  0.158
Q1    1   0.6938  0.1547  0.0620  11.00000  0.05    0.69
Q2    1   0.8605  0.5570  0.6383  11.00000  0.05    0.63
Q3    1   0.4972  0.4800  0.2171  11.00000  0.05    0.62
Q4    1   0.7954  0.3449  0.5307  11.00000  0.05    0.58
Q5    1   0.7612 -0.0366  1.0065  11.00000  0.05    0.55
Q6    1   0.7661  0.3006  0.0964  11.00000  0.05    0.55
Q7    1   0.7455  0.4831  0.6585  11.00000  0.05    0.55
Q8    1   0.5208  0.2715  0.4635  11.00000  0.05    0.53
Q9    1   0.7268  0.2153  0.1453  11.00000  0.05    0.53
Q10   1   0.6522 -0.0021  0.7187  11.00000  0.05    0.51
;
_shelx_hkl_file
;
  -1   0   0 1464.45   33.00
  -1   0   0 1469.55   34.00
  -1   0   0 1439.26   34.10
   1   0   0 1490.55   34.30
   1   0   0 1484.45   34.10
   1   0   0 1423.96   32.90
  -2   0   0  532.95   16.80
  -2   0   0  510.35   18.40
  -2   0   0  528.35   18.30
   2   0   0  563.94   18.60
   2   0   0  530.55   17.10
   2   0   0  508.85   18.30
  -3   0   0    5.40    3.10
  -3   0   0   10.80    4.60
  -3   0   0   12.80    4.20
   3   0   0    8.60    3.80
   3   0   0   16.10    4.50
   3   0   0   21.90    5.30
  -4   0   0   10.90    5.50
  -4   0   0    6.50    3.60
  -4   0   0    2.70    4.30
   4   0   0   12.80    5.20
   4   0   0    8.90    5.20
  -5   0   0   31.50    6.60
  -5   0   0   31.20    8.70
   5   0   0   28.50    8.30
   5   0   0   20.30    6.80
  -6   0   0  361.86   25.10
  -6   0   0  330.37   19.80
   6   0   0  343.87   24.40
   6   0   0  341.17   22.90
  -7   0   0  408.06   29.70
  -7   0   0  397.06   21.70
   7   0   0  415.56   29.50
  -8   0   0  345.47   22.00
  -8   0   0  419.26   33.40
   8   0   0  429.76   31.70
  -9   0   0  314.87   22.00
  -9   0   0  296.67   22.40
  -9   0   0  280.07   34.00
   9   0   0  366.36   33.00
   9  -1   0   -1.10   14.80
   9  -1   0   30.00   23.00
  -9   1   0    5.30    9.50
  -9   1   0    9.40    9.40
  -9   1   0  -11.30   16.10
   8  -1   0   15.00   13.20
   8  -1   0   47.90   15.20
  -8   1   0   65.39   16.50
  -8   1   0   52.69   10.60
  -8   1   0   58.39   13.60
   7  -1   0  534.05   33.40
   7  -1   0  538.85   33.70
  -7   1   0  516.65   29.10
  -7   1   0  577.84   25.40
  -7   1   0  543.05   34.30
   6  -1   0   15.30    7.50
   6  -1   0    3.50    6.90
  -6   1   0   14.60    8.40
  -6   1   0    3.00    6.20
   5  -1   0  311.07   19.80
   5  -1   0  293.27   19.40
  -5   1   0  270.97   19.60
  -5   1   0  298.57   18.00
   4  -1   0   23.50    6.70
   4  -1   0   31.70    7.10
  -4   1   0   37.60    7.00
  -4   1   0   28.20    6.80
   3  -1   0   91.89    8.80
   3  -1   0   80.19    8.20
  -3   1   0   97.39   11.60
  -3   1   0   76.59    8.30
   2  -1   0  213.98   10.90
  -2   1   0  206.28    9.00
  -2   1   0  221.88   11.10
  -2   1   0  198.38   10.70
   1  -1   0  153.68    7.40
   1  -1   0  151.78    6.70
  -1   1   0  153.78    7.40
  -1   1   0  145.69    6.60
   0  -1   0  237.78    7.30
   0  -1   0  325.17   10.90
   0   1   0  315.27   10.70
  -1  -1   0  463.65   14.90
  -1  -1   0  473.45   15.40
   1   1   0  454.55   15.00
   1   1   0  458.75   14.80
  -2  -1   0  659.93   23.50
  -2  -1   0  647.24   22.00
  -2  -1   0  680.73   21.30
   2   1   0  663.63   22.00
   2   1   0  697.13   18.90
  -3  -1   0  331.67   16.70
  -3  -1   0  343.07   15.10
  -3  -1   0  304.87   16.70
   3   1   0  339.37   13.80
   3   1   0  320.37   16.20
  -4  -1   0  837.42   33.30
  -4  -1   0  887.41   30.10
  -4  -1   0  832.42   32.10
   4   1   0  799.92   27.50
   4   1   0  807.32   31.30
  -5  -1   0  155.68   15.00
  -5  -1   0  151.48   12.20
  -5  -1   0  141.79   15.00
   5   1   0  159.78   14.90
  -6  -1   0   86.89   14.40
  -6  -1   0  125.89   20.30
  -6  -1   0  107.89   13.00
   6   1   0   95.09   14.40
  -7  -1   0    1.20    6.10
   7   1   0    6.20    9.40
  -8  -1   0  181.98   18.50
  -8  -1   0  197.18   26.40
   8   1   0  199.18   24.90
  -9  -1   0   39.50   12.90
  -9  -1   0   60.99   22.70
   9   1   0   58.29   19.10
   9  -2   0  177.68   35.00
   9  -2   0  187.98   26.80
  -9   2   0  210.98   30.30
  -9   2   0  142.59   22.90
   8  -2   0  126.59   24.40
   8  -2   0  154.38   22.30
   8  -2   0  167.58   24.10
  -8   2   0  121.69   21.10
  -8   2   0  121.99   14.60
  -8   2   0  158.28   20.50
   7  -2   0  504.25   32.80
   7  -2   0  572.64   33.40
  -7   2   0  594.94   26.20
  -7   2   0  519.45   30.70
   6  -2   0  245.88   20.90
   6  -2   0  277.47   21.50
  -6   2   0  272.37   16.50
  -6   2   0  253.17   26.90
  -6   2   0  302.67   21.30
   5  -2   0  837.12   35.00
   5  -2   0  831.12   35.10
  -5   2   0  827.52   35.60
  -5   2   0  795.42   33.70
  -5   2   0  849.12   29.40
   4  -2   0 1369.16   44.30
   4  -2   0 1359.26   44.00
  -4   2   0 1285.67   43.30
  -4   2   0 1249.47   37.60
  -4   2   0 1321.67   43.00
   3  -2   0 1515.25   32.70
   3  -2   0 1571.84   45.40
  -3   2   0 1576.14   45.60
  -3   2   0 1532.05   41.60
  -3   2   0 1616.84   46.20
   2  -2   0 6469.15  147.89
   2  -2   0 6671.83  144.09
  -2   2   0 6785.12  147.09
  -2   2   0 6838.32  144.79
   1  -2   0 2259.17   55.09
   1  -2   0 2412.46   56.99
   1  -2   0 2467.15   57.29
   1  -2   0 2235.18   54.39
  -1   2   0 2390.16   55.69
  -1   2   0 2367.76   57.09
  -1   2   0 2362.46   56.89
   0  -2   0 4077.89   87.99
   0  -2   0 4387.86   96.09
   0   2   0 4093.59   87.89
   0   2   0 4197.08   95.29
   0   2   0 4214.98   92.29
  -1  -2   0  335.17   16.00
  -1  -2   0  338.07   14.70
   1   2   0  353.06   16.20
   1   2   0  396.36   15.50
  -2  -2   0  189.58   11.60
  -2  -2   0  187.88   12.20
   2   2   0  189.58   11.70
   2   2   0  209.48   12.60
  -3  -2   0    5.20    4.50
  -3  -2   0    5.20    4.40
   3   2   0    6.30    2.60
   3   2   0    4.10    3.80
  -4  -2   0   15.80    5.90
  -4  -2   0   31.00    7.70
  -4  -2   0   14.60    6.40
   4   2   0   22.60    5.70
   4   2   0   23.20    6.70
  -5  -2   0    9.50    5.80
  -5  -2   0   -3.20    5.10
  -5  -2   0    2.40    6.50
   5   2   0   17.10    6.70
   5   2   0    6.60    4.20
  -6  -2   0 1283.57   51.69
  -6  -2   0 1249.97   44.90
  -6  -2   0 1244.38   50.09
   6   2   0 1247.88   48.70
  -7  -2   0 1727.13   64.59
  -7  -2   0 1654.23   56.49
   7   2   0 1709.93   63.49
  -8  -2   0   87.29   18.50
  -8  -2   0  109.59   17.00
   8   2   0  129.59   20.50
   9  -3   0  106.99   23.50
   9  -3   0   61.19   36.30
   9  -3   0  142.29   25.60
  -9   3   0   88.19   19.90
  -9   3   0  172.98   30.90
  -9   3   0  111.89   15.30
   8  -3   0   39.60   18.70
   8  -3   0   21.80   12.30
   8  -3   0   23.10   13.80
  -8   3   0   17.70    9.50
  -8   3   0   25.70   14.30
  -8   3   0   39.40   13.60
   7  -3   0   25.90   10.50
   7  -3   0   46.50   16.10
   7  -3   0   76.09   15.50
  -7   3   0   30.40    8.90
   6  -3   0   94.29   14.90
   6  -3   0   97.49   14.80
  -6   3   0   72.89   11.00
  -6   3   0   90.49   15.20
  -6   3   0   89.59   14.70
   5  -3   0    9.20    6.10
   5  -3   0    4.70    5.10
  -5   3   0    0.80    4.40
  -5   3   0    3.10    5.70
  -5   3   0   -2.40    5.00
   4  -3   0 1131.99   25.30
   4  -3   0 1220.38   42.00
  -4   3   0 1172.98   41.90
  -4   3   0 1217.68   37.90
  -4   3   0 1076.39   40.30
   3  -3   0   73.29    9.90
   3  -3   0   71.79    8.90
   3  -3   0   75.19   10.70
  -3   3   0   62.99    9.70
  -3   3   0   65.49   10.10
  -3   3   0   71.69    9.00
   2  -3   0 1571.14   45.80
   2  -3   0 1581.64   44.70
   2  -3   0 1653.43   51.49
  -2   3   0 1601.44   46.20
  -2   3   0 1625.44   45.80
   1  -3   0  208.48   10.10
   1  -3   0  207.18   13.30
  -1   3   0  234.08   12.20
  -1   3   0  221.78    7.00
  -1   3   0  215.88   13.70
   0  -3   0 2737.83   62.09
   0  -3   0 2808.92   75.19
   0   3   0 2783.92   61.89
   0   3   0 2859.71   68.29
   0   3   0 2851.91   72.49
  -1  -3   0  276.77   17.20
  -1  -3   0  265.97   14.70
   1   3   0  256.77   16.00
   1   3   0  257.77   10.90
   1   3   0  217.88   14.20
  -2  -3   0  564.14   23.80
  -2  -3   0  589.04   26.00
   2   3   0  584.24   25.50
   2   3   0  581.74   23.90
  -3  -3   0   39.90    8.50
  -3  -3   0   40.30    7.90
   3   3   0   27.90    7.10
  -4  -3   0    5.70    5.30
  -4  -3   0    7.30    5.40
  -4  -3   0    7.00    5.20
   4   3   0   11.50    5.60
   4   3   0    6.90    3.40
  -5  -3   0   -2.30    6.80
  -5  -3   0   15.30    8.00
  -5  -3   0    0.90    6.40
   5   3   0    8.50    4.40
   5   3   0    0.30    6.80
  -6  -3   0   21.40   11.30
  -6  -3   0    6.90    7.20
  -6  -3   0    0.90    8.80
   6   3   0    0.50    7.10
  -7  -3   0  285.97   24.50
  -7  -3   0  186.38   25.50
  -7  -3   0  234.18   25.70
   7   3   0  275.67   25.80
  -8  -3   0  115.09   33.70
  -8  -3   0  110.39   23.40
  -8  -3   0  111.59   18.50
   8   3   0  136.39   22.50
   8  -4   0  112.99   19.20
   8  -4   0   59.49   22.30
   8  -4   0   78.79   18.20
  -8   4   0  134.09   21.10
  -8   4   0   69.29   13.90
  -8   4   0   63.79   20.10
   7  -4   0  146.79   21.30
   7  -4   0  184.38   26.20
   7  -4   0  185.78   23.50
  -7   4   0  147.59   21.10
  -7   4   0  139.49   16.80
   6  -4   0  104.49   16.20
   6  -4   0   89.79   18.00
  -6   4   0   92.19   13.40
  -6   4   0   99.49   16.00
   5  -4   0   29.10    8.80
   5  -4   0   20.50    9.20
  -5   4   0   18.40    8.40
  -5   4   0   16.20    7.30
  -5   4   0   11.40    8.20
   4  -4   0   96.09   13.20
   4  -4   0   93.69   13.80
  -4   4   0  115.19   15.10
  -4   4   0   89.89   13.10
  -4   4   0  111.29   11.90
   3  -4   0 2329.57   64.69
   3  -4   0 2338.77   65.89
   3  -4   0 2339.67   67.09
  -3   4   0 2364.16   65.99
  -3   4   0 2415.36   67.59
   2  -4   0 2077.79   55.79
   2  -4   0 2082.09   59.79
   2  -4   0 2112.79   60.09
  -2   4   0 2151.08   60.99
  -2   4   0 2096.49   49.20
  -2   4   0 2126.79   60.09
   1  -4   0  984.40   36.00
   1  -4   0  916.71   34.00
   1  -4   0  910.91   27.20
  -1   4   0  954.00   31.80
  -1   4   0  912.31   34.70
   0  -4   0 1620.64   40.70
   0  -4   0 1717.43   53.69
   0   4   0 1682.93   48.20
   0   4   0 1666.63   52.79
   0   4   0 1656.13   40.30
  -1  -4   0  497.85   25.90
  -1  -4   0  489.75   23.20
   1   4   0  486.75   16.90
   1   4   0  456.15   24.60
  -2  -4   0 2720.23   78.39
  -2  -4   0 2750.82   74.99
   2   4   0 2875.91   79.09
   2   4   0 2673.93   73.89
  -3  -4   0  151.08   14.70
  -3  -4   0  174.78   16.20
   3   4   0  156.08   15.70
   3   4   0  157.88   14.90
  -4  -4   0 1511.95   53.49
  -4  -4   0 1390.26   52.29
  -4  -4   0 1397.96   50.89
   4   4   0 1489.75   39.00
   4   4   0 1460.35   51.19
  -5  -4   0 1619.24   58.29
  -5  -4   0 1586.74   57.89
  -5  -4   0 1646.84   69.79
   5   4   0 1574.14   57.29
  -6  -4   0  306.67   26.90
  -6  -4   0  315.57   26.50
  -6  -4   0  309.77   25.90
   6   4   0  304.17   25.20
  -7  -4   0  122.69   20.20
  -7  -4   0  179.58   25.20
  -7  -4   0  189.48   25.50
   7   4   0  195.68   24.50
  -8  -4   0  -22.20   16.40
  -8  -4   0   23.00   17.00
  -8  -4   0   -4.80   13.10
   8   4   0   -6.20   14.00
   8  -5   0  -10.50   14.20
   8  -5   0   28.80   14.80
  -8   5   0   -9.80   13.60
  -8   5   0   29.60   12.50
  -8   5   0   25.00   17.10
   7  -5   0  206.98   28.40
   7  -5   0  228.88   25.50
   7  -5   0  256.37   26.20
  -7   5   0  235.78   28.00
  -7   5   0  258.87   22.60
   6  -5   0  245.68   22.70
   6  -5   0  280.97   26.10
  -6   5   0  197.88   19.30
  -6   5   0  264.17   24.20
   5  -5   0  213.68   21.40
   5  -5   0  256.77   21.80
  -5   5   0  258.47   22.50
  -5   5   0  274.07   20.30
  -5   5   0  257.97   22.20
   4  -5   0   52.49   10.30
   4  -5   0   54.09   11.30
   4  -5   0   42.70    9.80
  -4   5   0   47.50   10.80
  -4   5   0   42.20   10.80
  -4   5   0   54.99   11.80
   3  -5   0  786.92   33.90
   3  -5   0  790.72   34.60
   3  -5   0  839.12   32.60
  -3   5   0  792.12   34.70
  -3   5   0  777.82   25.30
  -3   5   0  811.72   35.10
   2  -5   0  273.27   19.60
   2  -5   0  294.67   16.10
   2  -5   0  313.67   20.30
  -2   5   0  277.87   19.90
  -2   5   0  304.37   10.50
  -2   5   0  324.47   18.60
   1  -5   0    6.50    5.20
   1  -5   0    6.40    5.30
   1  -5   0    6.00    2.90
  -1   5   0   -2.80    5.00
  -1   5   0    0.50    4.30
   0  -5   0    8.90    6.40
   0  -5   0   18.40    3.80
   0  -5   0   16.60    6.40
   0   5   0   26.00    8.30
   0   5   0   25.40    7.30
   0   5   0   16.90    3.60
  -1  -5   0  190.48   17.90
  -1  -5   0  200.98   16.20
   1   5   0  194.38   10.10
   1   5   0  182.38   17.10
   1   5   0  214.08   16.00
  -2  -5   0    8.20    6.70
  -2  -5   0   25.50    8.20
   2   5   0    9.00    7.50
   2   5   0    7.20    3.80
  -3  -5   0  437.46   26.40
  -3  -5   0  416.46   27.50
   3   5   0  400.56   26.60
   3   5   0  449.76   25.60
  -4  -5   0  134.59   19.50
  -4  -5   0  144.49   18.50
   4   5   0  128.09   17.20
  -5  -5   0  271.37   32.50
  -5  -5   0  280.87   25.10
  -5  -5   0  286.27   26.10
   5   5   0  290.07   24.10
   5   5   0  281.37   18.70
  -6  -5   0   -8.30   10.80
  -6  -5   0    6.40   14.10
  -6  -5   0    2.90   11.20
   6   5   0   -0.50   10.40
  -7  -5   0    0.00   15.60
  -7  -5   0    1.30   15.50
  -7  -5   0    9.20   13.40
   7   5   0   10.40   13.60
   8  -6   0  -17.50   19.20
   8  -6   0   38.80   20.10
   8  -6   0   18.00   19.60
  -8   6   0    7.60   15.40
  -8   6   0   37.80   19.40
  -8   6   0   17.60   16.50
  -8   6   0   15.80   13.30
   7  -6   0   58.19   16.60
   7  -6   0   47.50   15.20
   7  -6   0   59.99   17.60
  -7   6   0   78.99   16.80
  -7   6   0   30.00   16.90
  -7   6   0   67.79   18.20
   6  -6   0   87.59   16.00
   6  -6   0   91.79   17.00
   6  -6   0   94.39    5.80
  -6   6   0   86.79   18.10
  -6   6   0   84.89   13.00
  -6   6   0   80.79   15.90
   5  -6   0   73.99   15.20
   5  -6   0   62.19   14.40
  -5   6   0   75.59   15.90
  -5   6   0   90.69   15.80
  -5   6   0   88.39   12.10
   4  -6   0   25.40    8.90
   4  -6   0    7.00    7.00
   4  -6   0   -3.90    6.30
  -4   6   0    9.30    9.00
  -4   6   0   17.30    8.40
  -4   6   0   13.80    5.20
  -4   6   0    9.80    8.80
   3  -6   0 2077.09   67.19
   3  -6   0 2019.00   59.39
   3  -6   0 1947.61   65.19
  -3   6   0 1947.91   65.69
  -3   6   0 1961.90   48.70
   2  -6   0 4102.19  111.09
   2  -6   0 4038.70  112.19
   2  -6   0 4247.48   99.79
  -2   6   0 4088.59  112.79
  -2   6   0 4253.37  106.99
   1  -6   0   23.00    8.80
   1  -6   0   36.60   10.10
  -1   6   0   36.70    9.40
  -1   6   0   42.20   11.40
   0  -6   0  697.23   32.60
   0  -6   0  719.23   22.90
   0  -6   0  692.93   36.10
   0   6   0  664.83   35.00
   0   6   0  776.02   33.00
   0   6   0  684.83   22.40
  -1  -6   0    4.30    7.20
  -1  -6   0   11.30    7.20
   1   6   0   23.30    9.30
   1   6   0   23.70    4.50
   1   6   0   18.30    8.10
  -2  -6   0   75.59   14.80
  -2  -6   0   47.10   11.10
   2   6   0   32.00   10.30
   2   6   0   23.90    5.50
  -3  -6   0  253.27   22.00
  -3  -6   0  291.47   25.00
   3   6   0  295.17   25.10
   3   6   0  292.97   23.10
   3   6   0  263.57   16.70
  -4  -6   0  976.20   45.20
  -4  -6   0  942.61   47.00
   4   6   0  955.10   44.00
   4   6   0  957.50   37.80
  -5  -6   0  405.86   31.00
  -5  -6   0  413.46   31.00
   5   6   0  395.36   34.00
   5   6   0  422.26   19.20
  -6  -6   0  119.49   21.50
  -6  -6   0  125.39   22.70
  -6  -6   0  122.59   21.10
   6   6   0   85.99   18.70
  -7  -6   0  109.19   22.30
  -7  -6   0   92.49   25.40
  -7  -6   0   96.49   24.60
   7   6   0  143.39   24.20
   7  -7   0   40.70   16.10
   7  -7   0    6.00   16.60
  -7   7   0   12.90   16.10
  -7   7   0   52.49   19.60
  -7   7   0   28.40   11.60
  -7   7   0   63.99   17.90
   6  -7   0   15.80   12.80
   6  -7   0    9.20   12.20
  -6   7   0    4.30   12.50
  -6   7   0   21.90    8.80
  -6   7   0   17.00   11.70
  -6   7   0   10.50   12.70
   5  -7   0    1.10    9.20
   5  -7   0    2.80    8.90
  -5   7   0   -5.40    5.30
  -5   7   0  -14.70   10.40
  -5   7   0    1.80   10.20
   4  -7   0  194.28   20.80
   4  -7   0  166.98   17.10
   4  -7   0  196.98   21.40
  -4   7   0  197.18   24.10
  -4   7   0  231.68   23.30
   3  -7   0  498.35   32.10
   3  -7   0  531.65   32.80
   3  -7   0  532.15   26.30
  -3   7   0  593.64   34.50
   2  -7   0    8.20    4.90
   2  -7   0   22.40   10.40
   2  -7   0   18.30    8.60
  -2   7   0    3.40    7.60
  -2   7   0   16.30    9.10
   1  -7   0  222.58   22.00
   1  -7   0  229.48   13.30
   1  -7   0  210.88   22.40
  -1   7   0  211.78   21.90
  -1   7   0  240.28   20.00
   0  -7   0  779.02   37.80
   0  -7   0  835.02   43.00
   0   7   0  815.72   42.00
   0   7   0  785.02   25.10
   0   7   0  793.52   36.70
  -1  -7   0  106.59   19.40
  -1  -7   0   93.99   15.80
   1   7   0   86.19   16.80
   1   7   0  100.39    8.10
   1   7   0  129.89   18.10
  -2  -7   0  601.34   38.00
  -2  -7   0  623.84   35.20
   2   7   0  600.54   33.50
   2   7   0  596.64   22.40
  -3  -7   0   -8.50   10.00
   3   7   0    8.00   10.20
   3   7   0   10.40    6.20
  -4  -7   0   58.19   16.30
  -4  -7   0   53.49   16.30
   4   7   0   79.79   12.40
  -5  -7   0   -2.60   14.10
  -5  -7   0    0.10   12.40
   5   7   0   24.30   12.20
   5   7   0    1.30    6.80
   5   7   0   18.60    9.90
  -6  -7   0    8.00   16.30
  -6  -7   0   20.20   17.30
   6   7   0   15.90   12.10
   6   7   0   21.30   15.10
   7  -8   0  216.48   30.10
   7  -8   0  196.68   30.50
  -7   8   0  198.38   28.10
  -7   8   0  171.88   30.80
  -7   8   0  171.38   19.20
   6  -8   0  -12.40   13.30
   6  -8   0    0.20   12.40
  -6   8   0   -4.20   22.50
  -6   8   0   -1.90    7.20
  -6   8   0   -1.30   11.90
   5  -8   0  740.53   45.30
   5  -8   0  804.72   43.80
   5  -8   0  791.72   40.10
  -5   8   0  766.72   28.60
  -5   8   0  817.22   46.80
  -5   8   0  826.62   47.00
   4  -8   0 1035.60   50.39
   4  -8   0 1052.39   43.60
   4  -8   0 1004.10   50.69
  -4   8   0 1000.30   51.09
  -4   8   0 1066.49   51.09
   3  -8   0  268.87   26.10
   3  -8   0  266.47   35.20
   3  -8   0  313.07   20.60
  -3   8   0  260.67   25.80
   2  -8   0   96.79   11.80
   2  -8   0   89.39   17.30
  -2   8   0  103.39   19.30
   1  -8   0  106.39   22.00
   1  -8   0  106.09    9.90
  -1   8   0   99.99   16.60
  -1   8   0  114.39   20.70
   0  -8   0   10.50   10.80
   0  -8   0   -2.20    9.00
   0   8   0    9.00    8.30
  -1  -8   0   81.89   16.70
  -1  -8   0   47.10   15.80
   1   8   0   58.39    6.30
   1   8   0   23.50   13.40
  -2  -8   0  120.59   19.80
  -2  -8   0  100.99   20.50
   2   8   0  103.19   19.60
   2   8   0  144.29   20.60
   2   8   0  109.99    9.10
  -3  -8   0   46.60   17.00
  -3  -8   0   52.29   15.70
   3   8   0   55.99    9.00
   3   8   0   46.50   14.40
   3   8   0   72.79   17.80
  -4  -8   0  991.00   54.29
  -4  -8   0  938.51   50.99
   4   8   0  917.11   36.40
  -5  -8   0  348.17   35.30
  -5  -8   0  483.95   40.50
   5   8   0  403.86   26.90
   5   8   0  457.25   21.50
   6  -9   0  224.98   28.60
   6  -9   0  231.08   32.30
  -6   9   0  258.67   33.40
  -6   9   0  263.67   34.50
   5  -9   0   12.10   15.00
   5  -9   0   15.90   15.00
   5  -9   0   23.50   12.50
  -5   9   0    7.10   15.30
  -5   9   0   13.50   18.00
   4  -9   0   36.40   15.30
   4  -9   0   74.19   14.80
   4  -9   0   44.00   17.10
  -4   9   0   44.20   17.60
  -4   9   0   57.59   18.00
   3  -9   0  177.58   27.00
   3  -9   0  233.08   19.30
   3  -9   0  182.38   25.40
   2  -9   0  538.55   38.20
   2  -9   0  540.75   24.90
   2  -9   0  596.34   42.10
  -2   9   0  567.84   34.10
   1  -9   0   70.79    8.90
   1  -9   0   96.79   18.80
   1  -9   0   59.99   15.00
   1  -9   0   17.80   13.90
  -1   9   0   83.49   16.70
   0  -9   0   49.70   15.00
   0  -9   0   48.10   16.70
   0  -9   0   43.10   15.20
   0   9   0   20.30   11.80
  -1  -9   0    9.50   13.80
  -1  -9   0   21.80   11.60
   1   9   0  -10.30    8.90
   1   9   0   10.30   13.00
  -2  -9   0    9.50   12.00
  -2  -9   0   -7.10   12.90
   2   9   0   -5.80   14.00
   2   9   0    6.20    3.60
   2   9   0    6.10   10.00
  -3  -9   0   31.60   15.40
  -3  -9   0   39.30   15.90
   3   9   0   24.20   18.70
   3   9   0   25.90   12.90
  -4  -9   0   -3.90   16.40
  -4  -9   0   18.60   17.90
   4   9   0   11.60    7.40
   4   9   0    6.40   12.40
   5 -10   0  466.35   42.80
   5 -10   0  498.25   34.40
   5 -10   0  494.25   45.10
  -5  10   0  508.25   46.80
  -5  10   0  461.35   51.39
   4 -10   0   44.40   19.00
   4 -10   0   16.80   12.00
   4 -10   0   39.80   19.20
  -4  10   0   10.70   19.50
  -4  10   0   15.60   15.30
   3 -10   0   13.00   15.90
   3 -10   0   -4.20   15.60
   3 -10   0   17.20    9.40
  -3  10   0  -10.40   13.60
  -3  10   0    9.90   18.20
   2 -10   0  122.99   23.70
   2 -10   0  131.89   13.50
   2 -10   0  153.48   27.10
  -2  10   0  135.39   21.60
  -2  10   0  126.09   26.60
   1 -10   0   16.10   14.30
   1 -10   0    4.40   14.70
   1 -10   0    8.10   13.90
  -1  10   0   -5.50   10.30
  -1  10   0  -18.60   14.40
   0 -10   0  230.08   31.90
   0 -10   0  211.88   27.90
   0 -10   0  135.59   23.60
   0  10   0  201.18   25.90
   0  10   0  144.69   26.40
  -1 -10   0   33.60   16.30
  -1 -10   0   40.60   20.90
   1  10   0   41.30   18.40
   1  10   0   60.59   16.70
  -2 -10   0  774.62   47.80
  -2 -10   0  657.23   24.00
  -2 -10   0  742.73   51.89
   2  10   0  700.63   42.90
  -3 -10   0  224.48   33.90
  -3 -10   0  256.47   40.00
   3  10   0  302.57   30.50
   3  10   0  299.57   39.20
   3 -11   0   35.50   19.90
   3 -11   0   33.40   11.90
  -3  11   0   23.20   22.90
  -3  11   0   41.20   18.50
   2 -11   0   13.30    7.60
   2 -11   0   -6.30   17.70
  -2  11   0  -29.00   19.00
  -2  11   0  -11.50   11.80
  -2  11   0   -1.70   14.90
   1 -11   0   84.39   23.70
   1 -11   0   35.40   19.40
  -1  11   0   33.30   22.20
  -1  11   0   45.80   15.80
   0 -11   0   -9.90   23.70
   0 -11   0  -21.10   16.30
   0 -11   0   36.10   20.50
   0  11   0   -6.30   12.00
   0  11   0  -18.80   19.40
  -1 -11   0   84.19   25.10
  -1 -11   0   76.99   23.40
   1  11   0   73.39   33.70
   1  11   0   69.89   19.60
   2  11  -1   11.10   11.60
   2  11  -1    7.70   14.00
   2  11  -1   11.80   28.10
  -2 -11   1   17.60    3.40
  -2 -11   1   23.80   22.90
  -2 -11   1   13.60   19.70
   1  11  -1   10.80   21.30
   1  11  -1    4.60   11.90
  -1 -11   1  -14.90   20.40
   0  11  -1    6.60   20.50
   0  11  -1   45.00   17.50
   0  11  -1   64.79   16.10
   0 -11   1   70.39   24.50
   0 -11   1   19.10   19.00
   0 -11   1   93.29   24.00
  -1  11  -1   -6.90   12.90
  -1  11  -1   17.00   19.10
  -1  11  -1   19.60   14.50
   1 -11   1   29.00   21.40
   1 -11   1    8.40   16.60
  -2  11  -1   11.70   20.60
  -2  11  -1   -2.10   14.00
  -2  11  -1    4.90   11.70
   2 -11   1   -7.90    9.50
   2 -11   1   40.00   19.90
   2 -11   1   -5.40   17.10
   2 -11   1  -17.60   18.80
  -3  11  -1  324.77   40.00
  -3  11  -1  337.37   34.90
   3 -11   1  338.97   21.70
   3 -11   1  331.47   40.00
   3 -11   1  274.27   44.30
   3  10  -1   25.30    9.00
   3  10  -1   26.90   14.90
   3  10  -1   15.30   21.30
  -3 -10   1   -0.20   16.00
  -3 -10   1  -27.80   18.30
   2  10  -1   16.50   17.90
   2  10  -1   29.60   14.80
  -2 -10   1   21.80   15.50
  -2 -10   1   29.70   19.40
   1  10  -1   59.89   19.90
   1  10  -1   74.79   17.70
  -1 -10   1   59.59   16.30
  -1 -10   1   98.59   22.70
   0  10  -1  259.07   26.20
   0  10  -1  253.67   32.70
   0 -10   1  230.28   31.40
   0 -10   1  260.27   30.10
   0 -10   1  312.97   34.30
  -1  10  -1  238.88   26.40
  -1  10  -1  286.27   26.80
  -1  10  -1  209.38   31.30
   1 -10   1  254.47   32.50
   1 -10   1  270.57   34.70
   1 -10   1  244.08   29.90
  -2  10  -1   -1.30   11.40
  -2  10  -1  -22.20   14.10
  -2  10  -1    5.60   11.00
   2 -10   1  -17.80   13.80
   2 -10   1    8.30   14.90
   2 -10   1    1.60    5.80
  -3  10  -1   62.49   16.70
  -3  10  -1   54.59   20.50
   3 -10   1   38.30   18.50
   3 -10   1   61.69   19.80
   3 -10   1   30.20    9.50
  -4  10  -1  402.56   34.50
  -4  10  -1  326.17   36.60
   4 -10   1  284.47   35.40
   4 -10   1  314.57   34.10
   4 -10   1  391.16   25.70
  -5  10  -1   11.70   20.10
   5 -10   1   -0.70   17.10
   5 -10   1  -20.70   16.60
   5 -10   1   12.10   13.70
   5   9  -1   38.80   11.10
  -5  -9   1   48.50   23.20
  -5  -9   1   72.49   22.20
   4   9  -1  109.39   22.20
   4   9  -1   90.69   14.80
   4   9  -1  109.59   12.80
  -4  -9   1  125.89   24.20
  -4  -9   1   47.20   21.00
   3   9  -1   96.49   22.70
   3   9  -1   86.49   19.40
  -3  -9   1   70.99   20.20
  -3  -9   1  104.39   20.30
   2   9  -1   10.10   10.50
   2   9  -1   14.20   13.20
  -2  -9   1  -12.00   13.20
  -2  -9   1    8.50   11.50
   1   9  -1   81.99   16.60
  -1  -9   1   99.19   20.00
   0   9  -1   12.00   10.80
   0  -9   1   11.40   10.30
   0  -9   1    7.30   11.80
   0  -9   1   -4.70   10.60
  -1   9  -1   12.70   11.30
   1  -9   1   31.20    5.20
   1  -9   1   35.10   14.20
   1  -9   1   11.00   11.10
  -2   9  -1  609.14   37.10
  -2   9  -1  629.84   37.40
   2  -9   1  721.53   44.10
   2  -9   1  659.33   26.10
   2  -9   1  671.23   43.30
  -3   9  -1 1250.47   55.39
   3  -9   1 1243.68   59.69
   3  -9   1 1257.27   43.90
   3  -9   1 1334.67   61.69
  -4   9  -1   63.29   17.00
   4  -9   1   66.59   17.70
   4  -9   1   61.49   16.80
   4  -9   1   23.80   11.00
  -5   9  -1  189.68   27.00
   5  -9   1  202.48   27.90
   5  -9   1  220.38   24.00
   5  -9   1  183.78   27.50
  -6   9  -1   39.30   20.50
  -6   9  -1   -0.90    8.70
   6  -9   1   27.90   14.70
   6   8  -1   26.80   13.30
  -6  -8   1   47.20   23.00
  -6  -8   1   60.49   22.00
  -6  -8   1   70.09   22.80
   5   8  -1    5.70    8.90
  -5  -8   1    3.80   16.20
  -5  -8   1   20.80   15.00
   4   8  -1  143.09   14.10
  -4  -8   1  143.09   22.90
  -4  -8   1  139.49   24.80
   3   8  -1   42.60   15.00
   3   8  -1   36.10    5.90
   3   8  -1   24.80   14.90
  -3  -8   1   33.50   13.20
  -3  -8   1   30.50   14.70
   2   8  -1  399.26   32.70
   2   8  -1  450.75   30.60
  -2  -8   1  391.66   33.50
   1   8  -1  159.18   23.10
   1   8  -1  180.98   19.90
  -1  -8   1  134.69   26.70
  -1  -8   1  136.09   18.70
   0   8  -1    7.90   10.60
   0  -8   1    8.80    8.50
   0  -8   1    5.80    9.90
  -1   8  -1  514.75   35.20
   1  -8   1  548.65   19.80
   1  -8   1  568.64   36.60
   1  -8   1  509.15   34.70
  -2   8  -1  373.36   27.00
  -2   8  -1  405.76   30.60
  -2   8  -1  422.56   27.80
   2  -8   1  386.76   30.60
   2  -8   1  414.36   19.60
  -3   8  -1   79.99   18.30
  -3   8  -1   79.89   16.90
   3  -8   1   46.10   14.80
   3  -8   1   70.29   11.10
   3  -8   1   53.59   14.20
  -4   8  -1  143.69   21.10
  -4   8  -1  141.19   21.90
   4  -8   1  137.89   21.50
   4  -8   1  154.98   17.00
   4  -8   1  102.59   18.60
  -5   8  -1  163.68   24.20
  -5   8  -1  101.09   12.40
  -5   8  -1   79.79   18.60
   5  -8   1  106.49   17.80
   5  -8   1   78.09   17.50
  -6   8  -1  -24.00   14.00
  -6   8  -1    8.20   13.50
  -6   8  -1    9.80   13.30
  -6   8  -1    1.50    7.90
   6  -8   1  -27.30   12.10
   6  -8   1   17.30   14.10
   6  -8   1   -1.30    6.10
  -7   8  -1  233.78   23.60
  -7   8  -1  206.68   29.60
  -7   8  -1  255.57   29.60
  -7   8  -1  202.78   32.40
   7  -8   1  244.98   31.40
   7  -8   1  178.98   27.60
   7  -8   1  268.77   33.50
   6   7  -1  318.77   31.00
  -6  -7   1  341.47   33.60
  -6  -7   1  365.16   38.00
  -6  -7   1  394.06   35.90
   5   7  -1  247.38   20.40
   5   7  -1  201.98   24.80
  -5  -7   1  218.18   26.20
  -5  -7   1  241.98   29.50
   4   7  -1  217.78   16.30
  -4  -7   1  254.77   27.30
   3   7  -1    9.40   10.20
   3   7  -1    6.00    4.20
  -3  -7   1    1.10   10.10
  -3  -7   1  -16.80    6.60
   2   7  -1  575.14   35.80
   2   7  -1  500.05   36.10
   2   7  -1  554.64   17.60
  -2  -7   1  610.84   37.60
  -2  -7   1  542.85   31.20
   1   7  -1  119.49   17.50
   1   7  -1   66.39   14.90
  -1  -7   1  113.79   16.60
  -1  -7   1   97.89   18.10
   0   7  -1 1874.81   68.49
   0   7  -1 1922.01   64.59
   0  -7   1 1894.41   70.09
   0  -7   1 1980.70   63.99
   0  -7   1 1857.91   44.10
  -1   7  -1 1806.82   61.09
  -1   7  -1 1768.02   65.09
   1  -7   1 1807.32   66.49
   1  -7   1 1722.73   45.20
   1  -7   1 1752.02   64.19
  -2   7  -1  120.49   17.90
  -2   7  -1  125.79   18.20
   2  -7   1  124.49   10.80
   2  -7   1  126.79   17.40
   2  -7   1  129.09   18.80
  -3   7  -1  203.28   20.30
  -3   7  -1  212.98   21.00
   3  -7   1  204.88   20.30
   3  -7   1  206.98   20.70
   3  -7   1  212.08   16.30
  -4   7  -1  222.58   22.60
  -4   7  -1  197.38   27.50
  -4   7  -1  213.28   13.90
   4  -7   1  185.58   22.60
   4  -7   1  216.48   21.80
   4  -7   1  221.58   18.80
  -5   7  -1   78.79   16.80
  -5   7  -1   92.89   11.90
  -5   7  -1   81.39   15.70
   5  -7   1   85.69   15.70
   5  -7   1   86.29   15.20
   5  -7   1   86.99   16.80
  -6   7  -1   -5.20   12.00
  -6   7  -1   40.10   14.80
  -6   7  -1   37.10   13.90
  -6   7  -1   42.20   11.30
   6  -7   1   59.49   15.50
   6  -7   1   46.90   15.00
  -7   7  -1   31.40   14.20
  -7   7  -1   -3.70   15.80
  -7   7  -1  -25.50   16.90
   7  -7   1   -4.00   14.90
   7  -7   1    5.60   13.10
   7  -7   1   16.80   15.10
   7   6  -1   30.60   14.70
  -7  -6   1   46.30   18.70
  -7  -6   1   78.49   19.70
  -7  -6   1   26.80   17.90
   6   6  -1   -1.30   10.50
  -6  -6   1   13.30   14.30
  -6  -6   1   13.10   12.70
  -6  -6   1   40.00   14.90
   5   6  -1  260.37   23.20
  -5  -6   1  268.57   26.50
   4   6  -1   22.00    9.40
  -4  -6   1   31.30   11.70
  -4  -6   1   14.50    9.30
   3   6  -1   65.49   14.30
  -3  -6   1   58.69   12.10
  -3  -6   1   54.89   13.60
   2   6  -1    1.90    7.30
   2   6  -1    1.40    2.80
  -2  -6   1    2.00    5.90
  -2  -6   1   14.30    8.30
   1   6  -1    3.60    1.70
   1   6  -1   -6.50    5.90
   1   6  -1   15.70    8.60
  -1  -6   1   -0.30    6.80
  -1  -6   1   -6.70    4.70
   0   6  -1  520.65   27.50
   0   6  -1  500.75   29.70
   0  -6   1  462.25   29.20
  -1   6  -1 1703.03   56.39
  -1   6  -1 1738.23   60.59
   1  -6   1 1810.32   61.89
   1  -6   1 1658.03   58.69
   1  -6   1 1770.52   44.30
  -2   6  -1   19.40    8.30
  -2   6  -1   27.00   10.00
   2  -6   1   13.40    5.00
   2  -6   1   16.80    8.70
   2  -6   1   13.30    8.70
  -3   6  -1  407.16   25.30
  -3   6  -1  375.56   25.10
  -3   6  -1  390.56   16.80
   3  -6   1  384.66   24.70
   3  -6   1  410.26   25.60
   3  -6   1  359.06   20.70
  -4   6  -1  204.18   20.10
  -4   6  -1  226.88   15.20
  -4   6  -1  264.27   22.40
  -4   6  -1  255.77   21.30
   4  -6   1  218.38   19.20
   4  -6   1  255.87   20.20
   4  -6   1  259.87   21.90
  -5   6  -1  363.86   22.10
  -5   6  -1  342.57   27.40
  -5   6  -1  351.56   24.90
   5  -6   1  366.76   27.20
   5  -6   1  326.57   26.30
  -6   6  -1   40.40   10.30
  -6   6  -1   32.20   11.90
  -6   6  -1   16.30    9.90
   6  -6   1   31.90   11.90
   6  -6   1   34.30   14.00
  -7   6  -1  -21.50   11.30
  -7   6  -1   10.80   11.30
  -7   6  -1    3.80   13.10
  -7   6  -1    5.90   10.30
   7  -6   1   24.70   12.90
   7  -6   1   -6.80   13.70
   7  -6   1   12.40   12.20
  -8   6  -1  253.27   33.50
  -8   6  -1  194.08   26.20
  -8   6  -1  303.67   26.50
  -8   6  -1  228.78   30.80
   8  -6   1  233.58   34.40
   8   5  -1   67.19   19.40
  -8  -5   1   66.99   21.00
  -8  -5   1   80.19   20.90
  -8  -5   1   57.59   22.50
   7   5  -1  679.93   40.50
  -7  -5   1  550.94   67.59
  -7  -5   1  628.14   41.00
  -7  -5   1  650.53   44.60
   6   5  -1 1077.69   48.30
  -6  -5   1 1070.29   50.99
  -6  -5   1 1097.19   49.40
   5   5  -1    3.20    7.80
  -5  -5   1   -0.50    7.90
  -5  -5   1    6.70    9.90
  -5  -5   1    5.80    9.50
   4   5  -1  831.92   36.80
   4   5  -1  867.11   22.30
  -4  -5   1  922.91   38.90
  -4  -5   1  847.02   41.00
   3   5  -1   25.00    7.50
  -3  -5   1   32.00   10.20
  -3  -5   1   38.10    9.20
   2   5  -1  339.57   14.10
   2   5  -1  326.67   23.00
  -2  -5   1  347.57   23.80
  -2  -5   1  342.87   20.50
   1   5  -1  261.17   20.10
   1   5  -1  277.87    9.40
   1   5  -1  301.57   19.60
  -1  -5   1  252.77   20.30
  -1  -5   1  307.77   18.60
   0   5  -1 1580.24   49.50
   0   5  -1 1534.15   52.39
   0  -5   1 1432.76   51.69
   0  -5   1 1458.15   34.70
  -1   5  -1 2714.53   77.79
  -1   5  -1 2642.54   73.59
   1  -5   1 2879.21   79.19
   1  -5   1 2599.64   75.59
   1  -5   1 2677.83   62.99
  -2   5  -1  477.05   24.20
  -2   5  -1  453.15   24.90
  -2   5  -1  490.45   16.90
   2  -5   1  506.75   25.50
   2  -5   1  497.05   20.70
   2  -5   1  488.65   25.80
  -3   5  -1  244.88   19.10
  -3   5  -1  252.07   18.10
  -3   5  -1  244.98   18.40
   3  -5   1  248.38   18.70
   3  -5   1  258.37   17.10
   3  -5   1  297.27   18.70
  -4   5  -1   67.49   12.40
  -4   5  -1   56.39    9.20
  -4   5  -1   49.80   11.40
  -4   5  -1   56.79   10.50
   4  -5   1   38.00    9.50
   4  -5   1   65.69   12.30
   4  -5   1   56.99   10.30
  -5   5  -1  844.32   35.80
  -5   5  -1  774.82   58.89
  -5   5  -1  844.22   40.10
   5  -5   1  882.51   41.10
   5  -5   1  828.42   23.00
   5  -5   1  844.12   39.00
  -6   5  -1   -9.90    8.60
  -6   5  -1   15.90    9.60
  -6   5  -1   -1.50    7.00
   6  -5   1   12.40    9.40
   6  -5   1  -10.70    7.10
   6  -5   1   -4.20    7.20
  -7   5  -1 1249.38   55.29
  -7   5  -1 1104.89   44.10
  -7   5  -1 1067.29   52.69
   7  -5   1 1086.99   56.49
   7  -5   1 1132.09   53.69
   7  -5   1 1130.39   52.69
  -8   5  -1  186.98   27.00
  -8   5  -1  162.68   26.20
  -8   5  -1  153.68   17.90
   8  -5   1  206.28   27.20
   8  -5   1  135.69   24.50
   8   4  -1    9.60   13.40
  -8  -4   1   22.60   16.10
  -8  -4   1   -3.70   16.70
  -8  -4   1   -3.50   13.40
   7   4  -1   22.20   12.30
  -7  -4   1   43.50   14.20
  -7  -4   1   12.50   12.80
  -7  -4   1   24.50   13.10
   6   4  -1   52.99   12.30
  -6  -4   1   24.20   11.80
  -6  -4   1   60.79   14.40
  -6  -4   1   62.19   13.80
   5   4  -1   75.59   13.40
  -5  -4   1   79.59   15.10
  -5  -4   1   72.39   12.50
  -5  -4   1  105.29   15.70
   4   4  -1  433.56   23.90
   4   4  -1  439.56   13.60
  -4  -4   1  425.16   26.00
  -4  -4   1  443.06   26.80
  -4  -4   1  452.85   24.40
   3   4  -1  229.58   15.90
  -3  -4   1  260.27   16.80
  -3  -4   1  189.78   17.30
   2   4  -1 1642.84   48.50
   2   4  -1 1582.24   52.59
  -2  -4   1 1605.94   48.80
  -2  -4   1 1673.03   54.49
   1   4  -1  712.13   18.80
   1   4  -1  749.23   31.50
  -1  -4   1  762.02   28.00
  -1  -4   1  705.33   31.20
   0   4  -1  544.05   25.70
   0   4  -1  566.04   23.90
   0  -4   1  542.25   25.80
   0  -4   1  516.75   14.10
  -1   4  -1  307.37   18.10
  -1   4  -1  249.28   15.50
   1  -4   1  320.67   18.50
   1  -4   1  293.17   12.10
   1  -4   1  289.27   17.30
  -2   4  -1 1431.06   45.10
  -2   4  -1 1453.15   37.70
  -2   4  -1 1466.05   44.80
  -2   4  -1 1416.66   45.00
  -2   4  -1 1440.96   45.00
   2  -4   1 1431.16   44.50
   2  -4   1 1357.86   44.20
   2  -4   1 1391.16   40.90
  -3   4  -1    9.20    4.90
  -3   4  -1    0.10    3.10
  -3   4  -1    3.20    5.00
  -3   4  -1   12.20    6.00
   3  -4   1    6.90    4.50
   3  -4   1    9.20    5.00
  -4   4  -1  154.68   15.30
  -4   4  -1  195.38   16.40
  -4   4  -1  131.09   12.00
   4  -4   1  147.99    7.70
   4  -4   1  167.18   15.20
  -5   4  -1   79.79   13.80
  -5   4  -1   69.89   10.40
  -5   4  -1   64.09   12.60
   5  -4   1   59.39   11.30
   5  -4   1   89.29   14.00
  -6   4  -1   11.90    8.80
  -6   4  -1   13.10    8.80
  -6   4  -1    6.90    6.20
   6  -4   1   17.00   10.50
   6  -4   1   25.30   12.30
  -7   4  -1  425.46   24.20
  -7   4  -1  451.05   33.70
  -7   4  -1  376.16   29.80
   7  -4   1  466.15   32.90
   7  -4   1  430.36   31.40
  -8   4  -1  503.35   39.60
  -8   4  -1  429.96   25.00
  -8   4  -1  487.55   35.30
   8  -4   1  454.55   36.40
   8  -4   1  506.75   37.40
   8  -4   1  511.15   43.40
   8   3  -1  627.94   39.30
  -8  -3   1  682.63   38.40
  -8  -3   1  663.03   41.60
  -8  -3   1  684.03   46.20
  -7  -3   1  100.79   17.30
  -7  -3   1   97.29   16.40
  -7  -3   1  109.99   20.60
   6   3  -1   26.90    9.20
  -6  -3   1   24.20   10.80
  -6  -3   1    7.10    8.00
  -6  -3   1   14.80    8.60
   5   3  -1    6.70    5.40
  -5  -3   1   11.30    7.40
  -5  -3   1   -1.20    6.00
  -5  -3   1   23.90    7.90
   4   3  -1  182.88   14.00
  -4  -3   1  138.89   13.60
  -4  -3   1  187.58   14.50
  -4  -3   1  175.28   15.90
   3   3  -1   60.19    8.60
   3   3  -1   60.99    4.10
  -3  -3   1   51.69    8.20
  -3  -3   1   60.79    9.70
   2   3  -1  804.72   27.20
  -2  -3   1  744.73   26.50
  -2  -3   1  774.72   30.10
   1   3  -1 1307.47   40.70
  -1  -3   1 1273.07   36.70
   0   3  -1 6783.42  169.38
   0   3  -1 7472.55  160.98
   0  -3   1 7680.83  164.68
  -1   3  -1 4507.55  106.99
  -1   3  -1 4572.54   98.89
  -1   3  -1 4710.63  106.19
   1  -3   1 4569.04  108.39
   1  -3   1 4747.02  107.39
  -2   3  -1  639.04   24.70
  -2   3  -1  658.13   23.90
  -2   3  -1  649.43   21.50
  -2   3  -1  633.04   25.10
   2  -3   1  639.74   23.00
   2  -3   1  677.53   25.10
  -3   3  -1 1632.24   49.00
  -3   3  -1 1506.95   55.39
  -3   3  -1 1512.45   46.90
   3  -3   1 1572.14   42.40
   3  -3   1 1555.54   47.30
  -4   3  -1   17.00    7.10
  -4   3  -1   20.70    5.10
  -4   3  -1    5.10    5.70
   4  -3   1   19.00    6.40
   4  -3   1   25.90    7.10
  -5   3  -1  407.96   24.60
  -5   3  -1  422.96   19.50
  -5   3  -1  433.96   25.60
   5  -3   1  431.06   24.90
   5  -3   1  414.26   25.20
  -6   3  -1   91.49   15.20
  -6   3  -1  105.99   11.20
  -6   3  -1  127.09   18.30
   6  -3   1  116.59   16.50
   6  -3   1  138.99   18.20
  -7   3  -1  399.86   21.10
  -7   3  -1  463.45   29.60
   7  -3   1  426.56   30.40
   7  -3   1  448.26   30.30
  -8   3  -1  228.48   29.40
  -8   3  -1  190.58   16.20
  -8   3  -1  206.18   24.80
   8  -3   1  234.58   28.10
   8  -3   1  179.28   24.70
  -9   3  -1   37.40   21.50
  -9   3  -1   30.70   10.70
  -9   3  -1   23.20   16.40
   9  -3   1   43.70   18.70
   9   2  -1    4.60   13.50
  -9  -2   1    3.30    7.70
  -9  -2   1  -30.60   18.60
  -9  -2   1    6.40   12.60
   8   2  -1  106.19   19.00
  -8  -2   1  113.29   21.90
  -8  -2   1  110.79   17.40
   7   2  -1    0.90    8.20
  -7  -2   1    5.90    9.60
  -7  -2   1   10.60    8.40
   6   2  -1  334.87   22.60
  -6  -2   1  363.26   26.50
  -6  -2   1  354.56   24.70
  -6  -2   1  374.86   23.10
   5   2  -1   52.99    9.70
  -5  -2   1   49.90   10.00
  -5  -2   1   60.29   10.30
  -5  -2   1   61.49   11.70
   4   2  -1  408.46   20.30
  -4  -2   1  393.46   20.40
  -4  -2   1  405.06   22.90
  -4  -2   1  371.76   20.10
   3   2  -1  172.88   11.80
  -3  -2   1  146.59   11.60
  -3  -2   1  150.58   12.10
  -3  -2   1  164.58   11.20
   2   2  -1    4.10    2.90
   2   2  -1    7.80    1.30
  -2  -2   1    1.90    2.60
  -2  -2   1    9.90    4.20
   1   2  -1  336.37   12.70
   1   2  -1  325.87   14.90
  -1  -2   1  328.97   15.10
  -1  -2   1  306.37   12.30
   0   2  -1  682.73   22.80
   0   2  -1  705.93   25.10
   0   2  -1  724.83   19.80
   0  -2   1  699.23   22.00
   0  -2   1  737.73   23.60
  -1   2  -1  478.35   17.00
  -1   2  -1  453.05   16.40
  -1   2  -1  454.65   14.40
  -1   2  -1  420.26   16.20
  -1   2  -1  420.86   15.80
   1  -2   1  453.55   16.80
   1  -2   1  433.26   16.20
   1  -2   1  415.46   15.60
  -2   2  -1  166.08    8.90
  -2   2  -1  192.78   11.30
  -2   2  -1  175.48   13.30
   2  -2   1  179.38    8.80
   2  -2   1  195.78   11.20
  -3   2  -1  914.51   32.20
  -3   2  -1  912.31   31.30
  -3   2  -1  892.51   26.20
   3  -2   1  955.00   32.30
   3  -2   1  945.31   31.50
  -4   2  -1   22.50    4.60
  -4   2  -1   25.00    7.20
  -4   2  -1   16.30    6.40
   4  -2   1   25.40    7.00
   4  -2   1   29.90    7.20
  -5   2  -1 1746.73   48.80
  -5   2  -1 1668.03   54.39
  -5   2  -1 1635.94   55.49
   5  -2   1 1798.12   57.59
   5  -2   1 1705.73   55.69
  -6   2  -1  337.47   22.70
  -6   2  -1  310.37   16.00
  -6   2  -1  337.27   29.40
   6  -2   1  345.47   24.50
   6  -2   1  282.97   22.60
  -7   2  -1   17.00    9.90
  -7   2  -1   11.30    5.70
   7  -2   1    6.30    9.90
   7  -2   1   -9.30    7.30
  -8   2  -1  197.28   14.70
  -8   2  -1  171.58   24.60
  -8   2  -1  221.88   25.10
   8  -2   1  203.08   25.70
   8  -2   1  187.78   25.60
  -9   2  -1  169.78   28.40
  -9   2  -1  163.58   21.60
   9  -2   1  149.19   31.50
   9  -2   1  157.78   26.50
   9   1  -1  184.78   25.70
   9   1  -1  198.38   33.50
  -9  -1   1  158.98   19.30
  -9  -1   1  158.78   26.80
   8   1  -1  274.27   25.00
  -8  -1   1  246.28   29.60
  -8  -1   1  262.57   10.30
  -8  -1   1  225.58   21.20
   7   1  -1   30.40    9.50
  -7  -1   1    7.10   13.40
  -7  -1   1   33.20    8.70
   6   1  -1   81.49   12.60
  -6  -1   1   82.69   17.50
   5   1  -1    6.60    5.80
   5   1  -1   24.20    6.50
  -5  -1   1   16.10    4.70
  -5  -1   1   21.10    7.50
  -5  -1   1   21.00    7.60
   4   1  -1 1119.89   39.00
   4   1  -1 1065.29   35.70
  -4  -1   1 1088.39   31.40
  -4  -1   1 1093.29   36.60
  -4  -1   1 1109.99   39.40
   3   1  -1  244.58   14.40
   3   1  -1  227.78   12.30
  -3  -1   1  206.68   12.20
  -3  -1   1  207.28    9.50
  -3  -1   1  225.98   14.10
   1   1  -1 2742.63   57.39
  -1  -1   1 2594.84   57.19
   0   1  -1   21.80    2.90
   0   1  -1   22.00    2.40
   0  -1   1   25.40    3.40
   0  -1   1   21.40    2.20
  -1   1  -1  150.78    7.70
  -1   1  -1  133.59    5.60
  -1   1  -1  148.69    7.10
  -1   1  -1  135.59    5.40
  -1   1  -1  165.78    7.90
   1  -1   1  147.19    7.00
   1  -1   1  147.09    7.70
   1  -1   1  148.39    7.60
   1  -1   1  147.39    7.40
   1  -1   1  138.39    5.30
  -2   1  -1   18.60    4.30
  -2   1  -1   12.80    2.20
  -2   1  -1   18.90    4.10
  -2   1  -1   15.10    1.90
   2  -1   1   14.00    4.00
   2  -1   1   11.90    3.60
   2  -1   1   19.00    4.50
  -3   1  -1  421.36   18.60
  -3   1  -1  378.66   17.40
  -3   1  -1  394.36   12.70
  -3   1  -1  384.26   10.80
   3  -1   1  359.46   17.60
   3  -1   1  389.26   17.90
   3  -1   1  406.46   18.90
  -4   1  -1  194.58    6.80
  -4   1  -1  212.48   15.10
  -4   1  -1  195.18   13.70
   4  -1   1  175.88   13.60
   4  -1   1  200.38   14.20
   4  -1   1  197.88   15.00
  -5   1  -1  384.76   23.20
  -5   1  -1  373.06    9.90
  -5   1  -1  402.26   21.60
   5  -1   1  401.06   23.10
   5  -1   1  345.57   21.80
  -6   1  -1  453.35   25.50
  -6   1  -1  539.05   29.80
  -6   1  -1  404.56   24.80
   6  -1   1  440.46   27.30
   6  -1   1  483.15   28.60
  -7   1  -1 1175.78   35.80
  -7   1  -1 1201.08   51.79
   7  -1   1 1115.49   49.60
   7  -1   1 1138.09   50.19
  -8   1  -1  186.48   25.70
  -8   1  -1  188.88   14.10
   8  -1   1  213.38   26.70
   8  -1   1  178.58   25.00
  -9   1  -1  173.08   20.90
  -9   1  -1  193.58   30.90
   9  -1   1  178.08   26.90
   9   0  -1   29.10   24.70
   9   0  -1   72.29   17.40
  -9   0   1   90.09   14.60
  -9   0   1   90.79   15.10
  -9   0   1   28.70   19.40
   8   0  -1   13.30   11.50
   8   0  -1   24.60   17.00
   8   0  -1    3.70   10.40
  -8   0   1    1.70   10.70
   7   0  -1   77.29   15.70
   7   0  -1   83.79   15.00
  -7   0   1   30.20   11.80
  -7   0   1   90.09   12.90
   6   0  -1    6.50    6.80
   6   0  -1   -2.20    5.70
  -6   0   1   -0.20    1.60
  -6   0   1    0.60    5.80
  -6   0   1   -3.00    4.60
   5   0  -1   30.10    7.30
   5   0  -1   21.60    7.60
  -5   0   1   33.00    6.80
  -5   0   1   29.60    3.40
  -5   0   1   23.00    7.70
   4   0  -1   53.79    8.20
   4   0  -1   60.09    9.40
  -4   0   1   62.59    7.90
  -4   0   1   55.79    9.40
   3   0  -1   98.99    8.80
   3   0  -1   87.89    8.10
  -3   0   1   93.89    7.50
  -3   0   1  107.09    9.70
   2   0  -1 1204.38   33.20
   2   0  -1 1215.88   31.50
  -2   0   1 1182.08   27.40
  -2   0   1 1248.58   33.60
   1   0  -1 1114.59   26.90
   1   0  -1 1111.19   24.70
   1   0  -1 1115.89   28.10
  -1   0   1 1075.39   26.70
  -1   0   1 1071.39   24.60
  -1   0   1 1108.69   28.00
  -1   0  -1 1153.18   27.30
  -1   0  -1 1129.59   29.10
   1   0   1 1125.79   27.20
   1   0   1 1127.19   28.90
   1   0   1 1072.19   24.70
  -2   0  -1  905.71   26.40
  -2   0  -1  859.71   21.80
  -2   0  -1  785.42   30.60
   2   0   1  886.41   27.50
   2   0   1  941.61   26.70
   2   0   1  890.11   25.80
  -3   0  -1  380.56   18.70
  -3   0  -1  389.76   18.10
  -3   0  -1  402.86   16.90
   3   0   1  389.06   18.60
   3   0   1  387.76   18.00
   3   0   1  402.36   17.30
  -4   0  -1   32.30    7.50
  -4   0  -1   14.90    5.80
   4   0   1   45.20    8.50
   4   0   1   25.00    6.20
   4   0   1   19.30    6.30
  -5   0  -1   53.29    7.10
  -5   0  -1   38.20    9.30
  -5   0  -1   54.69   10.80
   5   0   1   50.99   10.40
   5   0   1   43.20    9.40
   5   0   1   37.30    9.00
  -6   0  -1  645.04   33.40
   6   0   1  652.43   33.10
   6   0   1  616.54   32.80
  -7   0  -1  195.08   23.00
  -7   0  -1  143.59   13.10
  -7   0  -1  169.98    8.20
   7   0   1  178.08   21.80
   7   0   1  143.19   19.10
  -8   0  -1  178.08   15.30
  -8   0  -1  185.78   25.60
   8   0   1  212.08   25.60
  -9   0  -1   -4.40   18.10
  -9   0  -1    0.70    9.90
   9   0   1    6.10   16.50
   9  -1  -1  331.37   31.00
   9  -1  -1  316.97   42.40
  -9   1   1  394.36   29.60
  -9   1   1  373.56   38.90
  -9   1   1  388.16   25.80
   8  -1  -1  412.66   38.80
   8  -1  -1  439.36   31.60
   8  -1  -1  472.85   34.40
  -8   1   1  416.66   33.90
  -8   1   1  466.65   28.60
  -8   1   1  467.95   26.30
   7  -1  -1  194.48   23.00
   7  -1  -1  180.28   19.60
  -7   1   1  175.18   17.00
  -7   1   1  146.49   15.20
   6  -1  -1  943.11   39.10
   6  -1  -1  920.21   40.80
  -6   1   1  949.40   41.60
  -6   1   1  916.61   36.40
   5  -1  -1  185.98   16.30
   5  -1  -1  185.18   14.90
  -5   1   1  175.88   15.90
  -5   1   1  169.28   14.10
   4  -1  -1 2606.84   71.19
   4  -1  -1 2590.04   69.19
  -4   1   1 2605.64   68.39
  -4   1   1 2728.13   71.99
   3  -1  -1 1456.95   43.10
  -3   1   1 1573.24   44.10
   2  -1  -1 6296.67  138.99
   2  -1  -1 6276.77  135.29
  -2   1   1 6096.09  135.19
  -2   1   1 6235.68  134.19
   1  -1  -1  904.61   23.80
   1  -1  -1  897.31   24.50
   1  -1  -1  867.71   24.50
  -1   1   1  843.42   23.40
  -1   1   1  869.31   24.70
  -1   1   1  903.11   24.50
   0  -1  -1   -0.60    2.00
   0  -1  -1   16.80    3.10
   0  -1  -1    5.40    2.10
   0  -1  -1    0.70    1.00
   0   1   1    3.90    2.30
   0   1   1   -0.50    1.40
   0   1   1    3.00    1.20
  -1  -1  -1   94.39    6.80
  -1  -1  -1   92.99    7.20
   1   1   1  101.29    7.60
   1   1   1  105.69    7.00
  -2  -1  -1  169.78   10.90
  -2  -1  -1  175.28   11.20
  -2  -1  -1  160.08    9.50
   2   1   1  179.88   11.20
   2   1   1  164.78    9.10
  -3  -1  -1  852.11   31.10
  -3  -1  -1  802.62   29.40
  -3  -1  -1  802.12   26.40
   3   1   1  900.41   31.20
  -4  -1  -1 1195.08   42.40
  -4  -1  -1 1205.68   41.80
  -4  -1  -1 1208.38   36.50
   4   1   1 1220.78   37.70
   4   1   1 1218.58   42.10
  -5  -1  -1 4205.98  110.49
  -5  -1  -1 4127.89  109.19
   5   1   1 4220.58  109.69
   5   1   1 4239.48  103.09
  -6  -1  -1  609.04   26.40
  -6  -1  -1  654.53   40.90
  -6  -1  -1  608.24   33.80
   6   1   1  636.24   33.30
  -7  -1  -1   28.70    8.50
  -7  -1  -1   40.90   12.70
   7   1   1   21.70   11.10
  -8  -1  -1   -7.50    7.70
  -8  -1  -1   10.10   13.80
   8   1   1    3.40   11.30
   9  -2  -1   14.80   15.20
   9  -2  -1   29.50   24.60
  -9   2   1   14.50   11.30
  -9   2   1   -4.50   13.10
  -9   2   1   15.80   18.40
   8  -2  -1   51.79   19.60
   8  -2  -1   75.49   15.80
   8  -2  -1   35.10   12.90
  -8   2   1   82.69   17.70
  -8   2   1   62.29   14.10
  -8   2   1   72.19   13.10
   7  -2  -1   15.60    9.50
   7  -2  -1   17.30   10.30
  -7   2   1   -0.50    6.40
  -7   2   1  -14.50    7.60
   6  -2  -1  810.72   36.30
   6  -2  -1  776.12   37.30
  -6   2   1  753.72   31.10
  -6   2   1  727.63   34.00
   5  -2  -1   42.60    9.30
   5  -2  -1   42.40   11.40
   5  -2  -1   44.80    9.60
  -5   2   1   61.09   10.80
  -5   2   1   58.19    8.90
  -5   2   1   40.50    9.30
   4  -2  -1 1694.33   51.39
   4  -2  -1 1637.94   53.99
  -4   2   1 1654.63   51.09
  -4   2   1 1587.44   49.99
  -4   2   1 1574.74   46.60
   3  -2  -1    9.00    4.60
   3  -2  -1    3.80    5.10
  -3   2   1    9.40    4.20
  -3   2   1    8.00    4.10
   2  -2  -1 1464.75   39.90
   2  -2  -1 1369.56   40.80
  -2   2   1 1453.35   40.20
   1  -2  -1  294.47   12.80
   1  -2  -1  337.47   14.80
   1  -2  -1  287.07   11.50
   1  -2  -1  302.87   13.40
  -1   2   1  293.17   12.90
  -1   2   1  311.17   13.50
  -1   2   1  304.57   14.40
   0  -2  -1  503.15   19.00
   0  -2  -1  447.86   15.90
   0  -2  -1  466.75   12.50
   0  -2  -1  482.25   19.00
   0   2   1  474.35   16.10
   0   2   1  490.55   18.90
   0   2   1  442.76   14.90
  -1  -2  -1   35.40    6.40
  -1  -2  -1   38.30   10.30
   1   2   1   45.50    6.80
   1   2   1   34.30    6.10
   1   2   1   45.00    5.90
  -2  -2  -1   15.40    5.20
  -2  -2  -1   15.60    5.10
   2   2   1    6.90    4.10
   2   2   1   17.20    5.20
  -3  -2  -1    3.90    4.20
  -3  -2  -1    3.00    4.20
  -3  -2  -1    2.00    3.90
   3   2   1    2.30    4.20
  -4  -2  -1   17.40    5.90
  -4  -2  -1    8.80    6.60
  -4  -2  -1    8.90    6.20
   4   2   1    6.00    5.30
   4   2   1   12.00    5.00
  -5  -2  -1  893.41   39.80
  -5  -2  -1  893.31   35.00
  -5  -2  -1  960.40   40.40
   5   2   1  985.10   40.20
   5   2   1  945.61   33.30
  -6  -2  -1  629.14   34.70
  -6  -2  -1  657.53   30.10
  -6  -2  -1  650.53   40.80
   6   2   1  659.33   29.20
   6   2   1  694.03   35.80
  -7  -2  -1   73.99   12.90
  -7  -2  -1   65.39   16.00
   7   2   1   55.09   14.00
  -8  -2  -1   18.10   16.60
  -8  -2  -1   -5.10   14.60
  -8  -2  -1   16.50   10.60
   8   2   1  -12.80   11.90
   9  -3  -1    9.40   15.40
   9  -3  -1    8.20   24.00
   9  -3  -1   23.90   14.60
  -9   3   1   21.30   12.50
  -9   3   1    0.10   18.40
  -9   3   1  -27.90   14.30
   8  -3  -1   45.70   14.60
   8  -3  -1    5.00   13.20
   8  -3  -1   37.40   19.60
  -8   3   1   24.80   15.50
  -8   3   1   32.70   10.40
  -8   3   1   13.20   13.00
   7  -3  -1    0.10   10.30
   7  -3  -1    7.60    9.80
   7  -3  -1   23.40   10.80
  -7   3   1    7.40    7.40
   6  -3  -1   -2.00    8.10
   6  -3  -1   -1.20    5.60
   6  -3  -1   13.90    7.70
  -6   3   1   12.10    8.40
  -6   3   1   10.90    6.40
  -6   3   1  -10.10    6.40
   5  -3  -1 1033.90   44.20
   5  -3  -1  999.60   40.70
  -5   3   1  998.40   37.10
  -5   3   1 1047.40   41.30
  -5   3   1  961.60   40.10
   4  -3  -1 1288.07   47.50
   4  -3  -1 1323.17   45.70
  -4   3   1 1462.65   47.40
  -4   3   1 1382.56   43.90
   3  -3  -1  964.30   35.20
   3  -3  -1  923.71   33.90
   3  -3  -1  913.51   32.50
  -3   3   1  959.50   33.40
  -3   3   1 1008.50   34.90
   2  -3  -1 3813.62   93.19
   2  -3  -1 3886.01   92.19
   2  -3  -1 3949.30   94.19
  -2   3   1 3845.22   93.19
  -2   3   1 3859.91   93.99
   1  -3  -1 1835.62   51.89
   1  -3  -1 1919.51   52.89
   1  -3  -1 1725.73   46.10
   1  -3  -1 1832.42   47.40
  -1   3   1 1801.02   47.60
  -1   3   1 1986.30   47.40
  -1   3   1 1926.61   53.19
   0  -3  -1 3584.44   75.69
   0  -3  -1 3810.62   90.49
   0  -3  -1 3667.73   88.19
   0  -3  -1 3347.47   81.49
   0   3   1 3604.34   82.79
   0   3   1 3553.34   88.79
   0   3   1 3615.84   81.89
  -1  -3  -1 1169.38   38.20
  -1  -3  -1 1159.28   39.20
   1   3   1 1184.88   38.10
   1   3   1 1153.38   39.00
   1   3   1 1151.18   33.80
  -2  -3  -1  827.52   32.90
  -2  -3  -1  904.01   33.20
   2   3   1  862.21   32.60
   2   3   1  859.91   33.10
  -3  -3  -1 2151.68   64.19
  -3  -3  -1 2253.97   65.59
   3   3   1 2204.88   63.79
   3   3   1 2296.57   65.69
  -4  -3  -1  877.31   36.50
  -4  -3  -1  847.62   36.90
  -4  -3  -1  850.31   35.20
   4   3   1  893.71   29.30
   4   3   1  820.02   36.00
  -5  -3  -1  815.32   38.70
  -5  -3  -1  801.22   37.70
  -5  -3  -1  845.42   36.40
   5   3   1  812.22   29.90
   5   3   1  832.52   38.10
  -6  -3  -1   54.89   13.30
  -6  -3  -1   41.80   11.30
  -6  -3  -1   57.69   13.50
   6   3   1   75.99   10.70
   6   3   1   56.29   17.30
  -7  -3  -1    0.70    9.40
  -7  -3  -1    2.90   11.30
  -7  -3  -1    3.10   12.00
   7   3   1    6.30   10.30
  -8  -3  -1   -6.00   17.00
  -8  -3  -1    5.30   11.90
   8   3   1   15.50   14.80
   8  -4  -1  238.28   26.30
   8  -4  -1  145.09   22.80
   8  -4  -1  156.28   26.00
  -8   4   1  130.09   24.40
  -8   4   1  188.38   25.50
  -8   4   1  201.08   21.60
   7  -4  -1   64.49   17.90
   7  -4  -1   50.69   13.40
   7  -4  -1   50.39   13.60
  -7   4   1   52.29   12.80
  -7   4   1   89.49   16.90
   6  -4  -1   82.59   15.50
   6  -4  -1   59.89   16.30
   6  -4  -1   70.79   13.70
  -6   4   1   48.90   11.70
  -6   4   1   61.69   13.50
   5  -4  -1  119.49   17.20
   5  -4  -1  152.38   16.40
  -5   4   1  126.69   13.80
  -5   4   1  139.59   17.60
  -5   4   1  121.69   17.00
   4  -4  -1   14.80    7.70
   4  -4  -1   35.20    9.40
  -4   4   1   36.80    9.10
  -4   4   1   21.90    7.50
   3  -4  -1    1.10    4.80
   3  -4  -1    8.90    5.30
   3  -4  -1    4.80    4.70
  -3   4   1   16.00    6.10
  -3   4   1    7.50    5.40
   2  -4  -1   21.00    5.60
   2  -4  -1   34.00    7.70
   2  -4  -1   23.70    7.20
  -2   4   1   38.40    8.10
  -2   4   1   31.40    7.60
   1  -4  -1  427.36   23.10
   1  -4  -1  489.45   23.30
  -1   4   1  463.05   19.10
  -1   4   1  457.55   23.70
  -1   4   1  503.35   20.00
   0  -4  -1   24.50    4.80
   0  -4  -1   29.40    7.30
   0  -4  -1   15.20    6.60
   0  -4  -1   33.20    2.80
   0   4   1   27.20    5.00
   0   4   1   43.70    9.30
   0   4   1   31.00    6.70
  -1  -4  -1  787.52   32.20
  -1  -4  -1  726.83   32.80
   1   4   1  774.62   26.20
   1   4   1  788.12   33.40
  -2  -4  -1  227.08   17.30
  -2  -4  -1  192.98   17.20
   2   4   1  233.58   14.80
   2   4   1  210.88   16.80
   2   4   1  187.78   16.80
  -3  -4  -1 1359.76   50.09
  -3  -4  -1 1369.06   49.60
   3   4   1 1440.16   49.99
   3   4   1 1359.46   49.50
  -4  -4  -1   36.70   10.40
  -4  -4  -1   59.49   12.50
  -4  -4  -1   31.40    9.70
   4   4   1   33.90   10.00
  -5  -4  -1   21.00   11.40
  -5  -4  -1   22.00    9.50
   5   4   1   22.80   10.60
   5   4   1   20.00    6.30
  -6  -4  -1   84.19   17.90
  -6  -4  -1   81.49   17.10
  -6  -4  -1   91.99   16.20
   6   4   1   60.89   14.90
   6   4   1   86.59   11.30
  -7  -4  -1   73.09   16.00
  -7  -4  -1   81.19   20.20
  -7  -4  -1  122.59   22.40
   7   4   1   56.49   17.00
  -8  -4  -1    7.20   20.40
  -8  -4  -1   26.80   18.90
  -8  -4  -1   -5.70   13.90
   8   4   1    9.20   15.20
   8  -5  -1   49.40   15.70
   8  -5  -1   54.69   16.60
   8  -5  -1   50.09   38.10
  -8   5   1   -2.80   14.50
  -8   5   1   40.20   15.80
  -8   5   1   23.50   17.30
   7  -5  -1    2.50   13.60
   7  -5  -1   19.20   12.80
   7  -5  -1   10.90   11.40
  -7   5   1    7.20   11.80
  -7   5   1   15.90   11.00
   6  -5  -1   35.40   13.50
   6  -5  -1   44.40   13.30
  -6   5   1   51.29   14.00
  -6   5   1   37.40   11.20
   5  -5  -1 1035.50   45.70
   5  -5  -1 1126.89   47.70
  -5   5   1 1041.60   47.00
  -5   5   1 1137.49   45.40
  -5   5   1 1074.39   46.20
   4  -5  -1 4763.32  120.69
   4  -5  -1 4478.15  117.19
   4  -5  -1 4500.75  116.89
  -4   5   1 4565.54  118.89
  -4   5   1 4436.56  118.99
   3  -5  -1  618.94   30.20
   3  -5  -1  544.05   28.80
   3  -5  -1  595.44   27.30
  -3   5   1  612.54   30.00
  -3   5   1  592.24   30.10
   2  -5  -1  244.78   15.10
   2  -5  -1  269.37   19.00
   2  -5  -1  241.18   18.90
  -2   5   1  244.48   19.20
   1  -5  -1   17.00    4.50
   1  -5  -1   18.80    7.40
   1  -5  -1   19.70    7.30
  -1   5   1    6.90    4.80
  -1   5   1   20.10    6.10
  -1   5   1   11.80    5.80
   0  -5  -1  124.89    4.40
   0  -5  -1  148.79   14.10
   0  -5  -1  105.89   15.10
   0  -5  -1  121.89   11.30
   0   5   1  105.79    8.90
   0   5   1  116.29   15.60
   0   5   1  115.89   11.50
  -1  -5  -1   83.59   12.50
  -1  -5  -1  116.89   16.40
   1   5   1  106.89   13.30
   1   5   1  107.79    9.40
   1   5   1   77.89   13.40
  -2  -5  -1 1369.56   50.29
  -2  -5  -1 1339.67   51.89
   2   5   1 1362.26   42.30
   2   5   1 1284.27   49.00
   2   5   1 1420.66   52.89
  -3  -5  -1  925.21   41.50
  -3  -5  -1  980.20   43.80
   3   5   1  940.01   41.00
   3   5   1  952.40   36.00
   3   5   1  978.40   43.20
  -4  -5  -1  253.37   23.20
  -4  -5  -1  246.88   23.30
   4   5   1  283.37   23.00
  -5  -5  -1  756.42   41.00
  -5  -5  -1  835.52   42.50
  -5  -5  -1  746.83   40.40
   5   5   1  727.23   27.80
  -6  -5  -1   35.70   15.20
  -6  -5  -1   14.80   12.70
  -6  -5  -1   22.10   13.10
   6   5   1   15.50   12.60
   6   5   1   19.60    7.30
  -7  -5  -1  250.37   32.60
  -7  -5  -1  257.37   31.70
  -7  -5  -1  220.88   27.10
   7   5   1  238.98   29.60
   8  -6  -1    4.00   16.20
   8  -6  -1  -20.60   19.40
   8  -6  -1    9.10   14.40
  -8   6   1   15.80   16.90
  -8   6   1   16.90   16.40
  -8   6   1   -0.20   18.30
   7  -6  -1   10.90   11.90
   7  -6  -1   12.50   14.40
  -7   6   1    1.20   13.70
  -7   6   1   -6.30   12.40
  -7   6   1    3.90   13.20
   6  -6  -1   81.19   16.20
   6  -6  -1   52.19   14.00
  -6   6   1   72.09   15.80
  -6   6   1   37.40   13.40
   5  -6  -1  313.17   24.10
   5  -6  -1  267.57   24.60
  -5   6   1  249.68   23.70
  -5   6   1  290.07   24.10
  -5   6   1  268.87   25.40
   4  -6  -1  118.59   17.30
   4  -6  -1  139.69   15.50
   4  -6  -1  132.99   18.00
  -4   6   1   95.79   27.70
  -4   6   1  115.89   17.90
  -4   6   1  141.79   15.30
   3  -6  -1  385.36   26.00
   3  -6  -1  363.86   25.90
   3  -6  -1  391.26   22.10
  -3   6   1  361.86   12.70
  -3   6   1  381.16   26.10
   2  -6  -1 1124.79   45.20
   2  -6  -1 1072.19   36.80
   2  -6  -1 1069.49   45.70
  -2   6   1 1023.40   44.60
  -2   6   1 1053.49   39.10
   1  -6  -1  321.67   23.10
   1  -6  -1  335.07   24.70
   1  -6  -1  306.57   16.30
  -1   6   1  296.57   23.30
  -1   6   1  302.37   18.90
  -1   6   1  297.47   16.60
   0  -6  -1  881.41   29.60
   0  -6  -1  836.62   41.50
   0  -6  -1  934.51   39.90
   0   6   1  813.42   29.60
   0   6   1  887.91   41.60
   0   6   1  926.71   35.70
  -1  -6  -1  108.59   16.20
  -1  -6  -1   99.69   16.60
   1   6   1   80.39   13.20
   1   6   1   92.89   15.90
   1   6   1  119.59   15.80
  -2  -6  -1    6.80    7.10
  -2  -6  -1   10.80    8.40
   2   6   1    2.10    4.50
   2   6   1    1.50    8.40
  -3  -6  -1   23.00   10.80
  -3  -6  -1   21.20   10.40
   3   6   1   18.20    9.10
   3   6   1    6.00    6.40
   3   6   1    6.60    9.40
  -4  -6  -1   34.00   11.90
  -4  -6  -1   27.10   12.90
   4   6   1   42.60   14.10
   4   6   1   47.40   10.70
   4   6   1   17.10   11.00
  -5  -6  -1   39.90   14.90
  -5  -6  -1   88.59   18.30
   5   6   1   65.09   15.70
   5   6   1   38.80    8.50
   5   6   1   77.59   14.80
  -6  -6  -1   94.49   19.20
  -6  -6  -1   65.29   18.90
  -6  -6  -1  116.89   21.70
   6   6   1   58.19   17.10
   6   6   1   61.39    9.30
  -7  -6  -1   -2.10   22.80
  -7  -6  -1   49.10   22.60
  -7  -6  -1    1.00   16.60
   7   6   1   14.30   16.50
   7  -7  -1  253.07   31.30
   7  -7  -1  282.47   34.60
  -7   7   1  244.28   31.50
  -7   7   1  239.18   36.30
  -7   7   1  231.78   30.80
  -7   7   1  242.58   22.80
   6  -7  -1  860.51   45.80
   6  -7  -1  784.52   45.00
  -6   7   1  745.53   45.20
  -6   7   1  755.12   33.20
  -6   7   1  734.83   43.10
  -6   7   1  749.73   45.00
   5  -7  -1  525.75   32.20
   5  -7  -1  545.65   35.40
  -5   7   1  497.45   34.30
  -5   7   1  472.45   22.20
  -5   7   1  456.65   34.50
  -5   7   1  486.55   34.20
   4  -7  -1  378.36   28.90
   4  -7  -1  372.36   28.60
   4  -7  -1  384.16   25.80
  -4   7   1  390.46   30.80
  -4   7   1  417.56   15.90
   3  -7  -1   22.80   10.20
   3  -7  -1   26.30    8.40
   3  -7  -1   17.00    9.80
  -3   7   1   27.90   15.10
   2  -7  -1   24.80   10.60
   2  -7  -1   17.40    9.30
   2  -7  -1   -0.90    5.50
  -2   7   1    9.40    7.70
  -2   7   1    2.90    8.30
   1  -7  -1   41.20   13.20
   1  -7  -1   58.79   12.70
   1  -7  -1   25.50    6.60
   1  -7  -1   48.90   12.70
  -1   7   1   38.50   10.60
  -1   7   1   32.90    7.00
  -1   7   1   37.50   11.60
   0  -7  -1   13.70    8.40
   0  -7  -1   19.50    5.70
   0  -7  -1    0.50    8.30
   0   7   1   14.20    6.00
   0   7   1    8.40   10.20
   0   7   1   12.80    8.60
  -1  -7  -1   -3.60    7.70
  -1  -7  -1    0.10    8.50
  -1  -7  -1    2.20    3.30
   1   7   1   14.70    8.50
   1   7   1    4.70    5.70
  -2  -7  -1 1556.74   61.39
  -2  -7  -1 1588.84   65.39
   2   7   1 1499.35   55.99
   2   7   1 1537.95   46.40
   2   7   1 1567.94   64.39
  -3  -7  -1 1546.25   62.89
   3   7   1 1597.64   50.69
   3   7   1 1574.44   65.29
  -4  -7  -1   67.49   17.30
  -4  -7  -1   49.60   15.80
   4   7   1   59.69   12.10
   4   7   1   37.50   14.70
   4   7   1   81.19   18.80
  -5  -7  -1   39.50   17.50
  -5  -7  -1   66.69   20.10
  -5  -7  -1   41.70   17.10
   5   7   1   68.09   18.00
   5   7   1   49.50   13.80
   5   7   1   57.49   10.10
  -6  -7  -1    0.90   20.30
  -6  -7  -1   25.50   17.50
  -6  -7  -1   -7.20   18.90
   6   7   1   29.30   15.10
   6   7   1   -1.50   16.20
   7  -8  -1   -3.30   17.60
   7  -8  -1    3.10   17.80
   7  -8  -1    6.90    8.70
  -7   8   1   19.00   19.60
  -7   8   1    0.00   10.10
  -7   8   1   -1.00   17.80
   6  -8  -1  125.29   22.30
   6  -8  -1  136.69   25.20
  -6   8   1  137.19   27.60
  -6   8   1  110.69   13.00
  -6   8   1  136.29   24.20
   5  -8  -1   67.89   15.70
   5  -8  -1   86.99   19.90
   5  -8  -1   83.59   18.60
  -5   8   1   90.89   18.80
  -5   8   1   81.59   12.70
   4  -8  -1  504.05   36.10
   4  -8  -1  416.16   27.70
   4  -8  -1  477.05   34.30
  -4   8   1  364.66   41.00
   3  -8  -1   14.30    7.60
   3  -8  -1   16.80   12.90
   3  -8  -1   20.40   10.80
  -3   8   1   10.20   11.00
   2  -8  -1  -14.30    8.70
   2  -8  -1    4.50   10.80
   2  -8  -1    7.50    6.00
  -2   8   1    8.10    9.80
  -2   8   1   -3.50    7.20
   1  -8  -1    7.10    5.20
   1  -8  -1   -4.20   10.10
   1  -8  -1   15.20    9.90
  -1   8   1   -0.60    8.60
   0  -8  -1  154.68   24.20
   0  -8  -1  213.78   22.30
   0   8   1  177.38   18.90
   0   8   1  190.48   13.50
  -1  -8  -1   19.20   11.60
  -1  -8  -1   24.50    4.00
  -1  -8  -1   18.00   13.10
   1   8   1   30.20    7.50
   1   8   1   43.60   14.90
   1   8   1   29.90   11.50
  -2  -8  -1   18.60   12.20
  -2  -8  -1   15.10   11.90
   2   8   1   11.50   12.70
   2   8   1   -1.20    8.70
   2   8   1   10.10    6.20
  -3  -8  -1  195.58   26.60
  -3  -8  -1  161.58   24.30
   3   8   1  155.78   22.70
   3   8   1  172.78   15.80
   3   8   1  184.48   27.20
  -4  -8  -1   46.40   18.80
  -4  -8  -1   78.49   20.60
   4   8   1   38.70   11.00
   4   8   1   72.39   21.10
  -5  -8  -1   91.49   23.00
  -5  -8  -1   55.69   21.80
   5   8   1   84.09   16.40
   6  -9  -1   85.39   20.00
   6  -9  -1   42.10   20.10
  -6   9   1   78.19   23.60
  -6   9   1  102.09   25.80
   5  -9  -1   -4.40   14.20
   5  -9  -1   23.60   13.10
   5  -9  -1  -12.10   14.70
  -5   9   1    8.50   18.00
  -5   9   1   25.90   17.20
   4  -9  -1  397.26   36.10
   4  -9  -1  359.86   34.00
   4  -9  -1  359.76   26.80
  -4   9   1  345.87   35.20
   3  -9  -1    1.30   11.30
   3  -9  -1    0.90   13.60
   3  -9  -1   17.00    9.30
  -3   9   1   24.60   14.80
   2  -9  -1  316.27   33.30
   2  -9  -1  354.56   21.90
   2  -9  -1  391.06   32.90
  -2   9   1  385.46   35.00
  -2   9   1  345.67   25.90
   1  -9  -1   22.50   14.80
   1  -9  -1  -15.60   11.40
   1  -9  -1   22.50   12.70
   1  -9  -1    4.90    6.50
  -1   9   1   12.80   10.10
   0  -9  -1  905.01   52.49
   0  -9  -1  921.81   49.99
   0  -9  -1  808.42   46.10
   0   9   1  826.82   41.70
  -1  -9  -1  562.04   43.60
  -1  -9  -1  567.64   39.30
   1   9   1  613.24   44.00
   1   9   1  559.74   35.00
  -2  -9  -1  395.66   37.10
  -2  -9  -1  433.06   36.10
   2   9   1  394.96   36.70
   2   9   1  370.86   19.80
   2   9   1  387.76   29.70
  -3  -9  -1   49.50   11.40
  -3  -9  -1   53.09   17.20
  -3  -9  -1   55.99   20.50
   3   9   1   80.59   18.70
   3   9   1   59.79   10.50
   3   9   1   50.99   21.10
  -4  -9  -1   14.30   18.80
   4   9   1   20.70   14.70
   4   9   1    4.20    9.00
   4 -10  -1   34.30   20.00
   4 -10  -1   23.30   18.80
  -4  10   1   33.40   24.40
  -4  10   1   38.20   18.60
   3 -10  -1   80.09   22.70
   3 -10  -1   69.59   13.40
   3 -10  -1   53.69   19.30
   2 -10  -1    8.40   16.40
   2 -10  -1  -28.40   14.70
   2 -10  -1   -9.50    7.70
   2 -10  -1   -1.20   15.10
  -2  10   1    5.60   17.70
   1 -10  -1  107.59   24.20
   1 -10  -1  114.89   23.90
   1 -10  -1  135.99   24.60
  -1  10   1   95.79   18.70
  -1  10   1  188.98   32.20
   0 -10  -1   84.29   20.70
   0 -10  -1   57.89   19.90
   0 -10  -1   98.69   22.50
   0  10   1  114.69   30.30
   0  10   1   56.29   16.80
  -1 -10  -1  116.89   26.70
  -1 -10  -1  185.78   28.10
   1  10   1  103.29   20.70
   1  10   1  115.29   25.40
  -2 -10  -1  -35.40   18.20
  -2 -10  -1   22.40   20.30
   2  10   1   13.90   21.40
   2  10   1    0.50   14.70
   2  10   1    8.20    5.70
   2 -11  -1  -24.90   17.80
   1 -11  -1  205.38   31.90
   1 -11  -1  224.68   36.90
  -1  11   1  199.58   53.99
  -1  11   1  223.28   27.80
   2  11  -2  135.39   25.40
   2  11  -2   86.59   14.40
   2  11  -2   59.69   25.40
  -2 -11   2   32.30   20.30
  -2 -11   2   62.09   25.60
   1  11  -2  140.79   17.90
   1  11  -2  137.89   25.80
   1  11  -2  126.69   27.90
  -1 -11   2  118.49   26.00
  -1 -11   2  144.69   24.60
   0  11  -2  -15.80   17.70
   0  11  -2    7.80   12.70
   0  11  -2   11.70   12.20
   0 -11   2   -4.90   14.80
   0 -11   2  -17.00   16.90
   0 -11   2   -4.50   18.50
  -1  11  -2   95.99   22.50
  -1  11  -2  110.89   19.60
   1 -11   2  137.29   24.30
   1 -11   2   91.99   24.40
   1 -11   2   85.49   24.90
  -2  11  -2  475.85   37.20
  -2  11  -2  417.96   35.20
   2 -11   2  513.55   44.20
   2 -11   2  417.36   41.30
  -3  11  -2   74.59   21.30
   3 -11   2   36.80    9.50
   3 -11   2   42.80   22.80
   4  10  -2   34.20   17.70
  -4 -10   2   52.09   20.20
  -4 -10   2   48.30   23.20
   3  10  -2   18.30   13.20
   3  10  -2   -0.20    6.50
  -3 -10   2   21.50   19.10
  -3 -10   2   23.60   15.40
   2  10  -2   18.80    9.40
   2  10  -2   35.60   15.30
   2  10  -2   39.00   18.60
  -2 -10   2   10.90   16.60
  -2 -10   2   41.10   17.40
   1  10  -2   -2.80   11.80
   1  10  -2    3.30    8.80
   1  10  -2   -0.40   13.40
  -1 -10   2    7.20    4.70
  -1 -10   2   42.50   14.40
  -1 -10   2   -7.20   16.00
   0  10  -2  136.59   23.30
   0  10  -2  130.79   18.90
   0  10  -2  153.38   25.70
   0 -10   2  112.19   22.80
   0 -10   2  169.98   28.20
   0 -10   2  133.89   21.70
  -1  10  -2  984.10   55.49
  -1  10  -2 1138.99   54.29
  -1  10  -2  939.91   46.10
   1 -10   2 1027.30   57.39
   1 -10   2  981.00   56.09
   1 -10   2 1065.19   52.09
  -2  10  -2   95.49   22.50
  -2  10  -2  125.89   22.00
  -2  10  -2  129.49   20.70
   2 -10   2  136.69   25.10
   2 -10   2  139.39   26.10
  -3  10  -2   95.89   19.20
  -3  10  -2  148.59   27.10
   3 -10   2  125.79   13.90
   3 -10   2  112.19   23.40
   3 -10   2  130.89   23.00
  -4  10  -2   19.20   18.40
  -4  10  -2    3.60   16.30
   4 -10   2    8.60   15.00
   4 -10   2   24.30   10.50
   4 -10   2   22.90   15.70
  -5  10  -2   36.10   20.00
  -5  10  -2   39.60   20.80
   5 -10   2   22.80   16.40
   5 -10   2   33.60   21.20
   5 -10   2   24.60   13.60
   5   9  -2   19.40    8.90
   5   9  -2    3.30    7.20
  -5  -9   2    6.20   17.80
  -5  -9   2    0.60   16.50
   4   9  -2  151.68    8.20
   4   9  -2  127.39   23.70
   4   9  -2  160.48    8.70
  -4  -9   2  146.19   23.50
  -4  -9   2  182.08   28.80
   3   9  -2   72.29    9.40
   3   9  -2   80.09   18.30
  -3  -9   2   42.60   18.80
  -3  -9   2  105.19   18.70
   2   9  -2   -6.10   13.20
   2   9  -2    6.60    6.50
   2   9  -2    8.00    9.80
  -2  -9   2   12.60   14.00
  -2  -9   2   -3.10    9.60
   1   9  -2  292.27   27.20
   1   9  -2  264.87   20.00
  -1  -9   2  217.28   23.40
  -1  -9   2  263.97   28.80
   0   9  -2  389.06   29.60
   0   9  -2  385.36   25.30
   0  -9   2  359.06   12.00
   0  -9   2  364.56   27.20
   0  -9   2  353.46   32.00
  -1   9  -2  323.67   30.40
  -1   9  -2  288.27   26.20
  -1   9  -2  248.58   21.90
   1  -9   2  289.77   29.50
   1  -9   2  329.97   30.60
  -2   9  -2  472.65   34.60
  -2   9  -2  425.16   32.20
   2  -9   2  427.56   33.90
   2  -9   2  448.66   34.60
   2  -9   2  439.36   19.40
  -3   9  -2  126.59   20.20
  -3   9  -2  161.68   24.60
   3  -9   2  134.89   13.80
   3  -9   2  120.69   21.30
   3  -9   2  124.89   22.10
  -4   9  -2   64.39   16.50
  -4   9  -2   51.39   16.70
   4  -9   2   44.80   15.50
   4  -9   2   32.00   15.50
   4  -9   2   40.80   11.40
  -5   9  -2  298.57   31.40
  -5   9  -2  225.88   30.00
   5  -9   2  262.97   28.60
   5  -9   2  247.78   24.80
   5  -9   2  321.77   32.10
  -6   9  -2  183.28   18.60
   6  -9   2  160.88   16.40
   6  -9   2  244.48   26.40
   6   8  -2  243.68   23.20
   6   8  -2  218.38   21.90
  -6  -8   2  271.47   34.40
  -6  -8   2  223.48   29.30
  -6  -8   2  184.98   28.70
   5   8  -2   43.90   10.20
   5   8  -2   29.00    8.70
  -5  -8   2   18.20   14.50
  -5  -8   2   19.80   16.80
   4   8  -2  190.48   13.90
  -4  -8   2  203.18   25.10
  -4  -8   2  204.18   28.10
   3   8  -2  190.78    7.40
   3   8  -2  179.58    7.20
   3   8  -2  175.08   25.20
   3   8  -2  188.78   13.10
  -3  -8   2  167.28   24.70
  -3  -8   2  180.08   22.10
   2   8  -2  405.66   29.80
   2   8  -2  384.66   31.80
   2   8  -2  377.56   19.50
  -2  -8   2  383.56   27.70
  -2  -8   2  394.06   32.70
   1   8  -2  933.01   47.80
   1   8  -2  861.01   43.90
   1   8  -2  894.41   34.80
  -1  -8   2  901.21   40.70
  -1  -8   2  919.21   50.89
   0   8  -2  127.09   20.70
   0   8  -2   94.29   13.40
   0   8  -2  123.09   20.00
   0  -8   2  109.49    8.50
   0  -8   2   78.19   16.70
   0  -8   2  120.59   17.80
  -1   8  -2  310.17   22.80
  -1   8  -2  285.17   24.50
   1  -8   2  319.97   28.30
   1  -8   2  275.87   25.70
   1  -8   2  319.37   12.20
  -2   8  -2  366.46   27.30
  -2   8  -2  318.17   24.70
  -2   8  -2  360.56   28.30
   2  -8   2  328.17   28.50
   2  -8   2  404.16   35.90
   2  -8   2  322.27   16.60
  -3   8  -2   19.50   11.50
   3  -8   2   42.70   12.60
   3  -8   2   25.50   12.80
   3  -8   2   31.70    8.10
  -4   8  -2   59.69   14.90
  -4   8  -2   74.69   15.50
   4  -8   2   65.69   12.50
   4  -8   2   49.20   13.60
   4  -8   2   62.59   15.50
  -5   8  -2   -4.90   22.30
  -5   8  -2   28.40    8.40
  -5   8  -2   23.80   13.60
   5  -8   2   41.60   13.20
   5  -8   2    6.50   12.00
   5  -8   2   25.40   13.80
  -6   8  -2  100.49   25.10
  -6   8  -2   90.49   21.70
  -6   8  -2  109.29   15.20
  -6   8  -2   53.69   18.80
   6  -8   2   80.39   19.70
   6  -8   2   67.79    9.70
   6  -8   2   79.79   19.10
  -7   8  -2  208.18   32.30
  -7   8  -2  140.99   23.50
  -7   8  -2  178.18   22.70
  -7   8  -2  160.78   26.20
   7  -8   2  188.68   27.60
   7  -8   2  154.58   31.40
   7  -8   2  164.78   27.20
   7   7  -2  142.99   23.10
   7   7  -2   63.79   19.20
  -7  -7   2  105.59   22.50
  -7  -7   2  106.49   24.10
  -7  -7   2   89.19   26.30
   6   7  -2   61.09   15.10
   6   7  -2   62.19   14.40
  -6  -7   2   65.49   20.90
  -6  -7   2   84.69   18.50
  -6  -7   2   80.99   19.90
   5   7  -2    7.50   10.40
  -5  -7   2    9.30   12.10
  -5  -7   2   14.40   12.90
   4   7  -2    9.10    5.80
  -4  -7   2   18.40   10.00
  -4  -7   2    2.20   10.20
   3   7  -2   58.39    6.20
   3   7  -2   46.60    6.20
  -3  -7   2   40.20   13.20
  -3  -7   2   52.79   11.90
   2   7  -2  327.67   27.00
   2   7  -2  251.77   27.00
  -2  -7   2  322.47   22.80
  -2  -7   2  298.37   26.20
   1   7  -2 1769.72   66.49
   1   7  -2 1870.11   65.59
  -1  -7   2 1804.52   59.79
  -1  -7   2 1894.91   69.69
   0   7  -2  295.47   19.20
   0   7  -2  266.87   22.50
   0   7  -2  293.07   24.10
   0  -7   2  288.97   13.70
   0  -7   2  337.57   26.40
  -1   7  -2  226.58   18.00
  -1   7  -2  189.98   18.90
  -1   7  -2  206.08   20.80
   1  -7   2  185.88   20.70
   1  -7   2  203.58    9.90
   1  -7   2  225.08   21.20
  -2   7  -2  285.57   23.10
  -2   7  -2  326.47   22.60
  -2   7  -2  273.67   22.80
   2  -7   2  309.87   16.00
   2  -7   2  283.17   23.40
   2  -7   2  297.57   24.60
  -3   7  -2  289.57   23.50
  -3   7  -2  342.67   26.10
   3  -7   2  304.67   23.70
   3  -7   2  330.97   19.60
   3  -7   2  351.26   25.30
  -4   7  -2   72.29   10.20
  -4   7  -2   57.99   13.90
   4  -7   2   57.79   12.80
   4  -7   2   71.29   12.60
   4  -7   2   59.29   16.60
  -5   7  -2   -1.20    6.10
  -5   7  -2   12.60    9.90
  -5   7  -2    0.40    9.00
   5  -7   2    4.00    8.40
   5  -7   2    1.30    5.00
   5  -7   2   -0.10    8.90
   5  -7   2   13.60    9.00
  -6   7  -2  404.86   33.00
  -6   7  -2  404.56   29.00
  -6   7  -2  445.06   27.30
  -6   7  -2  385.76   33.80
   6  -7   2  389.16   31.30
   6  -7   2  430.06   33.40
   6  -7   2  375.36   31.30
  -7   7  -2  375.66   28.80
  -7   7  -2  362.16   28.60
  -7   7  -2  298.27   40.20
  -7   7  -2  372.36   34.60
   7  -7   2  373.46   36.20
   7  -7   2  356.06   34.00
   7  -7   2  323.27   32.50
   7   6  -2   27.00   14.70
   7   6  -2    5.30   14.90
  -7  -6   2   30.50   23.00
  -7  -6   2   55.59   18.60
  -7  -6   2   32.50   16.70
   6   6  -2  129.29   19.60
  -6  -6   2  130.19   22.50
  -6  -6   2  105.09   20.20
  -6  -6   2  122.99   19.90
   5   6  -2  -10.60    6.70
  -5  -6   2   -5.20   12.00
  -5  -6   2    6.00    8.40
  -5  -6   2   -7.00   10.80
   4   6  -2   57.89   12.30
  -4  -6   2   29.30   11.40
  -4  -6   2   20.10    9.00
   3   6  -2   20.60    3.20
  -3  -6   2   24.30   10.50
  -3  -6   2   34.40    9.50
   2   6  -2  516.55   14.60
   2   6  -2  545.55   31.90
   2   6  -2  500.45   14.50
  -2  -6   2  524.05   26.80
  -2  -6   2  500.35   31.30
   1   6  -2 1475.55   54.89
   1   6  -2 1379.76   51.49
  -1  -6   2 1363.46   53.89
  -1  -6   2 1418.96   47.50
   0   6  -2  602.14   32.40
   0   6  -2  630.34   31.30
   0   6  -2  612.94   25.90
   0  -6   2  601.64   32.60
  -1   6  -2  788.32   35.50
  -1   6  -2  793.12   37.00
  -1   6  -2  760.82   32.00
   1  -6   2  786.62   36.30
   1  -6   2  810.92   23.40
   1  -6   2  800.42   24.70
   1  -6   2  814.22   37.90
  -2   6  -2   36.70   10.00
  -2   6  -2   32.50    9.10
  -2   6  -2   31.70    9.40
   2  -6   2   38.40    6.80
   2  -6   2   31.40    9.70
   2  -6   2   23.40    8.90
  -3   6  -2 1623.34   57.19
  -3   6  -2 1690.43   57.09
  -3   6  -2 1603.14   46.60
   3  -6   2 1714.23   56.39
   3  -6   2 1685.03   57.79
   3  -6   2 1591.84   50.59
  -4   6  -2  243.68   21.40
  -4   6  -2  254.67   17.10
  -4   6  -2  306.47   23.70
  -4   6  -2  262.17   20.60
   4  -6   2  247.38   20.00
   4  -6   2  239.38   21.30
   4  -6   2  243.58   18.50
  -5   6  -2  990.30   46.50
  -5   6  -2  962.20   45.20
  -5   6  -2  972.90   40.90
  -5   6  -2 1007.50   39.80
   5  -6   2  964.90   43.90
   5  -6   2  960.40   29.70
   5  -6   2 1005.70   38.50
   5  -6   2  936.41   45.00
  -6   6  -2  244.78   21.20
  -6   6  -2  247.58   21.50
  -6   6  -2  177.98   23.40
   6  -6   2  251.87   25.60
   6  -6   2  225.68   24.70
   6  -6   2  212.08   23.30
  -7   6  -2   -6.70   13.20
  -7   6  -2   23.30   11.40
  -7   6  -2    6.80   13.40
  -7   6  -2    1.00   10.00
   7  -6   2   -5.00   14.00
   7  -6   2   28.40   12.80
   7  -6   2    9.40   12.70
  -8   6  -2   35.00   12.90
  -8   6  -2   59.09   20.80
  -8   6  -2   35.20   15.90
  -8   6  -2    5.40   19.10
   8  -6   2   75.99   24.10
   8  -6   2   24.50   19.40
   8   5  -2   80.19   24.00
   8   5  -2   64.79   18.30
  -8  -5   2   66.79   19.10
  -8  -5   2   47.50   20.50
  -8  -5   2   52.99   19.40
   7   5  -2  138.79   22.20
   7   5  -2  105.39   18.80
  -7  -5   2   68.99   19.40
  -7  -5   2  111.09   19.40
  -7  -5   2  136.69   23.70
   6   5  -2  153.78   19.70
  -6  -5   2  159.48   21.90
  -6  -5   2  139.99   19.40
   5   5  -2  169.58   16.50
  -5  -5   2  150.98   20.40
  -5  -5   2  152.68   21.20
  -5  -5   2  176.08   18.40
   4   5  -2  466.55   25.20
  -4  -5   2  402.36   27.80
  -4  -5   2  471.55   25.40
   3   5  -2  574.94   27.20
  -3  -5   2  640.74   28.40
  -3  -5   2  634.74   33.50
   2   5  -2   62.89   12.20
  -2  -5   2   43.10   10.70
  -2  -5   2   49.30    9.10
   1   5  -2  532.25   28.30
   1   5  -2  544.65   27.70
  -1  -5   2  546.55   29.10
  -1  -5   2  595.84   25.10
   0   5  -2 1594.14   52.39
   0   5  -2 1652.03   54.99
   0   5  -2 1638.44   46.40
   0  -5   2 1653.83   55.79
  -1   5  -2   49.10    8.80
  -1   5  -2   52.19   10.50
  -1   5  -2   48.10    9.70
   1  -5   2   67.39   10.70
   1  -5   2   50.69    6.40
   1  -5   2   50.99   10.10
   1  -5   2   57.09    5.50
  -2   5  -2  129.19   13.50
  -2   5  -2  123.59   14.40
  -2   5  -2  121.29    9.00
  -2   5  -2  114.29   12.80
   2  -5   2  144.29   13.60
   2  -5   2  123.59   13.40
  -3   5  -2   35.10    8.60
  -3   5  -2   37.40    7.00
  -3   5  -2   34.10    8.70
  -3   5  -2   37.20    8.00
   3  -5   2   19.40    6.60
   3  -5   2   36.40    8.40
  -4   5  -2   55.89   11.50
  -4   5  -2   40.50    9.00
  -4   5  -2   45.80    9.00
  -4   5  -2   51.89   11.00
   4  -5   2   44.10    9.70
   4  -5   2   36.90    7.60
   4  -5   2   35.70    5.80
  -5   5  -2  916.41   37.90
  -5   5  -2  878.61   35.10
  -5   5  -2  867.41   41.40
   5  -5   2  828.62   40.40
   5  -5   2  860.21   39.50
   5  -5   2  872.91   24.30
  -6   5  -2 1436.26   47.70
  -6   5  -2 1344.67   56.09
  -6   5  -2 1382.16   56.89
  -6   5  -2 1428.16   54.29
   6  -5   2 1399.16   57.69
   6  -5   2 1388.36   55.69
  -7   5  -2  103.59   18.10
  -7   5  -2   58.59   16.70
  -7   5  -2   63.39   17.20
  -7   5  -2   89.29   13.50
   7  -5   2   90.79   17.80
   7  -5   2   80.79   17.80
  -8   5  -2   -6.50   15.50
  -8   5  -2   29.80   16.90
  -8   5  -2   -6.90   14.50
  -8   5  -2   -5.70    8.80
   8  -5   2  -17.40   18.60
   8  -5   2    2.40   13.50
   8  -5   2   17.10   15.30
   8   4  -2   58.79   16.00
   8   4  -2   40.50   20.80
  -8  -4   2   36.80   15.50
  -8  -4   2   15.60   14.10
  -8  -4   2   27.80   19.30
   7   4  -2   22.60   11.20
  -7  -4   2   18.00   12.80
  -7  -4   2   23.20   11.40
  -7  -4   2   25.90   13.00
   6   4  -2   28.90   10.00
  -6  -4   2   22.30   10.50
  -6  -4   2    5.10    8.60
  -6  -4   2   17.90   10.30
   5   4  -2    0.60    5.70
  -5  -4   2    9.10    8.30
  -5  -4   2   16.00    9.10
  -5  -4   2    2.00    5.60
   4   4  -2   30.80    7.80
  -4  -4   2   50.79   11.10
  -4  -4   2   24.90    8.70
  -4  -4   2   40.40    8.40
   3   4  -2  200.98   13.70
  -3  -4   2  164.88   12.70
  -3  -4   2  175.68   16.30
   2   4  -2 3674.53   79.09
  -2  -4   2 3855.61   98.59
  -2  -4   2 3726.33   90.29
   1   4  -2 5711.23  134.89
   1   4  -2 5647.04  132.69
   1   4  -2 5622.64  120.59
  -1  -4   2 5722.03  135.49
  -1  -4   2 5279.07  125.69
   0   4  -2    1.30    4.40
   0   4  -2   -2.20    3.80
   0   4  -2    5.00    3.30
   0  -4   2    2.90    3.60
   0  -4   2    5.50    0.90
  -1   4  -2 1509.95   46.10
  -1   4  -2 1464.65   43.10
  -1   4  -2 1510.55   46.30
   1  -4   2 1538.65   45.90
   1  -4   2 1394.16   38.60
   1  -4   2 1384.36   45.30
  -2   4  -2   20.20    6.20
  -2   4  -2   32.80    8.10
  -2   4  -2   37.30    5.90
  -2   4  -2   27.70    6.80
  -2   4  -2   28.90    7.00
   2  -4   2   30.30    6.70
   2  -4   2   37.90    7.20
  -3   4  -2   80.99   11.90
  -3   4  -2   90.59   11.00
  -3   4  -2   58.89    8.60
  -3   4  -2   52.19    9.50
   3  -4   2   84.89    9.00
   3  -4   2   88.89   11.30
  -4   4  -2   10.60    6.80
  -4   4  -2    8.70    5.50
  -4   4  -2   15.20    5.30
  -4   4  -2    7.20    6.00
   4  -4   2    4.50    5.80
   4  -4   2   12.60    6.30
   4  -4   2   11.70    3.10
   4  -4   2   10.50    4.50
  -5   4  -2  429.76   26.70
  -5   4  -2  467.85   21.40
  -5   4  -2  409.06   25.90
   5  -4   2  420.26   25.40
   5  -4   2  443.96   27.40
  -6   4  -2  324.27   18.10
  -6   4  -2  330.67   25.80
   6  -4   2  290.57   29.20
   6  -4   2  341.47   26.10
  -7   4  -2  126.49   20.40
  -7   4  -2   88.39   17.70
  -7   4  -2  100.09   11.80
   7  -4   2   91.19   18.20
   7  -4   2  119.79   19.70
  -8   4  -2   73.99   19.90
  -8   4  -2   52.69   16.60
  -8   4  -2   34.80   14.70
   8  -4   2   23.70   15.30
   8  -4   2   46.50   16.10
   8   3  -2   70.29   16.10
   8   3  -2   86.09   22.60
  -8  -3   2   80.49   20.90
  -8  -3   2   66.49   16.30
   7   3  -2   18.30   10.10
  -7  -3   2    5.10    9.80
  -7  -3   2   16.30   10.70
   6   3  -2  106.19   14.60
  -6  -3   2  136.49   15.00
  -6  -3   2  118.39   16.10
  -6  -3   2  143.49   18.90
   5   3  -2   43.40    8.60
  -5  -3   2   36.90    9.80
  -5  -3   2   44.70   10.90
  -5  -3   2   49.80    9.80
   4   3  -2    3.70    4.10
  -4  -3   2    8.20    4.70
  -4  -3   2   10.90    5.70
  -4  -3   2    6.50    5.50
  -3  -3   2  350.06   20.10
  -3  -3   2  325.07   16.00
   2   3  -2  877.01   25.90
   2   3  -2  872.31   27.10
  -2  -3   2  925.51   32.80
  -2  -3   2  878.31   27.20
   1   3  -2 1432.26   42.70
   1   3  -2 1364.46   30.60
   1   3  -2 1370.16   32.40
  -1  -3   2 1288.87   35.80
   0   3  -2  672.43   21.20
   0   3  -2  705.63   25.50
   0  -3   2  654.23   16.60
   0  -3   2  664.33   25.40
  -1   3  -2 1502.95   42.20
  -1   3  -2 1498.95   42.70
  -1   3  -2 1528.65   39.50
  -1   3  -2 1562.84   44.00
   1  -3   2 1572.24   42.40
   1  -3   2 1540.45   42.80
   1  -3   2 1505.15   42.90
   1  -3   2 1495.95   39.90
  -2   3  -2  537.65   22.90
  -2   3  -2  516.55   21.70
  -2   3  -2  563.34   21.00
  -2   3  -2  524.95   20.40
   2  -3   2  578.84   20.40
   2  -3   2  531.25   22.70
   2  -3   2  541.85   21.80
  -3   3  -2 3216.58   75.79
  -3   3  -2 3151.98   81.19
  -3   3  -2 3358.06   81.99
  -3   3  -2 3222.38   83.49
   3  -3   2 3106.79   70.89
   3  -3   2 3198.58   82.39
   3  -3   2 3156.28   73.59
   3  -3   2 3172.38   80.99
  -4   3  -2  699.33   31.30
  -4   3  -2  737.43   24.60
  -4   3  -2  713.03   30.70
   4  -3   2  792.02   33.10
   4  -3   2  741.63   30.70
  -5   3  -2   19.20    7.70
  -5   3  -2   13.30    7.80
  -5   3  -2    6.60    4.10
   5  -3   2    2.70    5.40
   5  -3   2    1.90    6.30
  -6   3  -2  528.55   31.10
  -6   3  -2  580.84   31.60
  -6   3  -2  541.15   21.00
   6  -3   2  530.95   30.90
   6  -3   2  510.05   37.20
  -7   3  -2  591.94   34.40
  -7   3  -2  525.95   22.60
   7  -3   2  557.94   35.60
   7  -3   2  555.24   34.50
  -8   3  -2   17.90    4.80
  -8   3  -2   22.00   14.50
  -8   3  -2   17.40    4.00
  -8   3  -2   37.90   14.10
   8  -3   2   21.90   13.20
   8  -3   2   21.60   14.00
   9   2  -2   -1.60   21.90
   9   2  -2   47.80   16.10
  -9  -2   2   71.89   23.60
  -9  -2   2   86.79   18.30
  -9  -2   2   51.89   12.20
   8   2  -2  112.19   24.80
   8   2  -2  138.79   19.70
  -8  -2   2  140.59   19.50
  -8  -2   2  132.99   22.70
  -8  -2   2  126.99   12.20
   7   2  -2   10.70    7.80
   7   2  -2   13.00   11.50
  -7  -2   2   -1.20    8.20
   6   2  -2  723.73   32.50
  -6  -2   2  719.93   33.40
  -6  -2   2  761.92   38.20
   5   2  -2    9.10    5.40
  -5  -2   2    2.00    6.10
  -5  -2   2    1.40    4.40
   4   2  -2 6017.20  137.99
  -4  -2   2 6115.29  145.19
  -4  -2   2 6168.58  139.09
   3   2  -2 2316.47   57.19
  -3  -2   2 2227.68   61.79
  -3  -2   2 2359.26   49.90
  -3  -2   2 2283.77   62.79
   2   2  -2  461.65   15.70
   2   2  -2  504.15   18.10
  -2  -2   2  480.15   15.80
   1   2  -2  783.92   20.50
  -1  -2   2  745.03   18.30
  -1  -2   2  799.52   20.40
  -1  -2   2  773.82   20.20
   0   2  -2    3.10    2.30
   0   2  -2    6.60    3.30
   0  -2   2    5.60    2.00
   0  -2   2    5.80    2.50
   0  -2   2   12.90    4.60
   0  -2   2    8.40    3.50
  -1   2  -2  735.33   21.20
  -1   2  -2  715.53   23.50
  -1   2  -2  692.13   22.10
  -1   2  -2  705.53   22.00
  -1   2  -2  738.73   23.30
   1  -2   2  676.03   20.20
   1  -2   2  690.33   22.60
   1  -2   2  688.63   21.60
   1  -2   2  680.93   21.10
   1  -2   2  731.13   22.70
  -2   2  -2   13.60    4.40
  -2   2  -2   20.20    4.60
  -2   2  -2   14.00    2.90
  -2   2  -2    9.90    4.00
   2  -2   2   10.40    2.30
   2  -2   2    8.50    4.30
   2  -2   2   15.00    4.10
   2  -2   2    9.90    2.30
   2  -2   2    4.50    3.30
  -3   2  -2   52.69    8.70
  -3   2  -2   39.50    7.00
  -3   2  -2   61.09    4.90
   3  -2   2   54.19    9.00
   3  -2   2   46.70    7.20
   3  -2   2   49.10    8.30
  -4   2  -2  110.99    6.80
  -4   2  -2  120.19   12.20
  -4   2  -2  119.49   12.00
   4  -2   2  115.09   13.70
   4  -2   2  122.69   12.90
   4  -2   2  118.29   11.90
  -5   2  -2 2473.55   57.39
  -5   2  -2 2467.65   71.89
  -5   2  -2 2468.55   72.59
   5  -2   2 2436.46   74.09
   5  -2   2 2466.85   72.39
  -6   2  -2  971.50   27.90
  -6   2  -2 1022.50   51.59
  -6   2  -2  998.30   41.90
   6  -2   2  944.11   43.30
   6  -2   2 1097.59   44.40
  -7   2  -2  214.08   10.50
  -7   2  -2  219.58   11.00
   7  -2   2  227.88   23.70
   7  -2   2  249.18   24.20
  -8   2  -2  336.07   31.40
   8  -2   2  344.07   30.00
   8  -2   2  323.97   30.40
   9   1  -2   51.99   23.90
   9   1  -2   52.89   16.20
  -9  -1   2   46.50   14.40
  -9  -1   2   47.80   21.40
   8   1  -2   31.80   16.30
   8   1  -2   17.40   10.60
  -8  -1   2   12.40   13.70
   7   1  -2    4.90    7.20
   7   1  -2   31.00   12.30
  -7  -1   2   12.50    6.40
  -7  -1   2    1.50    3.60
   6   1  -2   32.80   12.00
   6   1  -2   45.30    9.80
  -6  -1   2   72.49   15.90
  -6  -1   2   43.60    7.60
   5   1  -2   94.29   11.60
   5   1  -2  113.49   14.60
  -5  -1   2   99.19   13.80
  -5  -1   2  102.79    9.20
   4   1  -2 1005.80   36.60
   4   1  -2 1000.10   32.30
  -4  -1   2  953.50   35.90
  -4  -1   2  933.91   28.30
   3   1  -2 1676.23   48.80
   3   1  -2 1726.13   43.50
   3   1  -2 1703.63   48.20
  -3  -1   2 1656.33   47.80
  -3  -1   2 1578.74   42.90
   2   1  -2  361.26   11.90
   2   1  -2  355.06   15.50
  -2  -1   2  334.07   15.50
  -2  -1   2  328.37   11.60
   1   1  -2 1293.57   32.80
  -1  -1   2 1313.57   32.50
  -1  -1   2 1316.67   32.60
   0   1  -2  487.65   14.90
   0   1  -2  420.86   11.90
   0   1  -2  454.55   14.00
   0   1  -2  450.25   14.60
   0  -1   2  443.66   12.20
   0  -1   2  440.66   13.90
   0  -1   2  443.26   14.60
   0  -1   2  435.56   16.20
  -1   1  -2  479.55   17.00
  -1   1  -2  442.86   13.80
  -1   1  -2  433.96   15.50
  -1   1  -2  447.96   13.90
   1  -1   2  465.95   16.00
   1  -1   2  453.15   13.80
   1  -1   2  457.45   16.70
   1  -1   2  445.36   16.10
   1  -1   2  419.06   13.70
   1  -1   2  450.15   15.80
  -2   1  -2   15.80    4.20
  -2   1  -2    7.50    3.60
  -2   1  -2    9.00    3.20
  -2   1  -2   10.80    2.60
   2  -1   2   10.20    4.10
   2  -1   2   16.70    5.20
   2  -1   2   19.20    3.70
  -3   1  -2  143.29   11.20
  -3   1  -2  165.08   11.50
  -3   1  -2  164.68   12.60
  -3   1  -2  176.98    8.10
  -3   1  -2  168.08    5.20
   3  -1   2  192.68   13.30
   3  -1   2  169.78   12.60
   3  -1   2  152.18   10.80
  -4   1  -2 1547.05   49.50
  -4   1  -2 1483.35   34.00
  -4   1  -2 1508.95   46.60
  -4   1  -2 1447.76   34.30
  -4   1  -2 1496.35   46.80
  -4   1  -2 1467.75   36.40
   4  -1   2 1450.25   45.90
   4  -1   2 1415.26   47.80
   4  -1   2 1456.55   46.80
  -5   1  -2  479.15   15.60
  -5   1  -2  476.95   15.10
  -5   1  -2  480.75   15.60
  -5   1  -2  451.55   25.10
   5  -1   2  493.85   26.00
   5  -1   2  465.25   25.60
   5  -1   2  481.35   27.20
  -6   1  -2  824.02   24.30
  -6   1  -2  830.02   38.30
  -6   1  -2  803.52   21.90
  -6   1  -2  826.22   23.50
   6  -1   2  827.52   39.10
   6  -1   2  854.01   38.70
  -7   1  -2    9.50    3.60
  -7   1  -2   13.50   10.20
  -7   1  -2    4.40    3.80
   7  -1   2   -7.30    8.90
   7  -1   2   -1.20    8.00
  -8   1  -2  137.39   22.80
   8  -1   2   99.49   19.40
   8  -1   2  108.99   19.70
   9   0  -2    4.20   12.20
   9   0  -2  -51.69   20.50
  -9   0   2  -13.60   11.30
  -9   0   2   15.90   17.50
   8   0  -2  320.27   28.40
   8   0  -2  345.27   26.90
   8   0  -2  276.87   35.90
  -8   0   2  344.17   23.50
   7   0  -2   18.00    8.80
   7   0  -2   -5.40   11.10
   7   0  -2   -3.20    7.10
  -7   0   2   -5.20    6.00
   6   0  -2  550.04   27.70
   6   0  -2  486.95   31.70
   6   0  -2  538.95   30.20
  -6   0   2  518.95   29.80
  -6   0   2  497.45   24.40
   5   0  -2  610.44   29.60
   5   0  -2  627.84   32.20
   5   0  -2  645.54   27.30
  -5   0   2  611.44   17.50
  -5   0   2  639.14   30.10
  -5   0   2  629.94   25.30
   4   0  -2 3756.82   95.09
   4   0  -2 3806.52   90.89
   4   0  -2 3767.02   98.59
  -4   0   2 3868.61   89.69
  -4   0   2 3729.53   95.09
  -4   0   2 3726.23   81.49
   3   0  -2  905.61   30.10
   3   0  -2  873.41   32.00
   3   0  -2  914.21   27.30
  -3   0   2  861.11   22.80
  -3   0   2  871.91   29.90
   2   0  -2  204.18   12.70
   2   0  -2  225.28   11.30
   2   0  -2  230.88    8.70
  -2   0   2  202.28   10.80
  -2   0   2  237.18   12.80
  -2   0   2  228.58    8.70
   1   0  -2  860.01   22.10
   1   0  -2  860.31   22.30
   1   0  -2  875.01   25.10
  -1   0   2  861.81   22.00
  -1   0   2  861.51   24.90
   0   0  -2  170.38    7.70
   0   0  -2  185.28    6.00
   0   0  -2  185.18    9.50
   0   0   2  165.58    7.60
   0   0   2  170.78    8.20
   0   0   2  166.78    6.00
   0   0   2  190.38    9.80
  -1   0  -2 4075.39   89.69
  -1   0  -2 4082.89   84.99
  -1   0  -2 4054.09   90.19
  -1   0  -2 3876.41   83.59
   1   0   2 3802.92   83.89
   1   0   2 4048.89   85.09
   1   0   2 3999.20   89.49
  -2   0  -2  210.98    7.40
  -2   0  -2  207.58   10.60
  -2   0  -2  201.38   12.40
   2   0   2  196.58   14.80
   2   0   2  232.78   11.20
  -3   0  -2 6343.67  139.49
  -3   0  -2 6743.33  152.68
  -3   0  -2 6801.92  148.69
   3   0   2 6684.23  148.59
   3   0   2 6700.23  151.88
   3   0   2 6687.03  148.39
  -4   0  -2 1559.14   48.60
  -4   0  -2 1614.84   51.69
  -4   0  -2 1523.05   39.10
   4   0   2 1564.94   47.70
   4   0   2 1584.54   50.69
   4   0   2 1520.85   48.00
  -5   0  -2   11.20    7.10
  -5   0  -2   11.40    6.10
  -5   0  -2    8.90    3.50
   5   0   2   10.20    6.10
   5   0   2   18.60    7.10
   5   0   2    6.70    6.50
  -6   0  -2    0.00    7.20
  -6   0  -2    3.10    4.00
  -6   0  -2    8.90    8.20
   6   0   2    3.00    6.60
   6   0   2    7.90    7.30
   6   0   2    9.50    7.80
  -7   0  -2   10.60    4.50
  -7   0  -2   10.50    5.00
  -7   0  -2   19.30   11.50
   7   0   2    6.10    8.80
  -8   0  -2   19.80    4.80
  -8   0  -2   19.30    3.50
  -8   0  -2   20.60    4.90
  -8   0  -2   35.80   16.20
   8   0   2   27.00   13.90
   9  -1  -2    6.80   12.70
   9  -1  -2   14.30   22.30
  -9   1   2   27.80   12.50
  -9   1   2   15.50   11.80
  -9   1   2   41.30   19.50
   8  -1  -2  352.46   36.10
   8  -1  -2  327.17   30.10
   8  -1  -2  333.07   27.80
  -8   1   2  350.36   24.90
  -8   1   2  329.07   24.20
   7  -1  -2   76.29   13.80
   7  -1  -2   59.79   14.20
  -7   1   2   61.99   12.00
  -7   1   2   68.89   12.50
   6  -1  -2  776.92   34.40
   6  -1  -2  762.12   37.10
   6  -1  -2  845.52   42.70
  -6   1   2  796.62   38.90
  -6   1   2  775.32   33.10
   5  -1  -2  107.39   12.00
   5  -1  -2  150.68   15.10
   5  -1  -2  122.79   16.80
  -5   1   2  130.29   15.40
  -5   1   2  122.29   12.30
   4  -1  -2   85.39   12.80
   4  -1  -2   80.09   10.80
   4  -1  -2  105.49   10.00
  -4   1   2   94.69   11.60
   3  -1  -2  286.97   15.30
   3  -1  -2  281.97   17.30
   3  -1  -2  279.87    9.50
  -3   1   2  268.97   14.80
   2  -1  -2  527.35   21.20
   2  -1  -2  537.85   19.10
  -2   1   2  558.04   29.50
  -2   1   2  512.95   21.80
  -2   1   2  557.34   21.80
   1  -1  -2   59.59    5.00
   1  -1  -2   46.70    6.30
  -1   1   2   60.99    6.40
  -1   1   2   64.99    5.10
  -1   1   2   48.80    6.20
   0  -1  -2   44.70    5.70
   0  -1  -2   47.00    6.10
   0  -1  -2   30.20    5.10
   0  -1  -2   46.00    4.60
   0   1   2   39.70    5.50
   0   1   2   37.00    5.20
   0   1   2   45.60    4.40
   0   1   2   39.60    5.60
  -1  -1  -2    3.50    2.90
  -1  -1  -2    3.80    2.90
  -1  -1  -2    6.00    3.10
   1   1   2    3.80    3.00
   1   1   2    6.90    3.00
   1   1   2    8.70    4.20
  -2  -1  -2    5.30    4.10
  -2  -1  -2    7.50    3.10
  -2  -1  -2    6.00    3.90
   2   1   2    5.20    4.00
   2   1   2   -0.50    2.30
  -3  -1  -2 2512.65   65.09
  -3  -1  -2 2415.86   60.49
  -3  -1  -2 2460.35   67.99
   3   1   2 2462.55   63.29
   3   1   2 2520.95   68.39
  -4  -1  -2 3007.80   80.79
  -4  -1  -2 2799.32   69.49
  -4  -1  -2 2777.52   76.19
   4   1   2 2851.11   79.29
   4   1   2 2705.33   72.79
  -5  -1  -2   90.69    9.70
  -5  -1  -2   85.79   13.10
  -5  -1  -2   86.19   14.00
   5   1   2   86.49   13.40
   5   1   2   89.69   12.20
  -6  -1  -2   25.00   11.40
   6   1   2   17.70    9.00
   6   1   2   14.70    8.20
  -7  -1  -2  172.98   23.40
   7   1   2  169.78   21.90
  -8  -1  -2   25.40   15.60
   8   1   2   19.00   13.20
   9  -2  -2   -5.00   21.70
   9  -2  -2   -9.80   12.60
  -9   2   2   -7.60   12.30
  -9   2   2  -10.40   16.80
  -9   2   2    6.40   12.20
   8  -2  -2  -17.10   15.00
   8  -2  -2   -8.70   10.50
   8  -2  -2    2.00   10.00
  -8   2   2    3.00    9.40
  -8   2   2   -2.80   10.30
  -8   2   2  -11.70   11.20
   7  -2  -2  266.77   24.60
   7  -2  -2  271.47   23.20
  -7   2   2  273.37   20.40
  -7   2   2  246.68   20.90
   6  -2  -2  429.96   36.50
   6  -2  -2  467.15   28.60
   6  -2  -2  461.45   26.50
  -6   2   2  480.85   27.10
  -6   2   2  486.55   25.30
   5  -2  -2  398.96   26.60
   5  -2  -2  367.86   21.40
   5  -2  -2  384.46   23.60
  -5   2   2  364.76   22.30
  -5   2   2  365.46   21.20
  -5   2   2  406.46   23.80
   4  -2  -2 3856.81   95.99
   4  -2  -2 3617.04   79.29
   4  -2  -2 3747.83   99.49
  -4   2   2 3716.23   94.89
  -4   2   2 3763.32   93.19
   3  -2  -2 2955.60   75.29
   3  -2  -2 2984.80   78.69
  -3   2   2 2917.61   75.09
  -3   2   2 3033.30   75.89
   2  -2  -2 1465.85   42.50
   2  -2  -2 1454.05   42.70
   2  -2  -2 1409.86   45.80
  -2   2   2 1474.65   40.90
  -2   2   2 1520.05   43.90
  -2   2   2 1414.26   42.10
   1  -2  -2 2326.27   57.99
   1  -2  -2 2251.37   60.79
   1  -2  -2 2241.18   51.69
   1  -2  -2 2361.26   56.49
  -1   2   2 2298.27   56.39
  -1   2   2 2361.96   59.69
  -1   2   2 2342.17   58.39
   0  -2  -2  140.69   10.20
   0  -2  -2  105.59    8.60
   0  -2  -2  111.69    6.60
   0  -2  -2  136.09   10.20
   0   2   2  117.39    9.20
   0   2   2  117.69    6.10
  -1  -2  -2 1548.05   45.50
  -1  -2  -2 1482.75   40.90
  -1  -2  -2 1546.35   43.90
   1   2   2 1588.64   45.70
   1   2   2 1599.34   44.50
  -2  -2  -2 1083.79   38.00
  -2  -2  -2 1219.48   37.20
   2   2   2 1263.37   39.90
   2   2   2 1106.69   37.90
  -3  -2  -2 2068.79   61.69
  -3  -2  -2 2023.90   58.19
   3   2   2 2166.38   62.19
   3   2   2 2045.40   56.49
  -4  -2  -2  245.08   19.10
  -4  -2  -2  239.48   16.00
  -4  -2  -2  234.98   17.60
   4   2   2  243.78   15.40
   4   2   2  254.37   18.90
  -5  -2  -2    8.40    7.90
  -5  -2  -2    9.40    6.10
  -5  -2  -2    7.00    6.70
   5   2   2   13.80    6.00
   5   2   2    6.70    6.80
  -6  -2  -2    3.60    8.40
  -6  -2  -2    9.90    7.40
  -6  -2  -2    5.90    9.30
   6   2   2   -0.90    6.70
   6   2   2   12.50    8.90
  -7  -2  -2   77.29   12.30
  -7  -2  -2  123.49   21.90
   7   2   2   92.29   17.40
   7   2   2  111.29   16.60
  -8  -2  -2  129.79   27.60
  -8  -2  -2   94.79   13.20
  -8  -2  -2   57.29   19.60
   8   2   2   93.99   20.60
   9  -3  -2  -17.10   22.90
   9  -3  -2   -1.20   16.80
   9  -3  -2   16.60   14.60
  -9   3   2   -0.30   14.70
  -9   3   2   -7.40   19.00
   8  -3  -2   32.30   18.40
   8  -3  -2   16.30   12.00
   8  -3  -2   30.00   13.40
  -8   3   2   14.80   12.30
  -8   3   2    9.60   12.40
  -8   3   2   13.20   11.50
   7  -3  -2   12.10   11.30
   7  -3  -2   -3.30    8.10
   7  -3  -2   16.00   13.70
  -7   3   2    6.30    8.80
   6  -3  -2    1.50    8.60
   6  -3  -2   10.70    7.10
   6  -3  -2    1.30    7.30
  -6   3   2    2.70    6.30
  -6   3   2    7.70    8.50
  -6   3   2   17.50    8.20
   5  -3  -2   40.20    2.80
   5  -3  -2   69.79   13.80
   5  -3  -2   29.50    9.20
  -5   3   2   34.80    9.20
  -5   3   2   43.20    9.90
   4  -3  -2    6.00    5.20
   4  -3  -2    9.50    6.00
  -4   3   2    5.90    5.00
  -4   3   2    6.50    4.90
   3  -3  -2  849.12   33.10
   3  -3  -2  834.32   32.00
  -3   3   2  879.21   32.40
  -3   3   2  846.82   32.40
   2  -3  -2   22.00    5.80
   2  -3  -2   29.20    6.90
   2  -3  -2   12.00    4.80
  -2   3   2   19.90    6.10
  -2   3   2   16.70    5.50
  -2   3   2   24.10    6.00
   1  -3  -2 1255.57   40.80
   1  -3  -2 1215.18   37.20
   1  -3  -2 1269.87   38.50
   1  -3  -2 1229.78   33.00
  -1   3   2 1250.27   35.20
  -1   3   2 1367.06   42.10
  -1   3   2 1255.67   28.90
  -1   3   2 1291.47   38.10
   0  -3  -2   33.20    4.00
   0  -3  -2   39.50    8.00
   0  -3  -2   43.20    7.90
   0   3   2   48.40    7.40
   0   3   2   45.60    8.50
  -1  -3  -2 3352.26   86.49
  -1  -3  -2 3359.36   85.89
  -1  -3  -2 3204.58   77.79
   1   3   2 3322.57   86.19
   1   3   2 3341.77   85.89
   1   3   2 3382.16   82.89
  -2  -3  -2  421.36   22.20
  -2  -3  -2  421.46   22.90
   2   3   2  425.06   23.10
   2   3   2  432.56   21.40
   2   3   2  422.76   22.30
  -3  -3  -2   12.10    6.70
  -3  -3  -2    9.60    5.90
   3   3   2    5.20    5.50
   3   3   2   13.40    6.80
  -4  -3  -2  229.98   18.50
  -4  -3  -2  257.97   20.60
  -4  -3  -2  293.07   19.80
   4   3   2  285.57   21.40
  -5  -3  -2  205.78   19.20
  -5  -3  -2  181.28   17.10
   5   3   2  178.28   19.10
   5   3   2  208.38   16.00
  -6  -3  -2    5.70    9.60
  -6  -3  -2   -5.50    9.00
  -6  -3  -2    2.90    7.70
   6   3   2    8.90    8.50
   6   3   2    0.00    7.20
  -7  -3  -2   -6.00    8.60
  -7  -3  -2   -0.40   12.60
  -7  -3  -2    0.90   11.50
   7   3   2   -4.90   10.20
   7   3   2   26.10   10.10
  -8  -3  -2    4.40   10.60
  -8  -3  -2   -8.70   19.00
  -8  -3  -2   19.10   18.60
   8   3   2    8.50   15.00
   8  -4  -2   69.79   17.90
   8  -4  -2   93.49   23.90
   8  -4  -2   72.39   18.30
  -8   4   2   67.79   17.90
  -8   4   2   99.59   25.50
   7  -4  -2  320.37   32.50
   7  -4  -2  328.37   28.70
   7  -4  -2  296.47   26.90
  -7   4   2  330.67   26.10
  -7   4   2  361.16   28.10
   6  -4  -2 2574.14   83.59
   6  -4  -2 2721.13   89.19
  -6   4   2 2593.64   85.59
  -6   4   2 2651.33   84.29
  -6   4   2 2743.23   80.99
   5  -4  -2 1053.39   45.70
   5  -4  -2 1007.50   42.60
  -5   4   2 1015.50   41.60
  -5   4   2 1045.10   43.60
   4  -4  -2   25.80    8.30
   4  -4  -2   18.70    7.80
  -4   4   2    4.00    5.60
  -4   4   2   26.10    7.80
   3  -4  -2   12.10    5.70
   3  -4  -2    8.20    5.60
   3  -4  -2   -1.00    4.70
  -3   4   2   10.70    6.20
  -3   4   2    5.60    4.80
   2  -4  -2  509.65   25.40
   2  -4  -2  437.26   22.40
   2  -4  -2  450.65   21.60
  -2   4   2  488.95   22.80
  -2   4   2  437.76   24.10
   1  -4  -2    3.70    4.60
   1  -4  -2    7.10    5.50
   1  -4  -2   -1.10    3.30
  -1   4   2   10.10    3.80
  -1   4   2    4.00    4.80
  -1   4   2   11.60    4.70
   0  -4  -2 1092.69   27.90
   0  -4  -2 1082.09   35.30
   0  -4  -2 1121.49   42.00
   0  -4  -2 1148.39   41.30
   0   4   2 1127.89   33.80
   0   4   2 1171.18   42.30
   0   4   2 1073.49   50.89
  -1  -4  -2  956.40   29.60
  -1  -4  -2 1030.00   39.80
  -1  -4  -2  925.61   37.80
   1   4   2  955.80   33.20
   1   4   2  965.50   38.90
  -2  -4  -2  222.08   18.30
  -2  -4  -2  241.08   18.80
   2   4   2  249.18   16.60
   2   4   2  247.58   19.20
   2   4   2  226.58   18.20
  -3  -4  -2 2436.46   74.49
  -3  -4  -2 2436.46   75.69
   3   4   2 2520.75   76.09
   3   4   2 2483.55   74.59
   3   4   2 2491.95   72.09
  -4  -4  -2  317.47   23.10
  -4  -4  -2  363.06   26.50
  -4  -4  -2  318.07   23.30
   4   4   2  369.36   24.30
   4   4   2  299.37   23.60
  -5  -4  -2  595.04   33.20
  -5  -4  -2  556.34   39.70
  -5  -4  -2  645.34   37.80
   5   4   2  602.74   27.30
   5   4   2  668.63   57.29
  -6  -4  -2  176.78   24.80
  -6  -4  -2  188.38   20.50
   6   4   2  154.48   22.00
   6   4   2  217.58   18.10
  -7  -4  -2   91.19   20.70
  -7  -4  -2   25.90   14.00
  -7  -4  -2   39.60   15.70
   7   4   2   67.59   18.10
   7   4   2   68.09   13.00
   8  -5  -2   11.30   15.70
   8  -5  -2   24.40   15.40
   8  -5  -2   31.30   19.20
  -8   5   2    2.70   15.40
  -8   5   2   27.00   15.40
  -8   5   2   13.90   15.10
   7  -5  -2   97.29   20.10
   7  -5  -2  100.79   19.50
  -7   5   2  125.19   21.20
  -7   5   2  140.19   22.20
  -7   5   2  143.49   21.50
   6  -5  -2  257.47   24.00
   6  -5  -2  259.87   25.40
   6  -5  -2  239.48    9.40
  -6   5   2  242.38   24.80
  -6   5   2  222.98   23.00
  -6   5   2  238.88   23.10
   5  -5  -2  608.04   34.50
   5  -5  -2  579.54   33.00
  -5   5   2  607.04   33.60
  -5   5   2  576.94   32.40
   4  -5  -2  605.44   31.80
   4  -5  -2  645.84   32.80
   4  -5  -2  636.54   31.90
  -4   5   2  615.84   32.50
  -4   5   2  623.04   32.10
   3  -5  -2  447.96   25.50
   3  -5  -2  414.66   23.30
   3  -5  -2  421.56   25.90
  -3   5   2  440.66   25.20
  -3   5   2  410.06   26.00
   2  -5  -2  467.05   27.10
   2  -5  -2  462.25   22.80
   2  -5  -2  493.55   26.10
  -2   5   2  513.75   24.60
  -2   5   2  479.15   27.80
   1  -5  -2  217.88   14.20
   1  -5  -2  226.08   17.60
   1  -5  -2  185.28   17.30
  -1   5   2  183.88   13.60
  -1   5   2  182.18   17.00
  -1   5   2  184.28   12.60
   0  -5  -2   58.49   11.40
   0  -5  -2   80.89   14.00
   0  -5  -2   59.39    8.70
   0   5   2   59.69    9.70
   0   5   2   52.49   11.00
   0   5   2   70.99    9.20
  -1  -5  -2  221.18   19.80
  -1  -5  -2  211.68   18.10
  -1  -5  -2  209.58   12.00
   1   5   2  225.78   15.00
   1   5   2  206.18   15.00
   1   5   2  184.98   18.10
  -2  -5  -2  113.39   16.00
  -2  -5  -2  120.69   16.90
   2   5   2  145.29   18.60
   2   5   2  116.49   17.00
   2   5   2  130.39   13.40
  -3  -5  -2  216.28   20.10
  -3  -5  -2  228.08   21.50
   3   5   2  217.78   17.90
   3   5   2  134.49   18.20
   3   5   2  189.28   19.20
  -4  -5  -2  227.88   23.30
  -4  -5  -2  248.88   23.20
   4   5   2  234.68   22.50
   4   5   2  267.57   23.10
   4   5   2  294.27   22.10
  -5  -5  -2    6.70   10.60
  -5  -5  -2   -0.20   10.20
  -5  -5  -2    2.90   10.20
   5   5   2    4.90    7.10
   5   5   2   18.20   10.10
   5   5   2   19.10   10.20
  -6  -5  -2  129.89   22.60
  -6  -5  -2  162.58   21.80
  -6  -5  -2  159.98   26.70
   6   5   2  157.48   16.40
   6   5   2  171.28   25.00
  -7  -5  -2  101.09   26.60
  -7  -5  -2   69.49   17.40
   7   5   2   58.79   11.90
   7   5   2    4.40   16.20
   8  -6  -2  255.87   33.20
   8  -6  -2  339.77   36.50
   8  -6  -2  316.57   39.50
  -8   6   2  314.07   37.30
  -8   6   2  315.77   39.20
   7  -6  -2  398.56   34.90
   7  -6  -2  427.06   36.80
  -7   6   2  457.25   33.00
  -7   6   2  445.06   36.00
  -7   6   2  436.06   35.40
   6  -6  -2  548.75   36.10
   6  -6  -2  603.54   38.00
  -6   6   2  558.44   38.00
  -6   6   2  574.94   35.90
  -6   6   2  561.24   36.90
   5  -6  -2    5.80    9.60
   5  -6  -2   30.70   12.70
  -5   6   2  -26.90   16.70
  -5   6   2    6.00    9.60
   4  -6  -2    8.10    6.90
   4  -6  -2   -0.20    7.30
   4  -6  -2    1.50    7.80
  -4   6   2    9.90    8.70
  -4   6   2   -0.60    6.80
   3  -6  -2   90.39   15.40
   3  -6  -2   74.09   12.40
   3  -6  -2   75.79   13.40
  -3   6   2   51.19   12.50
  -3   6   2   60.49    3.70
   2  -6  -2   -0.50    7.40
   2  -6  -2   11.30    6.00
   2  -6  -2   19.10    7.90
  -2   6   2   18.50    7.00
  -2   6   2    4.80    7.80
   1  -6  -2  164.88   13.50
   1  -6  -2  122.69   16.70
   1  -6  -2  160.08   17.70
   1  -6  -2  206.48   21.20
  -1   6   2  156.28   19.60
  -1   6   2  157.48   13.50
  -1   6   2  166.38   13.80
   0  -6  -2 1281.67   53.29
   0  -6  -2 1256.57   50.09
   0  -6  -2 1233.98   40.60
   0   6   2 1254.77   51.69
   0   6   2 1250.17   40.60
   0   6   2 1226.38   42.30
  -1  -6  -2 3236.08   77.69
  -1  -6  -2 3370.66  101.09
  -1  -6  -2 3284.77   97.39
   1   6   2 3253.37   84.39
   1   6   2 3299.37   99.19
   1   6   2 3407.16   88.99
  -2  -6  -2  366.26   27.30
  -2  -6  -2  381.66   29.00
   2   6   2  347.27   27.40
   2   6   2  352.06   20.90
  -3  -6  -2    4.40    8.80
  -3  -6  -2    3.30    9.50
   3   6   2    4.90    7.30
   3   6   2   26.70   11.10
   3   6   2    3.70    9.00
  -4  -6  -2   14.20   11.30
  -4  -6  -2   36.60   12.90
   4   6   2   27.80   10.50
   4   6   2   19.80   11.10
   4   6   2   -2.50   19.10
  -5  -6  -2   37.90   15.70
  -5  -6  -2   46.30   18.20
   5   6   2   38.50   12.60
   5   6   2   43.60   14.70
  -6  -6  -2   31.70   17.30
  -6  -6  -2   17.60   14.30
  -6  -6  -2  -10.20   15.90
   6   6   2   16.60   13.30
   6   6   2   11.40    9.50
   6   6   2   20.00   15.20
   7  -7  -2    2.60    2.80
   7  -7  -2   17.10   14.90
   7  -7  -2   -9.10   16.10
  -7   7   2  -12.70   16.80
  -7   7   2  -13.20   16.10
  -7   7   2   -8.10   15.70
   6  -7  -2  118.49   20.30
   6  -7  -2  124.99   22.30
  -6   7   2   95.69   20.10
  -6   7   2  124.29   21.90
  -6   7   2  114.59   14.40
   5  -7  -2    8.10   10.40
   5  -7  -2    7.30   10.30
  -5   7   2    5.40    5.10
  -5   7   2   13.90   12.60
  -5   7   2    5.50   11.60
   4  -7  -2    0.90    8.20
   4  -7  -2   23.80   11.00
   4  -7  -2   -3.10    8.50
  -4   7   2    8.70    3.00
  -4   7   2    9.60   10.00
   3  -7  -2    3.00    7.80
   3  -7  -2    8.20   11.00
   3  -7  -2    0.60    7.20
  -3   7   2    3.90    9.70
   2  -7  -2  382.96   22.30
   2  -7  -2  442.16   29.30
   2  -7  -2  397.96   30.40
  -2   7   2  424.46   24.10
  -2   7   2  405.36   30.40
   1  -7  -2   23.70   10.00
   1  -7  -2    9.80    9.70
   1  -7  -2   29.20    7.60
   1  -7  -2    2.90    8.10
  -1   7   2   21.30   10.60
  -1   7   2   11.30    8.00
  -1   7   2    1.90    6.10
   0  -7  -2   -2.00    8.90
   0  -7  -2    1.10    5.30
   0  -7  -2   -0.80    8.40
   0   7   2   -2.20    6.00
   0   7   2    6.10    8.50
   0   7   2    6.60    5.80
  -1  -7  -2  632.14   39.60
  -1  -7  -2  611.34   36.10
  -1  -7  -2  549.54   19.90
   1   7   2  603.84   38.00
   1   7   2  568.34   29.80
   1   7   2  559.94   25.70
  -2  -7  -2  387.36   30.40
  -2  -7  -2  389.16   20.60
   2   7   2  400.96   31.50
   2   7   2  366.66   25.40
   2   7   2  358.66   21.70
  -3  -7  -2  195.68   26.60
  -3  -7  -2  216.68   27.90
   3   7   2  219.38   27.80
   3   7   2  227.28   18.70
  -4  -7  -2   -0.10   13.20
  -4  -7  -2   13.90   13.90
   4   7   2   37.60   16.40
   4   7   2    0.90   12.60
   4   7   2   20.70   10.70
  -5  -7  -2  123.19   23.40
  -5  -7  -2   81.99   20.20
  -5  -7  -2  131.19   22.70
   5   7   2   49.70   14.60
   5   7   2   74.89   19.30
   6  -8  -2  532.85   39.60
   6  -8  -2  479.75   39.60
  -6   8   2  569.94   41.90
  -6   8   2  492.65   23.00
  -6   8   2  566.24   43.30
   5  -8  -2   99.89   19.50
   5  -8  -2   60.69   17.50
   5  -8  -2   79.99   17.60
  -5   8   2   84.19   20.60
  -5   8   2   68.69    6.70
   4  -8  -2  283.37   24.30
   4  -8  -2  301.17   29.80
   4  -8  -2  342.87   29.80
   3  -8  -2  148.19   22.00
   3  -8  -2  115.69   21.90
   3  -8  -2  129.29   16.60
   2  -8  -2  426.16   34.40
   2  -8  -2  451.85   25.10
   2  -8  -2  454.85   32.70
   1  -8  -2  625.24   38.50
   1  -8  -2  619.04   28.00
   1  -8  -2  600.34   37.40
   1  -8  -2  509.35   38.20
  -1   8   2  581.54   30.20
  -1   8   2  526.15   26.60
   0  -8  -2  779.42   47.30
   0  -8  -2  788.12   43.00
   0  -8  -2  889.51   45.90
   0   8   2  787.12   31.60
   0   8   2  739.53   47.50
   0   8   2  882.71   38.20
  -1  -8  -2  279.07   31.20
  -1  -8  -2  334.47   29.70
   1   8   2  290.97   29.90
   1   8   2  293.57   18.90
   1   8   2  320.87   24.30
  -2  -8  -2  -18.10   11.20
  -2  -8  -2   -4.90    5.80
  -2  -8  -2   -7.00   11.90
   2   8   2    1.80   10.70
   2   8   2   -9.60   12.50
   2   8   2   13.60    7.70
  -3  -8  -2    1.80   14.20
  -3  -8  -2    5.10    8.10
  -3  -8  -2   14.20   14.60
   3   8   2   11.60    8.40
   3   8   2  -27.40   14.30
   3   8   2   -6.10    9.60
  -4  -8  -2   22.30   12.00
  -4  -8  -2    5.60   18.30
  -4  -8  -2   23.40   17.80
   4   8   2   60.69   20.70
   4   8   2   29.10   12.10
  -5  -8  -2   12.90   19.90
  -5  -8  -2   24.00   21.30
  -5  -8  -2   43.40   22.20
   5   8   2   16.20   13.60
   5  -9  -2   94.29   18.30
   5  -9  -2   82.59   21.50
   5  -9  -2   68.19   20.60
  -5   9   2   83.09   23.90
   4  -9  -2    7.70   10.60
   4  -9  -2  -14.60   13.00
   4  -9  -2   25.90   16.50
  -4   9   2   -5.10   15.30
   3  -9  -2  132.99   22.30
   3  -9  -2  136.49   26.20
   3  -9  -2  138.09   18.30
  -3   9   2  197.08   28.70
   2  -9  -2  189.68   26.00
   2  -9  -2  167.38   17.60
   2  -9  -2  169.18   24.70
   2  -9  -2  152.18   25.40
  -2   9   2  160.78   26.10
   1  -9  -2  510.55   40.30
   1  -9  -2  448.36   35.70
   1  -9  -2  479.15   38.00
   1  -9  -2  408.86   23.80
  -1   9   2  357.66   30.30
   0  -9  -2  -15.20   12.50
   0  -9  -2  -22.90   12.00
   0  -9  -2   -3.80   13.30
   0   9   2   -5.20    6.50
   0   9   2    5.50   15.10
  -1  -9  -2   47.70   17.00
  -1  -9  -2   66.19   20.80
   1   9   2   53.59   15.20
   1   9   2  106.19   23.40
   1   9   2   41.20    9.50
  -2  -9  -2  -18.90   15.80
  -2  -9  -2  -26.90   13.00
   2   9   2   -4.80   10.10
   2   9   2  -25.10   15.50
   2   9   2    3.10    7.60
  -3  -9  -2    4.90    9.30
  -3  -9  -2   19.70   18.10
   3   9   2   11.90    9.40
   3   9   2   -0.90   11.90
   3   9   2    8.40   19.30
   4 -10  -2    9.00   14.30
  -4  10   2   41.20   22.20
   3 -10  -2   87.49   24.00
   3 -10  -2  114.49   25.70
   3 -10  -2  158.58   28.40
   3 -10  -2  128.99   18.30
  -3  10   2  111.29   26.60
   2 -10  -2  508.05   29.00
   2 -10  -2  499.15   43.90
   2 -10  -2  573.04   43.30
   2 -10  -2  514.95   42.10
  -2  10   2  501.85   45.00
   1 -10  -2   92.49   24.20
   1 -10  -2   73.09   21.30
   1 -10  -2   79.49   21.40
  -1  10   2   68.59   16.00
  -1  10   2   65.49   23.00
   0 -10  -2   52.09   19.20
   0 -10  -2   70.69   21.50
   0 -10  -2   58.99   20.70
   0  10   2   53.29   16.00
   0  10   2   65.29   22.30
  -1 -10  -2  250.57   33.90
  -1 -10  -2  216.48   34.70
  -1 -10  -2  239.38   33.50
   1  10   2  329.37   39.80
   1  10   2  267.67   18.40
   1  10   2  328.17   28.20
  -2 -10  -2  -23.30   19.20
   2  10   2   -7.20   21.40
   2  10   2   15.70    8.60
   2  10   2    9.90   12.40
   2  11  -3  -10.90   13.10
   2  11  -3   -2.60    9.20
  -2 -11   3   47.90   18.80
   1  11  -3  429.86   28.80
   1  11  -3  406.46   42.40
   1  11  -3  525.85   40.10
  -1 -11   3  476.95   36.20
  -1 -11   3  422.76   42.10
  -1 -11   3  485.25   26.30
   0  11  -3  103.39   22.70
   0 -11   3   64.79   18.30
   0 -11   3   90.69   23.20
   0 -11   3   78.29   21.50
  -1  11  -3   38.30   16.50
  -1  11  -3   22.50   18.80
  -1  11  -3   63.99   15.70
   1 -11   3   21.80   16.40
   1 -11   3   78.89   21.50
   1 -11   3   67.39   22.20
  -2  11  -3   18.20   14.50
  -2  11  -3   67.19   19.00
  -2  11  -3   33.70   19.80
   2 -11   3   48.40   21.30
   2 -11   3   61.09   21.60
  -3  11  -3   32.90   20.90
  -3  11  -3   50.49   18.20
   3 -11   3   28.30   19.90
   3 -11   3    9.80    7.80
  -4  11  -3  111.09   28.60
  -4  11  -3  100.19   25.50
   4 -11   3  131.59   28.70
   4 -11   3  107.89   24.90
   4 -11   3  165.88   18.50
   4  10  -3    2.50   13.40
  -4 -10   3   32.50   16.40
  -4 -10   3  -18.30   17.10
   3  10  -3   72.69   20.00
  -3 -10   3   45.20   17.10
  -3 -10   3   40.10   21.20
   2  10  -3  143.89   25.00
   2  10  -3  117.79   13.60
   2  10  -3  175.78   28.50
  -2 -10   3  129.29   26.10
  -2 -10   3  187.78   24.80
   1  10  -3  399.86   25.20
   1  10  -3  439.46   35.00
  -1 -10   3  416.16   19.80
  -1 -10   3  437.56   31.50
  -1 -10   3  424.56   38.20
   0  10  -3  690.03   43.30
   0  10  -3  640.44   34.00
   0  10  -3  716.93   47.40
   0 -10   3  692.83   45.60
   0 -10   3  646.54   21.00
   0 -10   3  678.93   46.40
   0 -10   3  691.03   40.30
  -1  10  -3   10.60   13.10
  -1  10  -3   18.90   15.10
   1 -10   3   11.40   16.40
   1 -10   3   14.10   15.30
  -2  10  -3  131.49   24.10
  -2  10  -3   68.89   16.40
  -2  10  -3   68.59   18.50
   2 -10   3  100.79   22.10
   2 -10   3   88.09    9.50
   2 -10   3   62.99   19.00
  -3  10  -3  170.68   27.80
  -3  10  -3  125.49   21.20
   3 -10   3  108.29   22.80
   3 -10   3  151.38   14.40
   3 -10   3  185.38   27.60
  -4  10  -3   83.19   21.00
  -4  10  -3  138.89   25.90
   4 -10   3   91.89   21.50
   4 -10   3  115.79   15.60
   4 -10   3  106.59   23.60
  -5  10  -3    0.00   16.60
  -5  10  -3   -6.80   17.30
   5 -10   3   19.40   13.10
   5 -10   3  -23.50   14.60
  -5  -9   3   50.49   22.50
  -5  -9   3  118.89   22.80
   4   9  -3   58.29   17.80
  -4  -9   3   35.50   18.90
  -4  -9   3   30.00   15.70
   3   9  -3  275.67   13.90
   3   9  -3  342.67   31.00
  -3  -9   3  300.87   27.50
  -3  -9   3  315.07   32.50
   2   9  -3   18.70   12.10
   2   9  -3    7.80    6.60
  -2  -9   3   12.80   17.60
  -2  -9   3   33.40   14.70
   1   9  -3  141.49   15.80
   1   9  -3  135.99   22.60
  -1  -9   3  122.89   22.80
   0   9  -3  246.88   20.70
   0   9  -3  293.17   26.50
   0   9  -3  277.87   28.40
   0  -9   3  313.67   29.90
   0  -9   3  279.07   29.40
  -1   9  -3   15.80   11.60
  -1   9  -3   12.50    9.00
  -1   9  -3   25.20   11.30
   1  -9   3   30.30   13.30
   1  -9   3   15.30   11.80
  -2   9  -3   16.90   11.70
  -2   9  -3   -7.00   10.60
  -2   9  -3   10.20   10.90
   2  -9   3   11.10    4.90
   2  -9   3   14.90   11.60
   2  -9   3   19.80   12.30
  -3   9  -3   55.79   14.80
  -3   9  -3   74.69   17.80
  -3   9  -3   38.40   15.80
   3  -9   3   36.50   14.20
   3  -9   3   65.79   16.20
   3  -9   3   70.79   10.90
  -4   9  -3  411.56   34.50
  -4   9  -3  367.76   32.80
   4  -9   3  403.46   32.90
   4  -9   3  437.66   26.40
   4  -9   3  382.16   33.70
  -5   9  -3   40.80   17.90
  -5   9  -3   32.70   17.00
   5  -9   3   67.49   15.90
   5  -9   3   58.79   12.10
   5  -9   3   50.29   15.10
   5  -9   3   54.39   16.50
  -6   9  -3  291.27   32.40
  -6   9  -3  324.87   25.10
   6  -9   3  343.67   32.30
   6  -9   3  339.37   42.50
   6  -9   3  351.46   20.90
   6   8  -3  -22.30   10.00
  -6  -8   3    8.50   18.10
  -6  -8   3  -35.40   13.90
  -6  -8   3   13.10   17.20
   5   8  -3   78.79   11.30
   5   8  -3   80.09   11.90
  -5  -8   3   97.19   19.50
  -5  -8   3   55.19   18.20
   4   8  -3   54.19    7.10
   4   8  -3   67.29    9.30
  -4  -8   3   75.49   18.60
  -4  -8   3   95.89   17.10
   3   8  -3 1071.99   52.19
   3   8  -3  987.20   27.80
  -3  -8   3 1062.39   54.59
  -3  -8   3  936.31   43.60
   2   8  -3  499.35   21.70
   2   8  -3  460.55   35.20
   2   8  -3  517.85   34.90
  -2  -8   3  518.95   30.30
  -2  -8   3  477.05   35.00
   1   8  -3   17.90    7.30
   1   8  -3    8.50    9.10
   1   8  -3   16.00   10.40
  -1  -8   3   26.70   12.00
  -1  -8   3   14.10    8.70
   0   8  -3  447.26   24.60
   0   8  -3  433.36   31.00
   0  -8   3  416.76   19.10
   0  -8   3  407.66   32.10
  -1   8  -3  275.97   25.00
  -1   8  -3  259.67   20.70
  -1   8  -3  296.37   25.30
   1  -8   3  246.78   23.80
   1  -8   3  269.17    9.60
   1  -8   3  268.27   26.30
  -2   8  -3   93.89   17.50
  -2   8  -3   71.09   15.80
  -2   8  -3   61.89   13.20
   2  -8   3   62.59   14.70
   2  -8   3   86.19    9.40
   2  -8   3   85.19   16.90
  -3   8  -3   29.10   12.40
  -3   8  -3   31.10   11.70
   3  -8   3   13.80    7.00
   3  -8   3   50.49   13.00
   3  -8   3   14.20   10.20
  -4   8  -3  328.77   27.60
  -4   8  -3  325.07   28.10
   4  -8   3  346.07   29.00
   4  -8   3  309.97   25.80
   4  -8   3  325.77   22.80
  -5   8  -3  398.96   30.90
  -5   8  -3  449.16   25.70
  -5   8  -3  435.46   33.70
   5  -8   3  470.55   30.40
   5  -8   3  453.45   34.70
   5  -8   3  453.75   23.30
   5  -8   3  426.66   32.80
  -6   8  -3  500.15   38.30
  -6   8  -3  539.15   31.20
  -6   8  -3  502.15   39.40
  -6   8  -3  538.65   34.60
   6  -8   3  494.05   37.70
   6  -8   3  440.66   20.70
   6  -8   3  491.75   37.10
   6  -8   3  485.95   38.00
  -7   8  -3  241.28   26.70
  -7   8  -3  215.58   25.20
  -7   8  -3  182.28   29.30
  -7   8  -3  163.48   29.00
   7  -8   3  226.08   31.10
   7  -8   3  214.68   29.70
   7  -8   3  163.18   27.80
   7   7  -3    6.00   13.60
   7   7  -3   26.70   14.50
  -7  -7   3   -0.70   17.80
  -7  -7   3   -2.70   15.40
  -7  -7   3   -8.00   18.90
   6   7  -3    3.80   10.20
   6   7  -3    2.00   10.70
  -6  -7   3    7.60   14.70
  -6  -7   3   21.90   12.70
  -6  -7   3  -12.30   13.60
   5   7  -3    2.70    7.00
  -5  -7   3   10.50   13.80
  -5  -7   3    3.00    9.10
   4   7  -3   75.49    9.70
  -4  -7   3   79.89   14.10
  -4  -7   3   69.29   17.10
   3   7  -3  354.26   12.70
   3   7  -3  359.66   12.80
  -3  -7   3  381.36   24.50
  -3  -7   3  345.07   29.40
   2   7  -3  271.57   14.00
   2   7  -3  256.87   24.50
   2   7  -3  264.87   23.60
  -2  -7   3  227.08   24.10
  -2  -7   3  234.88   19.10
   1   7  -3  940.51   45.00
   1   7  -3  932.91   44.90
   1   7  -3  981.20   33.60
  -1  -7   3  962.70   38.60
  -1  -7   3  978.60   47.10
   0   7  -3  297.27   24.10
   0   7  -3  289.27   18.30
   0   7  -3  254.17   22.60
   0  -7   3  294.47   24.20
   0  -7   3  270.17   15.40
  -1   7  -3 1297.87   52.59
  -1   7  -3 1369.86   47.90
  -1   7  -3 1307.27   52.89
   1  -7   3 1431.66   55.99
   1  -7   3 1379.36   34.30
   1  -7   3 1332.07   40.50
   1  -7   3 1415.16   54.39
  -2   7  -3  654.53   36.00
  -2   7  -3  658.83   32.30
  -2   7  -3  658.83   34.90
   2  -7   3  642.64   24.50
   2  -7   3  639.14   35.10
   2  -7   3  705.13   35.90
  -3   7  -3  491.95   29.70
  -3   7  -3  414.66   27.70
   3  -7   3  472.25   29.50
   3  -7   3  480.65   29.30
   3  -7   3  482.55   24.00
  -4   7  -3   90.79   15.30
  -4   7  -3   83.49   18.40
  -4   7  -3   71.89   11.30
   4  -7   3  111.59   16.30
   4  -7   3   94.89   14.40
  -5   7  -3   -6.70    6.70
  -5   7  -3    6.50    9.20
  -5   7  -3   15.80   11.80
   5  -7   3   -1.50   10.50
   5  -7   3   -3.20    5.00
   5  -7   3    6.50    7.40
   5  -7   3   20.70   10.30
  -6   7  -3   25.60   12.00
  -6   7  -3   89.69   17.80
  -6   7  -3   88.29   15.60
  -6   7  -3   66.59   17.30
   6  -7   3   60.79    8.10
   6  -7   3   47.40   15.80
   6  -7   3   69.39   16.80
   6  -7   3   61.39   15.90
  -7   7  -3   26.40   23.70
  -7   7  -3   22.60   12.00
  -7   7  -3    7.30   14.30
  -7   7  -3   12.90   12.90
   7  -7   3   22.80   17.50
   7  -7   3   38.90   16.10
   7  -7   3    7.30   14.50
   7   6  -3   63.89   17.20
   7   6  -3   40.10   13.80
  -7  -6   3   65.49   16.30
  -7  -6   3   51.09   20.00
   6   6  -3   63.69   12.90
   6   6  -3   75.69   15.20
  -6  -6   3   70.49   14.20
  -6  -6   3   74.99   18.10
   5   6  -3  233.08   20.40
   5   6  -3  230.08   18.80
  -5  -6   3  183.08   23.80
  -5  -6   3  227.58   20.80
   4   6  -3    5.50    5.20
  -4  -6   3   12.20    9.10
  -4  -6   3   18.10    8.40
   3   6  -3  455.25   17.30
  -3  -6   3  463.15   31.10
  -3  -6   3  406.06   23.20
   2   6  -3 1480.65   38.20
   2   6  -3 1440.66   54.89
  -2  -6   3 1493.75   56.99
  -2  -6   3 1445.86   47.70
   1   6  -3  264.67   19.10
   1   6  -3  308.87   22.60
   1   6  -3  283.57   22.20
  -1  -6   3  265.87   22.10
  -1  -6   3  270.07   17.30
   0   6  -3   -1.00    4.10
   0   6  -3   14.50    7.20
   0   6  -3    9.50    6.90
   0  -6   3    7.60    7.60
  -1   6  -3   -1.80    4.40
  -1   6  -3    3.50    6.20
  -1   6  -3    3.10    6.20
   1  -6   3    3.60    3.70
   1  -6   3    2.90    2.40
   1  -6   3    0.60    5.60
   1  -6   3    3.30    5.70
  -2   6  -3  366.36   22.80
  -2   6  -3  341.47   23.40
  -2   6  -3  399.56   24.30
   2  -6   3  362.76   23.70
   2  -6   3  425.46   24.90
  -3   6  -3  776.42   29.70
  -3   6  -3  790.32   35.10
  -3   6  -3  765.72   36.10
   3  -6   3  727.33   34.80
   3  -6   3  810.72   34.60
  -4   6  -3 2605.64   72.19
  -4   6  -3 2619.04   79.99
  -4   6  -3 2477.95   80.09
  -4   6  -3 2472.15   73.99
   4  -6   3 2555.24   71.89
   4  -6   3 2523.65   77.89
   4  -6   3 2430.86   65.09
  -5   6  -3  375.96   23.90
  -5   6  -3  360.56   27.80
  -5   6  -3  375.56   24.50
  -5   6  -3  371.26   28.10
   5  -6   3  351.16   20.70
   5  -6   3  391.96   31.40
   5  -6   3  421.46   29.30
   5  -6   3  354.16   16.30
  -6   6  -3   11.20    8.10
  -6   6  -3   -2.60    8.60
  -6   6  -3    0.50    9.30
   6  -6   3   10.40    9.50
   6  -6   3    1.50    9.30
  -7   6  -3  277.97   29.90
  -7   6  -3  200.68   28.10
  -7   6  -3  276.57   26.10
  -7   6  -3  257.27   19.90
   7  -6   3  268.87   28.70
   7  -6   3  205.28   27.70
  -8   6  -3   70.39   19.90
  -8   6  -3   60.99   10.60
  -8   6  -3   24.40   20.30
   8  -6   3   31.60   21.10
   8  -6   3   56.29   21.50
   8   5  -3   21.00   14.10
   8   5  -3    3.80   17.00
  -8  -5   3   -4.70   17.00
  -8  -5   3  -11.50   13.90
  -8  -5   3    0.80   15.10
   7   5  -3   10.50    9.70
   7   5  -3   20.20   13.80
  -7  -5   3   15.10   13.30
  -7  -5   3   -2.10   12.00
  -7  -5   3   -2.50   10.50
   6   5  -3    8.90    8.10
   6   5  -3   -9.70    8.10
  -6  -5   3   -8.30    9.10
  -6  -5   3   -1.80    7.80
   5   5  -3    2.40    6.90
   5   5  -3   12.80    8.00
  -5  -5   3    4.60    9.60
  -5  -5   3   14.30    9.10
  -5  -5   3    9.10    6.80
   4   5  -3 1072.49   38.60
   4   5  -3 1101.29   37.60
  -4  -5   3 1027.20   46.10
  -4  -5   3 1048.90   38.30
   3   5  -3 3539.85   86.09
  -3  -5   3 3314.07   96.39
  -3  -5   3 3361.56   86.09
   2   5  -3  181.58    8.00
   2   5  -3  171.48    8.00
  -2  -5   3  187.08   13.10
  -2  -5   3  197.78   17.80
   1   5  -3  714.53   32.60
   1   5  -3  647.54   22.30
   1   5  -3  667.43   31.70
  -1  -5   3  673.93   32.30
  -1  -5   3  640.84   25.40
   0   5  -3   10.90    6.90
   0   5  -3   25.70    5.80
   0   5  -3   29.00    8.20
   0  -5   3   21.90    1.70
   0  -5   3   20.10    1.60
   0  -5   3   29.80    8.50
  -1   5  -3    6.30    6.70
  -1   5  -3   13.20    6.30
  -1   5  -3    7.10    4.90
   1  -5   3   10.30    4.20
   1  -5   3    8.80    6.00
   1  -5   3   13.80    6.20
  -2   5  -3   31.00    6.00
  -2   5  -3   32.90    8.00
  -2   5  -3   34.50    9.70
  -2   5  -3   36.70    8.40
   2  -5   3   34.70    8.00
   2  -5   3   43.60    9.00
  -3   5  -3  121.59   12.50
  -3   5  -3  130.69   13.80
  -3   5  -3  166.78   15.50
  -3   5  -3  136.49   12.50
   3  -5   3  134.59   13.80
   3  -5   3  137.69   10.50
   3  -5   3  121.89   12.00
  -4   5  -3  200.58   18.80
  -4   5  -3  227.48   18.80
  -4   5  -3  239.28   16.50
  -4   5  -3  218.88   17.30
   4  -5   3  206.28   14.30
   4  -5   3  208.88   18.10
   4  -5   3  214.28   12.10
   4  -5   3  232.48   19.40
  -5   5  -3  104.79   16.40
  -5   5  -3  107.99   12.80
  -5   5  -3  106.09   15.60
   5  -5   3  123.69   17.40
   5  -5   3   99.99   15.40
  -6   5  -3  324.57   25.60
  -6   5  -3  240.68   25.30
  -6   5  -3  248.68   24.10
  -6   5  -3  242.68   16.60
   6  -5   3  254.97   24.40
   6  -5   3  283.47   24.30
  -7   5  -3  -17.50   10.70
  -7   5  -3    2.00   11.30
  -7   5  -3  -11.60   11.70
   7  -5   3   10.40   12.00
   7  -5   3   16.90   11.60
  -8   5  -3  477.35   37.10
  -8   5  -3  395.66   36.30
  -8   5  -3  386.86   38.40
   8  -5   3  357.16   34.20
   8  -5   3  357.86   50.09
   8   4  -3   44.60   19.20
   8   4  -3   52.99   15.20
  -8  -4   3   38.00   16.10
  -8  -4   3   50.49   19.50
   7   4  -3    5.50    8.70
   7   4  -3    2.10   11.70
  -7  -4   3   18.30   11.50
  -7  -4   3    8.20    9.40
   6   4  -3    1.60    6.90
   6   4  -3   22.80   10.80
  -6  -4   3   16.90    9.90
  -6  -4   3    7.80    7.10
   5   4  -3  128.99   16.70
   5   4  -3  118.69   12.90
  -5  -4   3  115.09   13.80
  -5  -4   3  135.99   17.80
  -5  -4   3  139.29   18.70
   4   4  -3  535.95   23.90
   4   4  -3  553.34   25.70
  -4  -4   3  581.84   30.50
  -4  -4   3  598.64   24.70
  -4  -4   3  539.55   29.50
   3   4  -3 1931.91   51.89
  -3  -4   3 1914.91   60.69
  -3  -4   3 1894.11   51.39
   2   4  -3 1354.16   34.80
  -2  -4   3 1417.36   47.10
  -2  -4   3 1303.87   38.10
   1   4  -3  989.90   27.60
   1   4  -3 1039.00   37.80
   1   4  -3 1000.50   23.30
  -1  -4   3  982.90   36.90
  -1  -4   3  985.00   30.20
   0   4  -3 1234.88   36.10
   0   4  -3 1303.67   42.30
   0   4  -3 1255.07   42.30
   0  -4   3 1268.47   42.10
   0  -4   3 1259.77   30.40
  -1   4  -3 3037.50   79.59
  -1   4  -3 3113.09   77.99
  -1   4  -3 2995.80   76.09
   1  -4   3 2951.10   75.19
   1  -4   3 2959.50   78.19
   1  -4   3 3040.10   75.39
   1  -4   3 3048.90   77.49
  -2   4  -3  672.53   26.10
  -2   4  -3  670.13   27.40
  -2   4  -3  701.13   25.70
  -2   4  -3  673.83   28.10
  -2   4  -3  683.43   29.30
   2  -4   3  623.64   26.20
   2  -4   3  618.34   26.90
   2  -4   3  664.33   27.00
  -3   4  -3   60.19   10.60
  -3   4  -3   37.50    7.90
  -3   4  -3   61.59    9.80
  -3   4  -3   58.19   13.40
   3  -4   3   66.99   10.30
   3  -4   3   75.79   11.10
   3  -4   3   64.79    6.80
   3  -4   3   66.99    8.20
  -4   4  -3 1132.79   42.50
  -4   4  -3 1187.98   37.20
  -4   4  -3 1124.89   42.60
  -4   4  -3 1210.78   45.70
   4  -4   3 1165.78   32.50
   4  -4   3 1136.59   33.50
   4  -4   3 1249.77   43.50
   4  -4   3 1260.77   45.80
  -5   4  -3 1300.37   50.79
  -5   4  -3 1306.67   49.90
  -5   4  -3 1295.77   38.30
  -5   4  -3 1319.27   49.60
   5  -4   3 1354.06   51.99
   5  -4   3 1359.76   49.20
  -6   4  -3   72.09   14.70
  -6   4  -3   90.89   15.80
  -6   4  -3   89.79   16.70
  -6   4  -3   86.39    8.60
   6  -4   3   72.09   15.50
  -7   4  -3   -7.80   11.00
  -7   4  -3    5.60    3.50
  -7   4  -3    0.00   10.60
  -7   4  -3    0.60   11.20
   7  -4   3   -0.30    8.60
   7  -4   3   -1.90    9.50
  -8   4  -3   53.19   20.70
  -8   4  -3   37.80   17.30
  -8   4  -3   44.70   17.20
   8  -4   3   54.99   17.10
   8  -4   3   29.60   15.20
   8   3  -3  315.97   34.30
   8   3  -3  239.58   23.80
  -8  -3   3  244.68   19.20
  -8  -3   3  174.98   39.90
  -8  -3   3  171.08   27.60
   7   3  -3   54.79   11.90
   7   3  -3   47.00   16.40
  -7  -3   3   29.90   11.80
   6   3  -3 1292.17   46.30
   6   3  -3 1309.57   53.49
  -6  -3   3 1406.46   51.99
  -6  -3   3 1299.07   46.90
   5   3  -3 1059.39   37.70
   5   3  -3 1121.89   44.20
  -5  -3   3 1114.39   45.40
  -5  -3   3 1144.89   39.10
   4   3  -3  462.55   23.40
   4   3  -3  417.66   19.30
  -4  -3   3  469.05   25.20
  -4  -3   3  425.06   19.60
   3   3  -3  818.72   25.80
   3   3  -3  816.62   28.80
  -3  -3   3  796.32   25.50
   2   3  -3   11.60    3.50
   2   3  -3   10.70    3.00
  -2  -3   3   12.30    3.00
   1   3  -3  315.87   11.50
  -1  -3   3  305.87   11.20
  -1  -3   3  336.07   11.20
  -1  -3   3  329.47   17.20
   0   3  -3   -1.50    3.20
   0   3  -3    0.80    2.50
   0  -3   3    8.00    3.00
   0  -3   3    3.70    3.50
   0  -3   3    3.10    2.20
  -1   3  -3  159.08   10.20
  -1   3  -3  177.58   13.70
  -1   3  -3  155.38   11.40
  -1   3  -3  151.38   10.40
   1  -3   3  117.09   17.20
   1  -3   3  169.48   10.90
   1  -3   3  140.79   10.20
   1  -3   3  136.59   10.90
   1  -3   3  147.19   10.10
  -2   3  -3  136.79    9.00
  -2   3  -3  143.99   11.20
  -2   3  -3  155.08   12.10
  -2   3  -3  152.98   11.30
   2  -3   3  147.19   12.00
   2  -3   3  137.29    9.10
   2  -3   3  149.19   11.40
   2  -3   3  154.38    9.60
   2  -3   3  137.29   10.50
  -3   3  -3 2803.02   73.09
  -3   3  -3 2868.21   75.39
  -3   3  -3 2702.63   64.89
  -3   3  -3 2826.32   76.19
   3  -3   3 2883.51   73.19
   3  -3   3 2823.92   75.39
   3  -3   3 2832.22   76.09
   3  -3   3 2768.72   63.59
   3  -3   3 2735.53   64.99
  -4   3  -3 2298.57   68.69
  -4   3  -3 2250.57   54.39
  -4   3  -3 2280.97   66.69
  -4   3  -3 2410.76   70.09
   4  -3   3 2400.16   70.19
   4  -3   3 2392.16   70.49
   4  -3   3 2348.86   66.29
  -5   3  -3  125.09    6.90
  -5   3  -3  148.79   15.40
  -5   3  -3  136.29   17.00
  -5   3  -3  122.89   16.80
   5  -3   3  128.19   15.60
   5  -3   3  113.19   16.20
  -6   3  -3  561.04   31.80
  -6   3  -3  540.95   31.10
  -6   3  -3  549.45   34.60
   6  -3   3  506.55   29.80
   6  -3   3  517.25   32.40
  -7   3  -3  -26.60   10.20
   7  -3   3  -19.30    8.70
   7  -3   3   -1.60    8.60
  -8   3  -3    0.50   14.80
  -8   3  -3   -0.40   15.00
   8  -3   3  -13.50   12.70
   8  -3   3   -1.30   12.50
   9   2  -3  -11.50   22.30
   9   2  -3    7.00   13.00
  -9  -2   3    0.70   17.70
  -9  -2   3    3.00   13.80
  -9  -2   3   19.50    9.60
   8   2  -3   33.10   18.40
   8   2  -3   35.50   14.20
  -8  -2   3   30.10    7.20
  -8  -2   3   49.00   14.00
  -8  -2   3   30.20   12.90
   7   2  -3  108.69   15.70
   7   2  -3  160.28   23.60
  -7  -2   3  111.19   11.30
   6   2  -3  334.47   26.10
   6   2  -3  295.27   20.00
  -6  -2   3  322.27   17.50
  -6  -2   3  317.87   16.90
  -6  -2   3  331.87   25.00
   5   2  -3 1532.25   46.50
   5   2  -3 1505.25   54.09
  -5  -2   3 1552.94   54.19
  -5  -2   3 1533.35   39.80
   4   2  -3  931.31   30.60
   4   2  -3  942.01   36.40
  -4  -2   3 1008.20   37.40
  -4  -2   3  935.11   25.30
  -4  -2   3  880.31   29.90
   3   2  -3  356.26   13.90
   3   2  -3  355.86   18.10
  -3  -2   3  342.37   18.70
  -3  -2   3  320.07   13.40
   2   2  -3  229.78    8.40
   2   2  -3  235.08   12.30
  -2  -2   3  236.48    8.40
  -2  -2   3  240.18   12.10
   1   2  -3  285.17   11.90
  -1  -2   3  273.17   11.30
  -1  -2   3  273.47    7.50
  -1  -2   3  246.78   12.80
   0   2  -3  114.49    7.70
   0   2  -3  129.69    9.30
   0  -2   3  119.39    8.00
   0  -2   3  121.89    6.30
   0  -2   3  126.99    8.20
   0  -2   3  123.89    7.80
  -1   2  -3  241.08   12.90
  -1   2  -3  212.98   10.60
  -1   2  -3  242.88   11.10
  -1   2  -3  246.48   13.00
   1  -2   3  212.78   10.40
   1  -2   3  236.68   12.90
   1  -2   3  240.68   10.40
   1  -2   3  234.08   11.50
   1  -2   3  228.48   10.40
  -2   2  -3 1941.91   53.69
  -2   2  -3 1962.40   53.59
  -2   2  -3 1986.40   53.69
  -2   2  -3 1895.41   47.00
   2  -2   3 1921.11   49.10
   2  -2   3 1848.42   52.39
   2  -2   3 1911.51   47.00
   2  -2   3 1916.41   43.50
   2  -2   3 1977.40   52.59
  -3   2  -3 1175.28   39.60
  -3   2  -3 1242.18   41.60
  -3   2  -3 1200.98   37.30
  -3   2  -3 1151.18   31.80
   3  -2   3 1190.78   36.90
   3  -2   3 1236.78   40.50
   3  -2   3 1156.18   39.80
  -4   2  -3 2670.03   77.39
  -4   2  -3 2639.14   74.19
  -4   2  -3 2614.34   61.49
  -4   2  -3 2713.43   72.49
   4  -2   3 2619.84   75.29
   4  -2   3 2661.73   74.89
   4  -2   3 2615.04   71.19
  -5   2  -3  216.38   17.60
  -5   2  -3  196.38    9.80
   5  -2   3  235.58   19.80
   5  -2   3  213.08   18.60
   5  -2   3  193.58   16.70
  -6   2  -3  390.36   31.00
   6  -2   3  362.16   25.20
   6  -2   3  354.36   26.50
   7  -2   3   14.90    9.90
   7  -2   3   30.90   12.50
  -8   2  -3  184.08   26.70
   8  -2   3  173.88   24.70
   8  -2   3  232.68   29.40
   9   1  -3  -14.30   12.40
   9   1  -3   35.10   21.50
  -9  -1   3    8.30   17.00
   8   1  -3  100.99   22.20
   8   1  -3   41.40   13.80
  -8  -1   3   63.09   10.90
  -8  -1   3   21.90   14.90
   7   1  -3  166.18   16.90
   7   1  -3  199.78   26.20
  -7  -1   3  207.48   15.40
   6   1  -3 1285.57   44.70
   6   1  -3 1334.77   54.69
   6   1  -3 1312.87   51.29
  -6  -1   3 1348.57   40.70
  -6  -1   3 1251.77   70.59
  -6  -1   3 1242.78   44.50
   5   1  -3  453.25   27.80
   5   1  -3  424.46   25.10
   5   1  -3  502.65   22.20
  -5  -1   3  465.35   19.40
  -5  -1   3  426.46   24.30
  -5  -1   3  482.15   26.30
   4   1  -3  231.08   17.70
   4   1  -3  220.48   16.30
   4   1  -3  223.18   12.80
  -4  -1   3  239.98   16.60
  -4  -1   3  220.98   12.90
   3   1  -3 1670.23   48.20
   3   1  -3 1729.23   49.99
   3   1  -3 1665.33   41.90
  -3  -1   3 1649.44   47.90
  -3  -1   3 1671.53   42.80
   2   1  -3    7.90    6.90
   2   1  -3    4.70    1.60
  -2  -1   3    6.60    3.70
  -2  -1   3    2.80    2.40
  -2  -1   3   13.60    4.10
   1   1  -3 5812.82  118.99
   1   1  -3 5189.18  119.89
   1   1  -3 5375.06  111.99
  -1  -1   3 5653.33  118.89
  -1  -1   3 5411.16  116.59
   0   1  -3  262.57   12.70
   0   1  -3  256.27    9.60
   0   1  -3  248.88   11.00
   0   1  -3  243.98   12.10
   0  -1   3  264.67   12.50
   0  -1   3  249.78    9.50
   0  -1   3  255.37   11.20
   0  -1   3  264.07   12.90
   0  -1   3  230.38   10.80
  -1   1  -3 6424.56  141.59
  -1   1  -3 6709.83  144.79
  -1   1  -3 6738.93  140.49
   1  -1   3 6331.87  140.99
  -2   1  -3 1709.73   43.20
  -2   1  -3 1728.33   43.00
  -2   1  -3 1739.03   48.10
  -2   1  -3 1710.53   49.30
   2  -1   3 1671.23   42.80
   2  -1   3 1721.33   48.00
   2  -1   3 1646.94   46.90
  -3   1  -3  209.48   10.70
  -3   1  -3  210.38   12.80
  -3   1  -3  199.78   14.40
  -3   1  -3  210.58   15.60
   3  -1   3  188.18   12.00
   3  -1   3  202.48   14.30
   3  -1   3  187.98   14.10
  -4   1  -3   35.10    7.50
  -4   1  -3   39.10    8.80
  -4   1  -3   30.90    5.20
   4  -1   3   38.30    7.80
   4  -1   3   17.00    6.70
   4  -1   3   34.00    8.30
  -5   1  -3   20.70    7.20
  -5   1  -3   13.50    4.00
  -5   1  -3    6.20    6.40
   5  -1   3   12.20    6.90
   5  -1   3   15.40    6.80
   5  -1   3    0.70    6.10
  -6   1  -3  164.78   17.50
  -6   1  -3  116.79    8.70
   6  -1   3  117.49   16.70
   6  -1   3  130.19   17.70
  -7   1  -3   -1.50    3.10
  -7   1  -3    6.90   10.00
   7  -1   3   10.70    9.60
   7  -1   3    1.70    9.90
  -8   1  -3   42.00   16.50
   8  -1   3   48.00   15.10
   8  -1   3   33.70   15.00
   9   0  -3   29.70   23.80
   9   0  -3   87.59   17.60
  -9   0   3   57.39   13.60
  -9   0   3    9.60   16.60
   8   0  -3  174.88   21.70
   8   0  -3  200.68   25.40
   8   0  -3  227.48   32.10
  -8   0   3  195.88   18.70
  -8   0   3  212.38   26.80
   7   0  -3   75.49   15.30
   7   0  -3  119.89   16.10
   7   0  -3  129.39   23.30
  -7   0   3   91.59   13.00
   6   0  -3   42.10    9.50
   6   0  -3   26.00   11.90
   6   0  -3   33.60    9.30
  -6   0   3   11.90    6.50
  -6   0   3   36.00   10.00
   5   0  -3  273.37   16.90
   5   0  -3  289.87   22.30
   5   0  -3  248.08   18.80
  -5   0   3  281.47   16.60
  -5   0   3  266.37   19.00
   4   0  -3  757.22   26.80
   4   0  -3  768.12   33.50
   4   0  -3  802.32   31.30
  -4   0   3  790.72   22.70
  -4   0   3  740.13   30.20
   3   0  -3   10.20    4.70
   3   0  -3    4.00    2.30
   3   0  -3    0.40    3.40
  -3   0   3    3.80    2.30
  -3   0   3    7.40    3.70
   2   0  -3   61.69    6.30
   2   0  -3   62.19    8.50
   2   0  -3   69.49    5.60
  -2   0   3   62.69    6.10
  -2   0   3   66.39    8.80
   1   0  -3  144.39    8.30
   1   0  -3  164.08    8.00
   1   0  -3  169.68   10.60
   1   0  -3  148.49    6.90
  -1   0   3  151.18   10.20
  -1   0   3  151.78    6.80
   0   0  -3  130.89    5.60
   0   0  -3  105.29    9.10
   0   0  -3  131.09    7.80
   0   0   3  116.79    5.80
   0   0   3  120.49    8.40
   0   0   3  110.89    9.40
   0   0   3  121.29    7.70
  -1   0  -3 4066.19   92.19
   1   0   3 3910.71   93.89
   1   0   3 3810.22   85.09
   1   0   3 3960.60   90.89
  -2   0  -3 7456.55  157.08
  -2   0  -3 7212.58  164.28
  -2   0  -3 7481.85  163.88
  -2   0  -3 7411.36  151.98
   2   0   3 7464.35  157.38
   2   0   3 7461.35  163.68
   2   0   3 6887.61  152.98
  -3   0  -3    5.30    1.70
  -3   0  -3    5.60    3.80
  -3   0  -3   40.90    8.30
   3   0   3    4.60    4.50
   3   0   3    1.90    3.40
   3   0   3    3.10    4.10
  -4   0  -3    0.00    4.00
  -4   0  -3   -6.40    4.70
  -4   0  -3    6.90    2.00
   4   0   3   16.00    6.90
   4   0   3   -4.30    4.10
   4   0   3    3.30    4.50
  -5   0  -3  203.08   18.60
  -5   0  -3  212.58    8.50
  -5   0  -3  229.28   18.10
   5   0   3  231.88   18.10
   5   0   3  239.38   18.80
   5   0   3  236.18   19.90
  -6   0  -3   12.90    2.90
  -6   0  -3   24.20   10.60
  -6   0  -3    7.30    7.90
   6   0   3   20.40   10.20
   6   0   3   14.10    9.10
  -7   0  -3    3.20    5.00
  -7   0  -3   12.00   12.90
  -7   0  -3   14.30   12.90
   7   0   3   12.30   10.60
  -8   0  -3   52.59   17.60
   8   0   3   26.10   14.30
   9  -1  -3   62.39   27.90
   9  -1  -3   44.00   16.70
  -9   1   3   60.99   15.20
  -9   1   3   72.19   23.30
  -9   1   3   37.40   16.00
   8  -1  -3  115.99   21.00
   8  -1  -3   87.19   21.60
   8  -1  -3   98.19   16.40
  -8   1   3  114.89   16.90
  -8   1   3  109.59   21.40
  -8   1   3  103.39   17.70
   7  -1  -3   47.30   13.20
   7  -1  -3   58.19   12.20
  -7   1   3   59.29   11.70
   6  -1  -3 1779.82   62.49
   6  -1  -3 1871.51   58.79
  -6   1   3 1961.20   73.99
  -6   1   3 1778.52   57.49
   5  -1  -3 2580.74   70.19
   5  -1  -3 2483.75   74.09
   5  -1  -3 2578.14   79.69
  -5   1   3 2567.64   74.19
   4  -1  -3  110.59    6.70
   4  -1  -3  101.99   13.80
   4  -1  -3   84.89   11.40
  -4   1   3  130.39   11.80
   3  -1  -3 1538.65   39.00
   3  -1  -3 1576.54   48.90
   3  -1  -3 1570.54   45.10
  -3   1   3 1624.14   45.60
  -3   1   3 1551.94   49.00
   2  -1  -3   16.80    5.00
   2  -1  -3   35.00    5.30
  -2   1   3   23.20    5.70
  -2   1   3   14.60    5.00
   1  -1  -3  278.47   15.10
   1  -1  -3  306.07   11.30
  -1   1   3  261.97   10.90
  -1   1   3  259.77   14.20
  -1   1   3  306.87   15.40
   0  -1  -3  593.94   20.50
   0  -1  -3  615.04   21.20
   0  -1  -3  641.54   23.50
   0   1   3  618.64   22.50
   0   1   3  612.04   23.40
   0   1   3  606.34   20.00
   0   1   3  589.84   13.60
   0   1   3  614.04   21.20
  -1  -1  -3 2924.21   71.69
  -1  -1  -3 2888.91   72.89
  -1  -1  -3 2947.71   68.89
   1   1   3 3041.80   74.09
   1   1   3 2887.21   69.39
  -2  -1  -3  429.76   20.10
  -2  -1  -3  407.56   20.40
  -2  -1  -3  404.76   15.90
  -2  -1  -3  412.56   20.40
   2   1   3  431.16   20.80
   2   1   3  390.16   16.70
  -3  -1  -3  112.79   10.50
  -3  -1  -3  116.59   12.70
  -3  -1  -3  110.59    8.40
   3   1   3  110.09   12.00
   3   1   3  104.79    8.40
  -4  -1  -3  213.38   11.80
  -4  -1  -3  191.38   17.10
  -4  -1  -3  202.08   15.60
   4   1   3  206.58   18.00
   4   1   3  190.28   14.80
  -5  -1  -3  149.19   19.30
  -5  -1  -3  168.18   16.10
  -5  -1  -3  157.98   10.80
   5   1   3  168.38   18.00
   5   1   3  185.78   16.30
  -6  -1  -3  785.72   41.40
  -6  -1  -3  742.03   25.50
   6   1   3  795.62   36.30
   6   1   3  753.82   39.70
  -7  -1  -3    4.10    4.20
  -7  -1  -3   10.20   11.70
   7   1   3    8.00   10.40
   7   1   3   -3.30    9.90
  -8  -1  -3  373.36   35.80
  -8  -1  -3  404.96   38.30
   8   1   3  344.77   33.30
   9  -2  -3    6.70   23.70
   9  -2  -3   -4.80   13.00
  -9   2   3  -20.00   12.90
  -9   2   3    1.80   13.80
  -9   2   3   -1.40   16.00
   8  -2  -3    6.20   12.80
   8  -2  -3    2.90   10.00
   8  -2  -3    4.40   15.00
  -8   2   3   -2.30   10.30
  -8   2   3    6.90   13.30
  -8   2   3   11.90   11.30
   7  -2  -3   24.10   11.20
   7  -2  -3   49.80   12.00
  -7   2   3   36.40   11.80
  -7   2   3   40.00   11.10
  -7   2   3   28.40   12.20
   6  -2  -3   95.69   14.20
   6  -2  -3   91.89   15.00
   6  -2  -3   82.69   16.00
  -6   2   3  110.69   15.00
  -6   2   3  105.49   15.10
  -6   2   3   73.79   15.90
   5  -2  -3 1109.99   42.50
   5  -2  -3 1083.39   45.40
  -5   2   3 1059.69   40.30
  -5   2   3 1024.80   41.00
   4  -2  -3   37.60    8.10
   4  -2  -3   42.40    5.10
   4  -2  -3   48.80   10.50
  -4   2   3   45.90    8.90
  -4   2   3   50.69    9.00
   3  -2  -3 1451.05   47.20
   3  -2  -3 1502.65   43.90
  -3   2   3 1331.17   46.30
  -3   2   3 1474.45   43.90
  -3   2   3 1406.76   45.10
   2  -2  -3  116.49    9.40
   2  -2  -3  115.19   10.90
  -2   2   3  137.29    9.90
  -2   2   3   91.99   11.30
  -2   2   3  114.69   11.00
   1  -2  -3 3938.31   90.99
   1  -2  -3 3640.24   89.19
   1  -2  -3 3673.53   84.69
   1  -2  -3 3513.65   77.99
  -1   2   3 3816.72   90.39
  -1   2   3 3632.64   91.09
   0  -2  -3 1157.98   37.20
   0  -2  -3 1191.38   38.20
   0  -2  -3 1189.28   32.80
   0  -2  -3 1196.68   36.90
   0   2   3 1146.49   36.60
   0   2   3 1185.68   38.50
   0   2   3 1158.98   26.90
   0   2   3 1173.68   31.70
  -1  -2  -3  275.87   14.60
  -1  -2  -3  263.77   16.50
  -1  -2  -3  261.77   18.00
   1   2   3  306.27   17.40
   1   2   3  239.48   16.00
   1   2   3  247.98   14.70
  -2  -2  -3 1024.80   35.90
  -2  -2  -3 1085.59   38.30
  -2  -2  -3  952.10   47.60
   2   2   3 1019.90   37.60
   2   2   3 1082.09   38.50
   2   2   3  971.00   34.20
  -3  -2  -3  416.06   24.00
  -3  -2  -3  425.16   20.80
  -3  -2  -3  432.46   21.00
   3   2   3  400.76   23.50
   3   2   3  414.66   20.30
  -4  -2  -3   -1.50    4.20
  -4  -2  -3   -4.20    4.90
  -4  -2  -3    2.90    5.50
   4   2   3    5.90    6.20
   4   2   3    6.30    5.00
  -5  -2  -3   21.60   10.70
  -5  -2  -3   18.60    6.30
  -5  -2  -3   15.20    7.80
   5   2   3   15.10    7.10
   5   2   3   21.50    8.50
  -6  -2  -3   51.79    9.50
  -6  -2  -3   59.49   13.60
  -6  -2  -3   43.00   14.70
   6   2   3   43.60   13.10
   6   2   3   44.90   11.70
  -7  -2  -3   22.40   15.00
  -7  -2  -3   25.70    7.90
   7   2   3   24.60   13.40
   7   2   3   23.90   11.90
  -8  -2  -3  447.66   38.80
  -8  -2  -3  325.87   26.90
  -8  -2  -3  453.35   40.50
   8   2   3  495.65   39.50
   9  -3  -3   29.80   16.80
   9  -3  -3   61.29   22.00
  -9   3   3   15.30   15.20
  -9   3   3   62.19   18.60
  -9   3   3   39.80   24.80
   8  -3  -3  948.51   55.99
   8  -3  -3  976.80   48.10
   8  -3  -3  988.80   51.99
  -8   3   3  936.91   46.00
  -8   3   3 1006.50   52.49
  -8   3   3 1027.50   48.20
   7  -3  -3  784.92   46.30
   7  -3  -3  700.43   37.80
   7  -3  -3  705.23   40.20
  -7   3   3  693.13   37.20
  -7   3   3  784.62   40.00
  -7   3   3  822.02   43.10
   6  -3  -3  177.88   23.90
   6  -3  -3  221.78   23.40
  -6   3   3  158.28   19.50
  -6   3   3  189.68   18.30
   5  -3  -3   26.50    9.90
   5  -3  -3   48.70    5.10
   5  -3  -3   47.40   10.20
  -5   3   3   57.19   11.20
  -5   3   3   42.40   10.30
   4  -3  -3  285.07   20.20
   4  -3  -3  335.57   20.30
  -4   3   3  294.17   19.30
  -4   3   3  327.87   20.80
   3  -3  -3   67.89    9.80
   3  -3  -3   83.49   11.70
  -3   3   3   96.09   13.20
  -3   3   3   86.19   12.00
  -3   3   3  103.79   10.90
   2  -3  -3  698.63   29.10
   2  -3  -3  651.03   27.30
   2  -3  -3  638.84   23.30
   2  -3  -3  687.63   26.30
  -2   3   3  630.84   28.10
  -2   3   3  674.73   28.10
  -2   3   3  629.74   25.60
   1  -3  -3  282.97   17.70
   1  -3  -3  253.57   14.60
   1  -3  -3  240.88   15.20
   1  -3  -3  229.18   16.10
  -1   3   3  264.67   17.20
  -1   3   3  259.67   15.90
  -1   3   3  246.78   10.00
   0  -3  -3   12.90    6.10
   0  -3  -3   13.30    5.40
   0  -3  -3   15.90    6.30
   0   3   3   19.00    6.00
   0   3   3   16.20    3.70
   0   3   3   42.50    8.30
  -1  -3  -3 4908.21  116.29
  -1  -3  -3 4719.53  109.09
  -1  -3  -3 4731.63  117.79
   1   3   3 4713.43  117.79
   1   3   3 4810.82  115.49
   1   3   3 4570.54  115.39
  -2  -3  -3 1646.54   50.49
  -2  -3  -3 1717.33   55.59
  -2  -3  -3 1680.43   52.49
   2   3   3 1666.73   53.19
   2   3   3 1627.44   54.59
   2   3   3 1739.63   53.99
  -3  -3  -3  877.21   34.30
  -3  -3  -3  915.31   39.20
  -3  -3  -3  814.22   33.90
   3   3   3  889.71   37.60
   3   3   3  830.42   34.70
   3   3   3  874.41   38.30
  -4  -3  -3  496.55   30.20
  -4  -3  -3  515.45   26.30
  -4  -3  -3  573.94   28.90
   4   3   3  525.15   26.30
   4   3   3  441.36   28.50
  -5  -3  -3   -2.80    7.80
  -5  -3  -3   -1.70    6.50
  -5  -3  -3    2.60    8.30
   5   3   3    5.90    7.10
  -6  -3  -3   47.60   15.80
  -6  -3  -3   52.89   11.10
  -6  -3  -3   57.59   14.70
   6   3   3   50.79   15.00
   6   3   3   51.89   12.40
  -7  -3  -3   83.69   13.90
  -7  -3  -3  114.69   22.30
  -7  -3  -3  136.29   21.90
   7   3   3  116.79   21.60
   7   3   3  115.99   18.20
   8  -4  -3  202.08   25.80
   8  -4  -3  182.48   26.20
  -8   4   3  165.68   24.20
  -8   4   3  187.78   23.60
   7  -4  -3  670.73   39.80
   7  -4  -3  690.43   38.20
   7  -4  -3  595.14   41.70
  -7   4   3  723.23   40.30
  -7   4   3  616.44   39.30
  -7   4   3  686.53   39.80
   6  -4  -3   74.79    5.20
   6  -4  -3   77.79   14.90
   6  -4  -3   84.89   18.30
  -6   4   3   96.69   16.80
  -6   4   3   63.89   14.40
   5  -4  -3  224.08   19.50
   5  -4  -3  236.18   21.50
  -5   4   3  226.38   19.80
  -5   4   3  178.38   18.90
   4  -4  -3   72.89   12.00
   4  -4  -3  108.09   15.50
  -4   4   3  104.19   14.30
  -4   4   3   86.29   13.50
   3  -4  -3  124.59   13.60
   3  -4  -3  111.69   13.70
   3  -4  -3  115.89   14.60
  -3   4   3  127.99   13.50
  -3   4   3  112.19   15.00
  -3   4   3   93.89   13.40
   2  -4  -3   57.79    9.80
   2  -4  -3   50.29    9.00
   2  -4  -3   62.69   11.00
  -2   4   3   60.99   10.80
  -2   4   3   57.29    9.60
   1  -4  -3  664.83   27.90
   1  -4  -3  627.94   30.20
   1  -4  -3  659.03   27.30
   1  -4  -3  630.94   30.40
  -1   4   3  682.13   31.20
  -1   4   3  701.83   28.40
   0  -4  -3  316.27   21.00
   0  -4  -3  324.87   21.50
   0  -4  -3  357.16   19.30
   0   4   3  321.47   18.90
   0   4   3  322.67   14.60
   0   4   3  357.76   22.20
  -1  -4  -3  678.43   32.70
  -1  -4  -3  663.73   24.90
  -1  -4  -3  690.23   32.30
   1   4   3  703.33   29.60
   1   4   3  621.34   31.20
   1   4   3  712.43   33.20
  -2  -4  -3  894.01   39.30
  -2  -4  -3  862.51   37.10
  -2  -4  -3  851.91   32.60
   2   4   3  849.12   37.30
   2   4   3  822.12   37.70
   2   4   3  835.52   35.00
  -3  -4  -3   10.60    8.10
  -3  -4  -3   -1.30    6.60
   3   4   3    9.00    7.00
   3   4   3   -5.00    6.30
   3   4   3   -1.00    6.10
  -4  -4  -3  654.33   33.60
  -4  -4  -3  698.43   38.50
  -4  -4  -3  688.03   34.60
   4   4   3  705.43   36.00
   4   4   3  710.63   34.70
   4   4   3  677.83   37.30
  -5  -4  -3   45.40   13.30
  -5  -4  -3   38.50   11.90
  -5  -4  -3   64.09   16.30
   5   4   3  103.09   17.80
   5   4   3   65.39   12.00
  -6  -4  -3  476.15   37.90
  -6  -4  -3  489.15   30.40
   6   4   3  530.65   29.10
   6   4   3  485.95   35.90
  -7  -4  -3  142.39   18.50
  -7  -4  -3  159.58   26.30
   7   4   3  163.98   25.30
   7   4   3  192.38   21.60
   8  -5  -3  338.07   41.00
   8  -5  -3  396.56   36.80
   8  -5  -3  403.66   35.50
  -8   5   3  378.66   34.70
  -8   5   3  373.06   37.00
   7  -5  -3   43.90   18.40
   7  -5  -3   49.80   16.50
  -7   5   3   51.59   16.00
  -7   5   3   51.59   15.20
  -7   5   3   75.59   18.10
   6  -5  -3   34.10   12.10
   6  -5  -3   23.70   11.90
   6  -5  -3   18.80    4.50
  -6   5   3   36.60   12.60
  -6   5   3    6.80   10.90
   5  -5  -3  160.48   20.00
  -5   5   3  130.39   18.80
  -5   5   3  162.98   20.60
   4  -5  -3    9.40    8.60
   4  -5  -3    7.40    7.90
  -4   5   3   11.70    8.60
  -4   5   3   20.30    9.10
   3  -5  -3  608.44   29.80
   3  -5  -3  614.24   32.70
   3  -5  -3  593.54   30.20
  -3   5   3  599.74   32.60
  -3   5   3  587.44   30.10
  -3   5   3  571.24   29.90
   2  -5  -3  376.46   21.80
   2  -5  -3  380.86   25.50
   2  -5  -3  377.96   22.90
  -2   5   3  321.17   21.00
  -2   5   3  355.96   24.40
   1  -5  -3 3866.41  102.19
   1  -5  -3 3825.12   97.99
   1  -5  -3 3841.42  106.79
   1  -5  -3 3990.60  106.39
  -1   5   3 3975.90   99.09
  -1   5   3 3799.72   90.39
  -1   5   3 3879.61  106.79
   0  -5  -3  767.42   37.50
   0  -5  -3  748.23   36.10
   0  -5  -3  780.62   31.50
   0   5   3  775.02   31.60
   0   5   3  858.31   38.50
   0   5   3  737.53   27.00
  -1  -5  -3   40.20   11.20
  -1  -5  -3   58.99   13.10
  -1  -5  -3   56.59    8.10
   1   5   3   38.80    8.60
   1   5   3   60.99    9.80
   1   5   3   41.70   11.50
  -2  -5  -3    0.40    4.80
  -2  -5  -3   10.50    8.00
  -2  -5  -3    4.30    7.50
   2   5   3   -0.80    5.30
   2   5   3    7.30    7.50
   2   5   3   -0.90    7.00
  -3  -5  -3  237.18   23.60
  -3  -5  -3  225.68   21.70
  -3  -5  -3  217.08   19.00
   3   5   3  248.48   23.00
   3   5   3  228.08   19.50
   3   5   3  270.07   22.40
  -4  -5  -3  -10.60    8.90
  -4  -5  -3   16.20   10.10
  -4  -5  -3   14.40   11.70
   4   5   3  -13.60    7.90
   4   5   3   13.10   10.10
   4   5   3   -0.60    7.80
  -5  -5  -3   49.50   12.90
  -5  -5  -3   94.29   17.60
  -5  -5  -3   65.19   18.00
   5   5   3   36.20   13.60
   5   5   3   74.59   16.30
  -6  -5  -3    6.60   15.10
  -6  -5  -3  -19.50   13.90
  -6  -5  -3    7.30   12.50
   6   5   3    1.20    9.80
   6   5   3   -4.60   13.50
   6   5   3   23.30   13.90
   8  -6  -3   10.30   18.70
  -8   6   3   41.80   19.30
   7  -6  -3   19.00   15.30
   7  -6  -3  -19.60   15.60
  -7   6   3   -1.80   14.50
  -7   6   3   32.40   16.20
   6  -6  -3   18.00   11.70
   6  -6  -3   12.00   12.30
  -6   6   3    9.30   12.50
  -6   6   3    4.70   11.70
   5  -6  -3   20.70   10.80
   5  -6  -3   12.60   10.00
  -5   6   3   12.90    9.00
  -5   6   3   25.30   11.50
   4  -6  -3  345.67   24.90
   4  -6  -3  380.66   27.00
   4  -6  -3  333.97   26.20
  -4   6   3  374.26   28.00
  -4   6   3  365.26   26.30
   3  -6  -3   26.00    8.80
   3  -6  -3   10.10    8.00
   3  -6  -3   33.10   11.30
  -3   6   3   19.10   13.00
  -3   6   3   28.80    9.40
   2  -6  -3   -3.30    5.40
   2  -6  -3    3.70    7.50
   2  -6  -3   -3.20    6.00
  -2   6   3    5.60    8.80
  -2   6   3    1.30    6.30
   1  -6  -3 1487.15   58.79
   1  -6  -3 1442.26   55.89
   1  -6  -3 1411.76   53.39
   1  -6  -3 1447.76   48.50
  -1   6   3 1394.46   43.10
  -1   6   3 1499.35   58.39
  -1   6   3 1402.16   47.80
   0  -6  -3 1296.37   45.00
   0  -6  -3 1298.37   55.49
   0  -6  -3 1253.57   50.59
   0  -6  -3 1318.97   53.39
   0   6   3 1361.96   45.60
   0   6   3 1283.97   41.80
   0   6   3 1419.26   56.49
  -1  -6  -3  234.48   13.80
  -1  -6  -3  281.77   25.10
   1   6   3  247.38   18.80
   1   6   3  231.38   17.40
   1   6   3  257.87   24.10
  -2  -6  -3   78.59   16.80
  -2  -6  -3  101.29   12.90
  -2  -6  -3   80.79   16.10
   2   6   3   84.79   16.70
   2   6   3   78.49   12.90
  -3  -6  -3  129.79   20.80
  -3  -6  -3   74.79   13.20
  -3  -6  -3   94.99   17.80
   3   6   3   63.39   15.00
   3   6   3  112.69   15.90
  -4  -6  -3   15.20   14.40
  -4  -6  -3   31.70   14.70
  -4  -6  -3   90.99   16.40
   4   6   3   54.19   16.00
   4   6   3   52.09   13.40
   4   6   3   76.69   17.90
  -5  -6  -3   38.80   19.10
  -5  -6  -3   60.09   19.70
  -5  -6  -3   50.19   22.10
   5   6   3   53.89   16.50
  -6  -6  -3  122.19   24.70
  -6  -6  -3  133.59   23.90
  -6  -6  -3  107.89   25.90
   6   6   3  144.79   24.30
   6   6   3   84.79   21.90
   6   6   3  131.39   16.90
   7  -7  -3  199.38   32.50
   7  -7  -3  123.39   15.50
   7  -7  -3  124.79   30.00
  -7   7   3  174.28   29.10
  -7   7   3  149.59   27.10
  -7   7   3  200.18   33.20
   6  -7  -3   97.39   20.80
   6  -7  -3   99.59   19.70
  -6   7   3  137.99   24.00
  -6   7   3   92.19   20.20
   5  -7  -3  209.28   25.10
   5  -7  -3  208.38   25.80
   4  -7  -3   69.79   17.80
   4  -7  -3   82.89   16.10
   4  -7  -3   70.99   15.60
  -4   7   3   48.60   18.70
   3  -7  -3  271.87   21.70
   3  -7  -3  272.47   27.00
  -3   7   3  200.08   25.90
   2  -7  -3  775.32   34.80
   2  -7  -3  820.82   40.80
   2  -7  -3  801.52   44.40
  -2   7   3  847.22   37.40
   1  -7  -3  806.92   34.30
   1  -7  -3  806.52   45.20
   1  -7  -3  822.12   42.00
  -1   7   3  802.72   34.50
  -1   7   3  768.82   31.50
   0  -7  -3   -5.30    5.90
   0  -7  -3    7.20    8.90
   0  -7  -3   -0.60    8.70
   0  -7  -3   14.30   10.20
   0   7   3    8.90    9.70
   0   7   3   -3.10    6.20
   0   7   3   -1.50    6.50
  -1  -7  -3    5.10   11.10
  -1  -7  -3    1.00    4.00
  -1  -7  -3    3.00   10.70
   1   7   3   -7.40    7.00
   1   7   3    6.50   10.90
   1   7   3    7.80    7.20
  -2  -7  -3   92.89   11.60
  -2  -7  -3  102.69   20.50
  -2  -7  -3  112.39   19.50
   2   7   3   60.39   12.20
   2   7   3  128.19   17.80
   2   7   3  132.99   21.60
  -3  -7  -3  121.89   22.80
  -3  -7  -3   88.69   14.50
  -3  -7  -3  103.79   20.80
   3   7   3  136.39   23.00
   3   7   3  101.19   15.00
  -4  -7  -3  134.79   23.70
  -4  -7  -3  123.29   24.50
  -4  -7  -3   83.89   16.00
   4   7   3  148.79   23.60
   4   7   3  106.29   17.00
   4   7   3   96.99   21.90
  -5  -7  -3  203.68   29.60
  -5  -7  -3  238.98   30.20
  -5  -7  -3  154.18   23.90
  -5  -7  -3  120.09   24.80
   5   7   3  223.18   30.50
   5   7   3  163.58   24.20
   6  -8  -3  -12.40   13.90
   6  -8  -3   -4.20   15.50
  -6   8   3    9.40   19.50
  -6   8   3    7.40    6.30
   5  -8  -3  279.57   29.80
   5  -8  -3  250.37   27.80
  -5   8   3  329.47   37.70
   4  -8  -3  125.29   24.40
   4  -8  -3  109.39   19.00
   4  -8  -3  110.09   19.80
  -4   8   3  128.89   24.80
   3  -8  -3  621.24   34.00
   3  -8  -3  580.24   41.10
   3  -8  -3  673.93   40.90
  -3   8   3  669.63   44.00
   2  -8  -3  115.49   22.10
   2  -8  -3  131.99   21.00
   2  -8  -3  137.29   17.80
  -2   8   3  109.59   16.30
   1  -8  -3   -9.00    6.90
   1  -8  -3   17.70   12.70
   1  -8  -3   16.80   13.10
  -1   8   3   15.20    8.00
  -1   8   3    7.30    8.00
   0  -8  -3    7.70   12.30
   0  -8  -3   33.50   12.60
   0  -8  -3   31.70   15.00
   0   8   3   34.60   10.60
   0   8   3   62.79   17.20
   0   8   3   28.30    9.30
  -1  -8  -3  -11.40   11.90
  -1  -8  -3    7.40   12.50
   1   8   3    6.80    7.50
   1   8   3    9.60   13.80
   1   8   3    1.70    8.90
  -2  -8  -3   17.10    7.10
  -2  -8  -3   -1.30   13.00
  -2  -8  -3    1.50   13.80
   2   8   3   20.90   15.00
   2   8   3   19.10    9.50
   2   8   3   11.80   10.20
  -3  -8  -3   45.70   18.30
  -3  -8  -3    8.80   16.50
  -3  -8  -3   39.80   11.80
   3   8   3   55.59   19.30
   3   8   3   40.50   12.50
   3   8   3   41.40   14.10
  -4  -8  -3   20.90   19.70
  -4  -8  -3   33.50   18.70
  -4  -8  -3    2.40   12.60
   4   8   3    2.10   19.90
   4   8   3   21.00   13.00
   5  -9  -3   18.70   16.10
   5  -9  -3   25.50   17.50
  -5   9   3   50.29   24.50
   4  -9  -3  452.65   38.30
   4  -9  -3  376.86   31.40
   4  -9  -3  385.16   37.50
   3  -9  -3   27.10   15.70
   3  -9  -3   45.80   12.50
   3  -9  -3   15.00   16.20
   3  -9  -3   51.69   19.40
  -3   9   3   50.79   21.10
   2  -9  -3   42.80   19.70
   2  -9  -3   78.49   20.80
   2  -9  -3   85.59   20.70
   2  -9  -3  110.19   16.60
  -2   9   3  108.59   24.60
   1  -9  -3  626.04   42.10
   1  -9  -3  722.73   49.60
   1  -9  -3  734.83   45.70
   1  -9  -3  674.53   32.90
  -1   9   3  668.63   32.60
  -1   9   3  648.64   32.80
  -1   9   3  618.34   46.00
   0  -9  -3   43.90   17.70
   0  -9  -3   70.19   17.90
   0  -9  -3   61.89   21.80
   0   9   3   45.60   12.10
   0   9   3   69.49   20.20
   0   9   3   93.19   15.70
  -1  -9  -3  237.38   30.90
  -1  -9  -3  224.58   32.10
  -1  -9  -3  209.68   31.50
   1   9   3  198.68   27.20
   1   9   3  187.48   30.80
   1   9   3  220.98   19.70
  -2  -9  -3   40.40   20.20
  -2  -9  -3   13.60   19.00
   2   9   3   40.20   11.80
   2   9   3   34.40   14.20
   2   9   3   79.19   26.40
  -3  -9  -3   24.80   11.20
  -3  -9  -3   30.50   20.60
  -3  -9  -3    2.00   20.30
   3   9   3   40.30   14.90
   3   9   3   24.60   12.00
   3   9   3   41.80   24.30
   3 -10  -3   72.99   23.40
   3 -10  -3   42.10   29.70
   3 -10  -3  106.49   18.80
   3 -10  -3   53.09   23.20
  -3  10   3   71.39   25.80
   2 -10  -3   13.50   12.10
   2 -10  -3   12.10   18.80
   2 -10  -3   10.20   18.30
   2 -10  -3   34.00   25.50
  -2  10   3   37.60   23.00
   1 -10  -3    6.30   18.20
   1 -10  -3   12.80   17.90
  -1  10   3   27.10   21.20
   0 -10  -3  105.69   24.40
   0 -10  -3   53.39   22.80
   0  10   3   60.39   23.30
   0  10   3   23.50   11.60
   0  10   3  101.09   16.90
  -1 -10  -3   -8.40   17.90
  -1 -10  -3   -0.10   19.60
   1  10   3   -5.70    9.10
   1  10   3    0.90   22.80
   1  10   3    7.60   12.10
   3  11  -4  315.07   33.60
  -3 -11   4  230.58   37.10
  -3 -11   4  242.38   29.00
   2  11  -4  554.04   27.70
   2  11  -4  585.34   44.40
  -2 -11   4  562.74   39.30
  -2 -11   4  542.85   47.90
   1  11  -4   -2.70   20.80
   1  11  -4    5.00   13.80
   1  11  -4    5.60   10.00
  -1 -11   4  -13.00   16.10
  -1 -11   4   10.10    7.80
  -1 -11   4   -4.70   14.20
   0  11  -4   32.00   12.90
   0  11  -4   45.50   19.80
   0  11  -4   31.60   16.40
   0 -11   4   60.69   22.10
   0 -11   4   23.60   15.70
   0 -11   4   37.10   19.20
  -1  11  -4   75.79   21.30
  -1  11  -4   57.49   21.90
  -1  11  -4   74.79   16.90
   1 -11   4   81.09   22.20
   1 -11   4   42.10   19.40
  -2  11  -4   29.50   16.60
  -2  11  -4   54.19   21.50
  -2  11  -4   32.10   15.40
   2 -11   4   47.00   19.60
   2 -11   4    6.10   17.50
  -3  11  -4   26.50   15.80
  -3  11  -4    9.70   19.60
   3 -11   4    4.80    7.30
   3 -11   4   33.60   17.50
   3 -11   4   -0.80   16.00
  -4  11  -4   74.19   23.80
  -4  11  -4   61.89   30.20
   4 -11   4   96.09   14.80
   4 -11   4   90.19   25.40
   4 -11   4  130.39   25.60
   4  10  -4   -2.00   12.60
  -4 -10   4   -3.70   13.80
  -4 -10   4   -7.00   17.20
   3  10  -4   25.80   16.80
  -3 -10   4   -8.30   13.20
  -3 -10   4   17.90   18.60
   2  10  -4   78.19   19.80
   2  10  -4   64.49   10.60
  -2 -10   4   20.00   18.50
  -2 -10   4   70.49   16.60
   1  10  -4   55.29   17.80
   1  10  -4   37.40   17.60
   1  10  -4   46.30   10.80
  -1 -10   4   22.90   15.20
  -1 -10   4   33.60    9.30
  -1 -10   4   30.50   12.70
   0  10  -4   -5.00    8.40
   0  10  -4  -13.20    9.50
   0  10  -4   17.50   15.40
   0 -10   4   -8.70   10.20
   0 -10   4   27.20   14.60
   0 -10   4   12.70    6.50
   0 -10   4    9.80   15.30
  -1  10  -4   53.49   19.10
  -1  10  -4   31.50   13.10
  -1  10  -4   19.90   13.90
   1 -10   4   31.20   14.60
   1 -10   4   15.30   13.80
  -2  10  -4  659.33   38.40
  -2  10  -4  603.84   42.10
   2 -10   4  655.83   20.80
   2 -10   4  635.54   43.40
   2 -10   4  739.33   45.80
  -3  10  -4   16.10   14.30
  -3  10  -4    9.20   13.20
   3 -10   4    1.00    6.50
   3 -10   4   -8.70   14.00
   3 -10   4   -2.40   11.80
  -4  10  -4  204.48   28.10
   4 -10   4  243.18   30.50
   4 -10   4  217.48   20.40
   4 -10   4  177.68   27.60
  -5  10  -4   17.30   18.00
   5 -10   4    4.60   11.80
   5 -10   4   -1.00   13.00
   5 -10   4   18.90   14.80
   5   9  -4  321.97   14.20
   5   9  -4  326.67   18.80
  -5  -9   4  322.97   38.50
  -5  -9   4  327.97   31.30
   4   9  -4  321.67   32.40
  -4  -9   4  298.27   33.60
  -4  -9   4  329.17   33.10
   3   9  -4   27.50   13.80
  -3  -9   4   12.60   10.90
  -3  -9   4   30.00   16.00
   2   9  -4  469.55   21.80
   2   9  -4  459.35   35.50
  -2  -9   4  386.46   35.40
  -2  -9   4  483.05   30.80
   1   9  -4  299.17   28.70
   1   9  -4  288.57   19.20
  -1  -9   4  291.07   29.70
  -1  -9   4  287.47   23.70
   0   9  -4   17.80    8.50
   0   9  -4   43.40   14.80
   0   9  -4   40.90   15.10
   0  -9   4   58.69   16.60
   0  -9   4   43.80    8.60
  -1   9  -4   81.39   17.80
  -1   9  -4   60.59   16.70
  -1   9  -4   72.29   13.50
   1  -9   4   56.69    8.80
   1  -9   4   48.20   15.00
   1  -9   4   69.29   18.40
  -2   9  -4   60.69   16.20
  -2   9  -4   55.59   15.90
  -2   9  -4   67.79   17.40
   2  -9   4   67.99    8.20
   2  -9   4   67.89   16.60
  -3   9  -4  270.97   27.70
  -3   9  -4  296.17   27.60
  -3   9  -4  258.57   26.20
   3  -9   4  249.97   33.70
   3  -9   4  251.37   26.90
   3  -9   4  278.97   18.40
  -4   9  -4  793.92   44.40
  -4   9  -4  710.03   43.20
   4  -9   4  771.82   43.20
   4  -9   4  786.22   45.90
   4  -9   4  752.62   35.80
  -5   9  -4  663.53   41.40
  -5   9  -4  698.13   44.70
   5  -9   4  674.73   43.90
   5  -9   4  713.93   39.20
   5  -9   4  644.54   37.80
  -6   9  -4    8.70   19.70
  -6   9  -4   22.80   15.10
  -6   9  -4    3.70   12.40
   6  -9   4   -4.30   19.60
   6  -9   4   15.40   12.20
   6  -9   4   -6.90    7.80
   6  -9   4  -10.60   14.20
   6   8  -4    3.70   10.40
  -6  -8   4   -1.60   16.30
  -6  -8   4   20.40   13.80
  -6  -8   4    5.30   16.90
   5   8  -4   30.50    8.60
  -5  -8   4   32.60   13.00
  -5  -8   4   18.90   15.40
   4   8  -4   27.90    4.90
   4   8  -4   20.50    4.60
  -4  -8   4   25.60   12.30
  -4  -8   4   37.00   11.90
   3   8  -4  507.15   36.20
  -3  -8   4  549.65   39.00
  -3  -8   4  455.55   28.70
   2   8  -4  320.87   28.10
   2   8  -4  321.47   16.50
  -2  -8   4  288.97   29.00
  -2  -8   4  339.87   23.40
   1   8  -4  518.15   24.50
   1   8  -4  546.75   35.30
   1   8  -4  544.35   35.60
  -1  -8   4  496.05   27.80
  -1  -8   4  454.35   34.30
   0   8  -4  590.74   37.80
   0   8  -4  613.64   29.30
   0   8  -4  689.43   39.20
   0  -8   4  608.44   37.70
   0  -8   4  598.74   26.20
  -1   8  -4  108.19   18.70
  -1   8  -4  128.59   20.90
  -1   8  -4  118.49   15.90
   1  -8   4  133.49    6.50
   1  -8   4  135.99   13.00
   1  -8   4  127.89    6.80
   1  -8   4  161.78   21.90
   1  -8   4  158.38   21.90
  -2   8  -4    0.60    8.00
  -2   8  -4   10.20    8.80
  -2   8  -4    1.00    8.50
   2  -8   4   -8.00    3.90
   2  -8   4   -4.40    7.00
   2  -8   4    6.30    8.10
  -3   8  -4   54.49   13.60
  -3   8  -4   70.39   16.40
   3  -8   4   46.20   13.80
   3  -8   4   56.49   10.30
   3  -8   4   58.09   13.70
  -4   8  -4   21.20   10.90
  -4   8  -4   47.80   14.00
   4  -8   4   20.00   10.30
   4  -8   4   21.00    9.00
   4  -8   4   18.40    8.00
   4  -8   4   20.60   11.70
  -5   8  -4   21.60   11.70
  -5   8  -4   19.20    9.60
  -5   8  -4    7.60   13.30
   5  -8   4   32.90   10.40
   5  -8   4   15.30   12.00
   5  -8   4   29.40    8.50
   5  -8   4   19.50   11.80
  -6   8  -4   31.40   16.70
  -6   8  -4    5.70   11.90
   6  -8   4  -17.60   12.40
   6  -8   4   15.20    6.90
   6  -8   4   15.10   13.90
   6  -8   4   -5.50   13.10
  -7   8  -4   -9.70   12.50
  -7   8  -4    2.40   17.60
  -7   8  -4   -1.20   14.10
  -7   8  -4   -2.80   18.80
   7  -8   4    3.30   16.90
   7  -8   4   33.20   20.30
   7  -8   4   -3.70   18.60
   7   7  -4   42.60   19.20
   7   7  -4   69.79   17.90
  -7  -7   4   62.39   16.40
  -7  -7   4   72.49   21.20
  -7  -7   4   80.59   25.10
   6   7  -4   12.20   10.00
  -6  -7   4   17.40   13.50
  -6  -7   4   13.60   15.40
  -6  -7   4  -14.60   10.10
   5   7  -4  180.98   16.10
  -5  -7   4  176.98   20.60
  -5  -7   4  154.58   24.90
   4   7  -4  911.01   30.20
  -4  -7   4  905.71   38.20
  -4  -7   4  866.11   47.70
   3   7  -4  477.15   14.00
  -3  -7   4  512.25   34.90
  -3  -7   4  428.96   25.10
   2   7  -4  179.28   11.00
   2   7  -4  154.68   21.40
  -2  -7   4  159.38   15.00
  -2  -7   4  135.39   20.40
   1   7  -4    0.00    4.40
   1   7  -4    2.90    8.10
   1   7  -4    6.00    7.40
  -1  -7   4   16.00    9.40
  -1  -7   4   13.50    6.40
   0   7  -4  671.83   28.90
   0   7  -4  759.22   38.00
   0  -7   4  650.53   27.40
   0  -7   4  713.83   38.30
  -1   7  -4  221.68   18.10
  -1   7  -4  181.58   26.40
  -1   7  -4  208.78   20.20
   1  -7   4  199.08   20.00
   1  -7   4  192.08   19.70
   1  -7   4  210.28   15.10
   1  -7   4  204.48    9.90
  -2   7  -4 2590.64   78.89
  -2   7  -4 2535.55   81.59
  -2   7  -4 2410.96   75.29
   2  -7   4 2426.56   77.79
   2  -7   4 2448.75   78.59
  -3   7  -4  723.53   37.00
  -3   7  -4  694.43   35.40
   3  -7   4  747.83   36.30
   3  -7   4  717.03   36.60
  -4   7  -4   36.60    9.20
  -4   7  -4   22.30    9.60
  -4   7  -4   21.70    9.60
   4  -7   4   19.10    8.90
   4  -7   4   32.00   20.90
   4  -7   4   17.70    7.10
  -5   7  -4  490.05   34.60
  -5   7  -4  464.25   27.80
  -5   7  -4  478.85   28.30
   5  -7   4  483.85   32.50
   5  -7   4  483.15   33.20
   5  -7   4  489.45   26.30
   5  -7   4  486.75   22.10
  -6   7  -4  157.68   17.50
  -6   7  -4  111.49   20.70
  -6   7  -4  111.69   21.40
  -6   7  -4  132.89   22.30
   6  -7   4  139.99   21.40
   6  -7   4  136.99   22.90
  -7   7  -4   58.99   16.30
  -7   7  -4   40.00   17.00
  -7   7  -4   45.10   23.80
  -7   7  -4   41.00   11.20
   7  -7   4   49.10   17.20
   7  -7   4   77.19   18.00
   7   6  -4   47.30   15.70
   7   6  -4   39.30   13.30
  -7  -6   4   21.50   15.90
   6   6  -4  187.68   21.60
   6   6  -4  163.78   18.00
  -6  -6   4  143.09   18.10
  -6  -6   4  149.39   23.20
   5   6  -4 1179.48   43.00
   5   6  -4 1178.08   44.00
   4   6  -4  222.88   14.70
  -4  -6   4  183.18   15.70
  -4  -6   4  193.38   21.60
   3   6  -4  170.18   10.20
  -3  -6   4  162.88   14.10
  -3  -6   4  166.68   21.40
   2   6  -4    5.10    6.40
  -2  -6   4   -8.80    6.20
  -2  -6   4    5.90    5.30
   1   6  -4   41.30    7.30
   1   6  -4   34.80   11.80
  -1  -6   4   49.60    8.40
  -1  -6   4   42.20   10.60
   0   6  -4   85.29   13.90
   0   6  -4   82.19   14.50
   0   6  -4  105.59   12.00
   0  -6   4   84.29    3.20
   0  -6   4   69.99   13.10
   0  -6   4   97.29   11.40
   0  -6   4   76.89    3.00
  -1   6  -4    6.30    6.30
  -1   6  -4   -1.90    6.50
  -1   6  -4   -0.40    4.60
   1  -6   4    0.50    4.30
   1  -6   4    8.10    6.60
   1  -6   4   10.20    6.10
  -2   6  -4    0.50    7.10
  -2   6  -4   10.20    6.80
  -2   6  -4    8.30    6.60
   2  -6   4    6.80    5.90
   2  -6   4    2.70    6.00
   2  -6   4   17.60    6.20
  -3   6  -4   11.90    6.50
  -3   6  -4    3.30    6.90
  -3   6  -4    1.40    4.90
   3  -6   4   12.00    7.20
   3  -6   4    4.00    5.80
   3  -6   4    8.60    5.10
  -4   6  -4  629.34   29.20
  -4   6  -4  595.74   30.00
  -4   6  -4  537.25   32.80
  -4   6  -4  568.14   31.80
   4  -6   4  654.83   28.10
   4  -6   4  594.94   32.30
   4  -6   4  576.14   24.10
   4  -6   4  632.14   33.60
  -5   6  -4   50.19   13.50
  -5   6  -4   35.70    9.00
  -5   6  -4   38.70   10.80
  -5   6  -4   21.20   10.60
   5  -6   4   28.40    6.40
   5  -6   4   39.70    8.10
   5  -6   4   40.50   12.20
   5  -6   4   22.90   12.00
  -6   6  -4  646.84   41.40
  -6   6  -4  616.04   26.90
  -6   6  -4  592.94   38.50
   6  -6   4  614.84   35.70
   6  -6   4  636.94   39.30
  -7   6  -4  204.28   28.80
  -7   6  -4  261.57   28.10
  -7   6  -4  246.18   30.30
   7  -6   4  217.28   26.60
   7  -6   4  228.78   29.00
   8   5  -4   -0.80   15.90
   8   5  -4   29.10   13.80
  -8  -5   4   11.70   14.90
  -8  -5   4    4.00   16.80
   7   5  -4  -10.80    8.60
   7   5  -4   34.80   14.50
  -7  -5   4   36.80   14.80
  -7  -5   4    5.20    9.70
  -7  -5   4    3.20   12.20
   6   5  -4  169.38   21.10
   6   5  -4  160.28   16.90
  -6  -5   4  189.28   18.20
  -6  -5   4  150.38   36.90
   5   5  -4 1397.56   46.70
   5   5  -4 1479.75   50.49
  -5  -5   4 1401.16   57.19
  -5  -5   4 1403.26   56.59
  -5  -5   4 1418.46   47.00
   4   5  -4 1561.44   47.40
   4   5  -4 1542.15   46.40
  -4  -5   4 1472.75   45.80
  -4  -5   4 1487.15   56.79
  -3  -5   4  195.08   18.90
  -3  -5   4  189.58   12.80
   2   5  -4  783.62   22.70
  -2  -5   4  860.71   37.30
  -2  -5   4  794.12   27.70
   1   5  -4 1247.38   47.20
   1   5  -4 1255.47   36.10
  -1  -5   4 1324.67   47.20
   0   5  -4  177.58   16.60
   0   5  -4  211.08   13.30
   0  -5   4  203.18    8.90
   0  -5   4  200.18   16.80
  -1   5  -4   80.89   13.00
  -1   5  -4   71.19   10.90
  -1   5  -4   53.49    8.90
   1  -5   4   71.49    9.80
   1  -5   4   71.49   10.30
   1  -5   4   61.49   10.70
   1  -5   4   51.59    9.50
  -2   5  -4 1710.33   51.69
  -2   5  -4 1670.53   49.80
  -2   5  -4 1617.94   55.19
  -2   5  -4 1682.23   53.59
   2  -5   4 1606.44   51.59
   2  -5   4 1805.62   54.29
   2  -5   4 1636.84   50.89
   2  -5   4 1613.84   48.40
   2  -5   4 1635.34   51.79
  -3   5  -4 2383.56   64.99
  -3   5  -4 2326.87   67.09
  -3   5  -4 2347.47   71.89
  -3   5  -4 2405.56   70.09
   3  -5   4 2383.16   64.59
   3  -5   4 2377.76   70.49
   3  -5   4 2353.56   68.49
   3  -5   4 2349.96   61.89
  -4   5  -4  316.27   22.20
  -4   5  -4  347.77   22.40
  -4   5  -4  361.36   18.60
  -4   5  -4  350.86   24.80
   4  -5   4  337.37   16.30
   4  -5   4  376.16   24.90
   4  -5   4  369.06   23.10
   4  -5   4  331.87   17.20
  -5   5  -4  118.29   20.70
  -5   5  -4   68.29   13.40
   5  -5   4   92.59   14.40
  -6   5  -4  115.59   18.60
  -6   5  -4  119.29    9.40
  -6   5  -4   88.39   17.30
  -6   5  -4  136.39   20.40
   6  -5   4  167.18   21.00
   6  -5   4  139.09   20.20
  -7   5  -4  151.88   22.80
  -7   5  -4  137.49   22.80
  -7   5  -4  100.39   20.10
   7  -5   4  126.19   20.60
   7  -5   4  130.29   22.80
  -8   5  -4   98.99   24.60
  -8   5  -4  157.78   25.80
   8  -5   4  184.68   28.80
   8  -5   4  129.49   23.00
   8   4  -4  238.98   31.10
   8   4  -4  140.09   20.30
  -8  -4   4  157.58   27.60
  -8  -4   4  195.98   25.40
  -8  -4   4  169.98   19.30
   7   4  -4  327.67   29.30
   7   4  -4  322.77   23.80
  -7  -4   4  362.26   34.80
   6   4  -4  190.88   16.80
   6   4  -4  222.08   21.40
  -6  -4   4  223.98   21.60
  -6  -4   4  205.28   17.40
   5   4  -4  341.97   19.20
   5   4  -4  361.16   23.10
  -5  -4   4  316.47   18.70
  -5  -4   4  316.27   23.50
  -5  -4   4  370.46   25.80
   4   4  -4   15.70    5.00
   4   4  -4   27.60    7.30
  -4  -4   4   27.20    5.70
  -4  -4   4   29.50    9.10
  -4  -4   4   22.20    8.60
   3   4  -4   54.59    7.80
   3   4  -4   50.79    6.50
  -3  -4   4   50.49    6.20
  -3  -4   4   57.09   10.40
   2   4  -4   12.70    3.70
  -2  -4   4   21.00    4.10
  -2  -4   4   18.90    6.30
   1   4  -4  494.65   25.50
   1   4  -4  501.95   16.60
  -1  -4   4  483.85   17.30
  -1  -4   4  514.55   24.80
  -1  -4   4  514.95   15.90
   0   4  -4  819.92   33.20
   0  -4   4  853.81   32.50
   0  -4   4  868.61   25.50
   0  -4   4  839.52   27.70
  -1   4  -4 1198.98   38.30
  -1   4  -4 1191.38   41.00
   1  -4   4 1141.59   37.80
   1  -4   4 1109.09   37.80
   1  -4   4 1140.59   36.90
   1  -4   4 1151.68   36.30
   1  -4   4 1135.39   37.20
  -2   4  -4 3068.19   78.69
  -2   4  -4 2899.01   78.99
  -2   4  -4 2836.82   74.79
  -2   4  -4 2829.52   74.99
  -2   4  -4 2816.72   77.09
   2  -4   4 2759.02   72.29
   2  -4   4 2827.32   76.09
   2  -4   4 2857.91   76.39
   2  -4   4 2801.52   70.79
   2  -4   4 2911.01   75.09
   2  -4   4 2866.41   73.89
  -3   4  -4   38.00    8.40
  -3   4  -4   30.90    5.80
  -3   4  -4   36.00    8.30
  -3   4  -4   37.60    8.10
   3  -4   4   32.80    5.80
   3  -4   4   17.80    6.00
   3  -4   4   28.90    5.50
   3  -4   4   29.70    8.30
   3  -4   4   35.20    8.30
  -4   4  -4  476.45   27.50
  -4   4  -4  487.55   17.70
  -4   4  -4  445.06   24.70
  -4   4  -4  486.85   26.70
   4  -4   4  465.85   24.80
   4  -4   4  517.05   27.90
   4  -4   4  485.05   27.90
  -5   4  -4    4.80    7.00
  -5   4  -4    2.80    7.70
  -5   4  -4    7.60    7.60
   5  -4   4    5.70    7.00
   5  -4   4    6.50    7.90
  -6   4  -4   36.80   12.10
  -6   4  -4   42.50   12.30
  -6   4  -4   23.70   10.00
   6  -4   4   19.50   10.60
  -7   4  -4   73.79   18.30
  -7   4  -4   77.89   18.00
   7  -4   4   86.99   16.70
   7  -4   4  118.29   20.30
  -8   4  -4    6.10   17.00
  -8   4  -4   36.70   17.50
   8  -4   4   19.40   14.70
   8  -4   4    6.20   13.80
   8   3  -4   46.60   18.10
   8   3  -4   20.00   10.30
  -8  -3   4   38.60   16.60
  -8  -3   4   34.30    9.30
  -8  -3   4   49.90   15.60
   7   3  -4  734.53   34.00
   7   3  -4  764.42   43.00
  -7  -3   4  736.63   31.70
   6   3  -4  788.72   32.70
   6   3  -4  858.91   41.70
  -6  -3   4  870.41   33.80
  -6  -3   4  850.31   42.00
   5   3  -4    8.10    7.50
   5   3  -4   -2.30    3.70
  -5  -3   4    0.50    6.00
   4   3  -4  244.98   13.00
   4   3  -4  296.67   18.70
  -4  -3   4  243.68   13.50
  -4  -3   4  255.27    7.90
  -4  -3   4  238.58   18.20
   3   3  -4  191.28   13.30
   3   3  -4  196.88    9.50
  -3  -3   4  190.68   14.80
  -3  -3   4  206.88    9.60
   2   3  -4  213.38   12.00
  -2  -3   4  215.18   11.80
  -2  -3   4  218.78    7.80
   1   3  -4   72.09   10.70
   1   3  -4   79.79    7.00
  -1  -3   4   71.09    9.00
  -1  -3   4   87.69    6.70
  -1  -3   4   72.09    6.10
   0   3  -4  810.52   29.90
   0  -3   4  804.02   25.90
   0  -3   4  803.52   27.40
   0  -3   4  809.22   26.70
   0  -3   4  814.02   28.20
  -1   3  -4 1681.43   48.70
  -1   3  -4 1626.24   47.30
   1  -3   4 1625.64   46.50
   1  -3   4 1638.34   44.60
   1  -3   4 1567.24   45.20
   1  -3   4 1684.83   45.00
   1  -3   4 1715.53   44.50
   1  -3   4 1654.83   48.10
  -2   3  -4 5445.96  126.99
  -2   3  -4 5344.17  122.39
  -2   3  -4 5314.57  126.69
   2  -3   4 5448.05  125.29
   2  -3   4 5232.88  126.09
   2  -3   4 5552.44  128.39
   2  -3   4 5323.77  119.79
   2  -3   4 5258.77  118.39
   2  -3   4 5434.06  121.49
  -3   3  -4 1453.15   48.40
  -3   3  -4 1416.16   47.70
  -3   3  -4 1383.16   43.80
   3  -3   4 1457.55   43.80
   3  -3   4 1558.84   49.50
   3  -3   4 1517.15   48.30
   3  -3   4 1389.96   34.30
  -4   3  -4  554.14   26.70
  -4   3  -4  576.14   29.90
  -4   3  -4  569.54   29.10
   4  -3   4  542.95   25.70
   4  -3   4  642.94   30.70
   4  -3   4  597.04   29.70
  -5   3  -4  221.38   18.20
  -5   3  -4  217.78   20.90
   5  -3   4  228.28   18.10
   5  -3   4  180.98   19.00
   5  -3   4  198.08   19.10
  -6   3  -4  212.98   20.50
  -6   3  -4  233.28   23.90
   6  -3   4  210.68   24.20
   6  -3   4  205.48   22.00
   6  -3   4  235.08   20.20
  -7   3  -4  138.49   23.00
   7  -3   4  156.88   21.30
   7  -3   4  159.68   23.30
  -8   3  -4   25.60   16.50
  -8   3  -4    7.90   17.50
   8  -3   4   38.10   14.80
   8  -3   4    7.70   14.70
   9   2  -4   27.80   23.40
   9   2  -4   31.90   13.70
  -9  -2   4   62.69   18.10
  -9  -2   4   48.50   23.00
   8   2  -4  324.37   25.10
   8   2  -4  346.97   35.70
  -8  -2   4  312.57   17.60
  -8  -2   4  368.06   32.50
   7   2  -4   98.39   13.80
   7   2  -4  123.59   21.00
  -7  -2   4   98.59   11.20
  -7  -2   4  108.79   10.90
   6   2  -4   81.49   15.70
   6   2  -4   85.29   11.90
  -6  -2   4   67.49    8.10
  -6  -2   4  100.59   10.50
  -6  -2   4   90.09   15.30
   5   2  -4 1354.46   50.79
   5   2  -4 1312.47   40.70
  -5  -2   4 1334.77   40.90
  -5  -2   4 1363.06   36.90
  -5  -2   4 1425.26   50.59
   4   2  -4   38.90    8.60
   4   2  -4   37.40    5.70
  -4  -2   4   47.10    7.40
  -4  -2   4   44.30    9.10
   3   2  -4 3123.09   68.79
   3   2  -4 3022.40   78.79
  -3  -2   4 3132.39   75.89
  -3  -2   4 3109.49   79.29
   2   2  -4  724.03   25.90
  -2  -2   4  726.73   25.50
  -2  -2   4  736.83   25.30
  -2  -2   4  742.13   25.50
   1   2  -4 2831.82   68.69
  -1  -2   4 2900.51   69.19
  -1  -2   4 2761.82   58.49
  -1  -2   4 2831.92   67.89
   0   2  -4  644.44   23.30
   0   2  -4  621.84   25.70
   0   2  -4  667.43   23.50
   0  -2   4  633.14   22.00
   0  -2   4  640.84   23.50
   0  -2   4  630.24   24.00
   0  -2   4  623.14   19.00
  -1   2  -4  426.46   18.10
  -1   2  -4  394.96   19.10
  -1   2  -4  380.86   18.80
  -1   2  -4  414.26   19.10
   1  -2   4  351.26   15.50
   1  -2   4  378.36   18.60
   1  -2   4  364.96   17.40
   1  -2   4  401.96   14.10
   1  -2   4  372.06   22.20
   1  -2   4  413.66   16.90
  -2   2  -4   98.79   10.60
  -2   2  -4   97.09    9.70
  -2   2  -4  103.89    9.70
   2  -2   4   97.29   10.30
   2  -2   4  119.29   10.50
   2  -2   4  101.59    7.80
   2  -2   4   98.39    5.70
  -3   2  -4    9.60    5.70
  -3   2  -4    0.70    3.60
  -3   2  -4    1.30    4.60
   3  -2   4    0.90    4.00
   3  -2   4    6.80    4.40
   3  -2   4   -1.10    3.00
  -4   2  -4  203.88   17.40
  -4   2  -4  217.48   17.80
  -4   2  -4  199.48   15.00
  -4   2  -4  186.98   15.00
   4  -2   4  234.18   15.40
   4  -2   4  219.48   17.90
   4  -2   4  213.38   17.20
  -5   2  -4    5.30    7.30
  -5   2  -4    1.00    5.60
   5  -2   4    2.40    6.80
   5  -2   4    3.40    6.70
   5  -2   4   -5.90    4.90
  -6   2  -4  281.87   28.30
  -6   2  -4  233.68   24.60
  -6   2  -4  273.57   15.40
   6  -2   4  236.38   21.00
   6  -2   4  307.17   25.30
   6  -2   4  290.57   24.60
  -7   2  -4  176.28   26.20
   7  -2   4  155.48   20.30
   7  -2   4  169.58   23.80
  -8   2  -4  187.18   30.70
  -8   2  -4  201.58   27.40
   8  -2   4  168.68   25.00
   8  -2   4  210.98   28.80
   9   1  -4   40.50   13.30
   9   1  -4   46.00   25.10
  -9  -1   4   32.80   11.50
  -9  -1   4   34.60   20.30
   8   1  -4   71.39   22.40
   8   1  -4   42.50   12.10
  -8  -1   4   51.59   15.70
  -8  -1   4   49.60   10.70
   7   1  -4  173.38   24.80
   7   1  -4  193.58   17.70
  -7  -1   4  196.28   24.70
  -7  -1   4  189.98   11.70
  -7  -1   4  222.78   16.20
   6   1  -4  730.33   30.40
   6   1  -4  647.44   34.70
   6   1  -4  771.12   40.00
  -6  -1   4  686.33   27.30
  -6  -1   4  730.63   24.70
   5   1  -4   67.49    9.00
   5   1  -4   89.59   13.00
   5   1  -4   76.69   13.60
  -5  -1   4   64.89    7.80
  -5  -1   4   84.49   12.40
   4   1  -4  147.29   14.20
   4   1  -4  137.99    9.80
   4   1  -4  141.39   13.20
  -4  -1   4  143.79    9.90
  -4  -1   4  148.99   13.10
   3   1  -4  271.27   15.50
   3   1  -4  275.47   17.00
   3   1  -4  255.07   10.60
  -3  -1   4  237.88   12.50
  -3  -1   4  272.37   15.30
  -3  -1   4  262.87   16.40
   2   1  -4  730.53   23.70
   2   1  -4  700.23   26.50
  -2  -1   4  695.13   24.10
  -2  -1   4  736.93   27.40
  -2  -1   4  720.43   23.80
   1   1  -4 2730.63   60.19
   1   1  -4 2888.41   66.69
  -1  -1   4 2761.12   68.79
  -1  -1   4 2835.42   66.79
  -1  -1   4 2674.93   61.79
   0   1  -4 9999.00  199.08
   0   1  -4 8997.20  211.98
   0  -1   4 9708.23  203.68
   0  -1   4 9021.80  199.08
  -1   1  -4  352.26   17.80
  -1   1  -4  372.36   16.40
  -1   1  -4  364.46   18.10
  -1   1  -4  347.67   11.30
   1  -1   4  338.87   17.90
   1  -1   4  371.06   16.40
   1  -1   4  347.27   11.00
   1  -1   4  372.06   18.10
  -2   1  -4  148.39   10.40
  -2   1  -4  135.49   12.40
  -2   1  -4  161.78   12.40
  -2   1  -4  165.28    9.20
   2  -1   4  138.19   11.80
   2  -1   4  151.28    6.00
   2  -1   4  153.58    8.90
   2  -1   4  168.98   12.40
  -3   1  -4  372.36   16.80
  -3   1  -4  358.26   21.70
  -3   1  -4  361.76   17.10
  -3   1  -4  386.56   21.50
   3  -1   4  385.36   20.90
   3  -1   4  376.76   21.00
   3  -1   4  380.76   17.40
  -4   1  -4   -1.00    3.10
  -4   1  -4   -3.30    3.80
  -4   1  -4    8.40    5.40
  -4   1  -4    6.10    6.40
   4  -1   4   -5.60    4.40
   4  -1   4   -7.00    4.40
   4  -1   4   -4.40    3.70
  -5   1  -4   72.29   11.80
  -5   1  -4   72.09   13.80
  -5   1  -4   58.49    8.10
  -5   1  -4   68.39   13.70
   5  -1   4   62.99   11.20
   5  -1   4   50.69   11.20
   5  -1   4   75.39   13.30
  -6   1  -4   47.30    7.30
  -6   1  -4   55.49   11.90
  -6   1  -4   31.90   13.00
  -6   1  -4   43.70   12.80
   6  -1   4   46.80   11.50
   6  -1   4   70.79   13.40
   6  -1   4   60.49   14.00
  -7   1  -4  223.38   29.90
  -7   1  -4  165.48   11.70
  -7   1  -4  132.79   24.90
   7  -1   4  183.88   22.10
   7  -1   4  127.29   19.80
   7  -1   4  170.28   23.60
  -8   1  -4  397.36   35.50
  -8   1  -4  401.96   40.40
   8  -1   4  363.96   34.80
   9   0  -4  -29.40   11.10
  -9   0   4   13.40   10.90
  -9   0   4   -0.20   16.00
   8   0  -4  536.85   44.10
   8   0  -4  534.05   37.00
  -8   0   4  538.55   29.30
  -8   0   4  472.95   36.20
   7   0  -4 1323.47   48.70
   7   0  -4 1333.77   63.59
   7   0  -4 1300.87   54.79
  -7   0   4 1377.96   47.00
  -7   0   4 1297.57   54.89
   6   0  -4   20.50    6.90
   6   0  -4   18.70   12.50
   6   0  -4    7.80    7.60
  -6   0   4    2.40    5.60
  -6   0   4   13.60   10.10
   5   0  -4  449.86   25.40
   5   0  -4  489.95   22.00
   5   0  -4  469.15   28.50
  -5   0   4  473.15   25.50
   4   0  -4   78.89   11.00
   4   0  -4   74.89   12.40
  -4   0   4   95.59   11.70
   3   0  -4   -0.90    4.40
   3   0  -4    4.90    3.10
   3   0  -4    2.80    3.80
  -3   0   4    5.70    5.10
  -3   0   4    5.80    3.60
   2   0  -4   71.49    9.70
   2   0  -4   67.09    6.50
   2   0  -4   72.69    6.90
  -2   0   4   57.59    6.10
  -2   0   4   66.19    8.80
   1   0  -4 2024.60   52.19
   1   0  -4 2006.90   45.60
   1   0  -4 2041.70   49.30
   1   0  -4 1977.60   54.59
  -1   0   4 1987.90   45.30
   0   0  -4  114.29    5.90
   0   0  -4  125.19    8.70
   0   0  -4  133.59   11.30
   0   0   4  111.89    8.70
   0   0   4  116.39    9.60
   0   0   4  110.39    6.60
  -1   0  -4  240.88   13.90
  -1   0  -4  241.58   14.60
  -1   0  -4  238.48    8.40
   1   0   4  244.98   11.40
   1   0   4  246.78   14.10
   1   0   4  249.78   14.70
   1   0   4  241.88   11.10
   1   0   4  233.18   15.70
  -2   0  -4  773.22   29.90
  -2   0  -4  809.42   24.00
  -2   0  -4  801.72   31.20
   2   0   4  755.32   22.50
   2   0   4  740.73   29.40
  -3   0  -4   13.50    6.10
  -3   0  -4   17.20    6.80
  -3   0  -4   22.90    5.30
   3   0   4   18.40    3.00
   3   0   4   23.30    7.00
   3   0   4   11.20    5.90
  -4   0  -4 2291.47   70.69
  -4   0  -4 2260.17   63.59
  -4   0  -4 2342.57   73.39
   4   0   4 2243.38   66.59
   4   0   4 2269.07   70.19
  -5   0  -4   96.39   13.60
  -5   0  -4   90.79   16.40
   5   0   4  101.59   16.70
   5   0   4  111.49   15.70
  -6   0  -4  436.46   31.10
  -6   0  -4  352.36   27.10
  -6   0  -4  381.56   30.90
   6   0   4  381.46   29.00
   6   0   4  389.96   27.30
  -7   0  -4   79.49   10.70
  -7   0  -4   46.00   16.80
  -7   0  -4   61.69   17.80
   7   0   4   49.10   14.70
   7   0   4   59.89   16.00
  -8   0  -4    1.60   20.70
  -8   0  -4    3.50   16.00
  -8   0  -4    6.30    6.60
   8   0   4   11.60   14.90
   9  -1  -4   -0.50   12.00
   9  -1  -4  -15.60   22.80
  -9   1   4   16.20   15.00
  -9   1   4   13.30   17.50
  -9   1   4   -2.10   12.00
   8  -1  -4  115.89   19.60
   8  -1  -4  116.29   17.40
   8  -1  -4  134.39   27.60
  -8   1   4  112.49   16.10
  -8   1   4  155.58   22.20
  -8   1   4   82.89   19.10
   7  -1  -4  933.81   45.00
   7  -1  -4  925.81   40.40
  -7   1   4  946.61   39.70
  -7   1   4  932.31   45.50
   6  -1  -4  271.17   26.00
   6  -1  -4  287.37   22.80
   6  -1  -4  314.67   20.50
   5  -1  -4  809.12   35.10
   5  -1  -4  840.42   39.20
  -5   1   4  795.62   34.70
   4  -1  -4  328.67   19.30
   4  -1  -4  327.97   14.00
   4  -1  -4  361.56   22.20
  -4   1   4  343.87   19.40
   3  -1  -4 1643.04   52.49
   3  -1  -4 1689.53   47.50
   3  -1  -4 1693.33   44.10
  -3   1   4 1605.44   46.80
  -3   1   4 1694.73   53.19
   2  -1  -4 1034.00   29.70
   2  -1  -4  971.80   35.00
  -2   1   4  982.90   33.70
  -2   1   4  928.61   32.60
  -2   1   4  990.50   35.10
   1  -1  -4  791.42   29.30
   1  -1  -4  802.12   27.40
   1  -1  -4  782.42   22.10
  -1   1   4  844.12   30.50
  -1   1   4  747.53   27.40
  -1   1   4  740.23   22.10
   0  -1  -4 2688.93   68.79
   0  -1  -4 2708.13   59.99
   0  -1  -4 2753.02   72.19
   0   1   4 2735.53   72.39
   0   1   4 2690.83   70.59
   0   1   4 2654.63   56.79
   0   1   4 2777.52   67.79
  -1  -1  -4  931.01   32.10
  -1  -1  -4  967.80   29.40
  -1  -1  -4  886.81   32.40
   1   1   4  934.11   33.10
   1   1   4  923.81   34.90
   1   1   4  924.71   31.20
  -2  -1  -4   64.79    8.80
  -2  -1  -4   85.89   11.20
  -2  -1  -4   60.69   10.00
  -2  -1  -4   69.29    7.00
   2   1   4   98.69   12.20
   2   1   4   79.39   11.90
   2   1   4   82.69    8.20
  -3  -1  -4   42.80    5.90
  -3  -1  -4   44.60    9.30
  -3  -1  -4   44.70    9.90
  -3  -1  -4   26.00    6.10
   3   1   4   33.10    7.80
   3   1   4   27.00    5.60
  -4  -1  -4  283.97   13.20
  -4  -1  -4  312.37   18.60
  -4  -1  -4  294.47   22.10
  -4  -1  -4  266.87   21.90
   4   1   4  229.38   17.80
   4   1   4  266.57   20.90
  -5  -1  -4   25.30   10.30
  -5  -1  -4   36.10   10.70
  -5  -1  -4   26.30    4.90
  -5  -1  -4   44.80   10.40
   5   1   4   32.90    9.50
   5   1   4    4.30    6.20
  -6  -1  -4  952.70   25.90
  -6  -1  -4 1000.70   51.99
  -6  -1  -4 1003.90   49.00
   6   1   4  890.01   45.70
   6   1   4  961.00   42.90
  -7  -1  -4 1012.80   57.09
  -7  -1  -4 1050.89   54.89
   7   1   4 1099.69   49.20
   7   1   4 1036.90   52.29
  -8  -1  -4   57.19   22.50
  -8  -1  -4   41.90   21.70
  -8  -1  -4   71.39   20.70
   9  -2  -4  349.57   43.80
   9  -2  -4  321.47   31.10
   9  -2  -4  284.07   35.90
  -9   2   4  222.58   32.30
  -9   2   4  263.67   29.50
   8  -2  -4  229.38   32.40
   8  -2  -4  202.98   23.90
   8  -2  -4  161.48   23.90
  -8   2   4  186.78   22.20
  -8   2   4  232.88   23.10
  -8   2   4  226.78   27.30
   7  -2  -4   93.79   17.40
   7  -2  -4   80.39   13.60
  -7   2   4   52.29   14.00
  -7   2   4   73.39   13.90
  -7   2   4   64.69   13.80
   6  -2  -4   98.29   15.60
   6  -2  -4  118.99   19.80
   6  -2  -4   82.59   12.50
  -6   2   4  112.59   16.20
  -6   2   4   79.29   13.90
   5  -2  -4   63.49    6.40
   5  -2  -4   51.59   10.70
   5  -2  -4   85.99   15.20
  -5   2   4   77.19   12.30
  -5   2   4   63.39   12.00
   4  -2  -4  321.87   19.40
   4  -2  -4  367.06   23.50
  -4   2   4  340.77   21.20
  -4   2   4  333.07   22.80
  -4   2   4  316.27   19.40
   3  -2  -4    9.50    4.60
   3  -2  -4    8.80    6.30
  -3   2   4   14.40    6.20
  -3   2   4   16.20    5.70
  -3   2   4   19.20    7.70
   2  -2  -4  181.78   11.60
   2  -2  -4  203.58   15.00
  -2   2   4  179.28   11.80
  -2   2   4  201.98   14.50
  -2   2   4  171.98   14.50
   1  -2  -4 4387.36   99.79
   1  -2  -4 4465.95  107.29
   1  -2  -4 4456.75  107.39
   1  -2  -4 4326.07  107.69
  -1   2   4 4527.95  109.09
  -1   2   4 4366.76   99.69
  -1   2   4 4552.14  107.89
   0  -2  -4 3208.08   85.69
   0  -2  -4 3348.17   85.79
   0  -2  -4 3443.26   84.39
   0   2   4 3311.77   85.99
   0   2   4 3397.26   84.49
   0   2   4 3316.77   86.69
  -1  -2  -4  585.04   24.30
  -1  -2  -4  610.14   24.50
  -1  -2  -4  590.84   27.00
   1   2   4  544.95   26.20
   1   2   4  574.54   24.70
   1   2   4  586.94   27.60
  -2  -2  -4  635.14   27.90
  -2  -2  -4  615.94   29.20
  -2  -2  -4  615.74   24.80
   2   2   4  634.44   30.10
   2   2   4  589.94   28.80
   2   2   4  613.54   26.00
  -3  -2  -4  111.89   11.30
  -3  -2  -4  124.59   15.70
  -3  -2  -4  114.99   11.00
  -3  -2  -4  104.39   14.30
   3   2   4  128.99   12.20
   3   2   4  131.79   17.20
   3   2   4  107.89   15.40
  -4  -2  -4    1.10    4.60
  -4  -2  -4   11.10    6.20
  -4  -2  -4   12.90    8.20
  -4  -2  -4   42.40   12.10
   4   2   4    4.80    7.30
   4   2   4    7.30    4.90
  -5  -2  -4   78.89   16.00
  -5  -2  -4   60.09   13.10
  -5  -2  -4   57.79   12.00
  -5  -2  -4   47.70    8.20
   5   2   4   50.99   13.20
   5   2   4   45.40   11.00
  -6  -2  -4  101.19   18.90
  -6  -2  -4   78.29   10.70
  -6  -2  -4  130.79   18.60
   6   2   4  108.89   16.70
   6   2   4   95.29   18.20
  -7  -2  -4   15.60   16.40
  -7  -2  -4    7.20   14.60
  -7  -2  -4   22.00   14.10
   7   2   4    5.60   13.30
   7   2   4    9.30   13.00
   8  -3  -4    5.90   13.90
   8  -3  -4   27.80   13.00
   8  -3  -4   -5.30   17.20
  -8   3   4    5.00   14.80
  -8   3   4   13.00   13.50
  -8   3   4   20.70   13.90
   7  -3  -4   24.90   12.50
   7  -3  -4   20.60   10.80
   7  -3  -4   25.60   14.80
  -7   3   4   26.90   12.60
  -7   3   4   33.80   13.60
  -7   3   4   15.30   11.30
   6  -3  -4   47.40   14.10
  -6   3   4   19.60   10.00
  -6   3   4   20.80   10.10
   5  -3  -4   64.39   14.00
   5  -3  -4   31.20    8.90
  -5   3   4    4.60    7.20
  -5   3   4   29.90    9.50
   4  -3  -4   12.20    6.30
   4  -3  -4   11.50    7.90
  -4   3   4    6.00    6.10
  -4   3   4    1.20    5.30
  -4   3   4   -6.60    6.10
   3  -3  -4  719.13   32.30
   3  -3  -4  702.73   29.00
  -3   3   4  736.33   33.30
  -3   3   4  694.13   31.90
  -3   3   4  693.93   28.90
   2  -3  -4  457.65   23.40
   2  -3  -4  409.66   19.40
   2  -3  -4  372.36   14.80
   2  -3  -4  405.66   22.90
  -2   3   4  398.66   19.70
  -2   3   4  403.26   22.60
  -2   3   4  388.26   22.20
   1  -3  -4 1472.95   49.20
   1  -3  -4 1472.05   48.00
   1  -3  -4 1511.25   43.90
   1  -3  -4 1452.05   49.20
  -1   3   4 1552.04   50.29
  -1   3   4 1532.95   39.60
  -1   3   4 1627.64   50.19
   0  -3  -4 2403.66   69.49
   0  -3  -4 2297.87   66.79
   0  -3  -4 2361.46   67.59
   0   3   4 2257.67   51.49
   0   3   4 2408.56   67.99
   0   3   4 2430.46   68.19
  -1  -3  -4  105.59   13.20
  -1  -3  -4  103.99   10.30
  -1  -3  -4  114.49   14.80
   1   3   4  128.89   14.20
   1   3   4  105.79   13.60
   1   3   4  113.49   14.80
  -2  -3  -4 1544.35   54.89
  -2  -3  -4 1571.54   50.99
  -2  -3  -4 1566.34   50.79
   2   3   4 1612.34   52.49
   2   3   4 1611.14   55.79
   2   3   4 1630.24   54.89
  -3  -3  -4   14.30    7.20
  -3  -3  -4    3.70    5.00
  -3  -3  -4   -9.30    5.20
  -3  -3  -4    5.70    6.20
   3   3   4    7.30    6.30
   3   3   4   -0.60    6.70
   3   3   4   -2.70    5.50
  -4  -3  -4  771.42   33.10
  -4  -3  -4  787.72   34.90
  -4  -3  -4  722.03   39.10
  -4  -3  -4  759.02   38.80
   4   3   4  820.62   40.80
   4   3   4  767.52   39.70
   4   3   4  794.92   34.10
  -5  -3  -4  391.36   30.90
  -5  -3  -4  396.16   23.80
  -5  -3  -4  436.06   28.20
  -5  -3  -4  437.96   38.00
   5   3   4  396.36   30.10
   5   3   4  410.46   25.40
  -6  -3  -4  143.79   20.00
  -6  -3  -4   81.89   20.50
  -6  -3  -4  110.09   21.60
  -6  -3  -4  121.49   15.20
   6   3   4  108.49   20.30
   6   3   4   94.79   17.40
  -7  -3  -4  306.87   21.30
  -7  -3  -4  302.87   32.10
  -7  -3  -4  274.67   34.40
  -7  -3  -4  285.77   37.00
   7   3   4  301.97   28.40
   7   3   4  331.97   32.40
   8  -4  -4   38.10   14.20
   8  -4  -4   36.70   20.90
   8  -4  -4   21.20   14.20
  -8   4   4   17.90   19.30
  -8   4   4   19.20   14.90
   7  -4  -4  147.69   22.10
   7  -4  -4  174.48   27.30
  -7   4   4  172.68   23.50
  -7   4   4  222.88   27.40
   6  -4  -4    2.10    4.80
   6  -4  -4   -4.60   10.00
   6  -4  -4  -14.70    8.00
  -6   4   4   14.30    9.90
  -6   4   4   -3.60    9.40
   5  -4  -4  706.03   35.10
  -5   4   4  706.03   36.80
  -5   4   4  726.13   37.10
   4  -4  -4   -6.10    5.70
   4  -4  -4    1.20    7.30
  -4   4   4    9.50    7.40
  -4   4   4    4.30    6.60
  -4   4   4    0.30    7.20
   3  -4  -4 2263.27   69.29
   3  -4  -4 2299.27   66.39
  -3   4   4 2208.38   70.69
  -3   4   4 2224.28   70.19
  -3   4   4 2245.48   66.29
   2  -4  -4  692.33   29.20
   2  -4  -4  780.62   32.70
   2  -4  -4  680.53   33.00
   2  -4  -4  649.14   27.60
  -2   4   4  700.83   33.80
  -2   4   4  734.53   32.50
   1  -4  -4  364.86   23.40
   1  -4  -4  372.26   20.30
   1  -4  -4  331.77   20.60
   1  -4  -4  415.36   24.60
  -1   4   4  372.76   13.90
  -1   4   4  362.06   21.50
  -1   4   4  425.16   24.60
   0  -4  -4   70.59   12.50
   0  -4  -4   84.49   13.10
   0  -4  -4   73.19   11.60
   0   4   4   72.19   12.50
   0   4   4   78.49   11.50
   0   4   4   89.59   11.00
  -1  -4  -4  536.95   28.70
  -1  -4  -4  522.55   29.60
  -1  -4  -4  508.35   22.60
   1   4   4  518.75   27.00
   1   4   4  589.04   30.00
   1   4   4  448.46   27.90
  -2  -4  -4   27.30   10.30
  -2  -4  -4   38.10   10.30
  -2  -4  -4   26.80    8.10
   2   4   4   17.40    7.50
   2   4   4   29.80    9.10
   2   4   4   33.30   10.70
  -3  -4  -4   34.50    9.40
  -3  -4  -4   39.50   10.70
   3   4   4   39.90   11.50
   3   4   4   32.00   10.70
   3   4   4   29.30    9.60
  -4  -4  -4   17.10   10.70
  -4  -4  -4   29.90   10.70
  -4  -4  -4   21.00   10.10
  -4  -4  -4   19.00   11.40
   4   4   4   35.10   13.20
   4   4   4   47.30   13.30
   4   4   4   66.79   13.10
  -5  -4  -4   -1.20   10.90
  -5  -4  -4   12.70    9.40
  -5  -4  -4  -15.10    9.10
  -5  -4  -4   18.30   12.60
   5   4   4   -6.00   10.30
   5   4   4   13.40    9.60
   5   4   4    6.30   12.30
  -6  -4  -4  265.87   33.80
  -6  -4  -4  295.97   24.30
  -6  -4  -4  267.67   31.30
   6   4   4  278.27   33.10
   6   4   4  328.57   26.20
   6   4   4  309.27   31.60
  -7  -4  -4   47.70   14.30
  -7  -4  -4   -9.10   21.00
  -7  -4  -4    3.30   17.80
  -7  -4  -4   65.49   21.60
   7   4   4   64.79   21.50
   7   4   4   39.80   17.90
   8  -5  -4   16.90   21.50
   8  -5  -4   17.60   14.50
  -8   5   4   14.60   17.00
  -8   5   4   13.50   17.90
  -8   5   4   13.20   17.30
   7  -5  -4    4.40   11.60
   7  -5  -4    6.20   14.30
  -7   5   4   -0.30   13.70
   6  -5  -4  200.38   13.10
   6  -5  -4  241.38   26.70
   6  -5  -4  214.68   22.70
  -6   5   4  177.68   22.80
  -6   5   4  197.98   25.10
   5  -5  -4   67.59   14.80
  -5   5   4   38.80   12.10
  -5   5   4   70.39   15.90
   4  -5  -4   34.20   11.00
   4  -5  -4   19.60    8.20
  -4   5   4   16.10    8.10
   3  -5  -4 1910.91   62.49
   3  -5  -4 1955.00   67.49
   3  -5  -4 2022.90   64.49
  -3   5   4 1890.01   66.89
  -3   5   4 1933.31   65.09
   2  -5  -4 2489.05   79.69
   2  -5  -4 2585.74   74.59
   2  -5  -4 2509.15   73.89
  -2   5   4 2490.15   55.89
  -2   5   4 2584.34   80.39
  -2   5   4 2468.45   74.59
   1  -5  -4   23.80    8.20
   1  -5  -4   34.80    9.00
   1  -5  -4   23.10    9.50
   1  -5  -4   47.80   12.10
  -1   5   4   20.90    8.10
  -1   5   4   18.30    9.30
   0  -5  -4   88.39   14.90
   0  -5  -4  100.49   14.40
   0  -5  -4   85.39   12.60
   0  -5  -4   97.99   16.00
   0   5   4  107.79   16.40
   0   5   4  106.99   14.60
   0   5   4   79.69    8.20
  -1  -5  -4   61.59   13.50
  -1  -5  -4   51.99    8.40
  -1  -5  -4   48.10   13.00
   1   5   4   58.99   13.20
   1   5   4   71.19   12.30
   1   5   4   56.29    9.00
  -2  -5  -4   -2.40    7.90
  -2  -5  -4   -5.20    7.50
  -2  -5  -4   11.20    6.80
   2   5   4    3.30    8.20
   2   5   4    6.30    7.40
   2   5   4    5.20    8.30
  -3  -5  -4  101.29   17.30
  -3  -5  -4  133.89   20.90
  -3  -5  -4   84.99   14.10
   3   5   4  111.99   18.20
   3   5   4   93.89   16.60
   3   5   4   76.89   14.50
  -4  -5  -4  289.27   24.70
  -4  -5  -4  255.17   42.10
  -4  -5  -4  262.67   25.00
  -4  -5  -4  305.37   28.80
   4   5   4  287.97   27.60
   4   5   4  258.97   26.00
   4   5   4  297.47   25.60
  -5  -5  -4  154.58   22.10
  -5  -5  -4  151.98   26.00
  -5  -5  -4  170.58   21.10
  -5  -5  -4  154.48   23.60
   5   5   4  195.28   25.00
   5   5   4  130.79   22.50
  -6  -5  -4  187.88   30.90
  -6  -5  -4  236.68   26.20
  -6  -5  -4  184.88   26.90
  -6  -5  -4  233.18   30.60
   6   5   4  240.78   31.20
   6   5   4  227.48   23.70
   6   5   4  208.18   28.90
   7  -6  -4   66.79   20.90
   7  -6  -4  141.99   23.70
  -7   6   4  131.49   24.40
   6  -6  -4    2.20   11.00
   6  -6  -4  -17.80   12.30
  -6   6   4    3.30   11.60
   5  -6  -4   80.79   16.60
   5  -6  -4   49.99   14.10
  -5   6   4   61.69   15.30
  -5   6   4   31.30   17.10
   4  -6  -4  453.75   30.80
  -4   6   4  396.56   30.60
   3  -6  -4  862.41   40.40
   3  -6  -4  952.10   40.80
  -3   6   4  941.01   42.30
  -3   6   4  890.31   45.40
   2  -6  -4   13.10    7.90
   2  -6  -4   12.00    8.80
   2  -6  -4    4.50    9.40
   2  -6  -4   -5.30    6.30
  -2   6   4    6.50    6.80
  -2   6   4    9.10    9.10
   1  -6  -4   21.10   12.20
   1  -6  -4   32.50    9.60
   1  -6  -4   61.89   13.50
   1  -6  -4   19.50    9.90
  -1   6   4   44.60   10.40
  -1   6   4   36.90   11.20
   0  -6  -4  272.87   25.20
   0  -6  -4  326.17   21.80
   0  -6  -4  291.97   24.90
   0  -6  -4  309.47   23.90
   0   6   4  291.17   16.40
   0   6   4  319.27   22.20
  -1  -6  -4  193.28   13.70
  -1  -6  -4  184.98   23.80
  -1  -6  -4  167.68   22.70
   1   6   4  197.08   18.50
   1   6   4  160.58   14.20
   1   6   4  198.08   29.40
  -2  -6  -4  586.64   37.50
  -2  -6  -4  621.74   29.10
  -2  -6  -4  661.93   39.20
   2   6   4  648.64   38.80
   2   6   4  591.24   28.80
   2   6   4  629.54   33.10
  -3  -6  -4   92.49   14.40
  -3  -6  -4   71.19   17.30
  -3  -6  -4   96.19   19.50
   3   6   4   64.89   14.60
   3   6   4  112.39   21.30
   3   6   4   74.09   17.70
  -4  -6  -4  299.97   32.90
  -4  -6  -4  276.27   45.80
  -4  -6  -4  319.27   27.70
   4   6   4  329.47   31.00
   4   6   4  316.47   31.70
   4   6   4  409.06   30.50
  -5  -6  -4   83.29   19.90
  -5  -6  -4  123.29   22.00
  -5  -6  -4   69.79   17.30
   5   6   4  106.99   22.00
   5   6   4   90.19   18.60
   7  -7  -4  249.68   33.90
  -7   7   4  233.58   34.40
  -7   7   4  178.28   29.90
   6  -7  -4   26.40   16.50
   6  -7  -4   -1.00   14.20
  -6   7   4   30.90   17.00
  -6   7   4   53.39   19.10
   5  -7  -4  446.06   34.80
   5  -7  -4  493.55   35.10
  -5   7   4  460.15   36.90
   4  -7  -4  273.47   28.20
   4  -7  -4  297.67   27.00
   4  -7  -4  328.07   28.10
   3  -7  -4   80.59   16.30
   3  -7  -4   90.09   16.00
   3  -7  -4   70.69   16.10
  -3   7   4   74.99   14.80
   2  -7  -4  213.08   20.30
   2  -7  -4  194.88   23.50
   2  -7  -4  147.49   22.70
  -2   7   4  179.18   19.00
   1  -7  -4   17.40   11.30
   1  -7  -4    7.20    8.90
   1  -7  -4   19.10   12.90
  -1   7   4   28.00   13.10
  -1   7   4   24.60   10.10
   0  -7  -4    6.90    7.40
   0  -7  -4    4.10   12.10
   0  -7  -4   -0.60    8.60
   0   7   4   -7.20    9.80
   0   7   4    8.20    7.20
   0   7   4   17.60    8.90
  -1  -7  -4   57.79   16.60
   1   7   4   73.39   17.40
   1   7   4   52.69   11.80
   1   7   4   66.39   11.90
  -2  -7  -4    2.70   11.60
  -2  -7  -4    6.80    7.00
  -2  -7  -4   14.00   13.70
   2   7   4    8.10    9.20
   2   7   4    0.90    8.40
   2   7   4   13.80   11.90
  -3  -7  -4   25.20   16.30
  -3  -7  -4   27.90   10.30
  -3  -7  -4   45.20   17.80
   3   7   4   31.20   11.70
   3   7   4    9.10   13.70
  -4  -7  -4  667.93   38.00
  -4  -7  -4  627.14   43.40
   4   7   4  602.14   45.70
   4   7   4  694.73   46.50
  -5  -7  -4  332.17   37.10
  -5  -7  -4  374.06   35.00
   6  -8  -4  197.48   28.60
   6  -8  -4  148.59   27.30
  -6   8   4  156.48   32.00
   5  -8  -4  -13.80   13.80
   5  -8  -4   29.30   14.90
  -5   8   4  -11.40   16.30
   4  -8  -4   36.10   14.00
   4  -8  -4   40.20   17.60
   4  -8  -4   14.80   13.60
  -4   8   4   15.90   16.00
   3  -8  -4  914.21   50.59
   3  -8  -4  910.31   52.29
   3  -8  -4  971.80   49.30
   3  -8  -4  939.61   52.59
  -3   8   4  984.30   55.19
   2  -8  -4  218.08   26.80
   2  -8  -4  221.98   29.90
   2  -8  -4  199.98   21.20
  -2   8   4  210.28   21.70
   1  -8  -4  161.98   26.50
   1  -8  -4  188.68   24.40
   1  -8  -4  171.48   18.80
  -1   8   4  158.38   25.10
  -1   8   4  170.88   18.90
   0  -8  -4  109.29   23.70
   0  -8  -4   71.59   18.60
   0  -8  -4   87.09   18.10
   0   8   4   80.59   13.90
   0   8   4  100.99   13.80
   0   8   4   83.69   21.30
  -1  -8  -4  -28.00   12.40
  -1  -8  -4   -5.60   14.50
   1   8   4    6.50    9.20
   1   8   4    8.50    8.70
   1   8   4   21.60   16.20
  -2  -8  -4    9.80   16.10
  -2  -8  -4   14.70    8.10
  -2  -8  -4   -6.00   15.50
   2   8   4  -10.50   15.20
   2   8   4    7.70   10.70
   2   8   4    8.00   10.00
  -3  -8  -4  215.58   21.10
  -3  -8  -4  188.18   29.90
  -3  -8  -4  213.48   32.60
   3   8   4  223.38   31.80
   3   8   4  251.47   25.40
   3   8   4  250.77   24.00
   4  -9  -4  -20.00   16.50
   4  -9  -4  -13.00   16.10
   4  -9  -4   -8.40   13.80
  -4   9   4   -7.10   20.50
   3  -9  -4  -10.50   14.40
   3  -9  -4   -6.30   17.00
   3  -9  -4   -3.40   16.90
   3  -9  -4   14.20   12.20
  -3   9   4   21.40   20.30
   2  -9  -4  212.48   27.90
   2  -9  -4  214.48   31.90
   2  -9  -4  239.08   32.50
   2  -9  -4  207.38   28.70
  -2   9   4  191.78   22.40
   1  -9  -4    8.70   10.60
   1  -9  -4   29.90   20.20
   1  -9  -4  -11.90   13.80
   1  -9  -4    1.40   14.70
  -1   9   4    8.20   11.30
   0  -9  -4  214.78   32.30
   0  -9  -4  185.08   29.20
   0  -9  -4  169.98   26.00
   0   9   4  189.88   21.00
   0   9   4  156.68   18.00
  -1  -9  -4   83.29   21.70
  -1  -9  -4   81.99   23.70
  -1  -9  -4  116.59   23.70
   1   9   4   89.39   24.80
   1   9   4  113.89   17.10
   1   9   4   74.79   15.10
  -2  -9  -4  437.46   43.80
  -2  -9  -4  423.56   43.30
   2   9   4  374.36   41.80
   2   9   4  280.47   26.00
   3  11  -5   -0.50   14.00
  -3 -11   5    9.10   15.40
  -3 -11   5   27.80   20.50
   2  11  -5    7.90    8.30
   2  11  -5   28.60   16.30
  -2 -11   5    0.20   14.40
  -2 -11   5  -10.10   17.00
   1  11  -5   -7.70    9.20
   1  11  -5   12.30   15.70
  -1 -11   5    1.30   13.10
  -1 -11   5   -5.40    8.40
  -1 -11   5    7.60   16.80
   0  11  -5  499.75   43.20
   0  11  -5  436.46   38.80
   0  11  -5  462.45   30.30
   0 -11   5  479.55   34.70
   0 -11   5  538.55   42.70
   0 -11   5  398.56   23.00
   0 -11   5  410.36   39.90
  -1  11  -5   65.19   15.90
  -1  11  -5   74.49   22.80
  -1  11  -5   47.00   18.20
   1 -11   5   55.29   20.30
   1 -11   5   54.89   21.30
  -2  11  -5   63.89   19.20
  -2  11  -5   54.09   17.20
  -2  11  -5   89.79   24.20
   2 -11   5  103.49   24.80
   2 -11   5   75.59   22.00
  -3  11  -5    1.00   18.60
  -3  11  -5    3.70   15.80
  -3  11  -5   13.00   15.70
   3 -11   5    7.60    7.60
   3 -11   5   15.30   18.20
   3 -11   5    3.70   17.60
   4 -11   5  137.79   22.30
   4  10  -5  308.07   34.20
  -4 -10   5  284.27   37.40
  -4 -10   5  234.48   26.10
   3  10  -5  309.17   33.00
  -3 -10   5  281.37   26.60
  -3 -10   5  233.88   34.30
   2  10  -5   -0.90   12.20
   2  10  -5    0.10    6.60
  -2 -10   5   -4.30   16.30
  -2 -10   5   -5.50   12.00
   1  10  -5   44.10   10.90
   1  10  -5   25.70   14.30
  -1 -10   5   32.30    9.80
  -1 -10   5   16.00   13.30
  -1 -10   5   30.30   12.20
   0  10  -5   10.20    9.00
   0  10  -5   13.80   13.10
   0  10  -5   12.40   13.70
   0 -10   5    1.00    9.50
   0 -10   5   -0.20    7.10
   0 -10   5   27.10   15.10
   0 -10   5  -15.00   11.20
  -1  10  -5   58.49   17.90
  -1  10  -5   41.50   14.20
   1 -10   5   31.80   17.30
   1 -10   5   41.80   16.70
   1 -10   5   20.20    7.80
  -2  10  -5  572.04   41.10
  -2  10  -5  598.54   37.00
   2 -10   5  506.05   38.90
   2 -10   5  588.14   41.80
   2 -10   5  585.74   21.20
   2 -10   5  573.14   19.90
  -3  10  -5 1091.59   52.89
  -3  10  -5 1070.59   57.99
   3 -10   5 1055.59   37.30
   3 -10   5 1050.59   55.89
   3 -10   5 1085.59   55.89
  -4  10  -5   -8.00   13.70
   4 -10   5  -30.30   14.00
   4 -10   5  -22.60   13.20
   4 -10   5   -1.10   11.20
   4 -10   5   -2.60    9.60
  -5  10  -5    2.20   15.70
   5 -10   5   28.10   12.70
   5 -10   5   28.00   16.00
   5 -10   5   25.00   14.40
   5   9  -5  129.29    8.00
   5   9  -5  139.89    8.70
  -5  -9   5  154.58   28.10
  -5  -9   5  136.79   20.60
   4   9  -5  192.08   29.80
  -4  -9   5  115.19   24.20
  -4  -9   5  107.69   17.60
   3   9  -5  120.49   22.70
  -3  -9   5  125.39   18.10
  -3  -9   5  116.59   23.80
   2   9  -5  349.37   32.10
  -2  -9   5  403.86   35.40
  -2  -9   5  341.17   24.60
   1   9  -5   54.69   10.00
   1   9  -5   26.90   13.50
  -1  -9   5   39.40   11.30
  -1  -9   5   29.00   14.70
   0   9  -5   24.00    9.80
   0   9  -5   43.90   15.70
   0   9  -5   14.50   11.90
   0  -9   5    4.50   11.60
   0  -9   5   33.30    8.70
  -1   9  -5  142.59   24.00
  -1   9  -5  123.99   17.00
  -1   9  -5  110.49   19.70
   1  -9   5   98.59   19.50
   1  -9   5  101.59   23.20
   1  -9   5  124.19   14.50
  -2   9  -5   20.00   11.20
  -2   9  -5    8.00   10.80
   2  -9   5   10.60   12.00
   2  -9   5    2.50    4.30
   2  -9   5    2.90   10.70
  -3   9  -5   -1.20   10.90
  -3   9  -5   18.20   11.80
  -3   9  -5    6.10   10.00
   3  -9   5   -4.70   10.40
   3  -9   5   -2.40    6.40
   3  -9   5   17.90   12.00
  -4   9  -5   -0.90   12.40
   4  -9   5   -7.00   11.00
   4  -9   5   24.80   10.70
   4  -9   5    2.20    9.70
   4  -9   5   12.80   13.10
  -5   9  -5   23.30   16.70
  -5   9  -5   34.60   14.90
   5  -9   5   38.10   13.40
   5  -9   5    7.50   15.50
   5  -9   5   24.60   16.60
   5  -9   5   34.70   13.60
   5  -9   5   21.20   10.20
  -6   9  -5   84.19   17.80
  -6   9  -5   78.79   17.30
  -6   9  -5   33.20   21.30
   6  -9   5  126.89   30.70
   6  -9   5   89.99   12.90
   6  -9   5   75.69   22.80
   6  -9   5   52.59   19.30
   6   8  -5  293.27   22.80
  -6  -8   5  328.87   27.10
  -6  -8   5  267.37   36.30
  -6  -8   5  343.17   36.70
   5   8  -5  363.66   19.80
  -5  -8   5  408.36   37.50
  -5  -8   5  404.06   26.70
   4   8  -5  361.46   13.60
  -4  -8   5  326.77   24.10
  -4  -8   5  392.86   34.40
   3   8  -5   25.40   12.50
  -3  -8   5   -3.30   11.30
  -3  -8   5    3.50    7.20
   2   8  -5  472.45   35.20
  -2  -8   5  558.24   38.90
  -2  -8   5  542.15   28.00
   1   8  -5    2.80    8.40
   1   8  -5   -9.10    5.00
  -1  -8   5   -1.60    8.40
  -1  -8   5    2.80    5.90
   0   8  -5 1294.67   46.30
   0   8  -5 1293.67   57.29
   0  -8   5 1242.98   56.39
   0  -8   5 1342.67   45.30
  -1   8  -5  753.72   39.80
  -1   8  -5  704.73   40.80
  -1   8  -5  710.33   34.70
   1  -8   5  716.73   21.80
   1  -8   5  688.43   20.80
   1  -8   5  694.43   39.60
   1  -8   5  696.43   30.70
   1  -8   5  714.13   39.60
  -2   8  -5   84.19   18.40
  -2   8  -5   66.79   14.50
  -2   8  -5   66.49   14.40
   2  -8   5   46.40   13.80
   2  -8   5   75.89   16.10
  -3   8  -5  817.02   41.70
  -3   8  -5  830.12   45.10
  -3   8  -5  834.42   40.80
   3  -8   5  815.32   40.90
   3  -8   5  887.21   43.90
   3  -8   5  796.62   36.60
  -4   8  -5  286.87   26.60
  -4   8  -5  291.17   24.30
   4  -8   5  274.67   23.50
   4  -8   5  285.17   26.00
   4  -8   5  277.67   21.00
  -5   8  -5   63.89   13.50
  -5   8  -5   46.30   14.70
  -5   8  -5   53.69   13.10
   5  -8   5   61.39   12.30
   5  -8   5   99.59   19.20
   5  -8   5   66.89   11.20
   5  -8   5   82.39   16.40
  -6   8  -5   61.89   19.40
  -6   8  -5   49.50   15.00
  -6   8  -5   59.39   13.20
   6  -8   5   56.29    9.30
   6  -8   5   70.69   17.90
   6  -8   5   84.39   20.40
   7   7  -5  256.97   42.70
  -7  -7   5  240.38   34.20
  -7  -7   5  294.27   27.10
  -7  -7   5  258.57   33.90
   6   7  -5   90.39   14.60
  -6  -7   5   59.49   13.40
  -6  -7   5  105.19   21.40
  -6  -7   5  110.49   23.40
   5   7  -5   31.30    8.80
  -5  -7   5   42.90   10.10
  -5  -7   5   37.70   13.80
   4   7  -5    6.10    4.80
  -4  -7   5    3.40   10.30
  -4  -7   5    5.20    6.40
   3   7  -5   13.20    9.50
   3   7  -5   17.20    3.40
  -3  -7   5   35.80   13.30
  -3  -7   5   21.20    7.00
   2   7  -5   37.80   11.70
  -2  -7   5   31.80    7.80
  -2  -7   5   22.90   10.70
   1   7  -5   21.50   11.10
   1   7  -5   36.90    7.90
  -1  -7   5   44.80   12.40
  -1  -7   5   28.90    7.30
   0   7  -5  100.59   13.00
   0   7  -5  120.09   19.30
   0  -7   5  111.39   17.80
   0  -7   5  103.99   13.20
  -1   7  -5  143.39   18.50
  -1   7  -5  141.29   20.50
  -1   7  -5  115.09   15.80
   1  -7   5  128.49    9.70
   1  -7   5  140.69   18.80
   1  -7   5  153.98   14.70
   1  -7   5  145.59   19.20
  -2   7  -5  503.45   29.90
  -2   7  -5  524.85   32.80
  -2   7  -5  500.45   29.20
   2  -7   5  528.95   26.90
   2  -7   5  497.65   29.60
   2  -7   5  534.25   30.70
  -3   7  -5  186.08   20.30
  -3   7  -5  167.98   17.90
  -3   7  -5  135.29   18.40
   3  -7   5  159.68   17.70
   3  -7   5  146.89   15.00
   3  -7   5  159.28   19.70
  -4   7  -5  674.03   33.10
  -4   7  -5  638.84   32.10
  -4   7  -5  680.13   38.80
   4  -7   5  711.13   29.70
   4  -7   5  650.03   51.29
   4  -7   5  716.73   38.60
   4  -7   5  663.23   31.90
  -5   7  -5  363.16   27.00
  -5   7  -5  445.16   33.20
  -5   7  -5  387.36   23.80
   5  -7   5  351.96   19.70
   5  -7   5  410.76   31.20
   5  -7   5  320.87   20.80
   5  -7   5  354.86   28.40
  -6   7  -5   21.90   12.00
  -6   7  -5   20.40   14.70
  -6   7  -5    5.90   12.40
   6  -7   5   34.60   13.40
   6  -7   5   43.60   16.60
  -7   7  -5   12.70   16.00
  -7   7  -5   38.20   30.60
   7  -7   5   39.70   16.60
   7   6  -5  595.74   32.40
   7   6  -5  621.44   38.10
  -7  -6   5  553.74   32.20
  -7  -6   5  618.14   43.80
   6   6  -5 1073.99   44.80
   6   6  -5 1022.90   40.80
  -6  -6   5 1173.18   55.79
  -6  -6   5 1058.49   53.89
  -6  -6   5 1052.79   41.40
   5   6  -5   -2.00    6.40
  -5  -6   5   18.90   11.30
  -5  -6   5   -7.60    9.20
  -5  -6   5   -0.30    5.90
   4   6  -5  191.18   14.10
  -4  -6   5  163.48   13.90
  -4  -6   5  172.18   22.10
   3   6  -5  311.27   14.60
  -3  -6   5  308.47   24.20
  -3  -6   5  272.97   16.00
   2   6  -5   16.10    3.10
   2   6  -5    7.80   10.60
  -2  -6   5   16.70    8.30
  -2  -6   5   16.10    5.30
   1   6  -5    1.10    6.90
   0   6  -5 1153.78   47.20
   0   6  -5 1070.19   38.00
   0  -6   5 1100.89   39.60
   0  -6   5 1170.18   46.10
   0  -6   5 1119.99   29.60
  -1   6  -5 2252.27   73.79
  -1   6  -5 2376.16   68.49
   1  -6   5 2332.47   60.09
   1  -6   5 2333.07   72.09
   1  -6   5 2359.16   70.79
   1  -6   5 2354.46   67.29
  -2   6  -5  840.62   36.90
  -2   6  -5  866.51   35.90
   2  -6   5  830.72   36.50
   2  -6   5  896.71   37.10
   2  -6   5  888.51   34.40
   2  -6   5  909.31   35.90
  -3   6  -5  505.35   29.60
  -3   6  -5  500.35   26.20
  -3   6  -5  515.05   25.70
   3  -6   5  513.25   26.30
   3  -6   5  491.35   23.60
   3  -6   5  499.15   28.20
   3  -6   5  501.75   27.80
  -4   6  -5   96.69   15.10
  -4   6  -5   94.59   16.30
  -4   6  -5   76.39   11.10
  -4   6  -5   94.59   14.00
   4  -6   5  101.89   16.00
   4  -6   5   84.99   14.00
   4  -6   5   64.29   10.10
   4  -6   5  103.89   11.90
  -5   6  -5  653.23   36.50
  -5   6  -5  678.53   36.30
  -5   6  -5  669.63   39.20
   5  -6   5  708.43   39.50
  -6   6  -5   48.90   15.90
  -6   6  -5   57.39   14.80
   6  -6   5   65.89   16.70
   6  -6   5   34.90   12.70
  -7   6  -5  618.94   42.60
  -7   6  -5  549.65   38.60
  -7   6  -5  491.95   39.20
   7  -6   5  546.55   40.00
   7  -6   5  507.75   36.90
   8   5  -5   80.99   15.50
   8   5  -5   48.30   19.40
  -8  -5   5   67.09   21.60
  -8  -5   5   44.10   15.50
  -8  -5   5   35.90   18.10
   7   5  -5  124.69   20.50
   7   5  -5   77.29   13.60
  -7  -5   5   87.69   19.90
  -7  -5   5   79.29   19.70
   6   5  -5   -0.10    6.30
   6   5  -5   -4.30    8.60
  -6  -5   5    6.60    9.70
  -6  -5   5    5.40   10.90
  -6  -5   5    2.90    6.60
   5   5  -5   -0.50    5.00
   5   5  -5    9.50    7.50
  -5  -5   5   -6.80    7.70
  -5  -5   5   -0.40    4.90
  -5  -5   5    8.80    9.20
   4   5  -5   76.49   10.90
  -4  -5   5   42.50    7.00
  -4  -5   5   53.99   13.00
   3   5  -5  284.77   15.50
  -3  -5   5  316.27   14.30
  -3  -5   5  301.37   22.60
   2   5  -5  938.31   28.10
   2   5  -5  908.01   41.10
  -2  -5   5  933.41   28.50
  -2  -5   5  948.61   40.20
   1   5  -5   56.99   12.10
  -1  -5   5   50.79    5.00
  -1  -5   5   48.90    6.80
  -1  -5   5   48.80   10.70
   0   5  -5 1677.63   57.69
   0  -5   5 1722.83   55.99
   0  -5   5 1772.22   49.80
   0  -5   5 1805.72   45.80
   0  -5   5 1795.62   53.79
  -1   5  -5   30.60    9.70
  -1   5  -5   19.10    6.50
   1  -5   5   14.70    6.50
   1  -5   5   26.30    6.60
   1  -5   5   20.90    6.90
   1  -5   5   11.40    5.90
   1  -5   5   17.70    6.30
   1  -5   5   18.70    7.80
  -2   5  -5  336.07   19.90
  -2   5  -5  310.67   20.60
  -2   5  -5  328.67   22.30
   2  -5   5  320.27   19.70
   2  -5   5  343.97   19.90
   2  -5   5  347.27   19.80
   2  -5   5  325.47   20.50
   2  -5   5  351.86   18.90
   2  -5   5  360.76   21.50
  -3   5  -5    1.20    6.40
  -3   5  -5   -0.60    5.20
  -3   5  -5   16.40    6.60
   3  -5   5    8.80    5.10
   3  -5   5   15.40    7.80
   3  -5   5   -1.10    5.10
   3  -5   5    7.60    5.70
   3  -5   5    6.10    4.30
  -4   5  -5   60.69   11.90
  -4   5  -5   73.49   12.90
  -4   5  -5   76.89   14.00
   4  -5   5   69.59   11.60
   4  -5   5   54.09   11.50
   4  -5   5   56.19   12.50
   4  -5   5   70.09    7.60
   4  -5   5   56.39    8.50
  -5   5  -5  207.08   20.40
  -5   5  -5  209.98   22.10
  -5   5  -5  262.37   25.90
   5  -5   5  187.88   20.60
   5  -5   5  234.18   19.50
  -6   5  -5  -13.80   10.30
  -6   5  -5    8.80    9.50
  -6   5  -5    7.70   10.50
   6  -5   5   -4.30    8.60
   6  -5   5    8.40    9.70
  -7   5  -5  135.49   23.10
  -7   5  -5  149.49   24.60
   7  -5   5  149.49   21.50
   7  -5   5  162.68   25.60
   8   4  -5  448.96   29.40
   8   4  -5  376.26   36.30
  -8  -4   5  402.06   36.30
  -8  -4   5  429.76   35.60
  -8  -4   5  410.36   27.20
   7   4  -5   46.20   10.80
   7   4  -5   70.29   17.70
  -7  -4   5   64.29   16.40
  -7  -4   5   32.20   11.30
  -7  -4   5   29.60   15.60
   6   4  -5  274.07   17.90
   6   4  -5  261.47   23.90
  -6  -4   5  239.98   24.50
  -6  -4   5  260.47   24.10
  -6  -4   5  256.47   20.30
   5   4  -5  175.08   16.80
   5   4  -5  194.28   13.40
  -5  -4   5  203.78   20.30
  -5  -4   5  191.78   13.00
   4   4  -5   91.19    7.90
   4   4  -5   87.89   12.20
  -4  -4   5   79.09    7.40
  -4  -4   5   62.79   11.90
   3   4  -5    0.90    3.70
  -3  -4   5    2.40    1.90
  -3  -4   5    2.20    1.50
   2   4  -5   24.70    6.40
  -2  -4   5   32.60    5.60
  -2  -4   5   31.10    4.30
  -2  -4   5   28.20    3.50
   1   4  -5  778.02   33.90
   1   4  -5  786.42   25.90
  -1  -4   5  833.82   32.80
  -1  -4   5  740.13   26.40
  -1  -4   5  830.52   31.40
  -1  -4   5  819.02   25.20
   0   4  -5 5698.13  140.39
   0  -4   5 5855.41  131.79
   0  -4   5 5706.13  137.39
   0  -4   5 6034.80  133.39
   0  -4   5 5976.80  137.99
   0  -4   5 6088.49  137.19
  -1   4  -5 3766.22   97.49
   1  -4   5 3718.43   95.79
   1  -4   5 3811.82   93.89
   1  -4   5 3751.22   92.29
   1  -4   5 3829.92   92.99
   1  -4   5 3756.02   90.79
   1  -4   5 3801.72   93.29
   1  -4   5 3850.91   91.89
  -2   4  -5  257.97   17.70
  -2   4  -5  293.57   19.50
   2  -4   5  291.87   17.80
   2  -4   5  296.07   16.50
   2  -4   5  295.57   16.10
   2  -4   5  297.27   18.90
   2  -4   5  283.17   15.90
   2  -4   5  272.87   18.70
  -3   4  -5  514.95   27.90
  -3   4  -5  468.85   25.90
  -3   4  -5  458.15   23.40
   3  -4   5  524.55   21.50
   3  -4   5  497.95   18.90
   3  -4   5  481.65   25.80
   3  -4   5  539.45   27.50
   3  -4   5  545.65   24.30
  -4   4  -5  129.49   16.60
  -4   4  -5  126.19   15.50
   4  -4   5  173.68   17.10
   4  -4   5  123.99   13.10
   4  -4   5  139.89   18.00
  -5   4  -5   59.59   12.70
  -5   4  -5   82.49   15.30
   5  -4   5   68.79   14.80
   5  -4   5   65.69   18.60
   5  -4   5   55.39   11.20
  -6   4  -5   -0.60    8.90
  -6   4  -5   12.10   10.00
   6  -4   5   12.60   12.20
   6  -4   5   16.30    9.10
  -7   4  -5  229.98   28.10
  -7   4  -5  265.47   28.00
   7  -4   5  238.98   24.10
   7  -4   5  304.87   29.40
  -8   4  -5  456.65   48.00
  -8   4  -5  464.35   48.10
   8  -4   5  488.45   37.40
   8  -4   5  421.66   38.60
   8   3  -5   -1.60    9.60
   8   3  -5   14.40   17.80
  -8  -3   5   -1.70   14.00
  -8  -3   5    1.00    8.70
   7   3  -5  565.24   37.60
   7   3  -5  557.44   27.80
  -7  -3   5  613.34   37.80
  -7  -3   5  534.55   27.20
   6   3  -5   49.10   13.60
   6   3  -5   39.00    8.30
  -6  -3   5   45.10    9.30
  -6  -3   5   50.59   13.00
  -6  -3   5   53.09    5.80
   5   3  -5 1024.00   42.10
   5   3  -5 1061.89   33.10
  -5  -3   5  989.30   27.00
  -5  -3   5 1043.00   37.60
  -5  -3   5 1074.39   44.10
   4   3  -5  520.25   18.30
   4   3  -5  551.24   26.70
  -4  -3   5  548.95   24.90
  -4  -3   5  502.15   26.60
   3   3  -5  486.95   22.30
   3   3  -5  455.35   13.10
  -3  -3   5  495.75   22.00
  -3  -3   5  450.45   22.90
  -3  -3   5  439.56   21.80
   2   3  -5   79.89    8.70
  -2  -3   5   87.79    9.50
  -2  -3   5   82.19   10.80
   1   3  -5  131.19   12.70
  -1  -3   5  135.99   10.10
  -1  -3   5  125.39    5.60
  -1  -3   5  118.99   10.70
   0   3  -5   51.39    9.40
   0  -3   5   60.29    7.80
   0  -3   5   60.89    8.30
   0  -3   5   87.69   10.90
   0  -3   5   56.29    8.40
   0  -3   5   62.39    5.90
  -1   3  -5   10.30    4.50
  -1   3  -5    8.80    5.40
   1  -3   5    8.30    3.80
   1  -3   5   16.90    4.20
   1  -3   5   13.00    4.50
   1  -3   5    8.70    4.40
   1  -3   5    4.60    4.50
   1  -3   5    2.20    4.20
   1  -3   5   10.50    4.10
  -2   3  -5  151.68   10.90
  -2   3  -5  150.28   13.50
  -2   3  -5  147.99   11.00
   2  -3   5  131.79   13.30
   2  -3   5  134.49    9.10
   2  -3   5  156.68   11.20
   2  -3   5  139.29   12.10
   2  -3   5  145.69   10.20
   2  -3   5  154.68   13.30
  -3   3  -5   67.29    9.30
  -3   3  -5   51.09   10.20
  -3   3  -5   88.99    8.60
   3  -3   5   50.09    9.70
   3  -3   5   78.89   12.30
   3  -3   5   77.99    4.50
   3  -3   5   64.79    8.80
  -4   3  -5  596.14   23.60
  -4   3  -5  617.44   32.60
  -4   3  -5  670.63   28.90
   4  -3   5  596.34   31.10
   4  -3   5  646.44   32.10
   4  -3   5  626.04   27.60
  -5   3  -5  995.70   45.80
  -5   3  -5 1086.79   42.10
   5  -3   5 1001.30   40.00
   5  -3   5 1010.10   45.20
  -6   3  -5  156.68   23.30
  -6   3  -5  172.38   20.60
   6  -3   5  182.58   22.90
   6  -3   5  162.08   22.10
   6  -3   5  163.48   19.20
  -7   3  -5  114.19   21.90
   7  -3   5  148.39   20.40
   7  -3   5   94.89   19.80
  -8   3  -5  101.59   21.90
   8  -3   5  132.59   23.00
   8  -3   5  112.69   31.90
   9   2  -5   78.29   24.90
   9   2  -5   81.29   16.50
  -9  -2   5   38.80   22.60
   8   2  -5  378.56   37.50
   8   2  -5  403.96   26.20
  -8  -2   5  441.06   35.30
  -8  -2   5  416.66   20.90
  -8  -2   5  394.26   20.70
   7   2  -5  232.98   28.40
   7   2  -5  190.58   16.60
  -7  -2   5  221.38   14.60
  -7  -2   5  203.68   14.90
  -7  -2   5  180.78   23.60
   6   2  -5  281.37   24.10
   6   2  -5  261.17   16.50
  -6  -2   5  237.38   15.70
  -6  -2   5  222.18   13.60
  -6  -2   5  231.18   21.50
   5   2  -5   66.49   12.90
   5   2  -5   88.19    8.80
  -5  -2   5   83.29   10.30
  -5  -2   5   94.29   14.10
   4   2  -5 1047.70   40.00
   4   2  -5 1009.70   28.90
  -4  -2   5 1050.39   34.60
  -4  -2   5 1039.20   38.80
   3   2  -5  674.43   17.30
   3   2  -5  657.13   27.80
  -3  -2   5  614.74   26.80
  -3  -2   5  640.24   26.40
  -3  -2   5  642.04   24.80
   2   2  -5 5959.50  139.29
  -2  -2   5 6065.99  138.39
  -2  -2   5 6317.77  137.89
  -2  -2   5 6065.59  135.79
   1   2  -5 1561.34   43.70
   1   2  -5 1542.45   45.20
   1   2  -5 1468.05   34.00
   1   2  -5 1471.75   44.50
  -1  -2   5 1585.74   44.10
  -1  -2   5 1525.85   35.00
   0   2  -5  728.43   28.00
   0   2  -5  714.83   25.70
   0   2  -5  737.03   26.20
   0   2  -5  710.13   22.00
   0  -2   5  734.63   22.70
   0  -2   5  769.32   29.00
   0  -2   5  751.72   26.40
   0  -2   5  753.42   28.80
  -1   2  -5  942.21   30.30
  -1   2  -5  951.70   30.90
  -1   2  -5  967.30   31.80
  -1   2  -5  982.10   35.20
   1  -2   5  951.00   30.90
   1  -2   5  973.80   35.40
   1  -2   5  952.70   34.60
   1  -2   5  967.50   25.70
   1  -2   5  913.51   31.40
  -2   2  -5    1.10    3.80
  -2   2  -5    0.10    3.00
  -2   2  -5    1.10    2.70
  -2   2  -5    2.50    3.70
   2  -2   5   -5.10    2.70
   2  -2   5   16.00    5.30
   2  -2   5    1.30    2.30
   2  -2   5    3.70    4.70
  -3   2  -5  209.28   17.40
  -3   2  -5  214.98   16.30
  -3   2  -5  187.08   12.30
  -3   2  -5  221.68   13.20
   3  -2   5  214.08   16.70
   3  -2   5  168.38   15.10
   3  -2   5  200.98   12.70
  -4   2  -5    3.30    5.90
  -4   2  -5    8.20    4.00
  -4   2  -5    2.40    4.40
  -4   2  -5   -5.90    5.10
   4  -2   5    8.20    6.50
   4  -2   5    8.20    4.80
   4  -2   5    8.80    6.60
  -5   2  -5   71.69   14.10
  -5   2  -5   77.09   12.80
  -5   2  -5   61.89   14.40
  -5   2  -5   70.89    9.10
   5  -2   5   84.49   15.00
   5  -2   5   61.99   11.50
   5  -2   5   65.69   13.30
  -6   2  -5  501.35   21.60
  -6   2  -5  449.36   34.50
   6  -2   5  547.25   33.60
   6  -2   5  499.55   29.20
   6  -2   5  577.04   35.00
  -7   2  -5 1166.78   60.19
   7  -2   5 1240.68   57.99
   7  -2   5 1218.18   52.39
  -8   2  -5  162.58   26.00
   8  -2   5  184.58   26.40
   9   1  -5  471.85   31.20
   9   1  -5  435.86   46.10
  -9  -1   5  426.36   26.20
  -9  -1   5  470.25   40.60
   8   1  -5   34.10   10.90
   8   1  -5   38.40   17.90
  -8  -1   5   49.00   10.40
  -8  -1   5   25.50   15.20
   7   1  -5   80.19   13.00
   7   1  -5   60.49   16.40
  -7  -1   5   81.39   11.70
  -7  -1   5   46.20   13.10
   6   1  -5   81.49   10.80
   6   1  -5   77.29   13.90
   6   1  -5   82.89   18.50
  -6  -1   5   74.19   24.20
  -6  -1   5  104.59    9.90
   5   1  -5   35.20   10.20
   5   1  -5   36.90    9.40
   5   1  -5   36.70    6.90
  -5  -1   5   42.20    7.10
  -5  -1   5   43.20   10.00
   4   1  -5    0.80    5.50
   4   1  -5    2.50    2.60
   4   1  -5    4.00    3.90
  -4  -1   5    2.30    4.60
  -4  -1   5    2.90    4.50
  -4  -1   5   -2.80    3.10
   3   1  -5  733.33   30.50
   3   1  -5  698.63   25.10
   3   1  -5  694.23   26.70
  -3  -1   5  699.83   26.40
  -3  -1   5  730.53   25.70
  -3  -1   5  703.63   29.70
   2   1  -5   45.60    4.40
   2   1  -5   51.09    9.10
   2   1  -5   50.29    7.30
  -2  -1   5   36.50    6.50
  -2  -1   5   45.80    7.00
  -2  -1   5   53.89    8.50
   1   1  -5   96.29    8.10
   1   1  -5   80.69   10.40
   1   1  -5   84.49    8.20
   1   1  -5   77.19    5.70
  -1  -1   5   78.99    8.80
  -1  -1   5   82.59    8.30
  -1  -1   5   77.59    6.20
  -1  -1   5   68.99    5.00
   0   1  -5 1142.39   38.20
   0   1  -5 1108.09   31.40
   0   1  -5 1166.88   34.60
   0   1  -5 1064.39   30.80
   0  -1   5 1127.39   36.40
   0  -1   5 1076.59   23.00
   0  -1   5 1012.10   31.70
   0  -1   5 1029.90   23.00
   0  -1   5 1144.49   32.30
   0  -1   5 1084.59   37.80
  -1   1  -5  220.98    8.10
  -1   1  -5  219.28   13.30
  -1   1  -5  226.78   15.50
  -1   1  -5  215.08   13.10
   1  -1   5  260.27   14.50
   1  -1   5  214.88    7.70
   1  -1   5  202.68   15.30
   1  -1   5  207.48   14.60
  -2   1  -5 3435.06   91.69
  -2   1  -5 3508.25   85.59
  -2   1  -5 3537.25   89.29
  -2   1  -5 3526.95   79.39
   2  -1   5 3552.54   89.79
   2  -1   5 3548.04   79.49
   2  -1   5 3463.05   94.49
   2  -1   5 3521.75   77.09
  -3   1  -5  588.54   24.00
  -3   1  -5  615.84   30.30
  -3   1  -5  577.04   28.10
  -3   1  -5  576.54   22.30
   3  -1   5  537.25   26.90
   3  -1   5  585.74   22.50
   3  -1   5  601.94   28.60
  -4   1  -5  238.18   15.20
  -4   1  -5  274.67   21.20
  -4   1  -5  274.17   16.90
  -4   1  -5  226.88   20.50
   4  -1   5  233.68   16.20
   4  -1   5  235.98   18.80
   4  -1   5  237.28   19.20
  -5   1  -5   37.90   10.70
  -5   1  -5   17.40    7.50
  -5   1  -5    5.10    9.00
  -5   1  -5   27.80    7.30
   5  -1   5   24.20   10.10
   5  -1   5   12.20    7.30
   5  -1   5   22.70    9.80
  -6   1  -5   30.80   11.90
  -6   1  -5   10.30    9.00
  -6   1  -5   25.10    7.10
   6  -1   5   24.50    9.00
   6  -1   5   15.60   10.60
   6  -1   5   29.60   10.60
  -7   1  -5    9.60   12.90
  -7   1  -5   20.70    6.70
   7  -1   5   12.40   11.80
  -8   1  -5   36.90   17.20
  -8   1  -5   72.39    9.40
  -8   1  -5   23.30   20.30
   8  -1   5   38.30   21.00
   8  -1   5   53.99   28.40
   9   0  -5  550.34   35.60
   9   0  -5  464.65   47.30
  -9   0   5  464.55   43.20
  -9   0   5  450.15   39.20
   8   0  -5  460.45   28.90
   8   0  -5  400.66   32.80
   8   0  -5  429.66   39.00
  -8   0   5  443.96   35.00
  -8   0   5  399.66   25.70
   7   0  -5  174.58   17.10
   7   0  -5  161.38   21.60
  -7   0   5  174.68   17.30
  -7   0   5  159.88   21.80
   6   0  -5  222.98   27.10
   6   0  -5  178.58   15.00
   6   0  -5  214.38   19.70
   5   0  -5  327.87   17.50
   5   0  -5  295.27   23.30
   5   0  -5  321.67   21.40
  -5   0   5  310.07   20.80
   4   0  -5  299.47   14.90
   4   0  -5  320.97   22.10
   4   0  -5  287.77   18.20
  -4   0   5  318.67   18.60
  -4   0   5  298.77   20.60
   3   0  -5  667.73   23.80
   3   0  -5  677.93   25.30
   3   0  -5  632.84   29.40
  -3   0   5  637.14   24.30
  -3   0   5  638.74   29.10
   2   0  -5 2995.80   71.49
   2   0  -5 2996.70   79.79
   2   0  -5 3072.59   70.89
   2   0  -5 3078.89   73.89
  -2   0   5 2977.80   79.29
  -2   0   5 2936.41   69.89
   1   0  -5 1586.44   36.50
   1   0  -5 1555.04   41.90
   1   0  -5 1563.14   44.30
   1   0  -5 1509.35   38.20
   1   0  -5 1481.75   47.40
  -1   0   5 1554.44   36.10
  -1   0   5 1575.04   48.70
   0   0  -5  620.44   17.80
   0   0  -5  643.74   23.20
   0   0  -5  578.24   26.60
   0   0   5  578.94   23.80
   0   0   5  612.84   27.40
   0   0   5  628.44   22.80
   0   0   5  573.14   20.40
   0   0   5  554.04   34.20
  -1   0  -5  245.08   15.20
  -1   0  -5  274.77   16.90
  -1   0  -5  251.87    8.10
   1   0   5  230.38   12.10
   1   0   5  250.47   12.80
   1   0   5  244.08   17.20
   1   0   5  247.48   15.30
   1   0   5  271.47   16.50
  -2   0  -5  787.82   31.90
  -2   0  -5  791.82   23.50
  -2   0  -5  749.92   32.30
   2   0   5  771.52   24.40
   2   0   5  811.52   35.30
   2   0   5  782.82   31.90
  -3   0  -5  677.63   31.80
  -3   0  -5  768.92   34.90
  -3   0  -5  687.43   25.20
   3   0   5  701.53   21.80
   3   0   5  709.13   32.50
  -4   0  -5 1184.28   48.90
  -4   0  -5 1096.49   45.80
  -4   0  -5 1171.48   39.30
   4   0   5 1075.09   42.70
   4   0   5 1200.98   47.20
  -5   0  -5 1983.60   80.39
  -5   0  -5 2365.36   68.89
  -5   0  -5 2330.07   91.29
   5   0   5 2385.96   73.19
  -6   0  -5  257.27   27.60
  -6   0  -5  259.67   30.30
   6   0   5  256.27   25.40
   6   0   5  217.58   23.00
  -7   0  -5   84.09   20.50
  -7   0  -5   33.30    9.50
  -7   0  -5   40.90   14.90
   7   0   5   83.59   20.30
  -8   0  -5    2.00   17.00
  -8   0  -5    2.70   19.10
  -8   0  -5   28.90   10.00
  -8   0  -5   13.60   20.70
   8   0   5   50.89   20.30
   8   0   5    0.70   17.30
   9  -1  -5   40.70   25.30
   9  -1  -5   14.30   16.80
   9  -1  -5   20.60   12.80
  -9   1   5   40.50   18.30
  -9   1   5   -3.30   13.40
  -9   1   5   40.60   20.20
   8  -1  -5   55.19   16.10
   8  -1  -5   25.30   19.10
   8  -1  -5   38.80   12.90
  -8   1   5   25.20   13.50
  -8   1   5   27.00   15.40
  -8   1   5   34.70   15.70
   7  -1  -5   12.70    8.40
   7  -1  -5   12.30   10.40
  -7   1   5   -4.90    9.00
  -7   1   5   24.20   10.70
  -7   1   5   11.80    8.90
   6  -1  -5  187.38   24.30
   6  -1  -5  165.28   19.60
   6  -1  -5  186.38   16.10
  -6   1   5  203.88   25.50
   5  -1  -5   94.79   13.50
   5  -1  -5  102.19    9.00
   5  -1  -5  105.49   17.20
  -5   1   5  120.79   14.90
   4  -1  -5  509.75   20.30
   4  -1  -5  501.45   24.20
   4  -1  -5  497.65   28.00
  -4   1   5  523.55   28.90
  -4   1   5  506.55   24.20
   3  -1  -5 1891.21   50.89
   3  -1  -5 1884.71   52.09
   3  -1  -5 1885.51   59.29
  -3   1   5 1841.22   58.99
  -3   1   5 1862.31   51.59
   2  -1  -5 2560.94   66.89
   2  -1  -5 2559.04   72.29
   2  -1  -5 2604.44   62.69
  -2   1   5 2712.43   71.19
  -2   1   5 2561.64   72.29
  -2   1   5 2491.65   63.39
   1  -1  -5  125.49    4.70
   1  -1  -5  117.19   10.80
   1  -1  -5  125.29    7.10
   1  -1  -5  128.29   12.60
  -1   1   5  129.79    7.50
  -1   1   5  133.09   12.40
  -1   1   5  104.69   10.30
   0  -1  -5  400.66   21.90
   0  -1  -5  394.16   19.90
   0  -1  -5  399.36   12.40
   0   1   5  382.76   20.00
   0   1   5  406.46   19.20
   0   1   5  377.26   22.00
   0   1   5  419.36   19.00
  -1  -1  -5  283.67   17.40
  -1  -1  -5  291.47   17.80
   1   1   5  283.47   19.70
   1   1   5  275.67   17.60
   1   1   5  255.67   11.60
   1   1   5  269.37   16.20
   1   1   5  254.47   14.90
  -2  -1  -5  170.78   14.90
  -2  -1  -5  169.28   14.90
  -2  -1  -5  156.78   13.00
  -2  -1  -5  157.68   10.50
   2   1   5  145.89   14.40
   2   1   5  158.68   11.40
   2   1   5  170.08   16.10
  -3  -1  -5    5.50    3.30
  -3  -1  -5   -2.00    5.80
  -3  -1  -5   -1.90    5.10
  -3  -1  -5   -9.30    3.20
   3   1   5    5.40    6.70
   3   1   5    4.50    5.60
  -4  -1  -5   97.29   16.10
  -4  -1  -5   87.69   11.60
  -4  -1  -5   94.19   15.90
  -4  -1  -5   83.99    7.70
   4   1   5   94.09   14.20
   4   1   5  109.29   16.30
  -5  -1  -5  153.18   17.60
  -5  -1  -5  106.89   23.40
   5   1   5  112.89   16.50
   5   1   5  116.79   18.30
  -6  -1  -5    1.90    9.70
  -6  -1  -5   13.40   11.30
   6   1   5   19.50   11.60
   6   1   5    2.20   10.60
  -7  -1  -5   49.70   21.30
   7   1   5   51.29   17.20
   7   1   5   38.30   15.00
   9  -2  -5   18.60   15.20
   9  -2  -5   -2.20   16.00
  -9   2   5  -15.20   16.30
  -9   2   5    0.70   19.10
  -9   2   5   10.10   15.00
   8  -2  -5   20.80   11.60
   8  -2  -5  -13.90   16.10
   8  -2  -5   -6.30   12.90
  -8   2   5   15.60   15.00
  -8   2   5   21.70   12.80
   7  -2  -5   -2.30    7.50
   7  -2  -5   -5.10    9.20
  -7   2   5   10.50    9.10
  -7   2   5   16.90   10.80
   6  -2  -5    1.80    7.40
  -6   2   5   -0.40    7.60
  -6   2   5  -13.00    7.10
   5  -2  -5  201.18   17.90
   5  -2  -5  228.18   13.00
   5  -2  -5  239.98   22.40
  -5   2   5  242.58   19.40
  -5   2   5  271.37   20.60
   4  -2  -5  196.98   15.40
   4  -2  -5  166.48   11.80
   4  -2  -5  158.78   17.10
  -4   2   5  185.28   16.80
  -4   2   5  154.08   17.10
  -4   2   5  191.18   14.80
   3  -2  -5 1497.05   51.29
   3  -2  -5 1383.76   43.30
  -3   2   5 1453.65   49.40
  -3   2   5 1446.06   44.10
  -3   2   5 1397.36   50.69
   2  -2  -5 4059.49  104.19
   2  -2  -5 4087.39   94.49
   2  -2  -5 3890.61  100.49
  -2   2   5 4026.20   94.79
  -2   2   5 4075.79  103.19
  -2   2   5 4075.59  104.99
   1  -2  -5  805.72   25.40
   1  -2  -5  801.62   32.10
   1  -2  -5  806.72   33.40
  -1   2   5  774.52   33.70
  -1   2   5  907.61   33.80
  -1   2   5  775.32   27.10
   0  -2  -5 1822.72   54.79
   0  -2  -5 1639.84   43.90
   0  -2  -5 1686.33   51.79
   0  -2  -5 1714.53   55.19
   0   2   5 1714.43   54.19
   0   2   5 1650.83   47.60
   0   2   5 1734.53   52.39
   0   2   5 1789.72   56.29
  -1  -2  -5  253.37   16.00
  -1  -2  -5  257.97   18.50
  -1  -2  -5  260.77   16.90
   1   2   5  236.48   19.40
   1   2   5  253.87   16.60
   1   2   5  265.47   18.90
  -2  -2  -5  597.54   28.80
  -2  -2  -5  621.64   23.30
  -2  -2  -5  614.04   30.50
  -2  -2  -5  569.54   24.90
   2   2   5  581.94   30.10
   2   2   5  584.74   31.10
   2   2   5  570.64   26.00
  -3  -2  -5  452.35   27.80
  -3  -2  -5  406.36   20.40
  -3  -2  -5  385.86   25.60
  -3  -2  -5  434.26   21.20
   3   2   5  423.26   22.30
   3   2   5  425.36   27.20
   3   2   5  393.76   27.00
  -4  -2  -5  356.76   27.40
  -4  -2  -5  387.66   19.50
  -4  -2  -5  353.46   27.30
  -4  -2  -5  384.46   22.40
   4   2   5  328.47   27.20
   4   2   5  357.06   27.10
   4   2   5  360.86   20.30
  -5  -2  -5  880.01   46.60
  -5  -2  -5  844.92   30.60
  -5  -2  -5  866.01   38.50
   5   2   5  934.41   46.50
   5   2   5  901.61   40.80
  -6  -2  -5  194.08   27.80
  -6  -2  -5  196.68   27.00
  -6  -2  -5  186.48   21.90
   6   2   5  181.88   23.40
   6   2   5  180.98   25.10
  -7  -2  -5   55.89   20.60
  -7  -2  -5   22.00   14.50
  -7  -2  -5   47.00   19.30
   7   2   5   94.59   21.40
   7   2   5   64.39   16.80
   8  -3  -5   19.30   14.00
   8  -3  -5   -2.60   22.10
   8  -3  -5   19.40   11.90
  -8   3   5   24.50   16.50
  -8   3   5   -6.00   13.70
   7  -3  -5  425.16   35.70
   7  -3  -5  335.77   28.80
  -7   3   5  447.16   32.70
  -7   3   5  396.36   30.90
   6  -3  -5   37.90    6.30
   6  -3  -5   19.20   13.10
   6  -3  -5   19.80   10.40
  -6   3   5   26.50   11.00
  -6   3   5   26.30   11.30
   5  -3  -5  573.64   23.30
   5  -3  -5  576.14   41.70
   5  -3  -5  605.94   31.20
  -5   3   5  545.75   31.80
  -5   3   5  633.74   31.70
   4  -3  -5  291.67   19.40
   4  -3  -5  314.77   22.80
  -4   3   5  319.17   20.90
  -4   3   5  301.47   22.40
  -4   3   5  272.17   21.90
   3  -3  -5  450.15   26.00
   3  -3  -5  436.36   22.10
  -3   3   5  447.56   22.60
  -3   3   5  461.05   26.40
  -3   3   5  430.56   25.80
   2  -3  -5  228.48   17.90
   2  -3  -5  220.88   17.80
   2  -3  -5  217.48   14.20
  -2   3   5  210.28   17.70
  -2   3   5  207.98   17.30
   1  -3  -5  697.33   31.60
   1  -3  -5  705.33   31.90
   1  -3  -5  673.63   25.50
   1  -3  -5  690.83   31.30
  -1   3   5  710.23   32.40
  -1   3   5  660.63   31.00
  -1   3   5  677.13   24.00
   0  -3  -5   18.60    6.70
   0  -3  -5   20.50    5.70
   0  -3  -5    1.50    6.00
   0  -3  -5   10.50    7.00
   0   3   5   14.30    4.80
   0   3   5    7.40    6.00
   0   3   5   17.80    6.90
  -1  -3  -5   24.50    7.40
  -1  -3  -5   26.10    8.90
  -1  -3  -5   22.20    7.10
   1   3   5    6.70    6.90
   1   3   5   34.80    8.70
  -2  -3  -5  237.98   17.90
  -2  -3  -5  249.48   18.60
  -2  -3  -5  229.98   20.30
   2   3   5  203.98   19.40
   2   3   5  248.48   20.50
   2   3   5  215.48   18.00
  -3  -3  -5  348.57   31.00
  -3  -3  -5  236.48   21.50
  -3  -3  -5  256.97   18.80
  -3  -3  -5  278.97   19.40
   3   3   5  295.47   24.30
   3   3   5  282.37   23.50
   3   3   5  275.47   21.00
  -4  -3  -5  496.45   32.50
  -4  -3  -5  459.05   26.30
  -4  -3  -5  442.36   24.80
  -4  -3  -5  434.16   43.10
   4   3   5  529.85   28.40
   4   3   5  488.35   32.70
   4   3   5  473.15   32.90
  -5  -3  -5  104.39   16.70
  -5  -3  -5  148.19   22.10
  -5  -3  -5  149.59   15.60
  -5  -3  -5  160.38   23.80
   5   3   5  184.48   25.60
   5   3   5  146.99   19.20
   5   3   5  145.19   22.10
  -6  -3  -5   45.40   10.10
  -6  -3  -5   42.60   16.80
  -6  -3  -5   84.39   16.90
  -6  -3  -5   61.59   18.50
   6   3   5   46.50   18.20
   6   3   5   29.10   13.50
   6   3   5   62.59   18.10
  -7  -3  -5  190.58   30.20
  -7  -3  -5  176.78   16.00
  -7  -3  -5  189.88   32.50
  -7  -3  -5  191.28   27.50
   7   3   5  232.48   37.50
   7   3   5  203.58   26.10
   7   3   5  195.48   31.70
   8  -4  -5  132.89   21.80
   8  -4  -5  101.79   21.40
   8  -4  -5  142.39   27.80
  -8   4   5   85.29   20.10
  -8   4   5  116.49   22.90
  -8   4   5   90.59   23.10
   7  -4  -5  112.89   22.50
   7  -4  -5   65.39   16.70
  -7   4   5   74.09   18.10
   6  -4  -5  120.09   18.10
   6  -4  -5  140.19   22.80
   6  -4  -5  134.29   11.40
  -6   4   5  148.19   22.70
  -6   4   5  139.49   19.90
   5  -4  -5 1238.18   53.39
   5  -4  -5 1215.98   48.10
  -5   4   5  989.90   68.49
  -5   4   5 1219.28   51.29
   4  -4  -5 2673.03   83.09
   4  -4  -5 2538.95   76.19
  -4   4   5 2645.54   83.89
  -4   4   5 2624.14   82.59
  -4   4   5 2603.74   77.09
   3  -4  -5  169.98   18.30
   3  -4  -5  180.18   15.70
  -3   4   5  191.68   18.50
  -3   4   5  156.18   17.20
  -3   4   5  168.78   15.30
   2  -4  -5    0.10    6.50
   2  -4  -5   10.90    5.90
   2  -4  -5    2.80    4.30
   2  -4  -5    5.50    6.50
   2  -4  -5   -2.80    5.20
  -2   4   5   -2.30    6.70
  -2   4   5    1.60    6.50
   1  -4  -5   57.79   11.50
   1  -4  -5   30.00    9.80
   1  -4  -5   24.70    8.90
   1  -4  -5   41.40    8.00
  -1   4   5   27.10    8.50
  -1   4   5   34.10   10.20
   0  -4  -5   57.79   10.70
   0  -4  -5   51.39   11.30
   0  -4  -5   39.90   10.90
   0  -4  -5   66.39   10.40
   0   4   5   38.90   10.10
   0   4   5   49.50   11.70
  -1  -4  -5   57.19   12.70
  -1  -4  -5   21.30    7.00
  -1  -4  -5   25.70    8.90
   1   4   5   23.40    8.40
   1   4   5   20.30    9.40
   1   4   5   40.80   10.70
  -2  -4  -5  448.96   35.30
  -2  -4  -5  361.06   22.90
  -2  -4  -5  368.06   24.90
   2   4   5  382.16   25.30
   2   4   5  361.76   26.30
   2   4   5  347.97   25.70
  -3  -4  -5  206.68   30.60
  -3  -4  -5  200.78   19.50
  -3  -4  -5  213.18   21.00
   3   4   5  230.08   22.10
   3   4   5  201.68   29.50
   3   4   5  209.18   21.20
  -4  -4  -5  597.54   32.20
  -4  -4  -5  531.55   30.50
  -4  -4  -5  566.54   34.80
  -4  -4  -5  476.55   35.60
   4   4   5  562.44   32.50
   4   4   5  533.05   37.00
   4   4   5  508.25   34.60
  -5  -4  -5 1253.57   60.69
  -5  -4  -5 1188.18   51.09
  -5  -4  -5 1177.58   47.20
  -5  -4  -5 1229.08   57.69
   5   4   5 1065.69   56.09
   5   4   5 1260.37   57.99
  -6  -4  -5    6.80   10.80
  -6  -4  -5    6.10   15.10
  -6  -4  -5   35.20   19.50
   6   4   5    0.70   14.40
   6   4   5   14.70   13.90
   6   4   5   -2.00   14.10
   8  -5  -5  -29.10   20.60
  -8   5   5  -20.50   18.30
  -8   5   5  -20.50   18.50
  -8   5   5   22.60   17.50
   7  -5  -5   18.10   13.00
   7  -5  -5   -9.80   15.20
  -7   5   5   -4.70   15.10
  -7   5   5    3.70   14.30
   6  -5  -5  137.99   22.10
   6  -5  -5  103.29   12.10
   6  -5  -5  102.89   18.20
  -6   5   5  132.49   20.10
   5  -5  -5  467.95   33.40
   5  -5  -5  536.05   33.10
  -5   5   5  465.25   33.60
  -5   5   5  591.14   33.80
   4  -5  -5   13.30   16.90
   4  -5  -5   12.40    8.70
  -4   5   5   11.30    8.50
  -4   5   5   11.00   10.40
  -4   5   5   -5.80    7.50
   3  -5  -5   65.29   13.40
   3  -5  -5   62.39   12.20
  -3   5   5   47.70   12.60
  -3   5   5   53.49   12.60
   2  -5  -5  632.64   32.30
   2  -5  -5  679.93   36.10
   2  -5  -5  616.24   30.20
   2  -5  -5  664.23   36.70
  -2   5   5  646.54   33.60
  -2   5   5  599.04   35.90
  -2   5   5  612.04   19.90
   1  -5  -5   81.59   13.80
   1  -5  -5  106.79   14.30
   1  -5  -5   86.09   15.60
   1  -5  -5  104.99   17.10
  -1   5   5  122.19   18.30
  -1   5   5   92.09   14.70
   0  -5  -5 1227.28   45.30
   0  -5  -5 1194.78   46.40
   0  -5  -5 1148.29   49.40
   0  -5  -5 1121.09   51.49
   0   5   5 1145.09   49.50
   0   5   5 1120.39   45.80
  -1  -5  -5    1.30    5.20
  -1  -5  -5   13.40    9.60
  -1  -5  -5   13.20    9.20
   1   5   5    3.40    8.60
   1   5   5    1.70    7.40
   1   5   5   20.30    6.10
  -2  -5  -5  252.77   19.50
  -2  -5  -5  223.28   22.30
   2   5   5  277.17   23.10
   2   5   5  230.48   24.10
   2   5   5  232.18   23.10
  -3  -5  -5   89.69   15.60
  -3  -5  -5  111.39   17.80
   3   5   5   72.79   16.30
   3   5   5  131.39   20.60
   3   5   5   78.79   18.30
  -4  -5  -5  -27.40   11.60
  -4  -5  -5    4.30   10.80
  -4  -5  -5    7.80   10.90
   4   5   5    3.70   12.00
   4   5   5   32.90   12.30
   4   5   5   13.70   13.00
  -5  -5  -5   26.30   14.50
  -5  -5  -5   36.60   14.00
  -5  -5  -5   41.30   18.80
  -5  -5  -5   48.80   16.40
   5   5   5   14.90   14.20
   5   5   5    3.20   14.50
  -6  -5  -5   59.99   16.50
  -6  -5  -5   33.30   17.30
  -6  -5  -5   28.90   19.10
  -6  -5  -5   45.80   23.20
   6   5   5   42.10   20.30
   6   5   5   69.29   21.30
   6   5   5   26.80   16.50
   7  -6  -5  109.09   25.70
   7  -6  -5  144.99   13.30
   7  -6  -5  144.69   23.80
  -7   6   5  166.98   28.60
  -7   6   5  102.39   23.90
   6  -6  -5  279.27   27.00
   6  -6  -5  265.67   31.80
  -6   6   5  285.57   31.10
  -6   6   5  163.78   27.10
   5  -6  -5  267.37   27.10
   5  -6  -5  240.78   25.20
  -5   6   5  265.07   29.10
  -5   6   5  258.27   26.50
   4  -6  -5  420.46   31.10
  -4   6   5  403.06   37.30
   3  -6  -5   -2.70    8.30
   3  -6  -5    8.10    9.80
   3  -6  -5  -10.40    7.60
   3  -6  -5   -5.70    8.30
  -3   6   5    5.10    2.60
  -3   6   5   -8.50    8.60
   2  -6  -5    5.70    9.30
   2  -6  -5   22.00   11.20
   2  -6  -5    4.30    8.40
   2  -6  -5    7.40    7.70
  -2   6   5   -0.60    7.10
   1  -6  -5   81.19   14.00
   1  -6  -5   94.29   16.90
   1  -6  -5   93.19   14.90
   1  -6  -5   85.29   17.50
  -1   6   5   72.69   14.20
  -1   6   5   96.99   17.60
   0  -6  -5   51.29   12.60
   0  -6  -5   52.29   11.90
   0  -6  -5   60.79   25.90
   0   6   5   44.90   11.80
   0   6   5   81.49   17.20
   0   6   5   63.69    7.60
  -1  -6  -5   34.80   23.80
   1   6   5    3.30    6.00
   1   6   5    9.50    8.60
   1   6   5    0.10   10.70
  -2  -6  -5 1190.38   44.20
  -2  -6  -5 1148.89   70.39
   2   6   5 1183.98   54.99
   2   6   5 1248.18   51.29
   2   6   5 1131.69   41.00
  -3  -6  -5 1098.19   46.90
  -3  -6  -5 1162.38   54.09
  -3  -6  -5 1242.38   59.59
   3   6   5 1114.79   54.89
   3   6   5 1101.39   50.69
   3   6   5 1111.99   57.59
  -4  -6  -5   40.50   24.70
  -4  -6  -5    4.30   16.90
  -4  -6  -5   -6.70   13.40
  -4  -6  -5   15.70   13.80
   4   6   5    4.30   14.20
   4   6   5   31.60   13.80
   4   6   5    6.60   14.90
  -5  -6  -5    1.90   16.10
  -5  -6  -5   12.80   18.30
  -5  -6  -5    2.10   14.40
  -5  -6  -5  -18.20   14.00
   5   6   5    8.10   17.10
   5   6   5   -8.50   14.60
   6  -7  -5    1.00   14.90
   6  -7  -5    0.20   16.30
  -6   7   5   -2.40   20.30
   5  -7  -5  706.43   44.10
   5  -7  -5  720.63   43.40
  -5   7   5  665.63   45.30
   4  -7  -5  318.67   28.60
   4  -7  -5  310.87   27.90
  -4   7   5  320.07   32.60
   3  -7  -5   19.40   12.20
   3  -7  -5   40.10   14.50
   3  -7  -5   38.10   12.60
   3  -7  -5   38.00   15.30
  -3   7   5   14.50   16.40
  -3   7   5   38.40   13.40
   2  -7  -5   96.29   17.50
   2  -7  -5   46.20   18.60
   2  -7  -5  102.89   20.00
   2  -7  -5   94.69   17.10
  -2   7   5   94.69   17.20
   1  -7  -5   54.19   16.10
   1  -7  -5   59.29   12.80
   1  -7  -5   64.49   14.10
  -1   7   5   77.19   14.40
  -1   7   5   66.39   17.10
   0  -7  -5   37.40   15.80
   0  -7  -5   27.20   11.30
   0  -7  -5   22.80   12.90
   0   7   5   43.30    7.90
   0   7   5   51.39   16.60
   0   7   5   12.00    9.90
  -1  -7  -5  209.58   28.40
   1   7   5  254.57   31.10
   1   7   5  227.48   16.30
   1   7   5  219.48   22.10
  -2  -7  -5   43.40   16.80
  -2  -7  -5   28.40    9.80
  -2  -7  -5   33.00   15.80
   2   7   5   52.49   15.30
   2   7   5   61.49   18.90
   2   7   5   29.70   10.60
  -3  -7  -5   12.80   11.20
  -3  -7  -5   28.20   16.20
   3   7   5   22.50   11.20
   3   7   5   28.20   17.40
  -4  -7  -5  -31.30   14.60
  -4  -7  -5  -10.00   14.90
  -4  -7  -5  -13.80   13.20
  -4  -7  -5  -20.90   18.00
   4   7   5    5.10   14.10
   4   7   5  -20.70   18.00
   5  -8  -5   30.80   17.60
   5  -8  -5   59.29   18.70
  -5   8   5   86.19   25.80
   4  -8  -5  480.95   36.00
   4  -8  -5  494.65   38.40
   3  -8  -5    2.60   15.80
   3  -8  -5   -0.50   11.20
   3  -8  -5    3.20   12.60
   3  -8  -5    2.50   14.30
  -3   8   5   13.30   12.20
  -3   8   5    7.20   17.50
   2  -8  -5  352.36   28.40
   2  -8  -5  343.87   30.00
   2  -8  -5  369.86   35.50
   2  -8  -5  389.06   35.00
  -2   8   5  365.26   28.80
  -2   8   5  400.36   36.50
   1  -8  -5   55.49   17.60
   1  -8  -5   10.10   14.10
   1  -8  -5    4.80   13.40
   1  -8  -5   37.70   17.80
  -1   8   5   33.20   16.00
  -1   8   5   16.90   11.50
   0  -8  -5  454.15   38.20
   0  -8  -5  413.36   38.50
   0  -8  -5  458.05   35.90
   0   8   5  479.15   41.40
   0   8   5  427.66   29.10
  -1  -8  -5  213.58   26.70
  -1  -8  -5  234.48   32.00
   1   8   5  296.77   35.10
   1   8   5  243.88   18.70
   1   8   5  244.18   24.20
  -2  -8  -5  153.58   27.80
  -2  -8  -5  132.99   26.20
   2   8   5  201.28   19.70
   2   8   5  142.69   20.80
   2   8   5  188.58   30.10
  -3  -8  -5   66.39   22.20
  -3  -8  -5   50.99   13.70
  -3  -8  -5   95.99   31.40
   3   8   5   92.19   20.00
   3   8   5   61.79   26.20
   3  -9  -5  134.49   26.40
   3  -9  -5  107.19   21.10
   3  -9  -5  116.09   24.20
   3  -9  -5  146.59   25.20
  -3   9   5   77.99   26.60
   2  -9  -5    2.30   17.10
   2  -9  -5   11.00   16.10
   2  -9  -5   -0.40   13.70
  -2   9   5    1.50   19.40
  -2   9   5    3.90   12.00
   1  -9  -5   34.40   15.70
   1  -9  -5   50.19   23.90
   1  -9  -5   36.00   18.60
   1  -9  -5   31.70   20.00
  -1   9   5   21.20   13.90
  -1   9   5   26.10   19.00
   0  -9  -5   46.30   25.20
   0  -9  -5   26.80   16.90
   0  -9  -5   42.90   21.80
   0   9   5   57.29   21.40
   0   9   5   17.40   13.40
  -1  -9  -5   21.10   18.00
  -1  -9  -5    5.70   22.80
   1   9   5    6.50   13.10
   1   9   5  -10.30   10.60
   1   9   5  -11.20   22.40
   3  11  -6   14.40   14.80
  -3 -11   6  -16.80   19.40
  -3 -11   6    0.10   13.70
   2  11  -6   10.70   14.30
  -2 -11   6   19.00   14.50
  -2 -11   6   30.80   19.90
   1  11  -6   -1.40    9.60
   1  11  -6   -1.20   13.10
  -1 -11   6    3.50   10.80
  -1 -11   6  -18.40   11.30
  -1 -11   6   45.90   20.70
   0  11  -6  180.38   21.40
   0  11  -6  225.68   33.40
   0 -11   6  195.78   24.10
   0 -11   6  126.59   27.00
   0 -11   6  179.38   19.10
   0 -11   6  220.58   31.00
  -1  11  -6  956.90   56.79
  -1  11  -6  884.61   44.70
   1 -11   6  987.70   56.49
   1 -11   6  749.73   51.39
  -2  11  -6   37.00   16.00
  -2  11  -6   38.60   17.40
   2 -11   6   37.60   18.10
   2 -11   6    0.40   15.70
  -3  11  -6    5.20   15.10
  -3  11  -6   27.00   19.50
  -3  11  -6    2.20   14.40
   3 -11   6   -0.30    7.30
   3 -11   6   11.60   16.10
   3 -11   6    2.80   16.60
   3 -11   6   -6.30    7.00
   3 -11   6   21.20   15.00
   4  10  -6  155.58   28.80
  -4 -10   6  124.49   28.60
  -4 -10   6  155.28   21.10
   3  10  -6   -2.30   12.30
  -3 -10   6  -19.30   14.10
  -3 -10   6   -1.00   11.70
   2  10  -6   13.60   13.10
  -2 -10   6    4.80   10.20
  -2 -10   6    1.40   13.90
   1  10  -6  106.19   21.70
   1  10  -6   96.39   14.20
  -1 -10   6   83.39   20.80
  -1 -10   6   85.89   16.10
  -1 -10   6  109.09   15.60
   0  10  -6   53.89   12.90
   0  10  -6   46.00   16.00
   0 -10   6   49.20   11.80
   0 -10   6   34.90   17.40
   0 -10   6   60.19   18.10
  -1  10  -6   93.09   21.30
   1 -10   6   98.69   20.90
   1 -10   6   99.39   14.30
   1 -10   6   48.80   18.20
  -2  10  -6    1.30   11.10
  -2  10  -6   36.40   14.10
   2 -10   6   29.70    7.10
   2 -10   6   30.00   15.60
   2 -10   6   33.60   16.50
  -3  10  -6   59.59   22.70
  -3  10  -6   73.59   17.90
  -3  10  -6  111.29   23.70
   3 -10   6   49.10   16.70
   3 -10   6   82.09   11.90
   3 -10   6   80.89   19.80
   3 -10   6   94.09   18.00
  -4  10  -6   38.30   17.30
   4 -10   6   42.50   13.90
   4 -10   6   57.89   17.80
   4 -10   6   48.60   18.30
   4 -10   6   33.10   11.80
  -5  10  -6  342.67   38.40
   5 -10   6  410.96   31.80
   5 -10   6  359.86   27.30
   5 -10   6  347.07   32.00
   5   9  -6   55.39   20.30
   5   9  -6   47.20    5.60
  -5  -9   6   68.39   23.50
  -5  -9   6   53.19   13.70
   4   9  -6  157.78   27.90
  -4  -9   6  167.28   29.00
  -4  -9   6  173.88   19.40
   3   9  -6   50.09   17.00
  -3  -9   6   27.90   10.70
  -3  -9   6   45.30   18.60
   2   9  -6  364.56   32.80
  -2  -9   6  365.46   24.60
  -2  -9   6  322.97   32.00
   1   9  -6  335.07   31.30
  -1  -9   6  325.17   23.50
  -1  -9   6  294.67   30.70
   0   9  -6   40.80   11.00
   0   9  -6   21.60   13.50
   0  -9   6   27.60    9.50
   0  -9   6   25.00   13.00
  -1   9  -6  956.70   42.80
  -1   9  -6  910.51   50.19
   1  -9   6  835.52   46.30
   1  -9   6  837.82   21.60
   1  -9   6  947.61   38.80
   1  -9   6  870.41   22.10
  -2   9  -6  427.86   31.10
  -2   9  -6  513.65   37.30
   2  -9   6  492.05   35.60
   2  -9   6  497.95   21.20
   2  -9   6  450.85   33.50
   2  -9   6  467.55   21.80
  -3   9  -6    1.30    9.90
  -3   9  -6   10.00   12.20
   3  -9   6    0.00    9.40
   3  -9   6    5.10   10.80
   3  -9   6   23.20   11.20
  -4   9  -6   82.69   19.10
   4  -9   6   68.79   14.90
   4  -9   6   50.69   21.30
   4  -9   6   67.79   17.60
   4  -9   6   58.39   16.30
  -5   9  -6   24.50   17.70
   5  -9   6    2.40   13.80
   5  -9   6   40.40   11.80
   5  -9   6   86.49   15.90
   5  -9   6   89.99   20.20
   6   8  -6   -3.70    9.50
  -6  -8   6   -5.10   10.60
  -6  -8   6   -3.50   18.70
  -6  -8   6   13.40   17.00
   5   8  -6   12.90    6.90
  -5  -8   6    7.40    8.70
  -5  -8   6   37.60   15.90
   4   8  -6   11.00    4.10
   4   8  -6    6.00   11.20
  -4  -8   6   12.40    7.70
  -4  -8   6   25.40   12.30
   3   8  -6   -0.30    7.90
  -3  -8   6    6.70    6.90
  -3  -8   6    0.60   11.40
   2   8  -6  162.68   26.30
  -2  -8   6  196.68   16.70
  -2  -8   6  152.58   23.90
   1   8  -6  333.07   29.50
  -1  -8   6  344.47   21.90
  -1  -8   6  326.87   29.30
   0   8  -6  164.38   24.40
   0   8  -6  159.78   16.60
   0  -8   6  123.79   20.20
   0  -8   6  183.08   17.30
  -1   8  -6  144.29   22.70
  -1   8  -6  181.88   18.60
   1  -8   6  184.08   22.50
   1  -8   6  150.68   21.80
   1  -8   6  168.38   17.10
   1  -8   6  176.98   11.40
  -2   8  -6  612.54   34.40
  -2   8  -6  584.04   37.70
   2  -8   6  556.54   30.20
   2  -8   6  528.35   29.70
   2  -8   6  581.54   35.50
   2  -8   6  532.25   25.30
   2  -8   6  563.34   34.00
  -3   8  -6  331.57   27.30
  -3   8  -6  286.27   27.60
   3  -8   6  353.06   27.40
   3  -8   6  296.67   22.00
   3  -8   6  390.96   28.60
  -4   8  -6   18.10   13.00
   4  -8   6   17.70   12.00
   4  -8   6   13.40    9.60
   4  -8   6   10.00   11.70
   4  -8   6    7.30    7.70
  -5   8  -6    7.40   15.40
  -5   8  -6   57.69   15.00
   5  -8   6   41.40   10.00
   5  -8   6   33.60   15.10
   5  -8   6   36.70   13.20
   5  -8   6   38.90   10.40
  -6   8  -6  169.28   27.40
  -6   8  -6  137.79   21.70
   6  -8   6  122.39   23.20
   6  -8   6  143.89   22.10
  -7  -7   6   45.30   21.50
  -7  -7   6   69.49   14.10
  -7  -7   6   61.29   23.20
   6   7  -6    8.20    9.90
  -6  -7   6   36.20   17.00
  -6  -7   6   10.90    8.50
  -6  -7   6    5.70   14.60
   5   7  -6   94.59   12.90
  -5  -7   6   88.79   20.20
  -5  -7   6   67.19   18.80
  -5  -7   6   69.89   11.20
   4   7  -6    2.00    4.90
  -4  -7   6    0.90    5.80
  -4  -7   6    5.50   11.20
   3   7  -6   41.50    5.80
   3   7  -6   22.90   11.50
  -3  -7   6   31.10   13.90
  -3  -7   6   41.30    7.90
   2   7  -6  344.57   28.10
  -2  -7   6  338.37   18.60
  -2  -7   6  297.07   26.10
   1   7  -6 1205.08   53.59
  -1  -7   6 1180.38   51.49
   0   7  -6 1139.29   50.79
   0   7  -6 1062.59   40.00
   0  -7   6 1091.89   42.10
   0  -7   6 1091.39   48.20
   0  -7   6 1077.69   29.30
  -1   7  -6 1202.08   46.60
  -1   7  -6 1248.68   53.49
   1  -7   6 1243.08   49.60
   1  -7   6 1208.98   50.29
   1  -7   6 1249.47   46.10
   1  -7   6 1287.07   47.70
  -2   7  -6   -0.90    9.00
  -2   7  -6   -8.80    6.70
   2  -7   6   -5.80    6.10
   2  -7   6   10.10    7.90
   2  -7   6    8.70    6.40
   2  -7   6  -10.30    6.20
  -3   7  -6 1201.88   51.29
   3  -7   6 1252.47   49.80
   3  -7   6 1230.58   44.60
   3  -7   6 1192.58   47.20
   3  -7   6 1212.68   48.70
  -4   7  -6   10.20   10.40
  -4   7  -6   -0.10    7.90
   4  -7   6   18.80    7.70
   4  -7   6    8.20    9.10
   4  -7   6   -3.80    6.60
   4  -7   6   -2.30   11.70
  -5   7  -6  402.06   32.70
  -5   7  -6  435.76   34.40
   5  -7   6  419.16   22.30
   5  -7   6  424.46   21.60
   5  -7   6  415.16   29.40
   5  -7   6  441.96   34.00
  -6   7  -6   47.00   15.50
  -6   7  -6   81.19   20.60
  -6   7  -6   49.30   16.70
   6  -7   6   59.79   17.40
   6  -7   6   68.49   15.50
  -7   7  -6    6.30   14.90
  -7   7  -6   -2.70   20.50
   7  -7   6    3.90   18.10
   7  -7   6  -12.20   13.50
   7   6  -6   17.40   13.30
   7   6  -6   -2.80    8.50
  -7  -6   6   17.40   16.30
  -7  -6   6  -28.50   14.10
   6   6  -6   20.10   11.10
  -6  -6   6   47.50   15.80
  -6  -6   6   30.90    8.60
  -6  -6   6   17.90   14.00
   5   6  -6   64.39   12.10
  -5  -6   6   27.00   13.60
  -5  -6   6   88.89   10.50
  -5  -6   6   70.89   15.90
   4   6  -6  509.15   24.20
  -4  -6   6  557.74   21.90
  -4  -6   6  504.85   33.70
   3   6  -6   46.70    7.50
  -3  -6   6   70.79   14.20
  -3  -6   6   42.30    7.20
   2   6  -6  586.34   20.60
   2   6  -6  620.24   35.60
  -2  -6   6  623.44   34.10
   1   6  -6   34.30   12.00
  -1  -6   6   36.30    4.90
  -1  -6   6   29.90    6.30
  -1  -6   6   43.10   10.70
   0   6  -6  276.47   22.70
   0  -6   6  282.37   14.00
   0  -6   6  299.37   19.80
   0  -6   6  300.97   17.80
   0  -6   6  325.07   23.00
   0  -6   6  310.17   20.70
   1  -6   6   21.70    7.30
   1  -6   6   20.80    7.60
   1  -6   6   10.50    7.40
   1  -6   6   21.70    6.10
   1  -6   6   29.20    8.30
   1  -6   6   19.70    7.50
  -2   6  -6   82.49   15.00
  -2   6  -6   84.19   13.90
   2  -6   6   95.69   13.70
   2  -6   6   81.49   12.20
   2  -6   6   80.09   13.30
   2  -6   6   66.59   12.40
   2  -6   6   71.29   12.80
   2  -6   6   45.80   10.00
  -3   6  -6  171.68   16.80
  -3   6  -6  159.68   19.90
   3  -6   6  193.18   19.40
   3  -6   6  170.18   14.70
   3  -6   6  188.78   18.00
   3  -6   6  169.98   15.40
   3  -6   6  156.48   16.50
  -4   6  -6   10.90    8.50
  -4   6  -6    4.50    7.30
   4  -6   6   22.70   11.80
   4  -6   6    3.50    6.90
   4  -6   6   17.40    6.10
   4  -6   6    3.10    5.10
   4  -6   6    0.90    7.10
  -5   6  -6  506.05   35.90
  -5   6  -6  492.95   31.90
  -5   6  -6  489.45   38.00
   5  -6   6  500.45   34.30
  -6   6  -6  217.98   26.80
   6  -6   6  219.08   28.10
   6  -6   6  230.98   23.30
  -7   6  -6   39.80   17.10
  -7   6  -6   17.00   18.00
   7  -6   6   32.20   18.60
   7  -6   6   20.40   14.70
   8   5  -6  142.99   17.60
   8   5  -6  179.78   27.80
  -8  -5   6  130.09   24.50
  -8  -5   6  145.39   20.80
  -8  -5   6  169.88   28.00
   7   5  -6  207.58   25.80
   7   5  -6  191.18   18.00
  -7  -5   6  155.88   21.40
  -7  -5   6  149.88   23.70
  -7  -5   6  173.18   25.30
   6   5  -6    6.20    5.70
   6   5  -6    7.20    9.10
  -6  -5   6    2.80    9.40
  -6  -5   6   11.80   10.80
  -6  -5   6    5.80    8.80
   5   5  -6    9.90    7.60
  -5  -5   6   10.60    9.40
  -5  -5   6   -0.30    7.60
  -5  -5   6   13.00    9.40
   4   5  -6   45.70    9.40
  -4  -5   6   63.09   14.20
  -4  -5   6   55.79    6.40
  -4  -5   6   64.19   13.50
   3   5  -6   52.49    8.90
  -3  -5   6   62.69    5.20
  -3  -5   6   53.89    4.80
  -3  -5   6   87.39   14.40
   2   5  -6 3657.13  104.09
   2   5  -6 3508.65   91.79
  -2  -5   6 3826.62  102.39
  -2  -5   6 3761.62   86.69
  -2  -5   6 3726.53   98.39
  -2  -5   6 3694.23   81.79
   1   5  -6 4380.46  108.79
   1   5  -6 4569.94  121.09
  -1  -5   6 4689.33  118.79
  -1  -5   6 4724.13  106.69
  -1  -5   6 4635.74  103.89
  -1  -5   6 4470.15  114.69
   0   5  -6   -2.80    6.30
   0  -5   6    6.50    5.30
   0  -5   6   -1.10    3.90
   0  -5   6    2.00    5.30
   0  -5   6   -3.90    4.20
   0  -5   6   -4.80    3.20
  -1   5  -6  367.16   23.50
   1  -5   6  364.96   20.70
   1  -5   6  343.97   19.20
   1  -5   6  320.27   18.10
   1  -5   6  374.06   21.50
   1  -5   6  372.66   20.00
   1  -5   6  363.26   22.30
   1  -5   6  365.56   20.50
  -2   5  -6   90.99   14.90
   2  -5   6  113.49   14.00
   2  -5   6   74.09   12.20
   2  -5   6   92.29   12.00
   2  -5   6  110.69   11.80
   2  -5   6   91.59   14.20
   2  -5   6  114.89   11.70
  -3   5  -6    2.70    5.40
   3  -5   6    5.30    5.40
   3  -5   6   17.40    7.80
   3  -5   6    4.60    4.60
   3  -5   6   11.70    7.00
  -4   5  -6   41.80   10.70
  -4   5  -6   32.30    9.60
   4  -5   6   42.00   11.20
   4  -5   6   32.60    5.30
   4  -5   6   28.00    9.50
   4  -5   6   26.90    8.20
  -5   5  -6  159.28   19.70
  -5   5  -6  165.28   25.90
   5  -5   6  151.18   20.60
   5  -5   6  145.29   17.90
  -6   5  -6  634.74   37.30
  -6   5  -6  668.73   40.40
   6  -5   6  659.53   40.30
   6  -5   6  657.83   36.20
  -7   5  -6  299.57   32.40
  -7   5  -6  305.97   32.50
   7  -5   6  268.17   32.80
   7  -5   6  276.27   27.10
   8   4  -6   15.10   10.20
   8   4  -6   32.10   17.50
  -8  -4   6   23.40   11.40
  -8  -4   6    2.40   17.40
  -8  -4   6   30.30   17.40
   7   4  -6  300.47   28.50
   7   4  -6  261.77   19.10
  -7  -4   6  253.67   22.60
  -7  -4   6  303.17   29.20
   6   4  -6  216.78   15.00
   6   4  -6  204.08   21.40
  -6  -4   6  223.18   19.20
  -6  -4   6  261.27   24.50
   5   4  -6   26.30    5.40
   5   4  -6   17.10    8.50
  -5  -4   6   20.20    9.70
  -5  -4   6   18.00    8.10
   4   4  -6    6.70    6.20
  -4  -4   6   17.30    6.80
  -4  -4   6    7.50    6.40
   3   4  -6    7.40    4.60
  -3  -4   6   -5.00    4.20
  -3  -4   6    4.60    4.30
   2   4  -6   15.60    7.80
   2   4  -6    8.20    4.90
  -2  -4   6    8.10    3.90
  -2  -4   6    0.20    5.10
   1   4  -6  143.59   11.40
   1   4  -6  164.48   15.90
  -1  -4   6  151.28   11.10
  -1  -4   6  155.78    7.70
  -1  -4   6  163.58   13.80
   0   4  -6   82.49   13.10
   0  -4   6   91.39   10.70
   0  -4   6  100.39   10.00
   0  -4   6   90.59   12.40
   0  -4   6   74.79   10.30
   0  -4   6   84.19   11.50
   0  -4   6   84.39    7.60
  -1   4  -6  325.07   20.40
   1  -4   6  254.07   17.10
   1  -4   6  339.97   17.80
   1  -4   6  286.97   15.60
   1  -4   6  289.27   18.20
   1  -4   6  323.17   17.90
   1  -4   6  290.47   19.60
   1  -4   6  302.27   16.50
  -2   4  -6  580.24   28.80
  -2   4  -6  571.14   28.70
   2  -4   6  585.74   23.70
   2  -4   6  588.74   28.00
   2  -4   6  589.94   26.70
   2  -4   6  546.25   24.10
   2  -4   6  569.34   23.40
   2  -4   6  586.24   29.70
  -3   4  -6 2187.38   68.09
  -3   4  -6 2167.88   61.89
   3  -4   6 2158.28   53.69
   3  -4   6 2091.19   58.79
   3  -4   6 2154.68   60.09
   3  -4   6 2039.60   66.39
   3  -4   6 2137.79   65.99
  -4   4  -6   54.29   12.10
  -4   4  -6   54.89   10.80
   4  -4   6   91.29   18.00
   4  -4   6   77.99   11.50
   4  -4   6   74.19   14.00
  -5   4  -6  114.69   16.30
  -5   4  -6   69.59   17.10
   5  -4   6   67.69   14.40
   5  -4   6   77.59   13.40
   5  -4   6   80.09   16.10
  -6   4  -6  194.08   25.90
  -6   4  -6  291.97   26.00
   6  -4   6  297.47   27.60
   6  -4   6  218.28   26.60
  -7   4  -6  185.48   24.50
  -7   4  -6  105.39   22.40
   7  -4   6  120.49   18.70
   7  -4   6  158.08   24.10
   8   3  -6  231.38   20.30
   8   3  -6  218.68   31.80
  -8  -3   6  292.57   34.40
  -8  -3   6  245.98   20.10
   7   3  -6    6.40    5.80
   7   3  -6  -14.00   11.60
  -7  -3   6   10.40   12.00
  -7  -3   6    2.70    7.10
  -7  -3   6   -9.80    7.10
   6   3  -6  643.44   36.30
   6   3  -6  600.04   24.60
  -6  -3   6  655.73   29.30
  -6  -3   6  626.24   21.10
  -6  -3   6  618.54   35.90
   5   3  -6   21.70    4.80
   5   3  -6    6.50    7.10
  -5  -3   6   20.00    9.00
  -5  -3   6   16.60    6.90
   4   3  -6 2253.47   66.99
   4   3  -6 2122.99   50.09
  -4  -3   6 2302.97   64.29
  -4  -3   6 2198.38   66.49
   3   3  -6 1553.84   49.40
  -3  -3   6 1563.44   48.40
  -3  -3   6 1491.55   48.30
  -3  -3   6 1606.94   49.10
   2   3  -6  908.81   33.10
  -2  -3   6  865.81   31.40
  -2  -3   6  910.41   33.20
   1   3  -6 1691.83   50.29
   1   3  -6 1745.83   53.29
  -1  -3   6 1702.53   49.40
  -1  -3   6 1586.94   38.60
  -1  -3   6 1718.03   50.29
   0   3  -6   33.30    7.60
   0   3  -6   25.20    6.40
   0   3  -6   32.20    7.40
   0  -3   6   29.90    7.50
   0  -3   6   39.50    8.10
   0  -3   6   37.60    5.60
   0  -3   6   34.50    6.90
  -1   3  -6  185.78   14.30
  -1   3  -6  208.18   13.90
   1  -3   6  194.48   16.00
   1  -3   6  209.28   16.30
   1  -3   6  219.48   13.70
   1  -3   6  220.88   11.20
   1  -3   6  209.48   15.20
   1  -3   6  203.08   13.80
  -2   3  -6   82.59    8.50
  -2   3  -6   85.59    9.20
  -2   3  -6   78.99   12.00
   2  -3   6   75.69   11.50
   2  -3   6   58.09    9.60
   2  -3   6   79.29    7.40
   2  -3   6   64.79   11.40
   2  -3   6   84.19    7.90
   2  -3   6   90.79   13.60
  -3   3  -6   61.39    9.00
  -3   3  -6   51.59    8.20
  -3   3  -6   82.19   13.30
   3  -3   6   52.09   10.10
   3  -3   6   49.50    4.10
   3  -3   6   51.49    7.80
   3  -3   6   59.89   10.60
  -4   3  -6  243.98   17.50
  -4   3  -6  233.38   15.30
  -4   3  -6  209.08   20.60
   4  -3   6  230.18   20.30
   4  -3   6  245.58   20.90
   4  -3   6  255.27   17.00
  -5   3  -6 2368.06   81.69
  -5   3  -6 2356.16   70.09
  -5   3  -6 2217.58   62.09
   5  -3   6 2220.38   75.49
   5  -3   6 2236.38   67.99
   5  -3   6 2310.47   77.39
  -6   3  -6  769.32   38.90
  -6   3  -6  772.92   45.20
   6  -3   6  815.72   38.30
   6  -3   6  860.01   45.70
  -7   3  -6   30.40   17.50
   7  -3   6   51.99   17.30
   7  -3   6   34.50   13.40
   7  -3   6   12.50   16.60
   9   2  -6   18.00   15.90
  -9  -2   6   12.80    9.00
   8   2  -6   25.60   17.30
   8   2  -6   78.29   13.00
  -8  -2   6   69.79   10.80
  -8  -2   6   61.39   17.80
   7   2  -6   39.20    9.00
   7   2  -6   23.20   14.20
  -7  -2   6   36.30    8.10
  -7  -2   6   44.30    8.90
  -7  -2   6   40.00   13.80
   6   2  -6   -2.10    3.90
  -6  -2   6    3.40    5.70
  -6  -2   6   -2.60    8.00
   5   2  -6  175.68   18.60
   5   2  -6  180.48   15.60
  -5  -2   6  217.28   15.20
  -5  -2   6  218.28   18.60
   4   2  -6  215.48   17.90
   4   2  -6  207.48    9.60
  -4  -2   6  224.48   18.20
  -4  -2   6  227.38   16.70
  -4  -2   6  202.08   14.60
   3   2  -6   51.99   10.20
   3   2  -6   51.49    2.90
   3   2  -6   46.30    3.20
  -3  -2   6   48.70    8.50
  -3  -2   6   82.09   10.40
  -3  -2   6   54.79    9.80
   2   2  -6  618.34   27.70
   2   2  -6  674.43   26.30
  -2  -2   6  644.74   23.50
  -2  -2   6  642.14   26.10
  -2  -2   6  713.73   28.40
   1   2  -6  588.04   24.40
   1   2  -6  595.74   26.70
   1   2  -6  606.14   24.40
   1   2  -6  596.64   17.40
  -1  -2   6  599.84   18.30
  -1  -2   6  596.64   24.60
  -1  -2   6  550.84   25.40
   0   2  -6 3268.67   77.59
   0   2  -6 3366.96   87.09
   0   2  -6 3325.97   81.29
   0   2  -6 3460.75   83.29
   0  -2   6 3331.47   82.69
   0  -2   6 3220.68   72.29
   0  -2   6 3404.16   78.29
   0  -2   6 3249.57   85.89
   0  -2   6 3195.28   86.49
  -1   2  -6  892.41   30.90
  -1   2  -6  889.71   35.20
  -1   2  -6  873.81   31.00
  -1   2  -6  842.72   29.80
   1  -2   6  905.61   31.00
   1  -2   6  834.42   23.00
   1  -2   6  889.91   34.80
   1  -2   6  889.21   36.00
  -2   2  -6  120.99   12.10
  -2   2  -6   89.69    9.60
  -2   2  -6   91.19   13.20
  -2   2  -6  104.89    8.00
   2  -2   6  100.89    7.50
   2  -2   6   94.49   14.20
   2  -2   6  109.49   11.50
   2  -2   6   81.29   11.40
   2  -2   6  104.39   13.90
  -3   2  -6   12.30    6.40
  -3   2  -6   12.90    8.00
  -3   2  -6   30.00    6.10
  -3   2  -6   18.10    5.80
   3  -2   6   32.70    8.70
   3  -2   6   29.00    8.80
   3  -2   6   32.80    6.10
  -4   2  -6  100.69   16.20
  -4   2  -6   86.29   11.20
  -4   2  -6   87.39   14.30
  -4   2  -6  101.89   10.90
   4  -2   6  102.19   15.50
   4  -2   6   88.39   11.20
   4  -2   6   60.89   12.70
  -5   2  -6   44.30    8.20
  -5   2  -6   35.90   11.70
  -5   2  -6   34.80    9.30
  -5   2  -6   52.09   14.90
   5  -2   6   54.89   10.20
   5  -2   6   21.90   10.20
   5  -2   6   37.30   11.00
  -6   2  -6  250.27   27.30
  -6   2  -6  223.08   16.10
   6  -2   6  229.08   20.10
   6  -2   6  221.58   24.50
  -7   2  -6    1.60    6.80
  -7   2  -6   16.00   16.50
   7  -2   6  -16.00   12.50
   7  -2   6    4.80   16.00
   7  -2   6   13.20   11.70
   9   1  -6  -11.90   11.70
   9   1  -6   -3.10   23.00
  -9  -1   6   31.90   20.70
  -9  -1   6   -3.30   10.40
   8   1  -6   68.19   22.70
   8   1  -6   62.99   12.60
  -8  -1   6   48.50   10.40
  -8  -1   6   35.10   15.50
   7   1  -6   29.90    8.20
  -7  -1   6   23.20    8.90
  -7  -1   6   17.90   11.70
   6   1  -6   27.90    7.00
   6   1  -6   38.60   11.20
  -6  -1   6   23.60   11.90
   5   1  -6  234.38   21.00
   5   1  -6  249.38   19.10
   5   1  -6  247.48   13.90
  -5  -1   6  211.08   18.30
  -5  -1   6  259.17   15.80
   4   1  -6 1501.95   48.60
   4   1  -6 1476.45   53.09
   4   1  -6 1496.75   39.60
  -4  -1   6 1511.15   48.20
  -4  -1   6 1531.45   52.69
  -4  -1   6 1514.95   45.20
   3   1  -6 1498.15   50.99
   3   1  -6 1560.44   45.20
  -3  -1   6 1485.25   44.10
  -3  -1   6 1522.45   45.30
  -3  -1   6 1522.25   50.49
   2   1  -6 1210.28   38.00
   2   1  -6 1198.68   31.60
   2   1  -6 1225.98   42.70
  -2  -1   6 1176.08   41.80
  -2  -1   6 1212.28   35.40
   1   1  -6 1185.08   32.20
   1   1  -6 1143.29   41.20
   1   1  -6 1188.38   37.60
   1   1  -6 1171.08   34.40
  -1  -1   6 1164.38   41.20
  -1  -1   6 1102.89   28.00
  -1  -1   6 1148.29   33.10
   0   1  -6  924.41   28.50
   0   1  -6  909.61   32.30
   0   1  -6  971.40   37.30
   0   1  -6  932.01   30.00
   0  -1   6  975.70   35.00
   0  -1   6  966.10   37.40
   0  -1   6  933.21   34.90
  -1   1  -6 2392.06   68.69
  -1   1  -6 2432.26   64.69
  -1   1  -6 2272.97   63.09
   1  -1   6 2370.76   64.29
   1  -1   6 2335.27   70.89
   1  -1   6 2434.26   68.19
  -2   1  -6  509.65   23.60
  -2   1  -6  546.55   27.80
  -2   1  -6  526.65   17.60
  -2   1  -6  544.55   25.70
   2  -1   6  535.25   25.90
   2  -1   6  536.15   17.90
   2  -1   6  519.35   18.10
   2  -1   6  498.75   28.50
   2  -1   6  520.95   27.00
  -3   1  -6 3250.87   88.29
  -3   1  -6 2985.60   88.99
  -3   1  -6 3101.79   80.99
  -3   1  -6 3097.29   75.29
   3  -1   6 3103.99   87.19
   3  -1   6 3139.49   75.79
   3  -1   6 3133.29   86.79
   3  -1   6 3088.89   92.99
   3  -1   6 3027.80   67.49
  -4   1  -6  538.45   24.20
  -4   1  -6  505.25   31.40
  -4   1  -6  528.35   25.10
  -4   1  -6  528.15   30.60
   4  -1   6  504.15   28.60
   4  -1   6  516.65   24.00
   4  -1   6  502.05   30.10
  -5   1  -6  326.67   20.00
  -5   1  -6  305.77   20.60
  -5   1  -6  301.87   27.10
   5  -1   6  281.27   23.70
   5  -1   6  297.17   25.60
  -6   1  -6  153.18   23.70
  -6   1  -6  180.58   21.30
  -6   1  -6  144.89   15.60
   6  -1   6  167.48   23.20
   6  -1   6  191.98   23.90
  -7   1  -6    3.10   12.30
  -7   1  -6   -5.10    6.80
   7  -1   6   -9.60   12.90
   7  -1   6   -1.90   14.80
   9   0  -6    9.60   12.80
   9   0  -6  -41.30   21.20
  -9   0   6   15.40   18.80
  -9   0   6    2.40   12.00
   8   0  -6   50.79   12.90
   8   0  -6   60.09   21.50
   8   0  -6   66.59   16.60
  -8   0   6   63.09   13.50
  -8   0   6   75.99   18.10
   7   0  -6   49.60   13.80
   7   0  -6   40.30   10.10
  -7   0   6   35.30   12.50
   6   0  -6  425.26   22.20
   6   0  -6  440.76   31.80
   6   0  -6  429.76   27.80
  -6   0   6  410.76   33.30
   5   0  -6  299.97   21.30
   5   0  -6  309.87   25.30
  -5   0   6  387.36   23.40
   4   0  -6 1028.30   34.10
   4   0  -6 1044.90   43.30
   4   0  -6 1047.70   37.50
  -4   0   6  992.90   36.40
  -4   0   6 1026.70   42.80
   3   0  -6    3.70    6.20
   3   0  -6   13.30    4.80
   3   0  -6    5.00    4.30
  -3   0   6   14.30    4.80
  -3   0   6   13.90    6.40
   2   0  -6  246.58   16.10
   2   0  -6  251.37   15.10
   2   0  -6  260.97   12.60
   2   0  -6  278.87   18.70
  -2   0   6  241.08   11.70
  -2   0   6  253.67   18.20
   1   0  -6  193.28   13.40
   1   0  -6  166.78    7.40
   1   0  -6  199.68   12.30
   1   0  -6  161.58   14.70
  -1   0   6  168.28    7.20
  -1   0   6  182.48   15.80
   0   0  -6  391.36   19.20
   0   0  -6  428.76   24.00
   0   0   6  445.36   21.10
   0   0   6  388.36   15.60
   0   0   6  450.15   20.10
   0   0   6  416.26   24.10
   0   0   6  438.46   21.60
  -1   0  -6   12.00    1.60
  -1   0  -6   16.90    7.00
  -1   0  -6   12.00    5.60
   1   0   6    8.40    5.50
   1   0   6   11.30    6.30
   1   0   6   13.80    4.70
   1   0   6   14.40    5.90
  -2   0  -6   24.00    8.10
  -2   0  -6   37.20    4.90
  -2   0  -6   38.70    8.70
   2   0   6   46.10    9.70
   2   0   6   42.70   10.60
  -3   0  -6  650.33   24.00
  -3   0  -6  665.03   33.90
  -3   0  -6  639.74   32.50
   3   0   6  716.73   33.90
   3   0   6  648.24   35.80
   3   0   6  632.44   22.40
  -4   0  -6   97.99   12.00
  -4   0  -6   95.29   16.20
   4   0   6   62.99   13.10
   4   0   6   77.49   13.40
  -5   0  -6  196.58   17.90
  -5   0  -6  165.68   23.30
   5   0   6  254.57   29.90
   5   0   6  209.48   22.10
  -6   0  -6   47.70   10.60
  -6   0  -6   31.50   13.10
  -6   0  -6   22.60   13.80
   6   0   6   40.10   14.30
   6   0   6   30.80   13.00
  -7   0  -6  458.55   39.00
  -7   0  -6  376.46   38.80
  -7   0  -6  404.56   25.10
   7   0   6  416.96   36.00
   7   0   6  387.36   34.50
   9  -1  -6   -5.90   11.80
   9  -1  -6  -33.00   16.30
  -9   1   6   19.90   13.60
  -9   1   6    6.10   18.60
  -9   1   6   -4.10   16.70
   8  -1  -6  -15.70   11.60
   8  -1  -6   -6.20   15.40
  -8   1   6   -3.10   12.70
  -8   1   6    3.90   11.50
   7  -1  -6   45.60   13.20
   7  -1  -6   38.10   10.30
   7  -1  -6   14.70   13.10
  -7   1   6   47.00   14.50
  -7   1   6   31.60   12.70
   6  -1  -6    4.70   13.10
   6  -1  -6    8.70    6.40
   6  -1  -6   14.20    8.00
  -6   1   6   -7.50    7.30
   5  -1  -6  601.64   23.90
   5  -1  -6  622.64   30.10
   5  -1  -6  566.74   34.20
  -5   1   6  601.34   33.70
  -5   1   6  548.55   28.60
   4  -1  -6 3777.62   95.59
   4  -1  -6 3681.53  104.29
   4  -1  -6 3742.13   91.19
  -4   1   6 3725.33  104.79
  -4   1   6 3766.32   94.89
   3  -1  -6 1904.21   53.79
   3  -1  -6 1923.11   62.29
   3  -1  -6 1892.61   52.59
  -3   1   6 1884.91   59.49
  -3   1   6 1822.22   51.79
  -3   1   6 1905.41   61.89
   2  -1  -6  611.84   30.20
   2  -1  -6  664.43   26.80
   2  -1  -6  634.34   22.10
   2  -1  -6  611.94   26.00
  -2   1   6  685.73   29.70
  -2   1   6  659.73   23.00
  -2   1   6  659.93   31.50
   1  -1  -6  719.13   28.10
   1  -1  -6  641.34   30.40
   1  -1  -6  649.93   19.30
  -1   1   6  632.64   27.70
  -1   1   6  664.43   26.60
  -1   1   6  656.83   31.40
   0  -1  -6  175.28   15.60
   0  -1  -6  174.08   14.10
   0  -1  -6  182.58    7.10
   0   1   6  210.68   17.90
   0   1   6  208.88   14.30
   0   1   6  186.48   13.80
   0   1   6  171.98   14.50
  -1  -1  -6   86.79   12.20
  -1  -1  -6   77.99   11.80
  -1  -1  -6   91.49    5.80
   1   1   6   91.19   10.00
   1   1   6   83.89    8.50
   1   1   6   94.59   13.10
   1   1   6  100.79   15.50
   1   1   6   65.99   10.20
  -2  -1  -6  443.26   17.10
  -2  -1  -6  429.86   25.30
  -2  -1  -6  453.65   26.20
   2   1   6  457.95   28.50
   2   1   6  439.96   21.00
   2   1   6  480.45   26.60
  -3  -1  -6 1631.14   57.99
  -3  -1  -6 1617.24   45.70
  -3  -1  -6 1503.35   56.79
   3   1   6 1570.14   57.49
   3   1   6 1598.74   60.69
   3   1   6 1540.85   46.70
  -4  -1  -6  554.24   25.90
  -4  -1  -6  539.35   34.20
  -4  -1  -6  536.35   32.90
   4   1   6  516.05   32.50
   4   1   6  562.14   35.80
  -5  -1  -6  263.37   20.10
  -5  -1  -6  252.07   26.90
   5   1   6  261.47   26.10
   5   1   6  237.28   25.00
   5   1   6  290.27   26.00
  -6  -1  -6   47.90   13.00
  -6  -1  -6   14.40   14.50
  -6  -1  -6   41.80   15.10
   6   1   6   13.50   13.40
   6   1   6   42.40   13.70
  -7  -1  -6  173.08   30.30
  -7  -1  -6  229.38   31.80
   7   1   6  210.38   32.00
   7   1   6  288.07   32.30
   8  -2  -6   25.60   13.80
   8  -2  -6   28.90   20.20
   8  -2  -6   50.69   14.40
  -8   2   6   55.49   17.90
  -8   2   6   59.39   17.00
  -8   2   6   53.39   15.30
   7  -2  -6   55.19   15.60
   7  -2  -6   66.29   13.30
  -7   2   6   64.69   16.10
  -7   2   6   88.69   19.90
   6  -2  -6   74.79    9.10
   6  -2  -6   77.39   15.00
  -6   2   6   58.49   13.40
  -6   2   6   75.79   15.60
   5  -2  -6  239.38   23.80
   5  -2  -6  216.88   18.70
   5  -2  -6  218.48   14.40
  -5   2   6  210.18   18.10
  -5   2   6  258.67   21.80
  -5   2   6  242.08   23.40
   4  -2  -6   95.89   12.80
   4  -2  -6  110.89   16.60
   4  -2  -6  115.59   11.30
  -4   2   6  117.99   16.00
  -4   2   6  106.09   13.00
  -4   2   6  111.49   16.60
   3  -2  -6  675.03   33.60
   3  -2  -6  649.24   26.30
  -3   2   6  646.94   31.60
  -3   2   6  639.54   26.30
  -3   2   6  637.14   33.00
   2  -2  -6    8.70    6.30
   2  -2  -6   -2.30    2.80
   2  -2  -6   -1.50    4.50
  -2   2   6    4.90    5.20
  -2   2   6   -4.40    3.60
  -2   2   6    3.60    3.70
   1  -2  -6   97.39   13.90
   1  -2  -6  117.39    8.50
   1  -2  -6  119.49   14.60
  -1   2   6  117.49   16.00
  -1   2   6  113.99   10.30
  -1   2   6  141.69   13.50
   0  -2  -6  471.15   26.80
   0  -2  -6  435.16   16.70
   0  -2  -6  482.35   25.70
   0   2   6  454.05   23.90
   0   2   6  475.15   25.90
   0   2   6  446.76   26.80
   0   2   6  464.65   22.00
  -1  -2  -6 1353.86   49.00
  -1  -2  -6 1356.16   46.40
  -1  -2  -6 1309.77   44.00
   1   2   6 1258.17   33.20
   1   2   6 1299.47   48.50
   1   2   6 1379.76   51.79
   1   2   6 1322.87   45.00
  -2  -2  -6  355.56   20.10
  -2  -2  -6  311.87   23.10
  -2  -2  -6  344.77   16.90
  -2  -2  -6  374.06   24.20
   2   2   6  364.96   26.10
   2   2   6  337.17   20.80
   2   2   6  338.77   24.30
  -3  -2  -6  229.38   25.40
  -3  -2  -6  197.88   14.80
  -3  -2  -6  200.08   14.70
  -3  -2  -6  207.78   20.50
   3   2   6  192.58   20.80
   3   2   6  196.68   20.20
   3   2   6  174.88   15.90
  -4  -2  -6   74.39   11.80
  -4  -2  -6   62.29    9.30
  -4  -2  -6   63.89   15.30
   4   2   6   58.19   17.50
   4   2   6   71.89   10.90
   4   2   6   79.39   16.00
  -5  -2  -6  237.98   28.90
  -5  -2  -6  286.17   22.30
   5   2   6  271.07   24.80
   5   2   6  292.77   29.00
   5   2   6  313.07   28.80
  -6  -2  -6   63.79   19.90
  -6  -2  -6   71.79   14.80
  -6  -2  -6   65.69   19.10
   6   2   6   59.29   17.60
   6   2   6   36.70   14.90
   6   2   6   70.99   19.10
  -7  -2  -6   23.00   15.30
  -7  -2  -6   22.00   24.80
   7   2   6   -6.90   16.70
   7   2   6   52.29   26.90
   7   2   6   43.70   19.80
   8  -3  -6  177.68   30.80
   8  -3  -6  130.59   23.30
   8  -3  -6  131.39   20.40
  -8   3   6  120.09   23.50
   7  -3  -6  415.16   31.60
   7  -3  -6  411.86   36.00
  -7   3   6  373.26   31.50
   6  -3  -6 1469.35   43.90
   6  -3  -6 1493.25   57.49
   6  -3  -6 1501.25   64.59
  -6   3   6 1514.05   60.69
  -6   3   6 1473.65   57.19
   5  -3  -6  520.05   28.70
   5  -3  -6  494.05   33.50
   5  -3  -6  456.55   22.70
  -5   3   6  524.55   29.70
  -5   3   6  424.86   57.99
  -5   3   6  514.05   32.10
   4  -3  -6  114.29   14.20
   4  -3  -6  138.79   19.30
  -4   3   6  131.59   14.00
  -4   3   6  124.49   18.10
  -4   3   6  138.99   19.40
   3  -3  -6  121.69   16.60
   3  -3  -6   72.39   10.40
  -3   3   6   96.49   14.90
  -3   3   6  105.19   12.50
  -3   3   6   86.89   14.70
   2  -3  -6   94.39   14.20
   2  -3  -6   90.79    9.90
   2  -3  -6   85.59   13.90
  -2   3   6   92.69   14.80
  -2   3   6  104.39   15.30
  -2   3   6   99.99    9.80
   1  -3  -6   -1.00    3.40
   1  -3  -6    5.00    5.90
   1  -3  -6   12.80    8.40
  -1   3   6   11.50    4.50
  -1   3   6    1.80    5.20
  -1   3   6    0.10    5.50
   0  -3  -6  193.48   12.80
   0  -3  -6  191.48   17.90
   0  -3  -6  222.58   19.20
   0  -3  -6  204.78   17.40
   0   3   6  211.18   18.00
   0   3   6  189.58   13.60
   0   3   6  178.78   18.20
  -1  -3  -6   38.40   10.70
  -1  -3  -6   37.60    9.20
  -1  -3  -6   62.79   11.40
   1   3   6   42.40   10.60
   1   3   6   52.49   11.40
   1   3   6   55.19   11.20
  -2  -3  -6  763.52   36.10
  -2  -3  -6  881.01   36.30
  -2  -3  -6  858.21   41.30
   2   3   6  837.22   41.60
   2   3   6  828.82   40.60
   2   3   6  798.02   36.10
  -3  -3  -6 2919.51   90.19
  -3  -3  -6 3024.90   84.09
  -3  -3  -6 3061.39   81.29
   3   3   6 2991.50   86.79
   3   3   6 3132.89   96.69
  -4  -3  -6  129.49   16.30
  -4  -3  -6  122.09   20.30
  -4  -3  -6  139.79   15.30
   4   3   6  119.79   20.00
   4   3   6  125.59   16.40
   4   3   6  108.49   19.30
  -5  -3  -6  410.06   23.70
  -5  -3  -6  395.96   34.20
  -5  -3  -6  434.66   35.60
  -5  -3  -6  402.16   28.10
   5   3   6  309.87   32.10
   5   3   6  396.36   34.80
   5   3   6  385.06   29.70
  -6  -3  -6   23.40   16.00
  -6  -3  -6   -4.70    8.00
  -6  -3  -6   12.60   15.70
  -6  -3  -6   21.20   13.40
   6   3   6  -13.20   16.40
   6   3   6   -2.30   14.60
   6   3   6   20.30   16.90
   8  -4  -6   29.40   22.80
   8  -4  -6    3.40   14.50
   8  -4  -6  -11.90   12.80
  -8   4   6   16.50   17.90
  -8   4   6   40.80   21.00
   7  -4  -6  212.78   13.70
   7  -4  -6  179.68   29.70
   7  -4  -6  136.49   21.90
  -7   4   6  221.68   27.90
  -7   4   6  192.78   27.40
   6  -4  -6   26.50   11.70
   6  -4  -6   32.50    8.00
   6  -4  -6   11.50   13.70
  -6   4   6   -1.40    9.70
   5  -4  -6   -4.60    5.70
   5  -4  -6    9.70    9.20
   5  -4  -6   28.60   12.40
  -5   4   6   14.00    9.40
  -5   4   6   -1.60    9.80
  -5   4   6   11.00   10.50
   4  -4  -6  593.94   36.90
   4  -4  -6  625.94   31.10
  -4   4   6  646.24   36.60
  -4   4   6  622.94   37.40
  -4   4   6  651.43   32.20
   3  -4  -6   23.80    9.20
   3  -4  -6    2.90    7.60
   3  -4  -6   -8.30    5.30
  -3   4   6   20.90    8.70
   2  -4  -6 1057.79   38.00
   2  -4  -6 1001.50   43.60
   2  -4  -6 1069.09   44.90
  -2   4   6  985.30   32.50
  -2   4   6 1061.49   45.90
  -2   4   6 1042.40   44.80
   1  -4  -6  125.09   17.50
   1  -4  -6  153.18   13.40
   1  -4  -6  143.29   18.80
   1  -4  -6  159.88   19.80
  -1   4   6  157.68   11.60
  -1   4   6  159.18   19.60
  -1   4   6  189.48   18.50
   0  -4  -6   66.39   12.80
   0  -4  -6   72.89   10.80
   0  -4  -6   64.39   13.10
   0  -4  -6   54.39   13.00
   0   4   6   46.90   12.40
   0   4   6   43.20   11.70
  -1  -4  -6   17.20    7.70
  -1  -4  -6   -0.20    7.60
   1   4   6    5.10    7.70
   1   4   6    8.00    8.50
   1   4   6    0.50    7.20
   1   4   6    7.40    6.00
  -2  -4  -6   17.80    8.20
  -2  -4  -6    2.80    8.70
  -2  -4  -6    3.20    8.10
   2   4   6   26.80   11.20
   2   4   6    7.70    8.60
  -3  -4  -6   16.50    9.90
  -3  -4  -6   24.30    9.30
  -3  -4  -6    1.30    9.20
   3   4   6   31.30   11.80
   3   4   6   26.30   12.70
   3   4   6   28.60   12.00
  -4  -4  -6   71.69   25.10
  -4  -4  -6  127.49   17.30
  -4  -4  -6  128.39   17.30
   4   4   6  118.59   21.30
   4   4   6  144.29   23.30
   4   4   6  143.49   19.40
  -5  -4  -6    0.70    9.80
  -5  -4  -6    5.20   16.00
  -5  -4  -6   27.50   16.20
  -5  -4  -6   19.10   11.60
   5   4   6   37.60   17.10
   5   4   6    9.20   14.90
  -6  -4  -6   18.80   17.60
  -6  -4  -6   -5.90   10.40
  -6  -4  -6   15.80   20.80
   6   4   6   -3.80   17.70
   6   4   6   -8.20   18.00
   7  -5  -6  323.47   31.10
   7  -5  -6  251.57   16.70
   7  -5  -6  245.28   49.60
  -7   5   6  263.97   33.30
  -7   5   6  315.27   33.10
   6  -5  -6  433.56   32.70
   6  -5  -6  413.66   23.10
   6  -5  -6  479.75   38.10
  -6   5   6  408.96   35.10
  -6   5   6  323.37   30.00
   5  -5  -6   -3.00   12.30
   5  -5  -6   38.40   12.60
  -5   5   6   26.10   11.70
   4  -5  -6   43.20   11.40
   4  -5  -6   57.19   14.30
  -4   5   6   74.09   13.80
  -4   5   6   49.10   16.70
  -4   5   6   68.49   18.30
   3  -5  -6  153.98   16.20
   3  -5  -6  129.19   19.50
  -3   5   6  165.08   11.10
  -3   5   6  132.99   19.20
   2  -5  -6  219.58   21.10
   2  -5  -6  226.78   41.40
   2  -5  -6  205.08   22.40
   2  -5  -6  255.37   19.80
  -2   5   6  226.08   22.10
  -2   5   6  246.38   18.80
  -2   5   6  264.47   24.10
   1  -5  -6  213.78   21.00
   1  -5  -6  224.98   22.90
   1  -5  -6  240.68   23.20
   1  -5  -6  222.68   17.90
  -1   5   6  228.38   22.90
  -1   5   6  229.98   21.30
   0  -5  -6 1222.38   49.40
   0  -5  -6 1216.98   45.60
   0  -5  -6 1203.78   52.39
   0  -5  -6 1193.38   53.69
   0   5   6 1224.88   61.99
   0   5   6 1254.57   51.09
  -1  -5  -6 2144.89   75.09
   1   5   6 2096.39  106.19
   1   5   6 2341.87   76.19
  -2  -5  -6  151.48   20.90
  -2  -5  -6  150.38   18.00
   2   5   6  145.39   21.40
   2   5   6  165.58   24.10
  -3  -5  -6   25.90   12.90
  -3  -5  -6   60.29   14.00
   3   5   6   60.29   18.90
   3   5   6   35.70   14.50
  -4  -5  -6    4.90   12.50
  -4  -5  -6   12.00   12.40
  -4  -5  -6    8.60   10.60
  -4  -5  -6    7.50   13.30
   4   5   6    0.20   13.60
   4   5   6  -15.70   11.90
   4   5   6   -2.90   12.40
  -5  -5  -6   18.80   14.20
  -5  -5  -6   24.40   16.00
  -5  -5  -6   34.40   20.30
   5   5   6   15.90   15.40
   5   5   6    5.10   18.00
   5   5   6   36.00   17.00
   7  -6  -6  248.28   19.00
   7  -6  -6  238.98   31.30
   7  -6  -6  203.38   32.90
  -7   6   6  223.58   33.40
  -7   6   6  259.37   34.40
   6  -6  -6  210.18   29.20
   6  -6  -6  175.88   25.30
  -6   6   6  151.68   25.80
  -6   6   6  171.38   29.00
   5  -6  -6   -1.00   10.50
   5  -6  -6   -9.20   13.20
  -5   6   6   14.10   14.30
   4  -6  -6   20.00   12.80
   4  -6  -6   23.50   11.50
  -4   6   6    9.80    5.10
  -4   6   6   28.20   13.50
  -4   6   6   25.10   14.30
   3  -6  -6  109.69   17.10
   3  -6  -6  109.99   18.30
  -3   6   6  102.29    7.70
  -3   6   6  100.49   21.30
   2  -6  -6  158.58   30.80
   2  -6  -6  187.38   24.80
   2  -6  -6  182.38   19.50
  -2   6   6  197.38   23.40
   1  -6  -6  135.69   21.30
   1  -6  -6  132.49   18.50
   1  -6  -6  178.98   19.60
  -1   6   6  109.29   18.40
  -1   6   6  158.48   23.50
   0  -6  -6   16.80    9.60
   0  -6  -6    2.10    9.90
   0  -6  -6   27.90   12.30
   0   6   6   37.10   13.60
   0   6   6   29.90   10.90
  -1  -6  -6  133.09   22.00
  -1  -6  -6  143.59   19.40
   1   6   6  117.79   12.40
   1   6   6  111.19   18.20
   1   6   6  130.39   21.50
  -2  -6  -6    0.00    9.00
  -2  -6  -6   20.60   13.40
   2   6   6    6.70    7.30
   2   6   6   22.60   14.00
   2   6   6   22.10   12.00
  -3  -6  -6  142.89   19.80
  -3  -6  -6  133.69   22.80
  -3  -6  -6  169.28   27.60
   3   6   6  118.09   22.80
   3   6   6  159.28   26.90
   3   6   6  133.19   20.90
  -4  -6  -6   68.99   19.40
  -4  -6  -6   23.00   20.20
  -4  -6  -6   63.59   16.60
  -4  -6  -6   98.79   19.40
   4   6   6   44.70   18.70
   4   6   6   40.80   18.00
   4   6   6   50.29   19.00
   6  -7  -6  505.85   52.29
   6  -7  -6  573.24   42.30
  -6   7   6  567.34   47.70
   5  -7  -6   27.60   15.90
   5  -7  -6   13.90   17.10
   4  -7  -6  359.76   34.60
   4  -7  -6  367.86   32.00
   4  -7  -6  310.37   28.40
  -4   7   6  315.77   34.20
  -4   7   6  352.76   32.00
   3  -7  -6   18.50   12.00
   3  -7  -6   -0.50   13.90
   3  -7  -6    7.30   11.10
  -3   7   6    5.20   12.10
  -3   7   6   16.90   15.80
   2  -7  -6  210.28   28.90
   2  -7  -6  186.38   26.60
   2  -7  -6  281.67   25.20
  -2   7   6  199.28   29.40
   1  -7  -6  297.17   30.40
   1  -7  -6  283.27   25.40
   1  -7  -6  267.47   25.60
   1  -7  -6  211.88   29.10
  -1   7   6  230.18   23.60
  -1   7   6  279.17   33.40
   0  -7  -6  446.46   37.90
   0  -7  -6  412.86   36.10
   0  -7  -6  494.45   33.30
   0   7   6  437.26   37.40
   0   7   6  453.05   30.70
  -1  -7  -6  352.06   30.20
  -1  -7  -6  223.98   30.30
  -1  -7  -6  333.57   32.30
   1   7   6  313.47   28.50
   1   7   6  304.97   15.20
   1   7   6  335.57   33.80
  -2  -7  -6   -9.60   16.40
   2   7   6   21.90   13.60
   2   7   6    4.20   16.80
   2   7   6    7.90    8.60
  -3  -7  -6   25.60   18.30
  -3  -7  -6   24.40   19.70
  -3  -7  -6   17.40   12.50
   3   7   6   49.30   18.70
   3   7   6   31.00   12.20
   3   7   6   -4.50   13.10
   4  -8  -6  -12.80   15.10
   4  -8  -6   16.60   19.40
   4  -8  -6   13.10   14.90
  -4   8   6    0.90   20.70
   3  -8  -6   27.60   18.80
   3  -8  -6   68.19   21.00
   3  -8  -6   37.00   15.00
   3  -8  -6    9.50   14.10
  -3   8   6   25.60   18.90
  -3   8   6   37.80   15.80
   2  -8  -6  154.68   27.10
   2  -8  -6  173.88   24.60
   2  -8  -6  192.58   25.00
  -2   8   6  106.49   19.60
  -2   8   6  174.68   34.30
   1  -8  -6   72.29   17.00
   1  -8  -6   38.40   19.50
   1  -8  -6   54.99   16.00
   1  -8  -6   45.30   23.40
  -1   8   6   25.60   14.20
   0  -8  -6  171.08   28.90
   0  -8  -6  205.28   30.40
   0  -8  -6  141.29   24.70
   0   8   6  145.29   21.80
  -1  -8  -6   72.89   19.90
  -1  -8  -6  116.69   25.40
  -1  -8  -6   58.99   22.20
   1   8   6   67.29    8.90
   1   8   6   48.40   16.00
  -2  -8  -6   24.60   20.00
   2   8   6   29.20   11.00
   2   8   6   43.10   23.30
   2   8   6   39.20   16.50
   3  11  -7    8.60   14.50
  -3 -11   7   13.40   20.90
   2  11  -7   31.80   16.90
  -2 -11   7   43.30   15.10
  -2 -11   7   34.90   20.90
   1  11  -7  180.38   30.30
  -1 -11   7  109.09   26.10
  -1 -11   7  184.38   22.20
  -1 -11   7  189.08   21.80
   0  11  -7   93.29   22.10
   0 -11   7   50.99   18.90
   0 -11   7  103.19   17.10
   0 -11   7   25.80   18.00
  -1  11  -7   15.40   13.50
  -1  11  -7   31.60   16.80
   1 -11   7   17.60   12.10
   1 -11   7   34.30   19.00
   1 -11   7   58.69   20.20
  -2  11  -7   19.30   15.60
  -2  11  -7   18.80   14.40
   2 -11   7   12.00   15.60
   2 -11   7   11.70   16.60
   2 -11   7   -7.20   16.10
  -3  11  -7  376.76   36.60
  -3  11  -7  354.26   36.30
   3 -11   7  250.67   31.60
   3 -11   7  316.07   19.60
   3 -11   7  306.47   20.60
   3 -11   7  289.37   29.50
   3 -11   7  293.27   35.00
   4  10  -7   18.50   16.70
  -4 -10   7  -10.10   19.00
  -4 -10   7   52.39   13.50
   3  10  -7   45.10   18.70
  -3 -10   7   63.89   13.90
  -3 -10   7   55.09   20.90
   2  10  -7   11.60   12.50
  -2 -10   7    1.00    8.80
  -2 -10   7  -17.70   14.10
   1  10  -7  488.05   39.40
  -1 -10   7  614.04   44.40
  -1 -10   7  503.05   30.60
  -1 -10   7  508.45   31.00
   0  10  -7  378.46   34.50
   0 -10   7  366.66   34.40
   0 -10   7  380.96   27.40
   0 -10   7  465.35   36.60
  -1  10  -7   25.10   14.40
  -1  10  -7   21.00   12.10
   1 -10   7    3.30   14.70
   1 -10   7   13.50   10.90
   1 -10   7   41.20   16.00
  -2  10  -7    4.80   13.10
  -2  10  -7   22.10   13.50
   2 -10   7   14.50    9.30
   2 -10   7   55.99   16.10
   2 -10   7   35.60   16.50
   2 -10   7   -4.90   12.60
   2 -10   7   21.20    6.30
  -3  10  -7  109.09   24.60
  -3  10  -7  149.79   23.50
   3 -10   7   85.09   19.70
   3 -10   7  128.59   22.10
   3 -10   7  124.99   20.50
   3 -10   7  139.09   16.00
   3 -10   7  133.29   15.70
  -4  10  -7  168.98   27.70
   4 -10   7  166.08   25.70
   4 -10   7  216.78   28.40
   4 -10   7  204.48   22.20
   4 -10   7  193.78   25.80
   4 -10   7  150.48   21.20
   5   9  -7   -1.50    6.80
   5   9  -7    8.50   15.10
  -5  -9   7  -15.00   15.20
  -5  -9   7   -9.20    9.40
   4   9  -7   91.99   22.50
  -4  -9   7  104.89   13.90
  -4  -9   7  119.99   24.70
   3   9  -7  289.27   31.90
  -3  -9   7  267.77   34.10
  -3  -9   7  342.57   22.50
   2   9  -7   11.30   12.10
  -2  -9   7   13.90   14.60
  -2  -9   7   11.00    7.60
   1   9  -7   16.30   14.10
  -1  -9   7   42.70   10.90
  -1  -9   7   13.00   12.20
  -1  -9   7   54.59   13.20
   0   9  -7  419.86   34.80
   0  -9   7  365.96   30.60
   0  -9   7  419.86   34.20
   0  -9   7  411.66   27.30
  -1   9  -7  283.07   24.60
  -1   9  -7  217.68   30.20
   1  -9   7  271.67   22.60
   1  -9   7  258.07   26.40
   1  -9   7  232.88   12.40
   1  -9   7  247.68   24.00
   1  -9   7  200.18   39.10
  -2   9  -7   12.90   11.70
  -2   9  -7   -8.10   11.00
   2  -9   7    7.70    9.20
   2  -9   7   18.80   10.40
   2  -9   7   18.80   11.20
   2  -9   7    5.80    6.30
   2  -9   7  -13.90   10.50
  -3   9  -7   29.20   14.50
  -3   9  -7   15.20   11.90
   3  -9   7   42.80   13.90
   3  -9   7   25.40    9.90
   3  -9   7   28.60   12.20
   3  -9   7   15.00   12.70
   3  -9   7   32.10   12.80
  -4   9  -7  171.58   25.70
   4  -9   7  144.69   20.00
   4  -9   7  120.89   18.10
   4  -9   7  159.68   24.30
   4  -9   7  122.09   20.20
  -5   9  -7  140.49   24.40
   5  -9   7  142.09   22.50
   5  -9   7  172.18   26.00
   5  -9   7  149.59   19.20
   6   8  -7   -3.90    9.50
  -6  -8   7   -1.20   18.90
  -6  -8   7   -9.20    8.10
  -6  -8   7  -11.80   17.40
   5   8  -7   17.30    7.90
  -5  -8   7   23.40    7.90
  -5  -8   7   35.40   17.20
   4   8  -7   11.30    6.70
   4   8  -7    4.00   10.40
  -4  -8   7   20.90    7.40
  -4  -8   7   31.60   15.50
   3   8  -7  245.28   27.60
  -3  -8   7  260.47   17.00
  -3  -8   7  239.98   29.60
   2   8  -7  573.54   39.60
  -2  -8   7  635.04   27.30
  -2  -8   7  598.94   39.00
   1   8  -7 1586.84   66.59
  -1  -8   7 1432.86   71.19
   0   8  -7   73.29   18.50
   0  -8   7   91.89   18.20
   0  -8   7   92.59   14.90
   0  -8   7  101.89    7.10
   0  -8   7  100.29   16.80
  -1   8  -7  866.41   47.60
   1  -8   7  934.91   43.10
   1  -8   7  924.31   46.30
   1  -8   7  935.21   41.60
   1  -8   7  969.30   34.40
   1  -8   7 1047.40   46.60
  -2   8  -7  112.69   21.20
  -2   8  -7   95.39   17.60
   2  -8   7  116.69   17.50
   2  -8   7  103.69   12.90
   2  -8   7  111.79   18.00
   2  -8   7  134.99   18.80
  -3   8  -7  174.18   23.10
  -3   8  -7  156.78   24.20
   3  -8   7  125.09   18.90
   3  -8   7  145.49   18.10
   3  -8   7  179.28   27.60
   3  -8   7  154.48   20.00
  -4   8  -7    5.80   13.00
   4  -8   7   -1.60    8.10
   4  -8   7   12.70   10.80
   4  -8   7    4.90   11.20
   4  -8   7    1.80    9.10
  -5   8  -7   -5.70   12.90
  -5   8  -7   16.50   12.20
   5  -8   7    8.00    8.60
   5  -8   7    7.80    8.70
   5  -8   7   -7.20   10.70
   5  -8   7   -2.60   12.90
  -6   8  -7  320.37   31.60
   6  -8   7  285.77   29.60
   6  -8   7  295.57   36.60
   7   7  -7   43.70   15.80
  -7  -7   7   25.70   19.00
  -7  -7   7   24.80   17.90
  -7  -7   7  -13.10   17.40
   6   7  -7  188.88   20.90
  -6  -7   7  148.29   25.90
  -6  -7   7  200.48   26.50
  -6  -7   7  187.78   28.30
   5   7  -7   84.09   13.10
  -5  -7   7   94.89   20.10
  -5  -7   7   57.89   17.70
  -5  -7   7   70.59    9.00
   4   7  -7  119.89   12.40
  -4  -7   7  132.49   21.30
   3   7  -7   63.39   16.50
  -3  -7   7   53.69   15.30
   2   7  -7  330.67   28.50
  -2  -7   7  333.27   26.50
  -2  -7   7  286.17   16.00
   1   7  -7   84.89   17.90
  -1  -7   7   80.39    6.90
  -1  -7   7   87.29   16.20
  -1  -7   7   79.79   14.20
   0   7  -7   87.19   16.90
   0  -7   7   93.29   16.60
   0  -7   7  107.99   15.50
   0  -7   7  119.09   14.00
   0  -7   7   96.79    9.10
   0  -7   7   88.39   14.80
  -1   7  -7   37.40   12.60
   1  -7   7   51.99   12.20
   1  -7   7   47.40   11.10
   1  -7   7   52.49    9.30
   1  -7   7   38.90   10.40
   1  -7   7   39.10   10.60
   1  -7   7   38.20   10.10
  -2   7  -7    9.00   10.00
   2  -7   7   15.80    8.20
   2  -7   7   11.30    7.40
   2  -7   7   32.50    9.50
   2  -7   7   12.90    8.50
   2  -7   7   15.60    7.30
   2  -7   7   14.90    9.20
   2  -7   7   25.30   10.20
   3  -7   7  704.23   32.80
   3  -7   7  734.83   38.80
   3  -7   7  744.63   35.00
   3  -7   7  655.93   35.50
   3  -7   7  731.23   35.60
  -4   7  -7  620.64   35.50
   4  -7   7  645.44   30.30
   4  -7   7  679.33   41.90
   4  -7   7  648.14   30.00
   4  -7   7  654.03   37.70
  -5   7  -7    2.90   10.30
   5  -7   7   29.50   14.00
   5  -7   7  -14.90    9.90
   5  -7   7    4.70    5.80
  -6   7  -7   14.90   14.60
  -6   7  -7   16.50   14.70
   6  -7   7  -28.10   14.70
   6  -7   7   23.80   12.80
   7   6  -7   19.00   14.40
  -7  -6   7   11.10   15.90
   6   6  -7   75.39   15.40
  -6  -6   7   47.10   16.60
  -6  -6   7   73.19   16.80
  -6  -6   7   62.19   18.40
   5   6  -7   32.20   10.00
  -5  -6   7   33.90   12.30
  -5  -6   7   35.40   13.50
  -5  -6   7   13.00   12.10
   4   6  -7 1376.56   44.90
  -4  -6   7 1326.87   61.39
  -4  -6   7 1152.58   63.69
  -4  -6   7 1282.87   32.50
   3   6  -7 2699.43   91.39
   3   6  -7 2846.62   73.19
  -3  -6   7 2939.31   86.89
  -3  -6   7 2901.71   90.99
  -3  -6   7 2746.33   62.79
   2   6  -7  120.69   10.40
   2   6  -7   93.09   17.60
  -2  -6   7  123.99   17.60
  -2  -6   7  115.19   11.10
  -2  -6   7  106.49    8.10
  -2  -6   7  106.39   15.70
  -2  -6   7  105.99    9.60
   1   6  -7   38.10   11.90
  -1  -6   7   53.79    8.70
  -1  -6   7   57.49    7.60
  -1  -6   7   38.50   11.40
  -1  -6   7   39.70   10.10
   0   6  -7  144.29   24.40
   0  -6   7  122.89   16.40
   0  -6   7  128.09   11.20
   0  -6   7  145.39   17.30
   0  -6   7  105.59   12.70
   0  -6   7  115.19   15.30
   0  -6   7  110.79   10.50
  -1   6  -7  139.19   19.80
   1  -6   7  118.09   15.00
   1  -6   7  135.29   17.00
   1  -6   7  128.19   16.70
   1  -6   7  135.99   14.00
   1  -6   7  116.59   12.40
   1  -6   7  132.99   12.50
   1  -6   7  115.99   14.30
  -2   6  -7  192.28   19.80
   2  -6   7  190.48   18.00
   2  -6   7  207.88   17.10
   2  -6   7  207.78   16.60
   2  -6   7  178.28   18.90
   2  -6   7  177.48   16.40
   2  -6   7  174.58   15.50
   2  -6   7  231.38   18.60
  -3   6  -7    7.70    7.70
   3  -6   7    5.90    7.30
   3  -6   7   14.50    8.70
   3  -6   7    4.60    5.90
   3  -6   7    1.20    5.40
   3  -6   7    4.50    6.50
  -4   6  -7  580.14   33.70
   4  -6   7  546.05   29.30
   4  -6   7  536.55   29.60
   4  -6   7  525.75   26.10
   4  -6   7  513.45   48.80
  -5   6  -7  400.46   31.00
  -5   6  -7  399.46   28.80
   5  -6   7  429.56   32.10
  -6   6  -7  481.35   36.50
   6  -6   7  500.55   33.20
   6  -6   7  475.45   36.60
  -7   6  -7   37.30   17.60
  -7   6  -7    8.20   16.50
   7  -6   7   10.70   16.80
   7  -6   7   33.30   15.40
   8   5  -7   78.29   22.10
   8   5  -7   68.49   12.30
  -8  -5   7   83.69   18.10
  -8  -5   7   78.19   23.00
  -8  -5   7  112.39   25.40
   7   5  -7    9.70   14.00
   7   5  -7   -7.20    6.50
  -7  -5   7    5.50   11.80
  -7  -5   7  -16.90   14.30
  -7  -5   7   -9.90   13.00
   6   5  -7   15.00   10.10
  -6  -5   7   -0.10    9.90
  -6  -5   7   15.60   12.70
   5   5  -7    9.00    8.50
  -5  -5   7    2.90    9.50
  -5  -5   7   -4.60    7.30
   4   5  -7    0.30    6.40
  -4  -5   7    7.20    8.00
  -4  -5   7    9.30    2.60
  -4  -5   7   21.10    8.60
   3   5  -7  448.16   22.80
  -3  -5   7  496.45   27.60
  -3  -5   7  428.86   17.60
  -3  -5   7  471.35   22.10
   2   5  -7  115.29   18.60
   2   5  -7  150.68   12.60
  -2  -5   7  123.59   15.70
  -2  -5   7  123.69   10.80
  -2  -5   7  125.99    4.60
  -2  -5   7  132.09   10.20
  -2  -5   7  135.89    4.80
   1   5  -7  324.57   17.90
   1   5  -7  344.17   24.30
  -1  -5   7  354.76   22.70
  -1  -5   7  324.87   17.60
  -1  -5   7  326.77   13.50
  -1  -5   7  345.97   22.00
  -1  -5   7  318.07   17.20
   0   5  -7  289.77   22.00
   0  -5   7  302.67   19.60
   0  -5   7  286.17   17.40
   0  -5   7  286.47   20.00
   0  -5   7  295.57   15.20
   0  -5   7  244.48   19.30
   0  -5   7  245.28   16.70
  -1   5  -7 2218.18   69.79
   1  -5   7 2113.69   63.89
   1  -5   7 2085.79   67.79
   1  -5   7 2288.17   65.19
   1  -5   7 2161.18   61.09
   1  -5   7 2193.08   61.29
   1  -5   7 2192.48   64.79
   1  -5   7 2167.48   64.69
   2  -5   7   -0.80    4.20
   2  -5   7    0.70    5.40
   2  -5   7    5.40    6.90
   2  -5   7   16.30    6.50
   2  -5   7   -6.00    5.20
   2  -5   7    0.00    6.80
   2  -5   7    4.90    5.20
  -3   5  -7    8.10    6.90
   3  -5   7    9.80    5.40
   3  -5   7   14.10    7.50
   3  -5   7    1.80    7.00
   3  -5   7    8.90    5.80
  -4   5  -7  412.06   25.90
  -4   5  -7  457.45   29.80
   4  -5   7  441.06   24.80
   4  -5   7  438.56   15.10
   4  -5   7  444.46   29.30
  -5   5  -7  247.38   22.70
  -5   5  -7  300.97   26.80
   5  -5   7  257.27   25.60
   5  -5   7  263.87   21.50
  -6   5  -7   39.70   14.20
  -6   5  -7   78.29   17.60
   6  -5   7   60.69   14.30
   6  -5   7   70.79   20.10
   6  -5   7   57.79   16.60
  -7   5  -7   43.50   18.00
  -7   5  -7   31.30   19.10
   7  -5   7   72.09   17.70
   8   4  -7  165.98   17.50
   8   4  -7  192.68   30.10
  -8  -4   7  205.28   22.30
  -8  -4   7  201.48   29.40
   7   4  -7   37.70   15.80
   7   4  -7   34.00    8.30
  -7  -4   7   14.70   11.00
  -7  -4   7   21.40   14.60
   6   4  -7  441.06   31.60
   6   4  -7  411.06   24.60
  -6  -4   7  455.95   13.40
  -6  -4   7  494.85   33.00
  -6  -4   7  495.85   28.00
   5   4  -7  650.23   33.90
  -5  -4   7  627.14   31.30
  -5  -4   7  662.73   36.10
   4   4  -7  508.55   27.20
  -4  -4   7  564.04   28.10
  -4  -4   7  560.94   29.60
   3   4  -7 1473.25   48.60
  -3  -4   7 1459.15   49.99
  -3  -4   7 1531.55   50.09
  -3  -4   7 1471.05   47.20
   2   4  -7  167.38   17.20
   2   4  -7  201.08   15.20
  -2  -4   7  209.98   14.40
  -2  -4   7  196.58   15.70
   1   4  -7   13.50    7.60
   1   4  -7   25.80    7.10
  -1  -4   7   25.10    6.80
  -1  -4   7   23.10    3.40
  -1  -4   7   31.90    6.80
  -1  -4   7   17.00    5.30
   0   4  -7  103.19   14.50
   0  -4   7  103.59   13.00
   0  -4   7   96.89   13.50
   0  -4   7   96.39   11.80
   0  -4   7   86.19    8.30
   0  -4   7  104.39   11.50
  -1   4  -7  637.54   30.20
   1  -4   7  657.43   29.40
   1  -4   7  650.53   24.10
   1  -4   7  615.64   30.00
   1  -4   7  635.14   26.60
   1  -4   7  687.33   28.80
   1  -4   7  663.23   26.70
   1  -4   7  660.83   32.00
  -2   4  -7    1.60    4.10
  -2   4  -7   -4.50    6.00
  -2   4  -7   -4.30    5.80
   2  -4   7    3.50    6.20
   2  -4   7    3.90    6.30
   2  -4   7   13.90    6.50
   2  -4   7    5.20    3.60
   2  -4   7   -4.60    5.30
   2  -4   7    3.80    4.80
  -3   4  -7 2359.46   66.99
  -3   4  -7 2319.97   66.29
  -3   4  -7 2426.76   75.99
   3  -4   7 2289.27   73.49
   3  -4   7 2452.15   64.99
   3  -4   7 2422.06   73.19
   3  -4   7 2394.86   59.09
  -4   4  -7 1935.61   69.79
  -4   4  -7 2034.80   61.79
   4  -4   7 1984.40   69.09
   4  -4   7 2007.20   68.89
   4  -4   7 2057.39   60.49
  -5   4  -7   -1.30    8.70
  -5   4  -7    4.60    8.20
   5  -4   7   -0.30    7.20
   5  -4   7   -1.30    8.40
  -6   4  -7   98.89   17.30
  -6   4  -7   71.69   18.50
   6  -4   7   82.79   18.50
   6  -4   7   82.59   19.00
   6  -4   7   73.19   19.50
  -7   4  -7    6.90   15.20
  -7   4  -7  -25.40   12.70
   7  -4   7   12.20   14.80
   7  -4   7    3.80   12.30
   8   3  -7    9.20    8.00
   8   3  -7   -3.20   16.30
  -8  -3   7    2.30    6.50
  -8  -3   7    5.90    9.10
   7   3  -7   61.59    9.50
   7   3  -7   40.80   19.90
  -7  -3   7   36.00   14.90
  -7  -3   7   49.90    7.60
  -7  -3   7   58.29   11.60
  -6  -3   7  126.69   15.50
  -6  -3   7  157.28   20.50
   5   3  -7  233.38   21.10
   5   3  -7  217.88   10.30
  -5  -3   7  227.08   17.80
  -5  -3   7  246.38   21.00
   4   3  -7  167.78   19.30
  -4  -3   7  159.28   15.60
  -4  -3   7  169.88   15.10
  -4  -3   7  177.58   16.30
   3   3  -7  273.67   19.20
  -3  -3   7  287.87   18.80
  -3  -3   7  305.87   18.60
  -3  -3   7  259.57   17.90
   2   3  -7 1885.41   59.19
   2   3  -7 1906.71   57.49
  -2  -3   7 1792.82   55.09
  -2  -3   7 1900.71   56.29
  -2  -3   7 1792.82   51.19
   1   3  -7  634.14   27.20
   1   3  -7  639.64   28.50
   1   3  -7  608.44   28.10
  -1  -3   7  655.13   27.70
  -1  -3   7  599.24   27.50
  -1  -3   7  619.64   19.10
   0   3  -7   29.40    7.40
   0   3  -7   34.40    7.90
   0   3  -7   34.00    8.20
   0  -3   7   32.20    5.70
   0  -3   7   35.50    8.60
   0  -3   7   32.90    7.20
   0  -3   7   32.10    5.00
   0  -3   7   40.90    9.00
  -1   3  -7  157.48   13.10
  -1   3  -7  173.28   14.10
  -1   3  -7  173.58   12.30
   1  -3   7  143.29   12.60
   1  -3   7  153.48   15.40
   1  -3   7  147.39   12.30
   1  -3   7  202.38   17.20
   1  -3   7  143.19   13.60
   1  -3   7  164.18    9.20
  -2   3  -7  132.19   12.70
  -2   3  -7  130.59   12.40
  -2   3  -7   97.59   14.50
   2  -3   7  104.49   13.90
   2  -3   7  146.59   16.30
   2  -3   7  105.79   13.60
   2  -3   7  121.09   16.10
  -3   3  -7  183.68   16.60
  -3   3  -7  201.88   15.60
  -3   3  -7  201.98   14.10
  -3   3  -7  203.68   19.80
   3  -3   7  192.38    9.10
   3  -3   7  204.88   21.30
   3  -3   7  195.48   18.30
   3  -3   7  193.08   17.80
   3  -3   7  218.88   13.60
  -4   3  -7  682.63   29.50
  -4   3  -7  703.03   30.10
  -4   3  -7  687.53   38.00
   4  -3   7  714.03   36.50
   4  -3   7  698.73   29.10
   4  -3   7  693.33   36.50
  -5   3  -7   22.50    8.00
  -5   3  -7   33.70   13.30
  -5   3  -7   39.10   11.00
   5  -3   7   29.10   12.40
   5  -3   7   28.10   10.80
   5  -3   7   32.10    9.30
  -6   3  -7   38.70    9.50
  -6   3  -7   35.10   13.70
  -6   3  -7   33.70   16.50
   6  -3   7   36.50   15.40
   6  -3   7   35.70   11.30
   6  -3   7   53.79   15.30
  -7   3  -7  132.19   25.70
   7  -3   7  112.59   22.00
   7  -3   7  122.89   25.20
   7  -3   7  127.89   19.40
   8   2  -7   -3.60   16.10
   8   2  -7    4.80    7.90
  -8  -2   7    0.80    7.60
  -8  -2   7  -11.10   12.30
   7   2  -7   37.30    8.40
  -7  -2   7   49.10   10.30
  -7  -2   7   39.00    9.10
  -7  -2   7   38.20   14.50
   6   2  -7  399.06   30.10
   6   2  -7  409.46   18.70
  -6  -2   7  424.86   23.00
  -6  -2   7  400.36   27.60
   5   2  -7  737.93   37.80
   5   2  -7  719.73   23.40
  -5  -2   7  756.32   34.90
  -5  -2   7  747.23   31.00
   4   2  -7 1060.79   44.20
   4   2  -7 1133.39   28.10
  -4  -2   7 1153.18   39.90
  -4  -2   7 1107.09   40.50
  -4  -2   7 1150.98   44.70
   3   2  -7 2003.80   43.20
   3   2  -7 2074.59   58.79
   3   2  -7 1998.90   42.90
   3   2  -7 1919.21   62.59
  -3  -2   7 2051.69   59.09
  -3  -2   7 2039.70   62.19
  -3  -2   7 2052.99   56.69
   2   2  -7  353.06   11.00
   2   2  -7  337.47   21.20
   2   2  -7  366.76   19.60
  -2  -2   7  359.16   19.90
  -2  -2   7  330.77   20.80
  -2  -2   7  364.56   16.10
   1   2  -7 2988.70   76.39
   1   2  -7 2791.82   73.69
   1   2  -7 2861.21   80.09
   1   2  -7 2814.32   65.69
  -1  -2   7 2726.73   78.59
  -1  -2   7 2847.22   67.39
  -1  -2   7 2834.32   64.89
  -1  -2   7 2929.81   76.09
   0   2  -7    2.00    5.30
   0   2  -7    5.50    4.40
   0   2  -7    8.70    4.90
   0   2  -7    7.90    3.70
   0  -2   7   13.50    5.60
   0  -2   7   -3.00    4.30
   0  -2   7    2.40    1.50
   0  -2   7    9.50    6.30
  -1   2  -7 2006.90   58.09
  -1   2  -7 2050.39   56.39
  -1   2  -7 2009.40   56.39
   1  -2   7 1964.20   44.90
   1  -2   7 2034.40   65.39
   1  -2   7 1967.00   56.99
   1  -2   7 1973.90   62.19
  -2   2  -7  535.75   26.40
  -2   2  -7  549.95   19.40
  -2   2  -7  557.44   25.60
  -2   2  -7  592.24   31.00
   2  -2   7  522.85   28.80
   2  -2   7  636.44   28.80
   2  -2   7  547.65   18.60
   2  -2   7  538.35   30.80
  -3   2  -7  805.02   36.00
  -3   2  -7  799.32   38.90
  -3   2  -7  807.12   32.30
  -3   2  -7  773.42   27.40
   3  -2   7  708.43   38.80
   3  -2   7  762.72   35.80
   3  -2   7  829.02   27.60
   3  -2   7  781.92   20.50
   3  -2   7  772.12   20.30
   3  -2   7  828.62   37.10
  -4   2  -7  417.16   30.10
  -4   2  -7  491.75   23.30
  -4   2  -7  450.15   23.70
   4  -2   7  429.06   28.60
   4  -2   7  478.85   34.30
   4  -2   7  416.56   21.40
  -5   2  -7    7.90    7.90
  -5   2  -7   19.80   12.30
  -5   2  -7   10.70    7.10
   5  -2   7   23.20   10.50
   5  -2   7    9.00   10.00
   5  -2   7   22.50    7.90
  -6   2  -7   56.69   10.80
  -6   2  -7   76.09   18.00
  -6   2  -7   63.99   17.50
  -6   2  -7   70.29   17.90
   6  -2   7   44.30   16.80
   6  -2   7   41.80   11.20
   6  -2   7   40.80   14.70
  -7   2  -7   73.69   12.30
  -7   2  -7   59.29   20.60
   7  -2   7   53.99   20.60
   7  -2   7   38.30   18.20
   8   1  -7  227.38   31.30
   8   1  -7  197.98   19.50
  -8  -1   7  180.98   19.00
  -8  -1   7  163.48   26.30
   7   1  -7   27.40    7.90
  -7  -1   7   43.60   13.50
   6   1  -7  231.28   24.10
   6   1  -7  241.18   15.50
  -6  -1   7  229.68   21.10
   5   1  -7    2.70    3.50
   5   1  -7   12.40    8.40
  -5  -1   7    3.10    6.90
  -5  -1   7    3.10    8.00
   4   1  -7  194.58   18.50
   4   1  -7  198.88   14.60
  -4  -1   7  192.98   18.40
  -4  -1   7  247.78   16.30
   3   1  -7  102.29   10.80
   3   1  -7  104.69    7.90
   3   1  -7  114.09   15.40
  -3  -1   7   97.99   14.30
  -3  -1   7  107.99    9.60
   2   1  -7  503.25   26.90
   2   1  -7  471.85   22.70
   2   1  -7  544.45   18.60
  -2  -1   7  465.55   25.60
  -2  -1   7  475.05   18.00
   1   1  -7   -1.40    3.20
   1   1  -7    2.40    5.10
   1   1  -7    2.10    4.00
   1   1  -7   -0.20    3.00
  -1  -1   7    2.40    1.40
  -1  -1   7   -0.10    3.30
  -1  -1   7   -2.40    4.30
   0   1  -7   43.40   10.00
   0   1  -7   29.20    7.40
   0   1  -7   47.10    6.80
   0   1  -7   35.70    6.60
   0  -1   7   41.10    9.60
   0  -1   7   28.00    7.90
   0  -1   7   45.20    7.90
  -1   1  -7 1495.05   48.80
  -1   1  -7 1605.84   54.19
  -1   1  -7 1541.85   48.20
   1  -1   7 1536.45   49.00
   1  -1   7 1517.15   43.80
   1  -1   7 1512.45   55.49
   1  -1   7 1589.74   52.59
  -2   1  -7  620.64   31.80
  -2   1  -7  625.14   19.10
  -2   1  -7  605.54   29.30
  -2   1  -7  647.44   28.50
   2  -1   7  689.73   31.10
   2  -1   7  555.04   32.40
   2  -1   7  600.84   31.00
  -3   1  -7  228.58   17.20
  -3   1  -7  267.37   20.80
  -3   1  -7  255.27   13.60
  -3   1  -7  218.48   20.60
   3  -1   7  233.98   22.60
   3  -1   7  239.48   19.90
   3  -1   7  196.78   19.20
   3  -1   7  230.28   10.90
  -4   1  -7   17.50    7.80
  -4   1  -7   19.70    6.30
  -4   1  -7   29.10   10.10
  -4   1  -7   22.70   10.90
   4  -1   7   14.20    8.80
   4  -1   7    3.70   10.00
  -5   1  -7  678.93   31.30
  -5   1  -7  641.84   40.70
  -5   1  -7  713.33   32.70
   5  -1   7  693.63   39.40
   5  -1   7  685.13   38.30
  -6   1  -7   96.09   15.70
  -6   1  -7  103.79   21.80
  -6   1  -7   94.99   14.00
  -6   1  -7  115.09   20.90
   6  -1   7   53.89   19.50
   6  -1   7   98.99   19.50
  -7   1  -7   24.20   20.90
  -7   1  -7   21.60    9.90
  -7   1  -7   13.80   17.20
   7  -1   7   -0.60   18.50
   7  -1   7  -15.60   15.90
   8   0  -7   17.50   13.90
   8   0  -7   19.80   10.10
   8   0  -7   50.59   20.60
  -8   0   7   -4.20   13.60
  -8   0   7    1.50   10.40
   7   0  -7   90.49   20.40
   7   0  -7  101.29   13.80
   7   0  -7   88.39   17.40
  -7   0   7  138.59   20.40
   6   0  -7 1968.60   66.49
   6   0  -7 1905.31   73.29
   6   0  -7 1869.01   56.09
  -6   0   7 1970.80   67.79
   5   0  -7 2088.19   64.89
   5   0  -7 2132.49   84.19
   5   0  -7 2108.29   58.79
  -5   0   7 2000.20   70.99
  -5   0   7 2009.10   63.39
   4   0  -7   40.40   11.30
   4   0  -7   39.30    8.00
   4   0  -7   33.00    8.10
  -4   0   7   47.60    8.70
  -4   0   7   34.00   10.80
   3   0  -7  370.36   18.10
   3   0  -7  346.57   19.30
   3   0  -7  341.27   17.40
   3   0  -7  403.36   25.60
  -3   0   7  326.37   16.70
  -3   0   7  361.76   23.90
   2   0  -7    4.80    3.00
   2   0  -7    2.30    5.80
   2   0  -7   10.20    5.10
   2   0  -7   13.40    4.80
  -2   0   7    1.10    4.90
  -2   0   7   13.10    3.40
   1   0  -7   48.60   10.60
   1   0  -7   35.50    8.00
   1   0  -7   60.69    5.80
   1   0  -7   46.30    7.80
  -1   0   7   49.30    9.40
  -1   0   7   44.90   10.70
   0   0  -7  180.38   17.00
   0   0  -7  188.38   14.80
   0   0  -7  166.88   13.20
   0   0   7  164.48   13.90
   0   0   7  156.08   13.00
   0   0   7  168.78   17.20
   0   0   7  192.18   15.40
  -1   0  -7 1541.05   50.49
  -1   0  -7 1593.44   54.49
   1   0   7 1618.24   52.49
   1   0   7 1571.74   46.60
   1   0   7 1501.95   57.19
   1   0   7 1625.24   53.19
  -2   0  -7  731.13   35.90
  -2   0  -7  776.12   22.00
  -2   0  -7  787.92   35.10
   2   0   7  804.22   39.90
   2   0   7  740.93   34.80
   2   0   7  771.02   27.80
  -3   0  -7  834.82   39.30
  -3   0  -7  865.01   27.90
  -3   0  -7  833.22   40.70
   3   0   7  765.92   36.90
   3   0   7  859.11   40.00
   3   0   7  859.51   43.80
  -4   0  -7  378.16   28.30
  -4   0  -7  367.06   19.90
   4   0   7  412.86   38.50
  -5   0  -7  442.06   34.40
  -5   0  -7  392.86   23.90
  -5   0  -7  420.06   26.00
   5   0   7  402.46   30.20
   5   0   7  399.56   31.00
   5   0   7  387.46   34.90
  -6   0  -7  503.65   41.70
  -6   0  -7  614.44   40.10
  -6   0  -7  554.14   31.10
  -6   0  -7  561.34   40.40
   6   0   7  562.04   39.60
  -7   0  -7   -1.40   10.40
  -7   0  -7    8.00   17.30
   7   0   7   20.60   18.10
   7   0   7  -22.30   16.40
   8  -1  -7    1.00   14.70
   8  -1  -7   13.10   12.80
   8  -1  -7   34.50   23.60
  -8   1   7   25.00   15.30
  -8   1   7    3.30   14.00
   7  -1  -7  116.79   18.50
   7  -1  -7   15.40   15.60
   7  -1  -7   70.29   11.80
  -7   1   7   92.39   17.40
   6  -1  -7   15.80    8.60
  -6   1   7   10.40    9.10
  -6   1   7    9.60    9.70
   5  -1  -7  516.75   33.80
   5  -1  -7  566.64   25.20
   5  -1  -7  523.95   28.40
  -5   1   7  512.05   38.00
  -5   1   7  609.84   29.60
  -5   1   7  561.34   33.90
   4  -1  -7   10.10    8.20
   4  -1  -7    3.50    5.10
   4  -1  -7   -0.40    5.20
  -4   1   7   13.80    8.80
  -4   1   7   12.40    5.40
  -4   1   7   13.90    8.90
   3  -1  -7  270.47   17.60
   3  -1  -7  294.67   18.20
   3  -1  -7  290.37   16.30
   3  -1  -7  290.47   22.80
  -3   1   7  302.17   21.20
  -3   1   7  333.67   23.80
  -3   1   7  262.07   15.40
   2  -1  -7  384.76   20.60
   2  -1  -7  385.26   25.00
   2  -1  -7  379.16   16.00
   2  -1  -7  353.26   20.70
  -2   1   7  396.86   17.60
  -2   1   7  410.56   23.60
  -2   1   7  365.26   24.90
   1  -1  -7 2075.79   66.99
   1  -1  -7 2018.20   59.69
   1  -1  -7 1998.90   47.20
  -1   1   7 2040.90   59.29
  -1   1   7 2003.60   66.99
  -1   1   7 2073.39   61.59
   0  -1  -7   96.99   13.00
   0  -1  -7   71.79    3.60
   0  -1  -7   95.69   14.80
   0   1   7  114.69   16.40
   0   1   7   82.09   11.70
   0   1   7   73.79   11.10
   0   1   7   87.09   12.90
  -1  -1  -7   54.89   10.70
  -1  -1  -7   66.89    4.60
  -1  -1  -7   63.39   12.10
   1   1   7   51.69   10.00
   1   1   7   51.69    9.40
   1   1   7   68.29   14.30
   1   1   7   41.20   10.00
   1   1   7   58.09    7.70
  -2  -1  -7  129.69   16.90
  -2  -1  -7  136.39    8.70
  -2  -1  -7  117.29   16.60
   2   1   7  135.79   20.20
   2   1   7  119.19   12.30
   2   1   7  140.99   17.90
  -3  -1  -7  300.07   15.90
  -3  -1  -7  316.17   25.10
   3   1   7  290.57   18.00
   3   1   7  261.27   23.20
   3   1   7  326.57   27.50
  -4  -1  -7  122.99   23.40
  -4  -1  -7  116.09   12.60
   4   1   7  116.19   20.00
   4   1   7  122.29   11.50
   4   1   7  120.99   18.70
  -5  -1  -7   87.19   19.40
  -5  -1  -7   68.39   12.30
   5   1   7   54.99   15.30
   5   1   7   71.29   19.10
   5   1   7   95.79   17.80
  -6  -1  -7   17.40   15.80
  -6  -1  -7   -2.60   11.20
   6   1   7    6.50   15.30
   6   1   7  -10.80   16.00
   6   1   7   19.80   18.60
   8  -2  -7  526.25   44.90
   8  -2  -7  478.35   37.40
   8  -2  -7  493.05   32.20
  -8   2   7  513.35   40.30
  -8   2   7  535.35   46.30
   7  -2  -7  427.26   38.20
   7  -2  -7  356.26   30.20
  -7   2   7  480.35   34.00
  -7   2   7  359.96   31.20
   6  -2  -7  259.77   17.00
  -6   2   7  286.37   26.90
  -6   2   7  274.97   23.10
   5  -2  -7  169.28   17.00
   5  -2  -7  171.28   14.50
   5  -2  -7  147.89   21.60
  -5   2   7  165.68   21.40
  -5   2   7  189.78   28.60
  -5   2   7  178.18   17.10
   4  -2  -7   23.40    9.80
   4  -2  -7    4.20    6.00
   4  -2  -7   17.60    6.90
  -4   2   7   26.10    7.60
  -4   2   7   11.70    9.70
  -4   2   7   19.80    9.00
   3  -2  -7   36.60   10.50
   3  -2  -7   36.00    8.30
   3  -2  -7   31.50    8.60
   3  -2  -7   31.40    6.70
  -3   2   7   37.30    7.00
  -3   2   7   49.70   11.40
  -3   2   7   47.80   12.30
   2  -2  -7   36.20    9.10
   2  -2  -7   37.80    9.50
   2  -2  -7   45.90    6.90
  -2   2   7   29.70    8.90
  -2   2   7   32.30    9.70
   1  -2  -7   85.89   14.60
   1  -2  -7  101.09   14.20
   1  -2  -7   82.59    7.30
  -1   2   7   98.99   12.20
  -1   2   7  114.29   14.90
  -1   2   7   86.49   14.40
   0  -2  -7  641.84   31.50
   0  -2  -7  652.63   34.00
   0  -2  -7  618.04   20.00
   0   2   7  657.33   34.90
   0   2   7  586.54   31.70
   0   2   7  622.44   30.10
   0   2   7  611.24   27.60
  -1  -2  -7 4829.22  126.39
  -1  -2  -7 4759.82  123.39
   1   2   7 4769.52  126.59
   1   2   7 4851.71  121.39
   1   2   7 4889.71  131.19
  -2  -2  -7  795.52   39.60
  -2  -2  -7  844.62   39.60
  -2  -2  -7  848.62   28.00
   2   2   7  869.91   35.90
   2   2   7  813.62   42.70
   2   2   7  820.02   40.90
  -3  -2  -7  429.06   29.20
  -3  -2  -7  382.06   28.80
  -3  -2  -7  370.56   19.60
   3   2   7  395.46   23.80
   3   2   7  408.36   31.00
  -4  -2  -7   67.39   11.30
  -4  -2  -7   68.59   15.90
   4   2   7   62.99   16.60
   4   2   7   67.29   16.10
   4   2   7   59.59   10.90
  -5  -2  -7   52.89   16.80
  -5  -2  -7   37.40   14.70
  -5  -2  -7   36.00   10.50
   5   2   7   30.70   13.80
   5   2   7   28.80   14.00
   5   2   7   17.50   14.40
  -6  -2  -7   28.80   12.80
  -6  -2  -7   -0.60   16.20
  -6  -2  -7   19.80   17.80
   6   2   7  -27.60   13.20
   6   2   7  -14.60   14.50
   6   2   7   12.60   17.00
   8  -3  -7   42.70   13.90
   8  -3  -7   55.69   17.90
   8  -3  -7   29.80   24.70
  -8   3   7   27.50   18.30
  -8   3   7   60.79   20.80
   7  -3  -7    8.60   16.10
   7  -3  -7   39.50   13.70
  -7   3   7   20.20   14.60
  -7   3   7   25.50   14.70
   6  -3  -7  286.77   29.30
   6  -3  -7  287.07   18.60
   6  -3  -7  287.07   25.50
  -6   3   7  253.77   24.10
   5  -3  -7    1.80    6.10
   5  -3  -7   -2.80    6.60
   5  -3  -7   -5.20    7.10
  -5   3   7    3.70    9.60
  -5   3   7   -1.70   10.30
  -5   3   7   -0.50    7.70
   4  -3  -7  530.15   26.60
   4  -3  -7  528.55   27.50
   4  -3  -7  570.54   35.10
  -4   3   7  526.45   32.70
  -4   3   7  520.85   27.30
  -4   3   7  516.35   34.50
   3  -3  -7  193.88   18.50
   3  -3  -7  203.78   21.40
   3  -3  -7  220.78   11.20
   3  -3  -7  218.78   15.60
  -3   3   7  196.38   20.60
  -3   3   7  184.98   15.50
  -3   3   7  196.88   27.00
   2  -3  -7   -1.30    4.10
   2  -3  -7   12.80    6.80
   2  -3  -7   -0.30    6.10
  -2   3   7    2.30    4.20
  -2   3   7  -10.10    5.80
  -2   3   7    9.70    8.00
   1  -3  -7   68.89   12.70
   1  -3  -7   64.29    8.50
   1  -3  -7   67.49   14.40
  -1   3   7   47.90    9.00
  -1   3   7   62.49   12.20
   0  -3  -7   36.80   11.30
   0  -3  -7   21.20    8.80
   0  -3  -7   20.00    5.40
   0   3   7   25.20    9.40
   0   3   7   12.90    6.30
   0   3   7   13.10    9.30
  -1  -3  -7   72.49   12.90
  -1  -3  -7   93.89   16.30
   1   3   7   66.29   12.70
   1   3   7   62.89   14.20
   1   3   7   74.69    4.70
   1   3   7   83.39   16.30
  -2  -3  -7  324.87   22.80
  -2  -3  -7  270.77   22.50
  -2  -3  -7  321.17   26.80
  -2  -3  -7  306.57   17.50
   2   3   7  299.37   22.40
   2   3   7  257.37   24.90
   2   3   7  245.78   30.50
  -3  -3  -7    2.50   10.20
  -3  -3  -7    9.80    8.30
  -3  -3  -7   21.90    7.30
   3   3   7   23.30    9.60
   3   3   7   13.00    9.80
   3   3   7   22.90   12.50
  -4  -3  -7   41.70   11.40
  -4  -3  -7   40.60   10.50
  -4  -3  -7   41.70   14.60
   4   3   7   37.50   15.00
   4   3   7   62.99   16.80
   4   3   7   12.30    9.80
  -5  -3  -7  101.09   20.50
  -5  -3  -7  137.09   29.70
  -5  -3  -7  159.78   19.60
   5   3   7  105.99   23.10
   5   3   7  124.49   23.80
  -6  -3  -7  204.68   34.90
  -6  -3  -7  160.58   28.50
  -6  -3  -7  180.28   23.20
   6   3   7  212.88   31.40
   6   3   7  161.18   31.20
   6   3   7  203.38   28.00
   7  -4  -7   73.29   11.00
   7  -4  -7   53.89   17.30
  -7   4   7   52.59   17.90
  -7   4   7   58.19   18.80
   6  -4  -7  155.88   15.40
   6  -4  -7  132.59   19.60
   6  -4  -7  142.79   26.40
  -6   4   7  205.48   26.90
  -6   4   7  153.38   21.10
   5  -4  -7  240.98   22.80
   5  -4  -7  290.67   20.50
   5  -4  -7  321.97   30.00
  -5   4   7  303.37   28.90
  -5   4   7  302.67   24.60
   4  -4  -7  229.98   19.80
   4  -4  -7  231.48   25.00
  -4   4   7  233.48   19.60
  -4   4   7  243.08   24.80
   3  -4  -7  689.83   31.60
   3  -4  -7  742.13   39.80
   3  -4  -7  761.42   39.10
  -3   4   7  779.42   41.10
   2  -4  -7  545.65   26.00
   2  -4  -7  591.64   34.20
   2  -4  -7  621.64   34.60
  -2   4   7  562.94   24.30
  -2   4   7  573.04   34.30
  -2   4   7  534.35   33.50
   1  -4  -7 2319.57   76.29
   1  -4  -7 2307.17   78.19
   1  -4  -7 2254.17   63.49
  -1   4   7 2147.19  107.39
  -1   4   7 2294.57   62.09
  -1   4   7 2247.18   76.59
   0  -4  -7  509.85   31.40
   0  -4  -7  431.36   30.50
   0  -4  -7  480.55   23.30
   0  -4  -7  446.76   29.00
   0   4   7  441.86   29.70
   0   4   7  464.95   30.90
  -1  -4  -7  384.66   29.10
  -1  -4  -7  303.57   20.10
  -1  -4  -7  351.96   26.80
   1   4   7  367.06   26.60
   1   4   7  334.57   32.60
   1   4   7  365.56   28.00
  -2  -4  -7    4.60    8.90
  -2  -4  -7    4.20    8.80
   2   4   7   24.70   10.90
   2   4   7    2.70    9.20
   2   4   7    0.60   10.30
  -3  -4  -7  118.59   15.60
  -3  -4  -7  106.39   16.60
  -3  -4  -7  117.19   19.10
   3   4   7  106.69   18.40
   3   4   7   94.39   19.20
   3   4   7  100.99   19.70
  -4  -4  -7  -17.60   12.80
  -4  -4  -7  -14.10    8.60
  -4  -4  -7   12.40   12.60
  -4  -4  -7   -2.30   10.00
   4   4   7   -0.80   10.40
   4   4   7    7.60   12.50
   4   4   7  -10.40   12.20
  -5  -4  -7   12.50   11.60
  -5  -4  -7   -2.40   10.80
  -5  -4  -7    6.10   16.00
  -5  -4  -7  -14.00   16.20
   5   4   7   27.10   17.50
   5   4   7   12.60   13.40
   5   4   7   -1.10   16.50
   7  -5  -7  -17.50   15.00
   7  -5  -7  -12.20   20.00
   7  -5  -7   15.30    8.30
  -7   5   7  -21.40   18.40
  -7   5   7    4.40   21.50
   6  -5  -7   22.70   12.50
   6  -5  -7   -7.70   14.70
   6  -5  -7    2.00    8.40
  -6   5   7   11.30   13.70
  -6   5   7   23.30   15.30
   5  -5  -7   49.20   16.90
   5  -5  -7   74.29   15.20
  -5   5   7   41.80   17.20
  -5   5   7   70.19   15.30
  -5   5   7   93.49   20.60
   4  -5  -7  179.08   24.50
   4  -5  -7  223.68   27.00
   4  -5  -7  163.58   19.50
  -4   5   7  164.68   23.90
   3  -5  -7   55.09   15.10
   3  -5  -7   78.49   13.80
   3  -5  -7  100.59   17.80
  -3   5   7   46.40   14.60
  -3   5   7   62.49    8.90
   2  -5  -7    7.60    7.10
   2  -5  -7    0.20    9.60
   2  -5  -7   12.30   10.10
  -2   5   7   12.50   10.00
  -2   5   7  -15.00    8.60
  -2   5   7   -3.20    4.50
   1  -5  -7  469.25   33.20
   1  -5  -7  440.76   25.40
   1  -5  -7  472.75   32.00
   1  -5  -7  473.15   32.20
  -1   5   7  506.15   34.30
  -1   5   7  475.15   32.50
   0  -5  -7   34.10   13.00
   0  -5  -7   20.00   11.00
   0  -5  -7   54.99   15.00
   0  -5  -7   10.30    8.10
   0   5   7   10.20   10.80
   0   5   7   35.60   13.40
  -1  -5  -7  299.17   22.50
   1   5   7  255.57   26.30
   1   5   7  269.67   25.90
  -2  -5  -7    1.20   10.80
  -2  -5  -7   37.20   12.30
   2   5   7   32.20   16.10
   2   5   7   16.20   14.00
   2   5   7   20.80    7.10
   2   5   7    1.30   11.90
  -3  -5  -7  246.58   25.30
  -3  -5  -7  240.28   30.80
  -3  -5  -7  259.17   23.60
   3   5   7  269.87   28.30
   3   5   7  294.67   30.20
   3   5   7  200.28   28.90
  -4  -5  -7   61.89   18.00
  -4  -5  -7   27.20   13.40
  -4  -5  -7   27.40   19.50
  -4  -5  -7   47.70   27.80
   4   5   7   55.29   18.20
   4   5   7   58.29   19.80
   4   5   7   69.69   18.10
   6  -6  -7  122.89   31.10
   6  -6  -7   98.59   15.70
   6  -6  -7  123.79   22.40
  -6   6   7  160.18   28.10
  -6   6   7  203.48   29.00
   5  -6  -7   68.79   18.10
   5  -6  -7   32.00   13.40
  -5   6   7   31.10   17.80
  -5   6   7   65.39   19.60
   4  -6  -7   62.99   17.30
   4  -6  -7   49.50   13.70
   4  -6  -7   55.69   17.20
  -4   6   7   58.59   18.50
  -4   6   7   23.70    6.70
  -4   6   7   41.00   15.30
   3  -6  -7   83.69   15.20
   3  -6  -7   78.39   18.20
   3  -6  -7   68.29   18.20
  -3   6   7  100.19   19.60
   2  -6  -7  437.16   35.90
   2  -6  -7  493.65   29.50
   2  -6  -7  517.75   34.60
  -2   6   7  426.06   33.80
  -2   6   7  501.45   37.60
   1  -6  -7  710.03   40.80
   1  -6  -7  679.73   43.20
   1  -6  -7  720.63   35.60
   1  -6  -7  648.34   42.60
  -1   6   7  628.14   57.39
  -1   6   7  744.83   45.20
   0  -6  -7   18.90   14.50
   0  -6  -7   43.90   15.20
   0  -6  -7   23.90   13.80
   0  -6  -7   12.90    9.70
   0   6   7   38.30   15.90
   0   6   7    8.50   12.00
  -1  -6  -7  111.89   17.60
  -1  -6  -7  151.48   23.10
  -1  -6  -7   97.79   21.30
   1   6   7  144.99   23.90
   1   6   7  104.89   19.70
  -2  -6  -7   20.10   17.20
  -2  -6  -7   32.80   15.70
   2   6   7   17.40   16.00
   2   6   7   11.50   13.50
   2   6   7   25.00    7.50
  -3  -6  -7  194.58   25.80
  -3  -6  -7  190.68   24.10
  -3  -6  -7  209.98   31.00
   3   6   7  181.48   26.80
   3   6   7  161.48   25.50
   5  -7  -7   41.50   19.90
   5  -7  -7   84.89   25.40
   5  -7  -7   14.40   15.10
  -5   7   7   68.29   23.90
   4  -7  -7  207.38   27.90
   4  -7  -7  216.38   27.10
   4  -7  -7  294.27   40.00
  -4   7   7  157.98   27.30
  -4   7   7  168.28   26.10
   3  -7  -7  199.68   27.70
   3  -7  -7  175.88   25.70
   3  -7  -7  163.68   21.80
  -3   7   7  158.38   23.80
   2  -7  -7  107.69   18.80
   2  -7  -7   21.60   16.00
   2  -7  -7   49.00   17.10
   2  -7  -7   55.19   18.40
  -2   7   7   65.79   20.80
  -2   7   7   33.00   16.50
   1  -7  -7    7.20   16.50
   1  -7  -7   64.89   17.80
   1  -7  -7   51.69   20.20
   1  -7  -7   32.30   14.50
  -1   7   7   79.29   17.90
  -1   7   7   48.60   21.00
   0  -7  -7   17.50   14.60
   0  -7  -7   21.80   12.20
   0  -7  -7   11.30   16.40
   0   7   7   -3.90   15.60
   0   7   7   -5.50   12.10
  -1  -7  -7   -2.20   13.50
  -1  -7  -7    5.10   14.20
  -1  -7  -7  -10.10   14.50
   1   7   7  -10.80   12.80
   1   7   7   20.40   17.20
  -2  -7  -7   69.19   21.30
  -2  -7  -7   82.49   21.90
   2   7   7   98.99   23.90
   2   7   7   82.39   14.00
   2   7   7   85.79   19.40
   3  -8  -7   61.99   22.40
   3  -8  -7   27.20   17.90
   3  -8  -7    9.30   15.20
  -3   8   7   12.10   17.00
  -3   8   7   -6.90   22.40
   2  -8  -7  215.28   27.10
   2  -8  -7  158.18   23.80
   2  -8  -7  171.48   28.10
  -2   8   7  199.08   27.00
  -2   8   7  250.67   36.10
   1  -8  -7  642.84   42.40
   1  -8  -7  677.73   43.00
   1  -8  -7  661.53   50.69
  -1   8   7  641.04   51.99
  -1   8   7  649.74   41.70
   0  -8  -7   -6.80   14.30
   0  -8  -7    1.90   20.60
   0  -8  -7   10.70   19.40
   0   8   7   -0.70   22.20
   0   8   7   29.60   16.40
   3  11  -8  113.49   26.40
  -3 -11   8  102.09   17.40
  -3 -11   8  108.29   28.20
   2  11  -8  222.88   33.90
  -2 -11   8  180.28   21.60
  -2 -11   8  202.28   38.20
   1  11  -8   35.20   16.50
  -1 -11   8   48.80   16.20
  -1 -11   8   61.39   21.70
   0  11  -8   25.70   16.30
   0 -11   8   -1.70   17.20
   0 -11   8    3.70   18.30
   0 -11   8    7.90   16.70
  -1  11  -8   99.79   24.50
   1 -11   8   90.09   21.80
   1 -11   8  112.79   24.70
   1 -11   8   79.29   20.70
   1 -11   8  101.09   30.00
  -2  11  -8  397.06   39.20
   2 -11   8  398.66   38.40
   2 -11   8  353.36   33.80
   2 -11   8  349.37   38.50
   3 -11   8    2.40   16.70
   4  10  -8   -9.10   13.70
  -4 -10   8   11.10   10.00
   3  10  -8   -2.30   11.20
  -3 -10   8    5.30    9.10
  -3 -10   8   -5.70   15.90
   2  10  -8  267.37   36.10
  -2 -10   8  257.77   21.80
  -2 -10   8  312.47   35.10
   1  10  -8  189.78   30.80
  -1 -10   8  214.08   20.60
  -1 -10   8  227.18   31.70
  -1 -10   8  223.68   28.90
   0  10  -8  -11.10    9.30
   0 -10   8   -0.30   14.00
   0 -10   8   34.20   14.90
   0 -10   8  -13.20   12.30
   0 -10   8   15.20   11.90
  -1  10  -8   21.20   12.70
   1 -10   8    9.40   13.50
   1 -10   8   10.30    3.30
   1 -10   8    3.40   13.60
   1 -10   8   -5.60   11.30
   1 -10   8   23.90   13.70
   1 -10   8    4.10    2.90
  -2  10  -8   61.69   18.50
   2 -10   8   61.19   19.50
   2 -10   8   44.40    9.20
   2 -10   8   52.19   16.10
   2 -10   8   33.00   15.30
   2 -10   8   66.59   17.20
  -3  10  -8  124.69   25.80
   3 -10   8  108.79   20.50
   3 -10   8  107.99   20.80
   3 -10   8  114.99   22.10
   3 -10   8   90.39   20.00
   3 -10   8  103.09   15.50
   4 -10   8  348.67   35.90
   4 -10   8  392.56   29.80
   4 -10   8  374.16   30.00
   4 -10   8  343.57   33.60
   4 -10   8  400.26   41.60
   5   9  -8    4.30    8.10
   5   9  -8   16.10   16.80
  -5  -9   8    1.60   18.80
  -5  -9   8   -1.70    7.40
   4   9  -8  114.09   24.30
  -4  -9   8  147.79   29.10
  -4  -9   8  145.19   14.40
   3   9  -8  896.81   54.39
  -3  -9   8  952.30   54.79
   2   9  -8  156.68   26.90
  -2  -9   8  221.58   17.80
  -2  -9   8  282.37   30.40
   1   9  -8  357.76   32.80
  -1  -9   8  308.07   31.20
  -1  -9   8  336.27   26.30
  -1  -9   8  357.06   22.50
  -1  -9   8  318.97   28.60
   0   9  -8  136.19   24.80
   0  -9   8  166.28   23.00
   0  -9   8  144.89   23.40
   0  -9   8  152.58   22.70
   0  -9   8  157.88   21.10
   0  -9   8  152.38    6.80
  -1   9  -8   23.90   13.70
   1  -9   8   28.30    7.70
   1  -9   8   32.40   12.20
   1  -9   8   57.39   15.40
   1  -9   8   41.50   12.90
   1  -9   8   41.50   14.30
  -2   9  -8   19.80   13.40
   2  -9   8    9.00   12.50
   2  -9   8   14.60   11.30
   2  -9   8   16.20   12.60
   2  -9   8   28.30    9.50
   2  -9   8   26.40   12.50
  -3   9  -8    5.80   12.60
   3  -9   8   -1.90   10.50
   3  -9   8   39.00   13.40
   3  -9   8    9.00   11.20
   3  -9   8   17.40    9.80
   3  -9   8   15.90   11.60
   4  -9   8  243.68   24.90
   4  -9   8  259.77   27.40
   4  -9   8  265.27   24.40
   4  -9   8  264.07   28.10
   5  -9   8  115.69   17.10
   5  -9   8  108.29   16.10
   5  -9   8  109.69   20.50
   5  -9   8   60.89   19.90
   6   8  -8   31.70   11.80
  -6  -8   8   43.30   20.10
  -6  -8   8  -13.50   18.30
  -6  -8   8   25.00   17.90
   5   8  -8   16.40    8.10
  -5  -8   8    0.60   13.60
  -5  -8   8   14.80   16.70
  -5  -8   8   12.80   16.90
   4   8  -8  245.58   33.40
  -4  -8   8  149.49   23.40
  -4  -8   8  180.58   27.20
   3   8  -8  216.38   31.00
  -3  -8   8  199.28   19.00
  -3  -8   8  128.09   22.00
   2   8  -8  160.48   25.60
  -2  -8   8  149.79   23.10
  -2  -8   8  153.68   12.80
   1   8  -8    5.70    8.50
  -1  -8   8   17.30   13.10
  -1  -8   8   13.50    9.60
  -1  -8   8    9.30    3.60
   0   8  -8   67.19   17.20
   0  -8   8   72.29   15.90
   0  -8   8   70.09   14.00
   0  -8   8  102.59   17.80
   0  -8   8   88.69   14.70
   0  -8   8   54.39   14.50
  -1   8  -8  434.26   33.70
   1  -8   8  484.25   30.70
   1  -8   8  414.86   28.80
   1  -8   8  435.76   29.80
   1  -8   8  402.26   25.20
   1  -8   8  417.16   30.90
   1  -8   8  414.86   22.10
  -2   8  -8  864.81   48.20
   2  -8   8  835.72   40.00
   2  -8   8  908.21   44.20
   2  -8   8  908.41   45.10
   2  -8   8  895.11   40.60
   2  -8   8  856.21   41.70
   2  -8   8  890.91   37.70
   3  -8   8   15.80   10.00
   3  -8   8   -0.20    9.20
   3  -8   8    4.30    9.90
   3  -8   8    1.90    8.40
   3  -8   8   -0.50    9.00
   4  -8   8    8.70   10.60
   4  -8   8   22.40    9.90
   4  -8   8    5.30   11.40
   4  -8   8    3.90    9.60
  -5   8  -8  404.86   32.40
   5  -8   8  359.76   21.40
   5  -8   8  376.86   35.00
   5  -8   8  370.16   31.30
   7   7  -8   71.09   18.50
  -7  -7   8   35.50   22.20
  -7  -7   8   70.99   21.40
  -7  -7   8  108.39   26.80
   6   7  -8  256.77   23.90
  -6  -7   8  257.67   33.40
  -6  -7   8  268.77   31.50
  -6  -7   8  220.58   30.70
   5   7  -8  977.60   39.20
  -5  -7   8  926.41   51.49
  -5  -7   8  844.52   48.40
   4   7  -8  112.29   13.90
   4   7  -8  174.38   27.90
  -4  -7   8  155.38   22.20
  -4  -7   8  130.79   22.50
   3   7  -8   -7.00    9.60
   3   7  -8    6.00    5.20
  -3  -7   8   -0.10    8.20
  -3  -7   8   -2.80    9.50
  -3  -7   8    6.40    2.80
   2   7  -8  115.29   20.60
  -2  -7   8  139.99   11.90
  -2  -7   8  138.79   10.30
  -2  -7   8  113.09   19.20
   1   7  -8   61.19   16.70
  -1  -7   8   92.99   16.40
  -1  -7   8   65.29   14.00
  -1  -7   8   54.29    9.60
   0   7  -8  223.88   24.10
   0  -7   8  252.37   16.90
   0  -7   8  296.67   38.20
   0  -7   8  287.17   23.30
   0  -7   8  285.37   19.80
   0  -7   8  261.37   16.20
   0  -7   8  305.77   24.50
  -1   7  -8   88.19   17.80
   1  -7   8   89.49   12.30
   1  -7   8   67.59   12.60
   1  -7   8   80.69   15.50
   1  -7   8   91.79   16.90
   1  -7   8  108.99   17.50
   1  -7   8   96.69   13.00
   1  -7   8   65.79   12.10
  -2   7  -8  110.29   20.10
   2  -7   8  120.09   18.10
   2  -7   8  138.19   17.40
   2  -7   8  112.39   16.20
   2  -7   8   95.19   15.00
   2  -7   8  120.39   17.20
   2  -7   8   86.09   14.30
   2  -7   8  130.29   19.10
   3  -7   8  241.18   20.20
   3  -7   8  231.28   22.70
   3  -7   8  222.58   20.30
   3  -7   8  266.57   23.00
   3  -7   8  257.57   21.40
   3  -7   8  259.67   25.40
  -4   7  -8 1018.90   48.20
   4  -7   8 1016.40   41.00
   4  -7   8 1028.50   49.20
   4  -7   8  981.60   49.80
   4  -7   8  934.51   36.60
   4  -7   8 1094.19   46.50
  -5   7  -8  -17.10   12.00
   5  -7   8   10.60   12.50
   5  -7   8   -7.70   10.10
  -6   7  -8  425.96   37.40
   6  -7   8  501.55   35.20
   6  -7   8  436.56   38.10
   7   6  -8   12.30   15.40
  -7  -6   8    7.20   16.50
  -7  -6   8  -14.20   19.40
   6   6  -8    7.10   11.70
  -6  -6   8   10.70   13.00
  -6  -6   8    0.90   14.60
   5   6  -8  402.26   26.80
  -5  -6   8  399.16   30.30
  -5  -6   8  401.56   30.40
  -5  -6   8  413.46   33.90
   4   6  -8  232.48   18.30
  -4  -6   8  250.17   24.90
  -4  -6   8  234.68   21.80
   3   6  -8   85.99   19.00
   3   6  -8   81.09   11.40
  -3  -6   8  112.69    9.20
  -3  -6   8   77.39   16.00
  -3  -6   8   96.49   17.80
  -3  -6   8   91.29   11.50
   2   6  -8   97.69   17.90
   2   6  -8   89.39   11.10
  -2  -6   8   86.59    5.50
  -2  -6   8  100.79   15.90
  -2  -6   8   91.19   16.20
  -2  -6   8  108.59   10.80
  -2  -6   8   84.29    5.10
  -2  -6   8  102.59   11.30
   1   6  -8 1181.28   51.19
  -1  -6   8 1124.79   47.70
  -1  -6   8 1171.08   39.90
  -1  -6   8 1121.59   33.40
  -1  -6   8 1203.48   38.60
  -1  -6   8 1186.48   47.20
   0   6  -8    1.80    7.70
   0  -6   8    5.50    7.50
   0  -6   8    8.40    5.00
   0  -6   8   18.50    7.80
   0  -6   8   10.80    8.50
   0  -6   8    7.60    6.30
   0  -6   8    5.70    5.30
  -1   6  -8    6.90    7.70
   1  -6   8   -4.10    5.10
   1  -6   8   10.60    7.70
   1  -6   8    4.50    6.70
   1  -6   8   -6.50    5.30
   1  -6   8    1.10    5.90
   1  -6   8   -2.80    6.10
   1  -6   8   -2.70    4.70
  -2   6  -8  592.04   35.00
   2  -6   8  558.84   31.20
   2  -6   8  639.74   30.80
   2  -6   8  637.24   35.50
   2  -6   8  632.14   29.00
   2  -6   8  609.64   30.60
   2  -6   8  632.64   39.30
   2  -6   8  561.94   30.00
   3  -6   8  386.46   27.30
   3  -6   8  348.57   22.80
   3  -6   8  349.37   25.50
   3  -6   8  376.46   28.10
   3  -6   8  387.66   23.20
   3  -6   8  388.36   22.60
  -4   6  -8  201.88   24.60
   4  -6   8  201.78   18.90
   4  -6   8  229.78   23.60
   4  -6   8  225.98   18.00
  -5   6  -8  138.09   21.40
   5  -6   8  109.39   22.00
   5  -6   8  128.09   20.60
  -6   6  -8    1.80   14.10
   6  -6   8  -26.60   16.60
   6  -6   8    8.20   11.10
   6  -6   8   11.80   13.90
   8   5  -8   46.40    9.90
   8   5  -8   53.39   21.50
  -8  -5   8   41.00   22.30
  -8  -5   8   63.69   21.90
  -8  -5   8   65.59   20.90
   7   5  -8  146.49   24.10
  -7  -5   8  158.78   25.70
  -7  -5   8  142.49   21.00
   6   5  -8  243.08   26.40
  -6  -5   8  207.68   25.80
  -6  -5   8  208.48   21.40
   5   5  -8  629.74   33.30
  -5  -5   8  623.34   17.10
  -5  -5   8  620.74   40.40
  -5  -5   8  623.84   35.70
   4   5  -8  261.17   20.50
  -4  -5   8  227.38   20.40
  -4  -5   8  284.97   22.00
   3   5  -8    8.20    9.70
   3   5  -8   39.60    9.00
  -3  -5   8   36.20    8.10
  -3  -5   8   33.80    6.60
  -3  -5   8   27.10    8.80
   2   5  -8   10.00    5.50
  -2  -5   8    4.70    4.90
  -2  -5   8   12.30    7.30
  -2  -5   8   11.60    5.40
   1   5  -8 1071.19   38.90
   1   5  -8 1077.99   45.80
  -1  -5   8 1069.09   42.00
  -1  -5   8 1046.40   37.60
  -1  -5   8 1030.70   29.20
  -1  -5   8 1047.40   37.00
   0   5  -8  424.56   27.00
   0  -5   8  407.96   24.50
   0  -5   8  432.56   23.80
   0  -5   8  418.16   26.70
   0  -5   8  422.46   24.20
   0  -5   8  411.76   19.00
   0  -5   8  391.06   22.40
  -1   5  -8 1035.90   50.99
   1  -5   8 1104.89   42.20
   1  -5   8 1128.79   39.20
   1  -5   8 1094.49   43.60
   1  -5   8 1120.69   47.00
   1  -5   8 1139.99   43.00
   1  -5   8 1079.19   40.60
   1  -5   8 1155.08   37.80
  -2   5  -8 2689.53   81.99
   2  -5   8 2565.04   80.89
   2  -5   8 2587.34   72.89
   2  -5   8 2605.34   83.59
   2  -5   8 2718.33   80.49
   2  -5   8 2694.83   77.29
   2  -5   8 2665.93   75.99
   2  -5   8 2753.62   71.39
  -3   5  -8    4.90    8.70
   3  -5   8    4.80    7.90
   3  -5   8   11.70    9.30
   3  -5   8    3.50    8.00
   3  -5   8   13.80    6.40
  -4   5  -8   19.00   10.30
   4  -5   8   30.00    3.40
   4  -5   8   38.50    9.30
   4  -5   8   54.49   13.20
  -5   5  -8    6.00   10.90
  -5   5  -8   13.00   10.00
   5  -5   8    3.00   10.60
   5  -5   8    2.20    7.80
   5  -5   8   -6.70   11.80
  -6   5  -8   99.89   21.00
  -6   5  -8   76.79   16.70
   6  -5   8   71.79   14.40
   6  -5   8  122.49   28.00
   6  -5   8   71.79   18.10
   8   4  -8   35.70    9.10
   8   4  -8   43.90   20.40
  -8  -4   8   79.49   21.80
  -8  -4   8   47.00   14.10
  -7  -4   8  153.78   24.30
  -7  -4   8  157.18   34.40
  -7  -4   8  149.49    8.20
   6   4  -8   27.20   12.30
  -6  -4   8   18.60    9.40
  -6  -4   8   30.80   12.50
   5   4  -8   21.10   10.30
  -5  -4   8   32.30   10.30
  -5  -4   8   37.80   13.60
   4   4  -8  814.32   37.70
  -4  -4   8  828.32   36.70
  -4  -4   8  842.32   37.10
  -4  -4   8  871.11   36.50
   3   4  -8  437.36   25.10
  -3  -4   8  374.06   22.30
  -3  -4   8  371.26   22.30
  -3  -4   8  389.16   23.80
   2   4  -8    3.50    5.90
   2   4  -8    2.20    6.90
  -2  -4   8    1.70    4.90
  -2  -4   8   18.30    7.30
   1   4  -8  150.28   15.40
   1   4  -8  124.59   15.20
  -1  -4   8  125.29   13.50
  -1  -4   8  117.29   14.50
  -1  -4   8  117.09    7.40
   0   4  -8   73.89   13.30
   0  -4   8   56.89   11.70
   0  -4   8   52.19   10.90
   0  -4   8   42.90    7.00
   0  -4   8   41.90    9.30
   0  -4   8   52.29   10.00
   0  -4   8   49.90    7.60
  -1   4  -8  380.76   22.20
  -1   4  -8  382.66   23.60
   1  -4   8  403.16   26.20
   1  -4   8  403.96   25.20
   1  -4   8  384.76   22.90
   1  -4   8  379.66   20.40
   1  -4   8  396.66   22.50
   1  -4   8  342.97   16.40
  -2   4  -8 1581.44   51.39
   2  -4   8 1570.44   52.49
   2  -4   8 1522.65   57.39
   2  -4   8 1530.35   44.00
   2  -4   8 1530.85   46.10
   2  -4   8 1527.75   57.89
   2  -4   8 1541.65   54.89
  -3   4  -8  154.18   19.60
  -3   4  -8  183.38   16.10
   3  -4   8  173.58   11.50
   3  -4   8  193.18   19.00
   3  -4   8  193.08   21.10
   3  -4   8  169.68   20.50
   3  -4   8  205.88   14.10
  -4   4  -8  172.18   22.30
  -4   4  -8  159.38   16.20
  -4   4  -8  147.89   15.30
   4  -4   8  120.29   30.20
   4  -4   8  168.18   15.10
  -5   4  -8  129.19   17.40
  -5   4  -8  122.69   20.80
   5  -4   8  151.48   22.40
   5  -4   8   94.69   14.00
   5  -4   8  138.69   21.90
  -6   4  -8  351.76   34.80
  -6   4  -8  394.36   28.90
   6  -4   8  416.16   36.60
   6  -4   8  377.56   34.60
  -7   4  -8   -1.70   15.60
  -7   4  -8   11.60   18.20
   7  -4   8    3.00   13.60
   7  -4   8    1.90   17.10
   7  -4   8   -2.90   20.10
   8   3  -8   41.20    9.10
   8   3  -8   58.19   21.50
  -8  -3   8   26.50   11.60
  -8  -3   8   48.60    8.40
   7   3  -8  191.78   13.50
  -7  -3   8  209.28   26.40
  -7  -3   8  207.18   19.70
  -7  -3   8  175.28   14.10
   6   3  -8  543.85   19.00
   6   3  -8  573.94   36.00
  -6  -3   8  596.94   30.40
  -6  -3   8  553.54   33.80
   5   3  -8 1781.42   64.49
  -5  -3   8 1795.42   60.99
  -5  -3   8 1741.23   57.69
   4   3  -8   21.20    8.90
  -4  -3   8    3.50    6.90
  -4  -3   8    4.50    6.20
  -4  -3   8    2.50    7.30
   3   3  -8 1641.84   55.89
  -3  -3   8 1641.04   53.39
  -3  -3   8 1630.64   49.60
  -3  -3   8 1492.35   52.49
   2   3  -8  227.78   18.20
   2   3  -8  152.88   14.10
   2   3  -8  166.98   15.80
  -2  -3   8  180.08   15.80
  -2  -3   8  183.18   15.60
  -2  -3   8  200.48   12.90
   1   3  -8  444.86   23.60
   1   3  -8  467.45   24.40
   1   3  -8  451.45   25.70
  -1  -3   8  446.36   25.30
  -1  -3   8  453.25   23.70
  -1  -3   8  439.66   16.80
   0   3  -8  226.18   13.00
   0   3  -8  226.98   16.30
   0   3  -8  237.18   19.40
   0   3  -8  234.68   17.10
   0  -3   8  231.98   19.20
   0  -3   8  219.28   10.50
   0  -3   8  250.37   14.30
   0  -3   8  220.68   16.60
   0  -3   8  244.28   19.20
  -1   3  -8  869.21   31.90
  -1   3  -8  806.42   33.80
  -1   3  -8  869.41   34.30
   1  -3   8  920.31   39.70
   1  -3   8  838.72   39.20
   1  -3   8  831.42   32.60
   1  -3   8  828.52   24.20
  -2   3  -8  752.12   32.40
  -2   3  -8  791.42   38.70
  -2   3  -8  769.02   32.70
   2  -3   8  783.92   24.80
   2  -3   8  754.72   37.40
   2  -3   8  804.52   36.20
   2  -3   8  734.83   38.40
   2  -3   8  804.42   34.20
  -3   3  -8  119.99   15.90
  -3   3  -8  101.59   16.80
  -3   3  -8   94.49   10.90
  -3   3  -8  114.79   14.60
   3  -3   8  107.39    6.80
   3  -3   8   96.39    7.50
   3  -3   8  112.79   15.90
   3  -3   8  111.69   10.20
   3  -3   8  123.69   19.30
  -4   3  -8   34.30    8.10
  -4   3  -8   30.70   12.50
  -4   3  -8   27.30    9.90
  -4   3  -8   33.90    8.90
   4  -3   8   29.60   13.50
   4  -3   8   52.29   13.20
   4  -3   8   26.20    6.90
  -5   3  -8   92.59   14.00
  -5   3  -8   97.29   19.70
  -5   3  -8   77.99   13.50
   5  -3   8   93.79   18.30
   5  -3   8  113.79   14.80
  -6   3  -8  523.35   41.60
  -6   3  -8  510.85   32.90
  -6   3  -8  504.95   27.50
   6  -3   8  511.45   30.30
   6  -3   8  445.16   36.90
   6  -3   8  537.25   39.60
  -7   3  -8  -14.00   16.40
   7  -3   8   23.20   13.00
   7  -3   8   32.60   17.80
   7  -3   8   47.80   21.20
   8   2  -8   21.90    8.60
   8   2  -8   41.10   22.50
  -8  -2   8   35.60   14.70
  -8  -2   8   37.90   10.70
   7   2  -8    3.70    6.00
   7   2  -8    3.40   13.10
  -7  -2   8   -5.10   10.70
   6   2  -8  151.98   15.30
   6   2  -8  112.99   19.90
  -6  -2   8  156.98   16.30
  -6  -2   8  155.88   19.80
   5   2  -8  148.69    8.70
   5   2  -8  186.78   23.10
  -5  -2   8  152.98   16.20
  -5  -2   8  182.58   19.60
  -5  -2   8  161.28   15.60
   4   2  -8  430.76   13.50
   4   2  -8  454.45   28.70
   4   2  -8  428.96   12.90
  -4  -2   8  446.06   24.40
  -4  -2   8  423.06   23.00
  -4  -2   8  426.46   27.10
   3   2  -8   15.90    2.50
   3   2  -8   16.20    8.40
   3   2  -8   20.20    6.80
  -3  -2   8    6.80    7.10
  -3  -2   8   16.90    5.30
  -3  -2   8   11.40    6.30
   2   2  -8  143.19    7.60
   2   2  -8  132.99   12.70
   2   2  -8  137.99   13.00
   2   2  -8  107.59   15.30
  -2  -2   8  145.99   15.70
  -2  -2   8  106.89   13.30
  -2  -2   8  128.39    9.20
   1   2  -8 1538.75   54.89
   1   2  -8 1585.04   50.69
   1   2  -8 1609.44   48.10
  -1  -2   8 1627.04   44.10
  -1  -2   8 1568.54   54.99
  -1  -2   8 1522.45   37.70
  -1  -2   8 1560.34   54.29
   0   2  -8 1409.06   51.99
   0   2  -8 1379.06   41.60
   0   2  -8 1431.36   47.10
   0   2  -8 1403.86   42.90
   0  -2   8 1334.27   42.60
   0  -2   8 1299.07   50.89
   0  -2   8 1451.05   50.89
  -1   2  -8   31.90    8.40
  -1   2  -8   61.69    9.70
   1  -2   8   52.99   12.40
   1  -2   8   54.09   11.00
   1  -2   8   42.40    8.60
  -2   2  -8   11.80    7.70
  -2   2  -8   20.40    7.30
  -2   2  -8   10.70    6.40
   2  -2   8   19.50    5.00
   2  -2   8   23.50    8.60
   2  -2   8   12.60    7.90
   2  -2   8   12.50    3.30
   2  -2   8   11.30    6.40
  -3   2  -8  943.61   30.90
  -3   2  -8  996.30   42.10
  -3   2  -8  948.21   45.30
  -3   2  -8  978.20   38.50
   3  -2   8  986.60   30.90
   3  -2   8 1003.70   48.10
   3  -2   8  930.31   26.50
   3  -2   8  958.60   42.10
  -4   2  -8  140.99   21.50
  -4   2  -8  114.19   13.10
  -4   2  -8  113.59   17.50
  -4   2  -8  128.69   15.80
   4  -2   8  142.29   19.60
   4  -2   8  138.99   12.90
   4  -2   8  104.79   20.10
   4  -2   8  143.19   26.20
  -5   2  -8    0.50    7.20
  -5   2  -8    1.30   10.20
  -5   2  -8    7.40   11.60
  -5   2  -8    1.10    7.30
   5  -2   8   -5.90    8.90
   5  -2   8   -3.80   13.30
  -6   2  -8   30.90   15.70
  -6   2  -8   22.90   15.40
  -6   2  -8   21.20   11.60
  -6   2  -8   20.00    9.90
   6  -2   8   31.00   15.90
   6  -2   8   -6.20   14.40
  -7   2  -8   22.80   10.90
  -7   2  -8   19.70   20.50
   7  -2   8    3.90   19.50
   7  -2   8    3.60   17.10
   8   1  -8  525.95   28.50
   8   1  -8  703.53   60.59
  -8  -1   8  543.75   39.20
  -8  -1   8  532.65   30.90
   7   1  -8 1284.87   61.59
   7   1  -8 1221.98   42.10
  -7  -1   8 1303.57   55.39
   6   1  -8   22.60   11.20
   6   1  -8   29.70    6.50
  -6  -1   8   40.30   11.90
   5   1  -8   43.20    6.80
   5   1  -8   36.50   12.80
  -5  -1   8   36.20   12.40
  -5  -1   8   49.60   10.40
   4   1  -8    4.10    5.20
   4   1  -8    9.90    7.40
  -4  -1   8    8.70    8.40
  -4  -1   8    1.90    4.90
   3   1  -8  200.08   11.60
   3   1  -8  201.18   15.70
   3   1  -8  205.08   19.10
  -3  -1   8  222.88   13.40
  -3  -1   8  216.18   19.20
   2   1  -8   -2.80    5.20
   2   1  -8    3.70    4.30
   2   1  -8   31.20    6.10
   2   1  -8    5.80    5.00
  -2  -1   8    0.40    2.30
  -2  -1   8    2.80    6.30
   1   1  -8  650.23   24.70
   1   1  -8  678.83   29.80
   1   1  -8  638.04   23.80
   1   1  -8  696.43   34.60
  -1  -1   8  654.83   15.60
  -1  -1   8  677.03   33.80
  -1  -1   8  632.64   26.00
  -1  -1   8  680.33   31.50
   0   1  -8  409.56   26.90
   0   1  -8  470.85   24.50
   0   1  -8  437.76   21.40
   0   1  -8  440.66   18.50
   0  -1   8  422.16   25.00
   0  -1   8  405.06   21.70
   0  -1   8  445.96   28.00
  -1   1  -8 1448.06   48.40
  -1   1  -8 1397.86   49.20
   1  -1   8 1603.74   59.19
   1  -1   8 1515.55   45.10
   1  -1   8 1485.55   50.09
   1  -1   8 1447.06   52.29
  -2   1  -8 1374.56   53.19
  -2   1  -8 1280.17   46.80
  -2   1  -8 1288.27   32.00
  -2   1  -8 1349.16   48.80
   2  -1   8 1339.27   51.69
   2  -1   8 1397.46   50.59
   2  -1   8 1300.17   39.40
   2  -1   8 1296.37   55.09
  -3   1  -8  262.67   23.60
  -3   1  -8  211.78   18.50
  -3   1  -8  227.88   12.70
  -3   1  -8  245.38   20.90
   3  -1   8  220.28   12.50
   3  -1   8  254.17   22.20
   3  -1   8  244.38   24.30
  -4   1  -8 1500.25   46.10
  -4   1  -8 1567.34   54.29
  -4   1  -8 1525.65   60.09
  -4   1  -8 1639.84   65.59
   4  -1   8 1572.74   66.49
   4  -1   8 1474.35   58.69
   4  -1   8 1472.15   59.69
  -5   1  -8   47.20   16.60
  -5   1  -8    6.30    9.00
  -5   1  -8   24.90    8.90
  -5   1  -8   38.30   15.10
   5  -1   8    3.90    9.90
   5  -1   8   31.00   16.90
  -6   1  -8  114.39   16.60
  -6   1  -8  119.39   16.80
  -6   1  -8  163.58   32.20
  -6   1  -8  118.29   24.60
   6  -1   8  122.99   22.80
   6  -1   8  137.79   29.20
   6  -1   8  127.29   23.10
   8   0  -8   -2.60    9.10
   8   0  -8    7.50   17.00
  -8   0   8  -15.60   14.60
   7   0  -8  474.35   25.30
   7   0  -8  458.45   36.30
   7   0  -8  500.55   33.70
  -7   0   8  430.66   32.70
   6   0  -8   37.50   11.00
   6   0  -8   47.90    9.20
  -6   0   8   33.70   11.30
   5   0  -8  216.08   16.90
   5   0  -8  192.98   24.50
   5   0  -8  200.78   18.00
  -5   0   8  231.48   30.10
  -5   0   8  158.68   16.90
   4   0  -8  188.58   14.10
   4   0  -8  202.08   16.00
   4   0  -8  171.78   14.70
   4   0  -8  163.28   21.30
  -4   0   8  152.48   20.50
  -4   0   8  151.18   13.50
   3   0  -8 1342.67   40.70
   3   0  -8 1238.78   51.39
   3   0  -8 1302.17   44.90
   3   0  -8 1300.37   41.20
  -3   0   8 1334.77   39.30
  -3   0   8 1319.77   51.69
   2   0  -8    1.20    3.90
   2   0  -8    9.50    5.30
   2   0  -8    2.70    5.20
   2   0  -8    0.70    5.40
  -2   0   8    3.60    7.00
  -2   0   8    1.20    2.50
   1   0  -8    4.80    3.10
   1   0  -8   -3.00    4.60
   1   0  -8   -1.30    6.90
   1   0  -8    3.20    4.70
  -1   0   8    5.30    7.90
  -1   0   8   11.20    6.50
  -1   0   8   11.10    6.00
   0   0  -8  278.67   18.90
   0   0  -8  296.17   23.10
   0   0  -8  316.97   20.90
   0   0   8  308.97   20.90
   0   0   8  295.77   23.80
   0   0   8  321.47   19.20
   0   0   8  332.77   20.80
  -1   0  -8  371.56   22.80
  -1   0  -8  325.67   21.80
   1   0   8  371.96   27.90
   1   0   8  384.06   24.00
   1   0   8  372.96   20.20
   1   0   8  346.97   23.30
  -2   0  -8  256.97   19.80
  -2   0  -8  272.17   23.20
  -2   0  -8  243.68   20.20
  -2   0  -8  240.88    9.20
   2   0   8  256.57   24.50
   2   0   8  248.78   15.90
   2   0   8  264.87   21.80
  -3   0  -8  158.78   21.90
  -3   0  -8  186.98   20.00
  -3   0  -8  176.38   17.30
  -3   0  -8  157.98   10.70
   3   0   8  177.48   28.60
   3   0   8  173.68   13.40
   3   0   8  189.68   20.20
  -4   0  -8   34.30    7.20
  -4   0  -8   38.10   11.50
  -4   0  -8   51.49   15.70
  -4   0  -8   28.70   13.30
   4   0   8   33.40    5.60
   4   0   8    5.60   11.30
   4   0   8   10.90   13.10
   4   0   8   49.80   13.70
  -5   0  -8   -6.30    8.80
  -5   0  -8   11.50   12.70
  -5   0  -8  -11.20   10.90
  -5   0  -8    1.50    7.60
   5   0   8    4.00   10.90
   5   0   8   -4.10   12.20
  -6   0  -8  541.95   33.00
  -6   0  -8  584.14   45.00
  -6   0  -8  514.75   40.80
  -6   0  -8  518.55   31.70
   6   0   8  476.25   42.00
   6   0   8  499.15   40.50
   6   0   8  564.34   41.30
   8  -1  -8  193.98   25.90
   8  -1  -8  211.58   27.40
   8  -1  -8  211.18   34.40
  -8   1   8  211.28   29.80
  -8   1   8  241.88   30.10
   7  -1  -8  157.68   17.20
   7  -1  -8  160.98   22.30
   7  -1  -8  192.58   29.50
  -7   1   8  150.38   23.50
  -7   1   8  155.78   22.10
   6  -1  -8    7.50    8.80
   6  -1  -8    5.90    6.60
  -6   1   8   -2.70    8.40
   5  -1  -8    9.20    6.20
   5  -1  -8   10.70    6.80
  -5   1   8    9.70    7.20
  -5   1   8    5.20    9.20
  -5   1   8   16.40    8.00
   4  -1  -8    8.40    6.70
   4  -1  -8    7.90    9.70
   4  -1  -8    5.30    5.40
   4  -1  -8    1.50    5.90
  -4   1   8    1.10    6.80
  -4   1   8   -0.20    5.20
  -4   1   8   -4.10    8.60
   3  -1  -8  553.34   23.50
   3  -1  -8  618.04   28.00
   3  -1  -8  576.04   28.00
   3  -1  -8  546.75   32.30
  -3   1   8  573.64   32.90
  -3   1   8  597.84   32.10
  -3   1   8  551.74   23.30
   2  -1  -8  104.79   16.70
   2  -1  -8  104.49    8.40
   2  -1  -8  102.69   14.10
   2  -1  -8   95.79    6.40
   2  -1  -8  112.29   13.80
  -2   1   8   96.69   15.00
  -2   1   8   85.19   15.80
   1  -1  -8 4192.88  106.99
   1  -1  -8 4172.68   89.49
   1  -1  -8 4100.59  115.49
  -1   1   8 4361.96  110.19
  -1   1   8 4077.19  116.49
  -1   1   8 4106.99  106.29
   0  -1  -8 1866.61   60.09
   0  -1  -8 1857.51   66.19
   0   1   8 1850.21   67.59
   0   1   8 1883.01   59.19
   0   1   8 1898.41   59.69
   0   1   8 1968.40   62.79
  -1  -1  -8  101.59   15.00
   1   1   8  114.69   18.50
   1   1   8   86.69   13.30
   1   1   8  108.99   14.00
   1   1   8   93.49    9.90
   1   1   8   94.59   15.20
  -2  -1  -8   58.49    5.70
  -2  -1  -8   48.50   12.80
  -2  -1  -8   50.79   11.90
   2   1   8   64.69   13.70
   2   1   8   46.00    9.30
   2   1   8   54.79   14.40
  -3  -1  -8  131.39   10.50
  -3  -1  -8  120.79   19.40
  -3  -1  -8  133.59   19.80
   3   1   8  147.09   14.50
   3   1   8  143.29   22.40
   3   1   8  148.59   21.40
  -4  -1  -8   52.29    9.00
  -4  -1  -8   58.59   16.10
   4   1   8   47.40    8.80
   4   1   8   51.49   15.80
   4   1   8   46.70   14.10
  -5  -1  -8    5.00   13.60
  -5  -1  -8    9.70    8.00
  -5  -1  -8    4.50   13.00
   5   1   8   11.30   10.80
   5   1   8   14.00   15.40
   5   1   8   -1.30   14.70
  -6  -1  -8   67.79   15.20
  -6  -1  -8   49.90   17.20
  -6  -1  -8   48.80   20.90
  -6  -1  -8   60.59   21.90
   6   1   8   45.50   21.50
   6   1   8   86.49   21.10
   6   1   8   53.29   22.30
   8  -2  -8   29.70   23.20
   8  -2  -8   44.20   18.40
   8  -2  -8   47.70   14.10
   7  -2  -8  -19.80   16.30
   7  -2  -8   -1.40   11.10
  -7   2   8   -2.30   13.20
  -7   2   8   17.10   12.90
   6  -2  -8  175.58   25.10
   6  -2  -8  230.58   17.50
  -6   2   8  178.78   25.40
  -6   2   8  213.08   22.60
   5  -2  -8  119.39   16.50
   5  -2  -8  111.89   14.10
  -5   2   8   82.49   17.10
  -5   2   8  132.39   16.40
  -5   2   8  112.99   21.00
   4  -2  -8   12.90    6.50
   4  -2  -8   13.70    9.70
   4  -2  -8   12.20    6.60
   4  -2  -8   10.70    7.80
  -4   2   8   25.00   15.00
  -4   2   8    5.30    5.80
  -4   2   8    0.50    8.10
   3  -2  -8   97.39   14.20
   3  -2  -8  118.99   11.70
   3  -2  -8  131.09   14.10
  -3   2   8  106.19   12.10
  -3   2   8  137.89   20.40
   2  -2  -8    2.80    3.90
   2  -2  -8   13.60    7.80
   2  -2  -8    9.20    6.60
  -2   2   8   10.20    7.20
  -2   2   8   16.00    6.30
  -2   2   8   10.30    8.80
   1  -2  -8  231.18   20.80
   1  -2  -8  204.28   10.50
   1  -2  -8  183.38   18.00
  -1   2   8  186.58   20.80
  -1   2   8  185.18   18.30
  -1   2   8  202.18   16.40
   0  -2  -8  850.21   42.20
   0  -2  -8  797.32   23.20
   0  -2  -8  868.91   39.00
   0   2   8  817.52   39.90
   0   2   8  890.61   44.00
   0   2   8  821.02   35.20
   0   2   8  913.31   38.60
  -1  -2  -8   54.79   12.40
  -1  -2  -8   48.10    5.70
  -1  -2  -8   52.19    6.00
   1   2   8   41.00   12.20
   1   2   8   36.00   13.80
   1   2   8   46.00   11.30
  -2  -2  -8  228.48   22.50
  -2  -2  -8  231.08   22.60
   2   2   8  217.18   19.20
   2   2   8  209.48   22.50
   2   2   8  255.37   26.30
  -3  -2  -8  150.98   22.00
  -3  -2  -8  123.69   12.00
   3   2   8  160.68   24.50
   3   2   8  139.89   21.90
   3   2   8  131.89   16.60
  -4  -2  -8  548.15   26.30
  -4  -2  -8  549.05   39.00
  -4  -2  -8  476.35   36.90
   4   2   8  539.25   28.10
   4   2   8  514.75   39.30
   4   2   8  535.95   38.30
  -5  -2  -8   -0.40   15.60
  -5  -2  -8   -1.30    9.50
   5   2   8   -3.10   16.30
   5   2   8   -3.40   12.30
   5   2   8  -15.30   13.40
  -6  -2  -8   25.00   21.50
  -6  -2  -8   10.50   13.60
   6   2   8  -12.10   17.80
   6   2   8   15.50   18.20
   7  -3  -8  307.57   44.80
   7  -3  -8  345.07   31.10
   7  -3  -8  333.47   21.00
  -7   3   8  314.47   32.40
  -7   3   8  306.87   34.00
   6  -3  -8   95.19   21.60
   6  -3  -8   67.39   11.40
   6  -3  -8   72.29   15.50
  -6   3   8   89.59   17.20
  -6   3   8   91.69   19.40
   5  -3  -8  824.12   46.60
   5  -3  -8  802.02   37.70
   5  -3  -8  794.32   35.00
  -5   3   8  744.13   46.10
  -5   3   8  801.22   39.00
   4  -3  -8   81.79   17.00
   4  -3  -8   67.49   12.00
   4  -3  -8   81.39   14.70
   4  -3  -8  104.79   14.60
  -4   3   8  100.69   13.70
  -4   3   8   84.99   19.20
   3  -3  -8 1034.00   49.60
   3  -3  -8 1112.89   46.40
   3  -3  -8 1112.39   38.70
  -3   3   8 1121.29   49.30
  -3   3   8 1035.60   51.09
   2  -3  -8  498.25   30.50
   2  -3  -8  540.25   23.20
   2  -3  -8  565.24   34.90
  -2   3   8  555.94   35.20
  -2   3   8  578.34   26.90
  -2   3   8  572.74   33.70
   1  -3  -8  731.73   26.30
   1  -3  -8  759.92   38.30
  -1   3   8  668.73   39.20
  -1   3   8  756.12   38.50
  -1   3   8  814.92   32.40
   0  -3  -8  131.59   22.30
   0   3   8  114.09   19.50
   0   3   8  122.89   17.90
   0   3   8  150.68   15.00
  -1  -3  -8  118.79   15.10
  -1  -3  -8  137.19   20.10
   1   3   8  129.79   20.30
   1   3   8  162.38   20.00
   1   3   8  122.59   27.90
  -2  -3  -8   -4.50    4.70
  -2  -3  -8    8.60    9.30
  -2  -3  -8  -18.10    8.20
   2   3   8   -4.00    9.60
   2   3   8    0.30   10.00
   2   3   8    3.70    8.60
  -3  -3  -8   44.70    8.90
  -3  -3  -8   43.90   15.50
   3   3   8   69.59   14.50
   3   3   8   66.49   15.40
   3   3   8   27.40   14.10
  -4  -3  -8  104.99   21.00
  -4  -3  -8  103.59   23.20
  -4  -3  -8  152.68   17.30
   4   3   8  128.99   17.50
   4   3   8  137.69   24.70
   4   3   8   91.69   20.90
  -5  -3  -8   23.20   20.70
  -5  -3  -8  105.99   16.60
  -5  -3  -8   23.30   18.40
   5   3   8   64.39   22.40
   5   3   8   47.60   13.20
   5   3   8    7.70   18.20
   7  -4  -8   79.69   19.40
   7  -4  -8   70.39   24.20
   7  -4  -8   50.19   11.60
  -7   4   8  105.29   21.50
  -7   4   8   30.70   19.90
   6  -4  -8  120.69   25.30
   6  -4  -8  119.79   15.60
   6  -4  -8  148.49   21.00
  -6   4   8  128.49   23.50
  -6   4   8  118.59   19.20
   5  -4  -8   39.50   17.10
   5  -4  -8   35.00   13.20
   5  -4  -8   28.20   10.20
  -5   4   8   60.69   14.20
  -5   4   8   77.29   19.00
  -5   4   8   25.90   14.40
   4  -4  -8   -1.90   11.40
   4  -4  -8   -2.20    7.00
   4  -4  -8   18.80   11.10
  -4   4   8   10.60   11.60
  -4   4   8    2.70    8.20
   3  -4  -8  714.13   39.80
   3  -4  -8  697.93   40.80
   3  -4  -8  711.93   31.90
  -3   4   8  744.83   42.90
  -3   4   8  749.03   30.60
   2  -4  -8  135.99   14.20
   2  -4  -8  145.99   20.80
   2  -4  -8  162.58   22.70
  -2   4   8  172.68   14.90
  -2   4   8  176.98   23.60
  -2   4   8  175.18   38.10
   1  -4  -8  131.69   12.90
   1  -4  -8  146.49   20.80
   1  -4  -8  142.09   21.20
  -1   4   8  183.88   15.10
  -1   4   8  111.89   19.10
  -1   4   8  131.09   24.20
   0  -4  -8   14.50   11.00
   0  -4  -8    9.80    9.50
   0  -4  -8    4.90    5.80
   0   4   8   16.10   19.40
   0   4   8   12.70    9.90
  -1  -4  -8  270.87   18.10
   1   4   8  262.37   26.10
   1   4   8  265.67   26.30
  -2  -4  -8   76.19   19.00
  -2  -4  -8   61.39   10.60
  -2  -4  -8   80.99   15.70
   2   4   8   80.89   18.60
   2   4   8   42.50   14.90
   2   4   8   59.79   18.10
  -3  -4  -8   21.60   15.40
  -3  -4  -8   23.60    9.10
  -3  -4  -8   22.60   13.10
   3   4   8    5.90   13.10
   3   4   8   44.80   18.00
   3   4   8   31.30   15.00
  -4  -4  -8   27.10   18.40
  -4  -4  -8   27.60   11.90
  -4  -4  -8  -14.40   14.70
   4   4   8   51.19   16.40
   4   4   8   46.60   17.30
   4   4   8   14.10   17.80
   6  -5  -8   13.50   13.10
   6  -5  -8   -8.40    9.20
   6  -5  -8   -7.70   17.00
  -6   5   8    4.80   15.30
  -6   5   8   28.80   15.10
   5  -5  -8   -0.40   14.80
   5  -5  -8    5.50   14.10
   5  -5  -8   20.70   11.40
  -5   5   8  -14.90   15.10
  -5   5   8   11.00   15.20
   4  -5  -8  244.18   22.30
   4  -5  -8  286.87   30.00
  -4   5   8  269.07   28.80
  -4   5   8  233.88   17.80
   3  -5  -8  702.83   33.90
   3  -5  -8  636.54   40.20
  -3   5   8  595.24   49.50
  -3   5   8  684.83   42.50
  -3   5   8  609.74   26.80
   2  -5  -8   58.39   15.70
   2  -5  -8   71.29   12.70
  -2   5   8   65.29   15.90
  -2   5   8   52.09    9.30
  -2   5   8   41.40   14.80
   1  -5  -8  365.76   29.30
   1  -5  -8  333.37   22.20
  -1   5   8  367.16   31.20
  -1   5   8  339.27   30.50
   0  -5  -8  182.58   17.20
   0  -5  -8  200.88   25.30
   0  -5  -8  174.08   25.10
   0   5   8  143.39   22.30
   0   5   8  184.38   26.00
  -1  -5  -8  379.76   30.30
  -1  -5  -8  373.96   24.00
  -1  -5  -8  360.26   32.70
   1   5   8  337.07   31.20
   1   5   8  346.67   30.00
  -2  -5  -8  453.15   34.90
  -2  -5  -8  494.65   39.10
   2   5   8  532.65   38.90
   2   5   8  481.15   35.30
  -3  -5  -8   91.69   18.00
  -3  -5  -8   62.59   17.00
  -3  -5  -8   71.19   14.10
  -3  -5  -8   76.69   22.50
   3   5   8   53.29   19.40
   3   5   8   92.29   20.40
   3   5   8   91.79   22.30
  -4  -5  -8  314.67   31.20
  -4  -5  -8  310.97   31.30
  -4  -5  -8  271.47   31.70
   4   5   8  261.37   34.60
   4   5   8  319.97   38.90
   4   5   8  273.27   31.40
   5  -6  -8  196.28   23.60
   5  -6  -8  135.39   27.20
   5  -6  -8  243.88   45.20
  -5   6   8  200.98   17.50
  -5   6   8  172.98   31.10
  -5   6   8  197.88   31.10
   4  -6  -8  -11.80   13.80
   4  -6  -8  -27.30   13.30
   4  -6  -8   -0.80   10.60
  -4   6   8    1.20    6.40
  -4   6   8   -6.10   13.60
   3  -6  -8  -31.00   12.40
   3  -6  -8   -5.70    9.70
   3  -6  -8   39.40   15.80
  -3   6   8    0.70    5.80
  -3   6   8  -12.60   12.70
  -3   6   8   -8.30   14.40
   2  -6  -8    8.60    9.90
   2  -6  -8    2.40   13.30
   2  -6  -8    5.30   14.50
  -2   6   8    9.40   14.80
  -2   6   8   19.30   14.40
   1  -6  -8  -16.30   13.10
   1  -6  -8   -7.20   12.20
   1  -6  -8    2.30    9.10
  -1   6   8   10.00   13.50
  -1   6   8   -2.80   14.30
   0  -6  -8  143.49   25.30
   0  -6  -8  117.59   17.20
   0  -6  -8  117.79   21.30
   0  -6  -8  115.29   21.50
   0   6   8  157.48   26.60
   0   6   8  132.19   22.20
  -1  -6  -8   72.89   15.00
  -1  -6  -8   26.50   16.40
  -1  -6  -8   46.60   21.90
   1   6   8   73.29   20.40
   1   6   8   73.39   18.60
  -2  -6  -8   20.70   16.30
  -2  -6  -8   -5.00   17.90
  -2  -6  -8    1.70   11.90
   2   6   8   31.50   17.30
   2   6   8   26.80   17.60
   4  -7  -8  164.48   29.30
   4  -7  -8  102.69   20.60
   4  -7  -8  130.99   25.10
  -4   7   8  112.89   24.20
  -4   7   8  111.29   26.30
   3  -7  -8  956.40   57.49
   3  -7  -8  960.80   47.10
   3  -7  -8  925.91   54.49
  -3   7   8  895.11   53.69
  -3   7   8  955.40   58.79
   2  -7  -8   49.20   21.20
   2  -7  -8   84.89   20.60
   2  -7  -8   82.09   19.00
  -2   7   8  133.79   27.90
  -2   7   8   85.29   21.20
   1  -7  -8  121.79   23.50
   1  -7  -8   58.09   29.00
   1  -7  -8   65.29   22.60
  -1   7   8   60.89   24.60
  -1   7   8   88.69   21.10
   0  -7  -8   48.00   21.00
   0  -7  -8   45.90   19.80
   0  -7  -8   58.39   16.30
   0   7   8   69.89   18.30
   0   7   8   -6.20   25.60
  -1  -7  -8    7.20   19.70
  -1  -7  -8    3.00   19.80
   1   7   8   39.60   36.40
   1   7   8   30.40   18.20
   2  11  -9   31.80   17.30
  -2 -11   9  -16.60   18.80
  -2 -11   9   18.20   16.40
  -2 -11   9    6.60   11.50
   1  11  -9    2.90   14.10
  -1 -11   9   15.30   14.90
  -1 -11   9   -6.90   17.90
  -1 -11   9   25.40   18.60
  -1 -11   9  -16.70   11.80
   0  11  -9    1.00   13.30
   0 -11   9   37.50   18.40
   0 -11   9  -17.10   15.30
   0 -11   9   15.60   18.10
   0 -11   9   -3.40   14.00
  -1  11  -9   36.00   17.20
   1 -11   9   44.90   17.10
   1 -11   9   74.79   22.40
   1 -11   9   -0.20   18.70
   1 -11   9   50.79   18.80
  -2  11  -9  453.45   41.40
   2 -11   9  318.97   33.30
   2 -11   9  347.67   37.70
   2 -11   9  391.56   39.00
   2 -11   9  354.06   18.40
   4  10  -9  137.29   28.90
  -4 -10   9  169.68   28.50
  -4 -10   9  145.09   14.60
  -4 -10   9  165.88   29.70
   3  10  -9   81.19   22.70
  -3 -10   9   48.10   19.20
  -3 -10   9   73.29   11.40
  -3 -10   9   43.00   21.60
   2  10  -9   67.39   20.70
  -2 -10   9   96.59   24.00
  -2 -10   9   66.09   12.80
   1  10  -9    8.50   13.90
  -1 -10   9   -4.70   13.70
  -1 -10   9   27.30   17.00
  -1 -10   9   -0.30   12.60
  -1 -10   9   10.60    9.20
   0  10  -9   49.00   17.10
   0 -10   9   56.09   19.20
   0 -10   9   87.39   18.60
   0 -10   9   79.39   21.00
   0 -10   9   51.89   16.10
  -1  10  -9   99.49   22.80
   1 -10   9   76.69   18.80
   1 -10   9   71.59   18.70
   1 -10   9   83.39   20.60
   1 -10   9   68.79   14.50
   1 -10   9  104.29   18.10
  -2  10  -9   69.99   21.00
   2 -10   9   53.89   10.90
   2 -10   9   85.29   19.50
   2 -10   9   64.49   18.50
   2 -10   9   49.10   15.90
   2 -10   9   80.09   18.70
   2 -10   9   56.79   16.20
  -3  10  -9   51.79   18.80
   3 -10   9   83.59   19.90
   3 -10   9   62.19   14.40
   3 -10   9   53.09   18.20
   3 -10   9   41.60   17.30
   3 -10   9   59.79   16.80
   5   9  -9  158.78   14.70
   5   9  -9  153.08   30.40
  -5  -9   9  158.78   28.30
   4   9  -9  160.58   29.90
  -4  -9   9  188.88   30.10
  -4  -9   9  195.68   27.80
  -4  -9   9  176.18    9.00
   3   9  -9   23.60   16.50
  -3  -9   9   11.70   14.40
  -3  -9   9   22.40   15.90
   2   9  -9   72.09   20.00
  -2  -9   9   90.09   20.40
  -2  -9   9   -0.60   15.70
  -2  -9   9   55.19    9.40
   1   9  -9  151.58   26.80
  -1  -9   9  140.89   22.80
  -1  -9   9   97.19   19.70
  -1  -9   9  151.38   21.90
   0   9  -9  649.54   44.20
   0  -9   9  648.54   39.70
   0  -9   9  665.53   40.20
   0  -9   9  602.64   38.10
   0  -9   9  670.33   42.90
   0  -9   9  597.34   30.50
  -1   9  -9   31.10   16.00
   1  -9   9   23.70   10.10
   1  -9   9   29.80   12.70
   1  -9   9   23.50   14.20
   1  -9   9   -4.00   11.60
   1  -9   9   16.90   12.10
   1  -9   9   12.30    6.60
  -2   9  -9   13.70   12.40
   2  -9   9  -14.10   12.30
   2  -9   9   31.20   13.20
   2  -9   9   13.60   18.90
   2  -9   9   31.00   12.20
   2  -9   9   30.90    9.80
   2  -9   9   22.90   11.70
   3  -9   9  514.15   35.20
   3  -9   9  441.26   32.20
   3  -9   9  541.45   35.70
   3  -9   9  514.75   32.10
   3  -9   9  429.56   32.90
   4  -9   9  247.68   26.80
   4  -9   9  180.08   22.70
   4  -9   9  233.68   28.80
   4  -9   9  186.78   22.00
   4  -9   9  217.88   25.90
   6   8  -9   71.89   14.50
  -6  -8   9    7.70   20.20
  -6  -8   9   20.50   32.10
   5   8  -9    9.70    9.20
   5   8  -9   -0.90   13.20
  -5  -8   9   -6.80   15.90
  -5  -8   9    3.50   16.00
  -5  -8   9   27.30   17.60
   4   8  -9   84.19   21.50
   4   8  -9   85.59   11.80
  -4  -8   9  108.19   22.10
  -4  -8   9   63.59   17.60
   3   8  -9   20.20   13.30
  -3  -8   9   10.40    2.70
  -3  -8   9   14.60   13.00
  -3  -8   9    8.20    2.30
  -3  -8   9    8.40   11.80
   2   8  -9  163.28   26.70
  -2  -8   9  166.28   24.30
  -2  -8   9  152.08   10.90
   1   8  -9  160.98   25.70
  -1  -8   9  156.98   21.80
  -1  -8   9  184.58   13.90
  -1  -8   9  149.09   13.00
  -1  -8   9  173.58   16.80
  -1  -8   9  169.28   22.10
  -1  -8   9  122.89   20.70
   0   8  -9   53.89   15.90
   0  -8   9   21.90    7.50
   0  -8   9   29.00   12.70
   0  -8   9   29.00   11.30
   0  -8   9   21.90    6.90
   0  -8   9   18.70    9.60
   0  -8   9   -4.20   10.00
   0  -8   9   26.70   11.80
  -1   8  -9   35.40   14.10
   1  -8   9   32.30   12.90
   1  -8   9   13.20   10.70
   1  -8   9   11.10    7.70
   1  -8   9   40.40   11.60
   1  -8   9   10.30   10.70
   1  -8   9   28.10   11.70
   1  -8   9   16.20    8.20
  -2   8  -9 1059.59   54.59
   2  -8   9 1114.69   47.70
   2  -8   9 1051.79   46.20
   2  -8   9 1101.59   52.09
   2  -8   9 1103.89   44.90
   2  -8   9 1074.99   48.70
   2  -8   9 1092.99   49.40
   2  -8   9 1043.50   46.00
   3  -8   9   71.49   16.80
   3  -8   9   73.29   18.20
   3  -8   9   60.59   15.20
   3  -8   9   52.69   13.50
   3  -8   9   74.89   15.50
   3  -8   9  109.39   17.80
   4  -8   9  440.16   36.80
   4  -8   9  435.36   31.50
   4  -8   9  443.06   29.40
   4  -8   9  400.96   34.30
   4  -8   9  425.46   26.40
   4  -8   9  415.16   33.80
   5  -8   9   96.49   18.50
   5  -8   9   79.89   21.30
   5  -8   9   86.39   20.90
   5  -8   9   78.49   11.60
   6   7  -9  171.58   22.00
  -6  -7   9  186.68   26.00
  -6  -7   9  165.68   27.00
  -6  -7   9  208.08   30.00
   5   7  -9   -0.30    8.70
  -5  -7   9    9.90   12.90
  -5  -7   9    4.30   12.50
  -5  -7   9   -1.70   13.50
   4   7  -9   43.50   10.30
   4   7  -9   33.10   16.60
  -4  -7   9   40.40   13.60
   3   7  -9  444.56   23.40
   3   7  -9  507.45   37.20
  -3  -7   9  491.15   35.00
  -3  -7   9  436.96   34.30
  -3  -7   9  460.85   19.90
   2   7  -9    0.50    9.00
  -2  -7   9   13.20    3.50
  -2  -7   9   11.90    5.80
  -2  -7   9   15.80    6.50
  -2  -7   9   10.70    2.90
  -2  -7   9    5.50   10.00
   1   7  -9   -2.80    9.10
  -1  -7   9    0.50    4.60
  -1  -7   9    5.50    9.10
  -1  -7   9    9.50    6.20
  -1  -7   9   12.50    9.30
   0   7  -9  419.76   31.80
   0  -7   9  434.16   23.40
   0  -7   9  425.16   35.40
   0  -7   9  480.85   29.40
   0  -7   9  417.86   26.70
   0  -7   9  425.46   25.00
   0  -7   9  424.36   22.00
   0  -7   9  422.66   29.20
  -1   7  -9  367.16   29.50
   1  -7   9  359.76   22.70
   1  -7   9  348.67   25.70
   1  -7   9  380.06   24.20
   1  -7   9  348.67   26.00
   1  -7   9  320.97   32.40
   1  -7   9  342.57   23.10
  -2   7  -9  488.85   34.50
   2  -7   9  535.85   35.00
   2  -7   9  561.64   31.90
   2  -7   9  509.75   28.00
   2  -7   9  510.35   30.30
   2  -7   9  502.95   29.60
   2  -7   9  499.95   31.90
   2  -7   9  504.85   30.60
   3  -7   9  362.06   36.40
   3  -7   9  295.77   22.50
   3  -7   9  311.47   23.40
   3  -7   9  284.27   25.50
   3  -7   9  303.87   27.00
   3  -7   9  343.97   24.70
   4  -7   9    1.30   12.40
   4  -7   9    5.00   10.80
   4  -7   9   12.20    8.80
   4  -7   9    8.90    7.00
   4  -7   9   -1.00   12.40
  -5   7  -9  110.89   21.30
   5  -7   9   90.69   19.10
   5  -7   9   68.69   21.30
   5  -7   9   73.59   15.00
   7   6  -9  123.99   28.20
  -7  -6   9  150.28   27.80
  -7  -6   9  162.98   26.90
  -7  -6   9  187.68   25.80
   6   6  -9   86.69   32.50
  -6  -6   9  125.99   23.40
  -6  -6   9  141.19   25.60
   5   6  -9   83.59   15.80
  -5  -6   9   53.79   14.20
  -5  -6   9   80.69   19.20
   4   6  -9    7.00   10.50
   4   6  -9   16.10    8.20
  -4  -6   9   22.30    5.60
  -4  -6   9   29.30   10.80
  -4  -6   9   16.30   10.60
   3   6  -9  653.13   40.70
   3   6  -9  595.74   30.00
  -3  -6   9  741.63   38.00
  -3  -6   9  662.63   25.40
  -3  -6   9  650.73   29.20
   2   6  -9  835.52   34.70
   2   6  -9  869.91   45.30
  -2  -6   9  859.21   33.20
  -2  -6   9  846.02   32.00
  -2  -6   9  804.72   41.80
  -2  -6   9  834.12   39.90
   1   6  -9  132.39   20.40
  -1  -6   9  163.78   20.60
  -1  -6   9  140.29   14.40
  -1  -6   9  137.19   10.10
  -1  -6   9  174.18   21.30
  -1  -6   9  176.08   15.50
  -1  -6   9  165.78   21.00
   0   6  -9 1875.21   68.69
   0  -6   9 1946.61   60.99
   0  -6   9 1948.61   68.49
   0  -6   9 1938.71   60.29
   0  -6   9 1849.81   58.89
   0  -6   9 1902.61   53.99
   0  -6   9 1760.02   63.09
  -1   6  -9   18.30   10.50
   1  -6   9    6.40    9.70
   1  -6   9    3.90    6.20
   1  -6   9   17.60    8.10
   1  -6   9   16.40    8.80
   1  -6   9   11.90    8.30
   1  -6   9   16.70    7.10
   1  -6   9    3.40    9.10
  -2   6  -9   -8.60    5.60
   2  -6   9    2.60    7.60
   2  -6   9    2.30    7.10
   2  -6   9   -1.40    5.90
   2  -6   9    4.90    7.20
   2  -6   9    1.40    6.70
   2  -6   9   -4.90    8.40
   2  -6   9    6.50    9.40
   3  -6   9   55.99   10.70
   3  -6   9   23.20   10.90
   3  -6   9   40.20    9.50
   3  -6   9   29.80   10.60
   3  -6   9   50.79   14.10
   3  -6   9   25.00   10.00
  -4   6  -9   87.69   18.00
   4  -6   9   92.19   17.50
   4  -6   9  105.29   20.90
   4  -6   9   69.89    8.20
   4  -6   9   87.19   13.10
   4  -6   9   94.79   18.80
  -5   6  -9  333.37   32.10
   5  -6   9  215.48   30.20
   5  -6   9  214.98   28.30
  -6   6  -9   55.69   19.20
   6  -6   9   54.89   14.90
   6  -6   9   40.00   18.10
   6  -6   9   88.79   25.10
  -7  -5   9   26.00   15.20
   6   5  -9  369.06   29.80
  -6  -5   9  374.06   30.90
  -6  -5   9  378.96   28.70
  -6  -5   9  361.56   11.40
   5   5  -9  318.47   25.10
  -5  -5   9  285.27   25.80
  -5  -5   9  247.18   22.60
   4   5  -9    9.20    8.50
  -4  -5   9    4.10    8.10
  -4  -5   9    9.50    7.30
  -4  -5   9   28.90   10.20
   3   5  -9   38.70    9.80
   3   5  -9   26.30   12.10
  -3  -5   9   26.30    8.20
  -3  -5   9   21.20    8.40
   2   5  -9    2.90    8.00
   2   5  -9    5.50    6.90
  -2  -5   9   10.00    7.40
  -2  -5   9    2.40    5.60
  -2  -5   9   -4.50    5.10
   1   5  -9  207.38   18.10
  -1  -5   9  232.18   17.10
  -1  -5   9  235.78   18.40
  -1  -5   9  238.98   19.70
  -1  -5   9  233.08   20.80
  -1  -5   9  236.28   11.50
   0  -5   9 2140.49   72.59
   0  -5   9 2220.98   60.69
   0  -5   9 2103.49   67.59
   0  -5   9 2215.08   68.29
   0  -5   9 2109.89   58.09
   0  -5   9 2116.69   65.39
  -1   5  -9  514.75   30.20
   1  -5   9  496.75   31.90
   1  -5   9  513.85   22.40
   1  -5   9  482.85   28.40
   1  -5   9  486.65   24.90
   1  -5   9  489.55   30.10
   1  -5   9  481.05   28.00
   1  -5   9  454.65   25.30
  -2   5  -9  139.99   19.30
   2  -5   9   79.49   16.00
   2  -5   9  136.89   12.10
   2  -5   9  104.19   15.00
   2  -5   9  137.89   14.00
   2  -5   9  105.79   15.00
   2  -5   9  133.19   20.10
   2  -5   9  138.19   18.50
  -3   5  -9   89.89   16.90
   3  -5   9  120.29   19.90
   3  -5   9   89.99   15.20
   3  -5   9  113.89   12.20
   3  -5   9  113.99   17.30
   3  -5   9   96.29   15.00
  -4   5  -9  450.95   33.30
   4  -5   9  395.56   33.20
   4  -5   9  443.56   24.40
   4  -5   9  456.25   32.10
  -5   5  -9   31.60   11.60
  -5   5  -9    1.60   12.30
   5  -5   9    8.30   12.40
   5  -5   9   36.40   16.50
   5  -5   9    1.30    8.10
   5  -5   9   -5.70   11.90
  -6   5  -9    7.40   13.10
  -6   5  -9  -22.60   15.60
   6  -5   9   24.50   10.90
   6  -5   9   17.60   17.20
   6  -5   9   -1.80   13.20
   8   4  -9  132.69   16.30
   8   4  -9  165.88   29.40
  -8  -4   9  164.68   27.30
  -8  -4   9  160.18   21.50
   7   4  -9  755.12   69.29
  -7  -4   9  823.72   40.40
  -7  -4   9  825.82   46.60
   6   4  -9   50.99   15.00
  -6  -4   9   23.60   12.50
  -6  -4   9   61.69   14.30
   5   4  -9  512.95   32.70
   4   4  -9  283.77   23.40
  -4  -4   9  325.57   23.00
  -4  -4   9  276.67   20.50
  -4  -4   9  251.57   21.10
   3   4  -9   15.20    7.80
  -3  -4   9   28.30    8.20
  -3  -4   9    4.50    6.70
  -3  -4   9   -5.70    6.80
   2   4  -9    7.50    8.20
   2   4  -9   15.60    8.00
  -2  -4   9   18.70    7.70
  -2  -4   9   30.40    9.00
   1   4  -9  278.87   21.00
   1   4  -9  260.77   20.80
  -1  -4   9  255.57   20.10
  -1  -4   9  239.28   19.10
  -1  -4   9  291.57   13.10
  -1  -4   9  282.27   22.90
   0   4  -9  678.03   32.50
   0   4  -9  743.93   33.30
   0  -4   9  653.43   34.70
   0  -4   9  690.23   34.60
   0  -4   9  717.53   32.90
   0  -4   9  664.93   26.30
   0  -4   9  668.13   27.50
  -1   4  -9  188.48   16.90
  -1   4  -9  177.98   17.10
   1  -4   9  155.68   14.50
   1  -4   9  174.98   16.30
   1  -4   9  166.68   20.70
   1  -4   9  188.68   17.70
   1  -4   9  172.28   21.30
  -2   4  -9   10.20    6.80
   2  -4   9   18.00    6.00
   2  -4   9   15.80   10.10
   2  -4   9   24.10    5.60
   2  -4   9   12.60    7.00
   2  -4   9   15.40   10.90
  -3   4  -9   21.30   10.40
  -3   4  -9   26.10    9.70
   3  -4   9   22.40    6.00
   3  -4   9   19.10   12.00
   3  -4   9   30.30    7.00
   3  -4   9   21.10    9.70
  -4   4  -9 1074.99   40.30
  -4   4  -9 1044.60   51.99
  -4   4  -9 1092.79   43.40
   4  -4   9 1095.79   49.50
   4  -4   9 1051.49   38.30
   4  -4   9 1026.70   54.09
  -5   4  -9  293.47   30.60
  -5   4  -9  344.47   24.70
  -5   4  -9  323.17   23.50
   5  -4   9  347.27   23.00
   5  -4   9  331.67   29.50
   5  -4   9  393.06   34.00
   5  -4   9  386.16   36.50
  -6   4  -9  182.38   21.80
  -6   4  -9  175.08   28.00
   6  -4   9  169.38   27.20
   6  -4   9  121.99   24.80
   8   3  -9   61.39    9.30
   8   3  -9   40.00   23.40
  -8  -3   9   62.49   10.70
  -8  -3   9   51.49   19.90
   7   3  -9  183.58   28.10
   7   3  -9  178.68   10.90
  -7  -3   9  175.28   24.30
  -7  -3   9  171.28   24.40
   6   3  -9  416.66   32.30
  -6  -3   9  394.16   28.30
  -6  -3   9  337.67   25.20
   5   3  -9    9.10   17.60
  -5  -3   9    9.00    7.70
  -5  -3   9   -5.00    8.00
  -5  -3   9    6.90    7.70
   4   3  -9  187.88   20.00
  -4  -3   9  222.28   17.70
  -4  -3   9  184.58   19.20
  -4  -3   9  212.68   18.40
   3   3  -9  766.42   36.70
   3   3  -9  725.53   35.70
  -3  -3   9  720.63   33.40
  -3  -3   9  728.33   29.40
  -3  -3   9  671.53   34.00
   2   3  -9 1271.07   47.30
   2   3  -9 1267.57   49.90
   2   3  -9 1368.96   47.60
  -2  -3   9 1281.37   47.10
  -2  -3   9 1273.77   48.70
  -2  -3   9 1258.47   38.30
   1   3  -9   13.10    7.20
   1   3  -9   10.80    5.90
   1   3  -9   12.70    5.20
   1   3  -9    7.70    6.30
  -1  -3   9    6.10    6.20
  -1  -3   9   12.80    7.40
  -1  -3   9   11.60    8.00
  -1  -3   9   14.30    4.00
  -1  -3   9   13.50    4.60
   0   3  -9   53.09   10.70
   0   3  -9   66.19   11.60
   0   3  -9   56.59    8.60
   0   3  -9   62.59   13.10
   0  -3   9   41.50   10.90
   0  -3   9   87.49   15.20
   0  -3   9   58.09    5.00
   0  -3   9   54.89    8.90
  -1   3  -9 1293.57   47.20
  -1   3  -9 1363.86   44.30
  -1   3  -9 1345.37   45.70
   1  -3   9 1257.87   53.09
   1  -3   9 1314.47   51.99
   1  -3   9 1239.48   44.20
   1  -3   9 1290.67   31.80
  -2   3  -9  147.49   15.30
  -2   3  -9  129.19   15.80
   2  -3   9   97.79   18.10
   2  -3   9  102.09    7.90
   2  -3   9  109.69   15.40
  -3   3  -9    8.40    7.30
  -3   3  -9    3.00    6.70
  -3   3  -9    0.00    9.00
   3  -3   9   -3.50    3.30
   3  -3   9    3.50    4.10
   3  -3   9    1.80    8.00
   3  -3   9    2.70    3.20
  -4   3  -9    3.70    6.50
  -4   3  -9    2.20    9.90
  -4   3  -9    9.60    7.90
  -4   3  -9    2.30    8.80
   4  -3   9   26.10   12.30
   4  -3   9   -1.30    8.40
   4  -3   9    3.10    5.70
  -5   3  -9   10.10    8.40
  -5   3  -9   13.60   13.90
  -5   3  -9    8.20    8.70
   5  -3   9  -14.00    9.80
   5  -3   9   14.30    8.50
   5  -3   9   17.50   14.10
   5  -3   9   19.60   16.40
  -6   3  -9  151.28   31.80
  -6   3  -9  171.38   19.90
  -6   3  -9  117.19   25.90
   6  -3   9  156.68   30.00
   6  -3   9  206.58   28.40
   6  -3   9  196.18   20.70
   8   2  -9   69.99   42.30
   8   2  -9   67.29   10.70
  -8  -2   9   76.69   28.20
   7   2  -9  -27.50   13.60
   7   2  -9    7.10    5.50
  -7  -2   9  -10.60   11.20
   6   2  -9    5.20    3.80
  -6  -2   9    5.10    9.00
   5   2  -9  106.49   18.50
   5   2  -9  124.09    7.80
   5   2  -9  123.59    7.10
  -5  -2   9  105.99   17.60
  -5  -2   9  121.49   16.00
   4   2  -9   39.20    3.90
   4   2  -9   35.20    3.20
   4   2  -9   34.00   11.70
  -4  -2   9   24.60    7.30
  -4  -2   9   30.50   10.60
   3   2  -9   67.29    5.30
   3   2  -9   67.59   11.60
   3   2  -9   70.99   14.00
  -3  -2   9   69.39   13.50
  -3  -2   9   75.29    9.80
   2   2  -9   17.30    9.10
   2   2  -9   20.40    7.60
   2   2  -9   33.10    5.20
   2   2  -9   26.40    8.20
  -2  -2   9   43.10   11.30
   1   2  -9 1091.59   34.30
   1   2  -9 1109.99   42.50
   1   2  -9 1143.99   38.60
   1   2  -9 1129.89   47.40
  -1  -2   9 1066.49   44.80
  -1  -2   9 1112.39   26.50
  -1  -2   9 1144.29   36.80
  -1  -2   9 1115.89   47.20
   0   2  -9 2270.87   62.09
   0   2  -9 2246.18   74.69
   0   2  -9 2219.68   61.89
   0   2  -9 2281.37   68.49
   0  -2   9 2306.67   72.69
   0  -2   9 2192.68   63.49
   0  -2   9 2232.68   74.89
  -1   2  -9    5.80    6.00
  -1   2  -9    6.40    5.70
   1  -2   9    4.70    6.60
   1  -2   9    0.50    7.00
   1  -2   9   14.50    8.40
  -2   2  -9 2091.49   65.89
  -2   2  -9 1948.31   71.19
  -2   2  -9 2150.68   66.09
   2  -2   9 2110.89   55.89
   2  -2   9 2040.50   66.79
   2  -2   9 1990.20   73.89
  -3   2  -9  172.48   23.10
  -3   2  -9  193.08   17.10
  -3   2  -9  201.28   18.20
   3  -2   9  199.08   26.40
   3  -2   9  115.89   18.00
   3  -2   9  240.38   21.90
   3  -2   9  206.78   11.40
  -4   2  -9   14.40   12.80
  -4   2  -9   41.60   13.70
  -4   2  -9    5.50    6.20
  -4   2  -9   22.20   10.00
   4  -2   9   20.20   10.30
   4  -2   9   -1.40    9.80
  -5   2  -9   13.60   13.20
  -5   2  -9    0.90   13.60
  -5   2  -9   12.90    9.10
  -5   2  -9    0.40    8.20
   5  -2   9   18.30   14.20
   5  -2   9   12.60   11.90
   5  -2   9   19.30   15.80
  -6   2  -9   29.60   19.00
  -6   2  -9   26.10   16.70
  -6   2  -9  -14.00   16.00
  -6   2  -9   15.40   11.90
   6  -2   9   39.40   17.50
   6  -2   9   27.90   19.50
   8   1  -9   61.49   22.40
   8   1  -9   45.00   11.30
  -8  -1   9   27.80   19.50
   7   1  -9   39.80   16.70
   7   1  -9   32.40    8.40
  -7  -1   9   25.60   14.30
   6   1  -9   45.10    7.50
  -6  -1   9   40.20   11.90
   5   1  -9  525.85   21.70
   5   1  -9  517.75   35.00
  -5  -1   9  506.45   34.10
  -5  -1   9  478.45   27.20
   4   1  -9    5.10    6.30
   4   1  -9   15.10    5.10
  -4  -1   9    2.10    9.10
  -4  -1   9    6.60    5.70
   3   1  -9   23.10    5.50
   3   1  -9   13.30    7.00
   3   1  -9   20.10    9.80
  -3  -1   9   33.70   11.20
  -3  -1   9   26.30    5.80
   2   1  -9  364.06   17.60
   2   1  -9  344.57   25.80
   2   1  -9  380.26   19.50
   2   1  -9  360.86   22.30
  -2  -1   9  357.26   26.30
  -2  -1   9  352.16   13.70
   1   1  -9  528.05   27.70
   1   1  -9  503.55   20.90
   1   1  -9  493.95   31.10
   1   1  -9  532.45   23.30
  -1  -1   9  511.05   28.70
  -1  -1   9  489.65   31.20
  -1  -1   9  518.15   24.80
   0   1  -9  605.34   34.50
   0   1  -9  569.84   26.00
   0   1  -9  517.55   28.10
   0  -1   9  497.25   32.20
   0  -1   9  535.15   26.90
   0  -1   9  514.45   25.60
   0  -1   9  554.24   30.30
  -1   1  -9  389.96   23.80
  -1   1  -9  429.16   25.80
   1  -1   9  409.86   21.40
   1  -1   9  386.16   24.70
   1  -1   9  419.36   30.50
   1  -1   9  399.16   26.40
  -2   1  -9  174.78   22.20
  -2   1  -9  139.89   17.50
  -2   1  -9  144.59   18.50
   2  -1   9  150.68   12.90
   2  -1   9  171.38   18.60
   2  -1   9  150.28   21.60
  -3   1  -9   89.59    8.40
  -3   1  -9   67.29   14.10
  -3   1  -9   93.29   14.80
  -3   1  -9  106.19   18.80
   3  -1   9  101.69   19.50
   3  -1   9   74.79   15.20
   3  -1   9   85.39   10.60
  -4   1  -9  814.12   29.40
  -4   1  -9  808.22   46.30
  -4   1  -9  734.23   37.60
   4  -1   9  842.52   44.80
   4  -1   9  697.13   46.20
  -5   1  -9  344.07   34.20
  -5   1  -9  388.06   33.50
  -5   1  -9  338.37   22.10
  -5   1  -9  303.87   25.80
   5  -1   9  324.47   31.40
   5  -1   9  287.87   32.40
   5  -1   9  335.47   36.70
  -6   1  -9  -12.80   19.80
  -6   1  -9   -0.90   11.00
  -6   1  -9    1.90   11.80
  -6   1  -9   25.20   18.00
   6  -1   9  -21.90   17.50
   6  -1   9    0.30   13.60
   6  -1   9   21.40   21.10
   8   0  -9   23.10   23.40
   8   0  -9   12.30   10.10
  -8   0   9    7.90   18.90
  -8   0   9   33.60   19.60
   7   0  -9   13.70    8.10
   7   0  -9  -26.80   16.10
  -7   0   9    7.10   12.80
   6   0  -9    8.00    9.20
   6   0  -9   -7.80   11.10
  -6   0   9    0.80   12.20
  -6   0   9   15.50    9.80
   5   0  -9  667.93   31.80
   5   0  -9  556.44   38.10
   5   0  -9  635.44   30.20
   5   0  -9  587.94   27.40
  -5   0   9  577.14   29.70
  -5   0   9  573.54   37.80
   4   0  -9   35.30    9.30
   4   0  -9   49.30    9.20
   4   0  -9   50.79   14.30
   4   0  -9   40.70    8.80
  -4   0   9   35.20    8.00
  -4   0   9   49.99   13.50
   3   0  -9 1992.80   61.79
   3   0  -9 1911.91   55.79
   3   0  -9 1826.72   70.49
  -3   0   9 1884.61   68.49
  -3   0   9 1952.60   52.09
   2   0  -9 1910.81   56.39
   2   0  -9 1939.71   69.39
   2   0  -9 1916.01   61.69
   2   0  -9 1861.71   49.30
  -2   0   9 1982.10   64.09
  -2   0   9 1940.71   69.09
  -2   0   9 1904.11   47.00
   1   0  -9    0.70    4.80
   1   0  -9    1.90    5.10
   1   0  -9    6.60    3.60
   1   0  -9    9.80    7.50
  -1   0   9    2.30    6.50
  -1   0   9    3.30    5.90
  -1   0   9   -2.90    7.00
   0   0  -9    1.60    5.80
   0   0  -9    1.70    6.30
   0   0  -9   -2.40    5.90
   0   0   9   12.60    6.80
   0   0   9   -2.50    6.10
   0   0   9    5.90    5.70
   0   0   9   -2.50    6.40
  -1   0  -9  213.68   18.00
  -1   0  -9  179.78   18.00
   1   0   9  179.58   23.00
   1   0   9  172.08   18.30
   1   0   9  187.48   18.60
   1   0   9  163.48   15.50
  -2   0  -9  344.87   24.20
  -2   0  -9  305.47   23.80
  -2   0  -9  323.57   26.90
   2   0   9  324.47   25.30
   2   0   9  323.27   19.80
  -3   0  -9   31.90   13.20
  -3   0  -9   47.30    6.20
  -3   0  -9   33.80   11.70
   3   0   9   62.49   16.50
   3   0   9   41.00    8.80
   3   0   9   37.20   12.80
  -4   0  -9    5.90   10.70
  -4   0  -9   14.80   11.00
  -4   0  -9   -5.70   12.20
  -4   0  -9   21.30    6.70
   4   0   9   29.80   16.30
   4   0   9    1.30    7.20
   4   0   9    5.00   11.50
  -5   0  -9   16.00   14.40
  -5   0  -9   13.10   16.60
  -5   0  -9    4.00   11.10
  -5   0  -9    0.40    7.90
   5   0   9  -13.20   14.00
   5   0   9   10.90   15.80
   5   0   9   26.30   14.40
  -6   0  -9  187.18   23.10
  -6   0  -9  166.48   19.60
  -6   0  -9  190.78   30.30
   6   0   9  195.68   30.20
   6   0   9  199.38   34.30
   8  -1  -9   67.49   28.80
   8  -1  -9  126.89   20.70
   8  -1  -9   95.89   21.50
  -8   1   9  117.89   25.70
   7  -1  -9   53.39   12.10
   7  -1  -9   56.79   16.50
   7  -1  -9   43.40   22.60
  -7   1   9   70.39   17.40
  -7   1   9   87.79   19.90
   6  -1  -9   32.10    9.50
   6  -1  -9  -14.90   13.80
  -6   1   9   49.80   14.50
  -6   1   9   33.80   11.70
  -6   1   9   37.40   14.70
   5  -1  -9   67.59   12.70
   5  -1  -9   66.59   12.60
   5  -1  -9   50.89   11.30
  -5   1   9   40.10   11.30
  -5   1   9   65.99   16.30
   4  -1  -9    4.80    6.30
   4  -1  -9   10.20    7.00
   4  -1  -9   10.90    7.20
  -4   1   9   18.50   10.90
  -4   1   9   16.60    6.60
   3  -1  -9  224.28   13.20
   3  -1  -9  239.08   18.90
   3  -1  -9  239.48   23.60
   3  -1  -9  216.48   18.70
   3  -1  -9  227.38   14.90
  -3   1   9  203.98   25.40
  -3   1   9  240.88   21.70
  -3   1   9  204.78   14.20
   2  -1  -9 1497.25   51.29
   2  -1  -9 1624.44   55.59
   2  -1  -9 1467.45   40.00
   2  -1  -9 1458.45   34.00
  -2   1   9 1425.76   59.89
  -2   1   9 1562.74   56.09
  -2   1   9 1559.84   53.39
   1  -1  -9  183.28   27.00
   1  -1  -9  208.18   18.70
   1  -1  -9  178.18   17.50
  -1   1   9  195.48   17.70
  -1   1   9  210.68   23.10
  -1   1   9  211.28   19.40
   0  -1  -9  356.06   24.30
   0   1   9  354.16   25.00
   0   1   9  346.47   23.60
   0   1   9  352.36   23.30
   0   1   9  381.46   29.80
  -1  -1  -9   55.09   12.50
   1   1   9   40.50    8.60
   1   1   9   43.60   14.50
   1   1   9   52.39   10.50
   1   1   9   42.00   11.00
   1   1   9   49.60   12.80
  -2  -1  -9  674.13   17.40
  -2  -1  -9  734.63   38.90
  -2  -1  -9  735.23   40.30
   2   1   9  738.53   33.20
   2   1   9  799.92   47.80
   2   1   9  726.83   43.60
  -3  -1  -9   -6.30   10.50
   3   1   9    1.60   10.50
   3   1   9   -7.50   11.20
   3   1   9    9.10    7.40
  -4  -1  -9   24.60   15.50
  -4  -1  -9   59.59    9.40
  -4  -1  -9   39.40   17.10
   4   1   9   49.30   16.90
   4   1   9   29.60    8.90
   4   1   9   74.19   18.10
  -5  -1  -9  170.68   22.80
  -5  -1  -9  174.18   28.40
  -5  -1  -9  188.18   18.40
  -5  -1  -9  168.38   29.00
   5   1   9  167.78   25.80
   5   1   9  174.78   29.90
   5   1   9  230.68   29.20
   7  -2  -9  432.76   38.90
   7  -2  -9  432.66   33.10
  -7   2   9  428.36   38.60
  -7   2   9  487.15   35.10
   6  -2  -9    2.00   10.10
   6  -2  -9    3.30   15.10
   6  -2  -9    1.20    7.30
  -6   2   9   15.20   11.90
  -6   2   9   -5.40    9.80
  -6   2   9   17.50   13.50
   5  -2  -9  246.88   20.00
   5  -2  -9  168.98   20.70
   5  -2  -9  192.68   18.30
  -5   2   9  254.77   21.70
  -5   2   9  201.98   28.40
   4  -2  -9  326.77   21.10
   4  -2  -9  319.67   24.10
   4  -2  -9  334.57   23.50
  -4   2   9  330.87   21.10
  -4   2   9  336.77   28.50
   3  -2  -9  745.83   28.60
   3  -2  -9  740.33   40.50
   3  -2  -9  665.83   18.80
   3  -2  -9  691.53   34.50
   3  -2  -9  688.83   34.90
  -3   2   9  706.83   28.50
  -3   2   9  687.63   41.20
  -3   2   9  764.72   39.50
   2  -2  -9  269.97   22.60
   2  -2  -9  257.27   14.20
   2  -2  -9  276.07   24.10
  -2   2   9  280.27   27.30
  -2   2   9  264.37   19.60
  -2   2   9  301.47   24.30
   1  -2  -9   71.69   13.70
   1  -2  -9   45.00   13.20
   1  -2  -9   43.30    5.20
  -1   2   9   84.19   16.60
  -1   2   9   51.19   12.70
  -1   2   9   56.49   11.10
   0  -2  -9   24.10    2.80
   0  -2  -9   22.80   11.20
   0  -2  -9   13.70    9.20
   0   2   9   17.20    8.40
   0   2   9   44.70   10.90
   0   2   9    9.30   13.10
  -1  -2  -9  133.89    6.30
  -1  -2  -9  139.49   18.90
  -1  -2  -9  130.69    6.30
   1   2   9  130.19   22.10
   1   2   9  148.89   18.60
   1   2   9  122.39   18.60
  -2  -2  -9  666.53   38.90
  -2  -2  -9  695.73   22.00
  -2  -2  -9  712.13   40.60
   2   2   9  690.73   40.50
   2   2   9  739.33   44.80
   2   2   9  759.72   36.30
  -3  -2  -9  -17.20   10.80
  -3  -2  -9   17.30    5.90
  -3  -2  -9   25.50   12.10
   3   2   9    1.80    8.60
   3   2   9  -12.20   10.60
   3   2   9   35.70   16.10
  -4  -2  -9  943.01   52.99
  -4  -2  -9  857.21   50.59
  -4  -2  -9  890.91   34.00
   4   2   9  885.71   54.19
   4   2   9  889.11   38.70
   4   2   9  922.01   52.29
  -5  -2  -9  150.78   29.50
  -5  -2  -9  174.18   29.70
  -5  -2  -9  218.68   20.90
   5   2   9  184.28   29.00
   5   2   9  118.89   28.10
   7  -3  -9   29.50   15.30
   7  -3  -9   13.70   10.00
   7  -3  -9   26.20   19.30
  -7   3   9   33.10   17.20
  -7   3   9   26.50   20.30
   6  -3  -9    7.60   16.90
   6  -3  -9   17.40    9.00
   6  -3  -9   37.10   13.40
  -6   3   9   21.00   16.50
  -6   3   9   13.00   12.40
  -6   3   9   -1.40   14.90
   5  -3  -9  587.24   35.80
   5  -3  -9  530.95   30.40
   5  -3  -9  561.84   40.50
   5  -3  -9  505.25   29.80
  -5   3   9  363.26   33.60
  -5   3   9  479.15   39.30
  -5   3   9  439.96   53.39
   4  -3  -9  306.37   23.60
   4  -3  -9  310.77   21.40
   4  -3  -9  352.86   31.70
   4  -3  -9  295.37   42.70
  -4   3   9  326.47   22.30
  -4   3   9  303.27   29.50
   3  -3  -9   15.20    6.70
   3  -3  -9    9.30    9.70
   3  -3  -9   19.50   10.50
  -3   3   9   -4.90    7.00
  -3   3   9   21.80   12.40
  -3   3   9    8.10   10.70
   2  -3  -9   40.10   13.90
   2  -3  -9    5.60    4.90
   2  -3  -9   42.80   14.30
  -2   3   9   -4.10    7.10
  -2   3   9    8.30   11.40
  -2   3   9   20.40   10.50
   1  -3  -9  256.47   25.70
   1  -3  -9  250.87   15.80
   1  -3  -9  248.78   23.40
  -1   3   9  251.07   24.80
  -1   3   9  256.87   19.30
  -1   3   9  280.57   24.80
   0  -3  -9   36.20    5.90
   0  -3  -9   35.40   12.50
   0  -3  -9   29.70   13.90
   0   3   9   54.69   11.70
   0   3   9   38.60   13.90
   0   3   9   41.30   12.30
  -1  -3  -9   22.40    5.40
  -1  -3  -9   30.80   13.20
   1   3   9    9.30   13.10
   1   3   9   11.00   12.00
   1   3   9    1.80   11.10
  -2  -3  -9   62.49    8.40
  -2  -3  -9   96.99   18.60
  -2  -3  -9   60.19    9.10
   2   3   9   62.99   12.30
   2   3   9   55.69   14.80
   2   3   9   94.59   19.60
   2   3   9   92.69   19.20
  -3  -3  -9   -6.20   14.10
  -3  -3  -9   17.40    7.60
  -3  -3  -9  -13.90   12.50
   3   3   9   15.50   13.00
   3   3   9    4.80   10.60
   3   3   9    4.70   14.60
  -4  -3  -9  212.48   19.60
  -4  -3  -9  327.87   36.00
  -4  -3  -9  244.48   31.70
   4   3   9  260.57   34.30
   4   3   9  258.37   32.50
   4   3   9  227.48   24.50
   6  -4  -9  106.29   24.90
   6  -4  -9   52.59   21.40
   6  -4  -9  107.49   18.90
  -6   4   9   55.69   21.40
  -6   4   9   59.19   19.90
  -6   4   9  109.29   20.00
   5  -4  -9  289.47   24.20
   5  -4  -9  309.37   34.40
  -5   4   9  297.97   33.30
  -5   4   9  357.86   27.70
  -5   4   9  301.77   32.50
   4  -4  -9   25.90    9.40
   4  -4  -9   30.60   16.20
   4  -4  -9    1.50   12.40
  -4   4   9    2.00   12.80
  -4   4   9   -1.30   13.90
   3  -4  -9  463.75   35.30
   3  -4  -9  481.45   25.40
   3  -4  -9  422.36   32.10
  -3   4   9  492.35   37.70
  -3   4   9  452.75   34.80
  -3   4   9  495.35   26.40
   2  -4  -9  573.84   37.80
   2  -4  -9  544.35   25.60
   2  -4  -9  550.64   36.30
  -2   4   9  534.45   37.40
  -2   4   9  529.75   27.00
  -2   4   9  537.85   38.10
   1  -4  -9  273.97   30.20
   1  -4  -9  262.27   16.80
   1  -4  -9  233.08   28.10
  -1   4   9  309.67   21.00
  -1   4   9  273.07   28.40
  -1   4   9  237.88   26.40
   0  -4  -9  996.00   50.79
   0  -4  -9  989.40   33.40
   0   4   9  860.21   46.00
   0   4   9  864.81   49.20
  -1  -4  -9    6.80    6.60
  -1  -4  -9   -9.50   11.40
   1   4   9  -17.20   11.80
   1   4   9   10.70   13.20
  -2  -4  -9  183.38   26.90
  -2  -4  -9  177.18   16.60
  -2  -4  -9  158.68   15.90
   2   4   9  159.38   25.40
   2   4   9  166.38   25.70
   2   4   9  175.18   24.60
  -3  -4  -9   75.29   22.30
  -3  -4  -9  113.99   14.90
  -3  -4  -9   69.09   18.70
   3   4   9  117.09   25.30
   3   4   9  116.59   21.50
   3   4   9   97.79   22.90
  -4  -4  -9   59.19   20.70
  -4  -4  -9  111.99   16.30
   4   4   9  112.09   24.30
   4   4   9  104.29   20.40
   4   4   9  126.39   26.70
   6  -5  -9    8.50   12.00
   6  -5  -9   10.90   22.30
   6  -5  -9    6.10   14.80
   6  -5  -9   26.50   19.50
  -6   5   9   35.50   17.80
  -6   5   9    1.90   21.00
   5  -5  -9   35.60   14.00
   5  -5  -9   27.00   16.40
   5  -5  -9   33.00   12.80
  -5   5   9    1.90   17.50
  -5   5   9   29.90   19.50
   4  -5  -9   29.40   11.00
   4  -5  -9   13.80   15.80
   4  -5  -9   14.20   15.30
  -4   5   9   23.70   15.90
  -4   5   9   20.50    9.50
  -4   5   9   29.70   18.10
   3  -5  -9   20.50   14.80
   3  -5  -9   12.30    9.20
   3  -5  -9   -2.20   13.00
  -3   5   9   -1.60    7.40
  -3   5   9  -26.00   12.30
  -3   5   9    3.00   13.70
   2  -5  -9  120.49   14.70
   2  -5  -9  129.89   22.90
   2  -5  -9  110.39   21.90
  -2   5   9  114.39   22.10
  -2   5   9  142.69   15.10
  -2   5   9  127.99   24.30
   1  -5  -9   65.59   11.50
   1  -5  -9   90.49   18.70
   1  -5  -9   71.99   19.00
  -1   5   9   69.29   19.60
  -1   5   9   85.39   20.50
   0  -5  -9   28.90    9.50
   0  -5  -9   49.90   17.30
   0  -5  -9   47.10   16.30
   0   5   9   41.50   16.80
   0   5   9   63.59   19.60
  -1  -5  -9   15.60    9.20
  -1  -5  -9   22.00   16.20
   1   5   9    7.50   16.20
   1   5   9   -6.80   13.50
  -2  -5  -9  500.25   28.90
  -2  -5  -9  491.15   43.00
  -2  -5  -9  487.35   27.90
   2   5   9  507.55   41.30
   2   5   9  502.45   39.70
  -3  -5  -9  188.18   26.70
  -3  -5  -9  130.09   17.50
   3   5   9  125.29   14.50
   3   5   9  159.98   26.90
   3   5   9  122.09   25.10
   3   5   9  136.79   27.20
   4  -6  -9  162.28   32.00
   4  -6  -9  178.18   22.60
  -4   6   9  209.08   17.20
  -4   6   9  130.09   28.10
  -4   6   9  252.47   34.10
   3  -6  -9   18.60   18.00
   3  -6  -9    0.60   11.00
   3  -6  -9    7.10   16.30
  -3   6   9   17.20    7.70
  -3   6   9   36.90   20.10
  -3   6   9    7.60   15.70
   2  -6  -9   47.60   18.00
   2  -6  -9   68.29   21.20
   2  -6  -9   53.09   14.10
  -2   6   9   55.29   18.40
   1  -6  -9   62.89   20.20
   1  -6  -9   51.59   20.30
   1  -6  -9   73.39   14.40
  -1   6   9   88.09   23.00
  -1   6   9   60.39   21.10
   0  -6  -9    7.70   17.70
   0  -6  -9   11.00   10.80
   0   6   9   23.30   19.20
   0   6   9    9.90   16.70
  -1  -6  -9  124.09   24.40
  -1  -6  -9  111.39   17.10
   1   6   9  127.99   26.10
   1   6   9  116.69   24.40
   1  11 -10   85.79   25.30
  -1 -11  10  102.79   23.20
  -1 -11  10  106.69   27.30
  -1 -11  10   14.20   19.90
  -1 -11  10  107.49   25.90
  -1 -11  10  114.49   16.50
  -1 -11  10   99.39   16.80
   0  11 -10   -7.50   14.70
   0 -11  10   15.10   12.10
   0 -11  10   16.30   18.30
   0 -11  10   -5.30   16.60
   0 -11  10   -4.90   17.60
   0 -11  10    2.90   16.10
  -1  11 -10   11.70   16.20
   1 -11  10   26.60   21.10
   1 -11  10  -15.70   16.20
   1 -11  10    0.00    3.20
   1 -11  10    6.40   18.00
   1 -11  10   13.80   17.70
   1 -11  10    8.20   12.50
   3  10 -10   21.00   19.30
  -3 -10  10   15.00   19.50
  -3 -10  10   38.10   23.70
  -3 -10  10   30.60    6.60
   2  10 -10  315.97   33.60
  -2 -10  10  237.58   32.90
  -2 -10  10  216.58   27.40
  -2 -10  10  206.88   31.30
  -2 -10  10  236.28   17.00
  -2 -10  10  209.68   17.70
   1  10 -10   24.50   16.00
  -1 -10  10   21.10   17.20
  -1 -10  10    8.30    8.40
  -1 -10  10  -12.70    8.30
  -1 -10  10   -5.20   13.70
   0  10 -10   45.60   17.60
   0 -10  10   11.60    9.40
   0 -10  10   15.80   16.70
   0 -10  10   25.90   16.00
   0 -10  10   21.60   17.60
   0 -10  10   10.80   14.80
   0 -10  10   15.40    4.40
  -1  10 -10  536.35   42.90
   1 -10  10  453.45   31.10
   1 -10  10  402.36   35.20
   1 -10  10  453.75   35.10
   1 -10  10  474.15   38.40
   1 -10  10  473.25   36.90
  -2  10 -10  301.97   33.80
   2 -10  10  338.67   31.80
   2 -10  10  336.27   32.70
   2 -10  10  258.57   31.10
   2 -10  10  285.57   31.90
   2 -10  10  247.48   27.70
   3 -10  10    1.10   13.70
   3 -10  10   12.30   15.90
   3 -10  10   -5.90   12.30
   3 -10  10    2.30   16.00
   3 -10  10    3.70   15.60
   5   9 -10    3.10   14.60
   5   9 -10   -1.80    8.90
  -5  -9  10   -1.40   21.00
  -5  -9  10   -9.90   18.90
  -5  -9  10   -2.30   19.60
   4   9 -10   44.90   20.10
  -4  -9  10   31.80   18.00
  -4  -9  10   31.70   20.20
   3   9 -10   90.39   22.90
  -3  -9  10  112.79   24.50
  -3  -9  10  113.89   24.10
   2   9 -10  171.18   28.10
  -2  -9  10  134.49   24.00
  -2  -9  10  127.69   23.70
   1   9 -10   43.10   17.00
  -1  -9  10   16.60   13.10
  -1  -9  10   12.20   13.60
  -1  -9  10   -2.00    6.80
  -1  -9  10   26.00   13.80
   0   9 -10  589.94   42.20
   0  -9  10  521.15   37.80
   0  -9  10  567.34   29.40
   0  -9  10  568.44   25.20
   0  -9  10  558.64   38.00
   0  -9  10  580.14   38.00
   0  -9  10  518.75   39.00
  -1   9 -10   92.19   21.40
   1  -9  10  104.79   18.30
   1  -9  10  111.79   16.80
   1  -9  10  111.19   19.00
   1  -9  10   91.99   20.60
   1  -9  10  113.09   14.70
   1  -9  10  112.79   20.60
   1  -9  10  110.59   20.90
  -2   9 -10  289.57   30.40
   2  -9  10  271.27   28.10
   2  -9  10  255.87   31.50
   2  -9  10  235.28   28.50
   2  -9  10  271.77   33.60
   2  -9  10  240.78   22.60
   2  -9  10  249.28   25.80
   3  -9  10   39.40   14.70
   3  -9  10   12.60   13.20
   3  -9  10   28.60   13.20
   3  -9  10   25.60   15.30
   3  -9  10   38.20   13.70
   4  -9  10   -5.20   15.50
   4  -9  10   -5.60   11.30
   4  -9  10  -13.10   12.80
   4  -9  10   18.10   13.70
   4  -9  10   -1.00   14.10
   5   8 -10  156.68   18.90
   5   8 -10  196.38   31.60
  -5  -8  10  230.38   31.70
  -5  -8  10  150.58   25.90
  -5  -8  10  223.98   29.70
   4   8 -10   12.50   12.70
   4   8 -10   27.90    9.30
  -4  -8  10  -30.00    9.40
  -4  -8  10  -27.50   13.40
   3   8 -10   -3.90   10.70
  -3  -8  10  -21.00   11.80
  -3  -8  10    2.70   13.00
   2   8 -10  123.09   23.50
  -2  -8  10  110.89    7.60
  -2  -8  10  115.59   12.10
  -2  -8  10  155.38   24.50
  -2  -8  10  149.39   15.70
  -2  -8  10  110.99    7.30
   1   8 -10  192.48   29.40
  -1  -8  10  177.48   24.10
  -1  -8  10  175.58   19.10
  -1  -8  10  188.28   24.90
  -1  -8  10  165.48   14.40
  -1  -8  10  164.18   13.30
  -1  -8  10  156.58   22.10
   0   8 -10  681.03   43.30
   0  -8  10  723.83   41.30
   0  -8  10  711.23   31.40
   0  -8  10  609.54   46.60
   0  -8  10  699.83   30.80
   0  -8  10  703.43   40.20
   0  -8  10  709.93   38.00
  -1   8 -10  584.64   40.50
   1  -8  10  643.14   38.70
   1  -8  10  592.14   35.10
   1  -8  10  651.03   32.30
   1  -8  10  582.64   37.80
   1  -8  10  543.35   34.80
   1  -8  10  588.24   31.80
   1  -8  10  629.94   34.00
  -2   8 -10   13.50   12.40
   2  -8  10    5.20    9.20
   2  -8  10   -0.50    9.70
   2  -8  10    1.70    9.70
   2  -8  10   -4.20   11.30
   2  -8  10   23.20   12.70
   2  -8  10    3.50    8.80
   2  -8  10   -2.40   10.70
   3  -8  10  175.08   26.10
   3  -8  10  136.79   20.70
   3  -8  10  218.78   29.80
   3  -8  10  220.48   28.10
   3  -8  10  220.98   23.00
   3  -8  10  212.38   24.70
   4  -8  10  109.49   23.20
   4  -8  10   73.89   17.80
   4  -8  10   68.29   17.20
   4  -8  10   57.69   12.30
   4  -8  10   39.60   13.10
   4  -8  10   35.10   13.60
  -6  -7  10   43.80   19.40
  -6  -7  10    2.60   16.10
  -6  -7  10   49.70   21.00
   5   7 -10  163.78   29.20
   5   7 -10  217.88   22.60
  -5  -7  10  191.18   26.80
  -5  -7  10  164.78   26.10
  -5  -7  10  255.27   30.00
   4   7 -10  663.43   33.50
   4   7 -10  685.23   45.90
  -4  -7  10  673.43   39.70
  -4  -7  10  596.14   39.00
  -4  -7  10  680.43   44.30
  -4  -7  10  642.84   23.00
   3   7 -10   -0.50    7.10
   3   7 -10    2.70    9.90
  -3  -7  10    5.50    6.00
  -3  -7  10    9.10    6.70
  -3  -7  10   -7.50   10.30
   2   7 -10  648.14   42.00
  -2  -7  10  696.23   30.00
  -2  -7  10  669.13   29.80
  -2  -7  10  658.53   40.20
   1   7 -10    9.80   11.20
  -1  -7  10   11.80    7.90
  -1  -7  10    6.20    6.50
  -1  -7  10   -2.20   10.20
  -1  -7  10    2.90    5.90
  -1  -7  10   25.70   12.10
   0   7 -10   -3.20    7.40
   0  -7  10    7.30    8.00
   0  -7  10    3.00    7.10
   0  -7  10    7.20    6.20
   0  -7  10  -23.40    7.90
   0  -7  10    1.10    9.70
   0  -7  10   -2.80    9.90
   0  -7  10    7.80    8.80
  -1   7 -10   90.19   18.60
   1  -7  10   88.79   15.60
   1  -7  10   87.99   17.70
   1  -7  10  111.69   17.40
   1  -7  10  108.69   16.60
   1  -7  10   86.49   16.10
   1  -7  10   96.29   13.70
   1  -7  10   81.89   12.60
  -2   7 -10   34.60   12.60
   2  -7  10   66.19   14.70
   2  -7  10   53.49   14.60
   2  -7  10   53.49   16.20
   2  -7  10   32.60   14.20
   2  -7  10   55.69   11.70
   2  -7  10   58.39   12.90
   2  -7  10   59.39   14.10
   3  -7  10  185.18   24.50
   3  -7  10  235.88   20.10
   3  -7  10  228.88   20.80
   3  -7  10  242.88   22.90
   3  -7  10  245.88   28.70
   4  -7  10  170.68   25.80
   4  -7  10  139.09   17.80
   4  -7  10  153.98   14.50
   4  -7  10  175.98   26.10
   4  -7  10  188.48   25.20
  -5   7 -10  266.87   31.50
   5  -7  10  273.27   35.60
   5  -7  10  191.98   30.50
   5  -7  10  231.68   24.70
   5  -7  10  265.77   31.90
  -7  -6  10  124.69   26.00
  -7  -6  10  224.48   28.60
  -7  -6  10  164.78   35.90
   6   6 -10   50.39   16.30
  -6  -6  10   59.39   17.50
  -6  -6  10   37.70   16.00
   5   6 -10    2.70   10.30
  -5  -6  10    0.00   11.50
   4   6 -10   47.10   11.70
   4   6 -10   36.90   15.50
  -4  -6  10   34.50   10.30
  -4  -6  10   45.80    8.00
  -4  -6  10   19.10   10.90
   3   6 -10   58.19   15.40
   3   6 -10   41.40   11.40
  -3  -6  10   24.80    9.00
  -3  -6  10   27.40   11.60
  -3  -6  10   24.30    7.70
   2   6 -10 1653.03   66.99
   2   6 -10 1694.93   57.19
  -2  -6  10 1636.24   54.49
  -2  -6  10 1731.53   53.59
   1   6 -10  645.14   37.80
  -1  -6  10  628.54   31.10
  -1  -6  10  622.94   21.70
  -1  -6  10  681.43   31.50
  -1  -6  10  630.94   35.90
  -1  -6  10  568.34   36.60
  -1  -6  10  617.84   39.30
   0   6 -10    7.20    8.20
   0  -6  10    1.90    7.30
   0  -6  10    6.20    9.10
   0  -6  10   12.50    7.70
   0  -6  10   -7.50    7.00
   0  -6  10    6.80    5.30
   0  -6  10   10.80    9.70
   0  -6  10    5.50    6.70
  -1   6 -10  121.19   19.70
   1  -6  10   97.29   16.60
   1  -6  10  102.59   12.70
   1  -6  10   98.39   16.00
   1  -6  10   93.69   18.20
   1  -6  10  123.29   15.20
   1  -6  10  126.49   18.30
   1  -6  10  125.49   17.40
  -2   6 -10  342.27   27.30
   2  -6  10  343.37   24.30
   2  -6  10  312.37   26.40
   2  -6  10  325.57   26.70
   2  -6  10  259.37   29.70
   2  -6  10  318.37   24.80
   2  -6  10  365.46   20.60
   2  -6  10  328.67   22.90
   3  -6  10   49.99    9.70
   3  -6  10   48.70   10.70
   3  -6  10   35.90   14.40
   3  -6  10   58.89   15.60
   3  -6  10   57.49   24.40
   3  -6  10   47.50   15.30
   4  -6  10    5.90    4.30
   4  -6  10   21.90   14.20
   4  -6  10    7.70    8.30
   4  -6  10    8.70   13.40
   4  -6  10   17.30   12.60
  -5   6 -10   86.49   21.50
   5  -6  10   94.89   23.10
   5  -6  10   99.79   20.50
   5  -6  10   47.50   20.60
   5  -6  10   71.59   16.10
   7   5 -10  111.59   23.70
  -7  -5  10   66.39   21.10
  -7  -5  10   50.79   20.00
   6   5 -10  142.29   23.30
  -6  -5  10  169.28   24.50
   5   5 -10   -1.40   15.10
  -5  -5  10    6.80   10.00
  -5  -5  10   39.50   13.40
   4   5 -10   -2.40    8.60
   4   5 -10    6.10   11.80
  -4  -5  10   11.50    8.50
  -4  -5  10   18.40    8.30
  -4  -5  10    2.00    8.60
   3   5 -10   13.80    9.10
   3   5 -10   20.30   11.00
  -3  -5  10   12.30    9.50
  -3  -5  10    7.50    7.50
  -3  -5  10    8.60    7.50
   2   5 -10  287.77   24.90
   2   5 -10  262.57   21.40
  -2  -5  10  240.18   21.60
  -2  -5  10  226.88   20.10
   1   5 -10   70.99   15.10
   1   5 -10   71.29   13.50
  -1  -5  10   76.19   15.60
  -1  -5  10   71.89   12.40
  -1  -5  10   56.99   12.20
  -1  -5  10   64.09    7.10
  -1  -5  10   83.69   14.20
   0   5 -10  104.49   17.10
   0  -5  10  130.49   18.60
   0  -5  10  148.89   18.70
   0  -5  10  111.89   17.00
   0  -5  10  142.79   17.70
   0  -5  10  131.59   11.70
   0  -5  10  116.89   12.00
  -1   5 -10   23.40   10.70
   1  -5  10   28.30    6.50
   1  -5  10   33.60   11.70
   1  -5  10   41.40   12.20
   1  -5  10   17.40    8.50
   1  -5  10   25.50    8.70
   1  -5  10   34.30    8.90
   1  -5  10   26.50   11.10
   2  -5  10 1173.18   53.19
   2  -5  10 1153.18   37.80
   2  -5  10 1228.58   43.40
   2  -5  10 1185.78   47.00
   2  -5  10 1194.58   54.69
   2  -5  10 1282.77   52.09
   3  -5  10  993.60   50.99
   3  -5  10  994.10   50.69
   3  -5  10  930.41   44.00
   3  -5  10 1051.29   48.70
   3  -5  10  956.90   34.90
   3  -5  10  980.10   35.00
  -4   5 -10   39.80   15.10
   4  -5  10   56.79   17.70
   4  -5  10   43.90    9.70
   4  -5  10   42.70   14.40
   4  -5  10   75.59   17.20
  -5   5 -10   99.99   21.00
   5  -5  10  116.19   23.60
   5  -5  10  132.29   26.30
   5  -5  10  118.59   21.50
   5  -5  10  128.79   16.00
   7   4 -10    9.20   18.20
  -7  -4  10   15.10   15.70
  -7  -4  10    0.60   12.80
   6   4 -10  109.29   25.00
  -6  -4  10  131.59   19.30
  -6  -4  10  130.89   20.80
   5   4 -10  174.78   23.90
  -5  -4  10  140.19   19.30
  -5  -4  10  153.68   20.90
   4   4 -10  629.74   36.00
  -4  -4  10  595.74   34.00
  -4  -4  10  640.24   31.50
  -4  -4  10  629.34   34.00
   3   4 -10   28.50   11.50
   3   4 -10   20.90   10.10
  -3  -4  10   36.70   10.60
  -3  -4  10   28.30    8.60
  -3  -4  10   25.90    9.70
   2   4 -10  104.29   16.90
   2   4 -10  113.99   17.30
  -2  -4  10  119.49   11.90
  -2  -4  10  114.59   16.50
  -2  -4  10  137.49   20.70
   1   4 -10 1350.56   50.49
   1   4 -10 1252.07   49.50
   1   4 -10 1415.86   53.89
  -1  -4  10 1402.66   39.10
  -1  -4  10 1357.86   52.79
   0   4 -10  172.08   16.80
   0   4 -10  176.08   17.10
   0  -4  10  145.49   23.50
   0  -4  10  154.38   13.50
   0  -4  10  175.58   10.40
   0  -4  10  180.28   19.60
  -1   4 -10   -5.50    6.00
   1  -4  10    5.30    6.00
   1  -4  10   18.70    9.80
   1  -4  10   -4.10    8.40
   1  -4  10    5.50    3.10
   1  -4  10    0.10    8.30
  -2   4 -10    1.10    7.00
   2  -4  10    7.40    7.50
   2  -4  10   12.90    8.60
   2  -4  10    9.40   10.10
   2  -4  10    5.40   10.10
  -3   4 -10   45.90   14.10
  -3   4 -10   70.99   13.30
   3  -4  10   83.19   18.30
   3  -4  10   47.40   13.40
   3  -4  10   42.40    8.90
   3  -4  10   60.39    8.60
  -4   4 -10  139.09   21.50
  -4   4 -10  126.99   23.40
   4  -4  10  120.99   20.60
   4  -4  10   92.19   22.10
   4  -4  10  100.19   12.10
  -5   4 -10 1006.90   55.99
  -5   4 -10  992.90   51.19
   5  -4  10  933.71   61.49
   5  -4  10  914.51   38.20
   5  -4  10  960.90   51.99
   5  -4  10  965.70   57.69
  -6   4 -10  152.58   28.00
  -6   4 -10  137.09   20.10
   6  -4  10  159.58   22.40
   6  -4  10  197.48   34.10
   6  -4  10  130.19   28.40
   7   3 -10   54.39   19.90
  -7  -3  10   35.10   14.20
  -6  -3  10   16.50   10.70
  -6  -3  10   45.70   13.40
   5   3 -10    2.60   11.40
  -5  -3  10   11.50    8.00
  -5  -3  10   10.60    9.20
  -5  -3  10   16.40   11.90
  -4  -3  10   56.19   10.30
  -4  -3  10   27.60   11.70
  -4  -3  10   67.89   14.00
   3   3 -10  289.27   24.60
   3   3 -10  295.47   23.70
   3   3 -10  302.17   22.30
  -3  -3  10  335.77   36.10
  -3  -3  10  301.57   24.40
  -3  -3  10  288.77   17.60
   2   3 -10 1908.61   62.89
   2   3 -10 1942.01   63.79
   2   3 -10 2032.20   69.89
  -2  -3  10 2036.20   67.89
  -2  -3  10 1933.41   51.59
  -2  -3  10 1982.00   68.19
   1   3 -10   55.79    7.40
   1   3 -10   55.39   11.40
   1   3 -10   47.70   13.00
   1   3 -10   46.60   10.40
  -1  -3  10   44.60    9.40
  -1  -3  10   52.49    5.50
  -1  -3  10   56.99   13.30
  -1  -3  10   45.30   12.10
   0   3 -10 1549.74   50.49
   0   3 -10 1512.85   46.20
   0   3 -10 1460.55   53.69
   0  -3  10 1527.85   59.79
   0  -3  10 1486.95   48.10
  -1   3 -10  313.97   20.10
  -1   3 -10  338.37   23.70
   1  -3  10  308.07   25.40
   1  -3  10  352.16   28.30
   1  -3  10  307.97   21.40
  -2   3 -10   37.20   10.20
  -2   3 -10   35.50    9.90
   2  -3  10   58.99   13.50
   2  -3  10   42.40   11.10
  -3   3 -10   26.90   10.40
  -3   3 -10   62.29   14.90
  -3   3 -10   54.09   12.10
   3  -3  10   56.59   16.80
   3  -3  10   45.70    7.10
   3  -3  10   56.69   19.90
  -4   3 -10    8.10   11.90
  -4   3 -10  -13.60   13.70
   4  -3  10   -1.70   13.00
   4  -3  10   12.50   12.00
   4  -3  10   -9.90    9.90
  -5   3 -10   28.20   15.20
  -5   3 -10   47.40   13.40
  -5   3 -10   19.60   10.40
   5  -3  10   35.50   16.20
   5  -3  10   33.70   16.30
   5  -3  10   27.50   19.90
  -6   3 -10  -29.30   17.10
  -6   3 -10   -2.90   11.90
  -6   3 -10  -12.40   13.00
   6  -3  10    1.30   20.30
   6  -3  10    3.10   21.90
   6  -3  10   -7.90   18.40
   8   2 -10   12.30    7.30
   8   2 -10   37.20   23.80
  -8  -2  10   12.20   29.90
   7   2 -10  148.19   27.40
  -7  -2  10  169.28   23.90
   6   2 -10   -0.80   13.20
   6   2 -10    3.40    4.00
   6   2 -10    2.20    2.90
  -6  -2  10   -1.70   10.70
  -6  -2  10    0.10    9.20
   5   2 -10    3.60   10.50
   5   2 -10    8.20    2.20
   5   2 -10   13.00    2.90
  -5  -2  10   -1.80    7.60
  -5  -2  10    4.30    9.70
   4   2 -10  179.68    7.60
   4   2 -10  168.38   23.20
   4   2 -10  165.18   17.30
  -4  -2  10  202.68   16.10
  -4  -2  10  199.28   24.00
   3   2 -10  485.65   31.90
   3   2 -10  428.86   25.70
   3   2 -10  455.05   15.70
   3   2 -10  460.65   27.00
  -3  -2  10  444.86   29.90
  -3  -2  10  394.66   19.30
   2   2 -10  808.72   33.60
   2   2 -10  783.42   40.80
   2   2 -10  795.62   36.20
   2   2 -10  804.02   26.40
  -2  -2  10  829.02   24.40
  -2  -2  10  770.12   40.50
   1   2 -10  832.72   37.60
   1   2 -10  905.41   44.00
   1   2 -10  900.71   33.20
   1   2 -10  815.32   30.20
  -1  -2  10  844.02   40.40
  -1  -2  10  799.42   42.20
  -1  -2  10  896.01   33.10
   0   2 -10  233.18   16.10
   0   2 -10  258.47   17.50
   0   2 -10  242.18   20.00
   0   2 -10  237.08   22.30
   0  -2  10  266.47   19.00
   0  -2  10  236.18   22.60
   0  -2  10  216.68   23.10
  -1   2 -10  396.46   25.50
  -1   2 -10  364.46   23.00
   1  -2  10  317.07   28.00
   1  -2  10  345.27   23.60
   1  -2  10  349.47   20.40
   1  -2  10  358.16   27.10
  -2   2 -10  559.14   31.60
  -2   2 -10  544.05   31.50
   2  -2  10  600.34   33.10
   2  -2  10  669.53   37.60
   2  -2  10  611.54   39.60
   2  -2  10  591.54   25.20
  -3   2 -10  464.05   31.50
  -3   2 -10  584.34   37.70
   3  -2  10  485.75   33.90
   3  -2  10  532.45   39.10
   3  -2  10  489.45   20.70
  -4   2 -10   20.60   12.50
  -4   2 -10    8.00    9.80
  -4   2 -10   14.50    6.60
  -4   2 -10   17.50   13.60
   4  -2  10    4.00   10.90
   4  -2  10   20.70   13.50
   4  -2  10   10.50   12.70
  -5   2 -10  174.28   26.10
  -5   2 -10  142.99   19.50
  -5   2 -10  199.28   27.50
  -5   2 -10  179.08   17.90
   5  -2  10  192.38   31.10
   5  -2  10  170.18   27.10
   5  -2  10  163.68   25.40
   8   1 -10    1.80    8.10
   7   1 -10  250.57   34.50
   7   1 -10  308.27   18.00
  -7  -1  10  263.47   27.90
   6   1 -10  177.08   12.90
   6   1 -10  193.38   27.50
   6   1 -10  218.98   15.90
  -6  -1  10  214.78   22.40
  -6  -1  10  184.78   25.70
   5   1 -10  398.16   25.90
   5   1 -10  434.46   19.80
  -5  -1  10  433.46   34.10
  -5  -1  10  429.66   25.50
   4   1 -10  978.70   41.50
   4   1 -10 1005.10   32.40
   4   1 -10 1039.90   50.59
  -4  -1  10 1034.20   36.90
  -4  -1  10  987.40   48.70
   3   1 -10   52.99   11.00
   3   1 -10   59.59    8.50
   3   1 -10   55.19   11.80
   3   1 -10   64.29   14.30
  -3  -1  10   67.79   15.00
  -3  -1  10   54.89    7.70
   2   1 -10   23.40    6.50
   2   1 -10   22.80    7.70
   2   1 -10   19.10    6.60
  -2  -1  10   20.30    3.80
  -2  -1  10   12.90    9.90
   1   1 -10   59.89   12.20
   1   1 -10   90.39   10.60
   1   1 -10   73.89   18.90
   1   1 -10   87.49   11.30
  -1  -1  10   81.49   16.80
  -1  -1  10   87.69   15.10
   0   1 -10  497.55   26.00
   0   1 -10  461.25   27.90
   0   1 -10  477.65   34.80
   0  -1  10  506.65   30.50
   0  -1  10  495.95   33.80
   0  -1  10  457.25   27.30
   0  -1  10  503.95   26.80
  -1   1 -10   99.49   15.40
  -1   1 -10  132.99   17.00
   1  -1  10  104.49   13.40
   1  -1  10   53.39   14.00
   1  -1  10  104.09   15.30
  -2   1 -10   45.80   13.70
   2  -1  10   38.00   12.00
   2  -1  10   58.99   15.90
   2  -1  10   32.20    7.60
   2  -1  10   57.89   13.90
  -3   1 -10   88.39   18.30
  -3   1 -10   52.69   13.20
  -3   1 -10   41.90   14.50
   3  -1  10   65.89    9.50
   3  -1  10   46.30   17.10
   3  -1  10   74.59   16.10
  -4   1 -10  170.28   13.40
  -4   1 -10  185.18   22.80
  -4   1 -10  204.48   28.70
  -4   1 -10  206.48   27.10
   4  -1  10  215.28   27.70
   4  -1  10  170.28   24.40
   4  -1  10  143.09   26.00
  -5   1 -10  346.87   21.90
  -5   1 -10  350.86   37.50
  -5   1 -10  322.77   28.30
   5  -1  10  308.17   40.20
   5  -1  10  347.57   34.50
   5  -1  10  300.17   34.90
   7   0 -10   39.60   35.00
   7   0 -10   18.50    8.30
  -7   0  10   -2.10   13.30
   6   0 -10    7.50    8.80
   6   0 -10   24.70   16.50
  -6   0  10   32.30   15.80
  -6   0  10   23.40   11.00
   5   0 -10   85.69   12.20
   5   0 -10  111.69   15.60
  -5   0  10  105.69   14.70
  -5   0  10  123.39   22.40
   4   0 -10 1555.14   49.40
   4   0 -10 1600.54   55.69
  -4   0  10 1606.64   49.10
  -4   0  10 1436.46   62.09
   3   0 -10  506.05   24.90
   3   0 -10  509.15   29.00
   3   0 -10  464.45   21.90
  -3   0  10  419.46   38.90
  -3   0  10  485.05   20.40
  -3   0  10  490.25   30.80
   2   0 -10  237.48   20.00
   2   0 -10  194.78   11.50
   2   0 -10  197.18   21.30
   2   0 -10  207.98   17.00
  -2   0  10  162.08   24.80
  -2   0  10  230.38   20.50
  -2   0  10  173.98   23.80
   1   0 -10   33.90   12.40
   1   0 -10   18.80    8.00
   1   0 -10   14.60    8.30
  -1   0  10   12.30    8.60
  -1   0  10   23.80    9.10
  -1   0  10    5.80    9.90
   0   0 -10  502.95   28.00
   0   0 -10  475.55   34.70
   0   0  10  613.44   44.60
   0   0  10  511.55   30.20
   0   0  10  516.55   28.50
   0   0  10  551.04   30.90
  -1   0 -10    9.90    9.10
  -1   0 -10   10.50    8.80
   1   0  10   16.00    8.20
   1   0  10   27.40   10.50
   1   0  10    4.10   10.50
   1   0  10    4.90    8.20
  -2   0 -10   69.69   15.40
  -2   0 -10   84.59   15.70
   2   0  10   87.29   13.20
   2   0  10   96.19   18.90
  -3   0 -10  184.78   23.00
  -3   0 -10  240.08   28.90
   3   0  10  279.37   34.50
   3   0  10  298.47   28.10
   3   0  10  221.58   18.00
  -4   0 -10  260.67   28.70
  -4   0 -10  197.58   29.50
  -4   0 -10  250.47   26.20
  -4   0 -10  255.47   15.00
   4   0  10  229.08   29.00
   4   0  10  241.98   34.30
   4   0  10  208.88   28.30
  -5   0 -10  294.07   28.30
  -5   0 -10  169.88   28.00
  -5   0 -10  275.37   35.90
  -5   0 -10  272.87   19.80
   5   0  10  309.67   44.00
   5   0  10  319.77   34.60
   7  -1 -10    6.80   21.10
   7  -1 -10   18.70   14.70
  -7   1  10   10.80   14.20
  -7   1  10   10.40   14.90
   6  -1 -10   85.89   22.10
   6  -1 -10   90.99   15.60
   6  -1 -10  104.19   22.50
   6  -1 -10   88.79   14.40
  -6   1  10   93.89   20.00
  -6   1  10  121.79   23.20
  -6   1  10   87.39   15.50
   5  -1 -10  371.36   24.10
   5  -1 -10  359.86   24.90
   5  -1 -10  318.07   23.70
  -5   1  10  342.07   32.60
  -5   1  10  353.86   24.00
   4  -1 -10  172.08   18.00
   4  -1 -10  190.98   16.50
   4  -1 -10  184.18   18.20
  -4   1  10  207.18   16.40
  -4   1  10  198.68   26.30
   3  -1 -10    8.80    4.90
   3  -1 -10   -3.50    7.50
   3  -1 -10   13.90    9.10
   3  -1 -10   12.00    5.20
  -3   1  10   -0.10    4.90
  -3   1  10   10.80    9.50
  -3   1  10   14.00   12.20
   2  -1 -10  132.89   16.90
  -2   1  10  140.19   18.80
  -2   1  10  153.78   16.70
  -2   1  10  101.99   19.50
   1  -1 -10   85.19   24.50
   1  -1 -10   92.59   15.60
   1  -1 -10   84.19   14.40
  -1   1  10  102.29   16.40
  -1   1  10   92.59   15.70
  -1   1  10   63.29   15.90
   0  -1 -10 1412.46   53.69
   0  -1 -10 1373.66   61.09
   0  -1 -10 1432.46   55.89
   0   1  10 1432.86   54.09
   0   1  10 1492.35   54.29
   0   1  10 1339.47   60.79
   0   1  10 1377.06   55.49
  -1  -1 -10  245.68   23.00
  -1  -1 -10  237.28   22.80
   1   1  10  241.08   23.70
   1   1  10  251.37   21.10
   1   1  10  255.47   28.40
   1   1  10  259.87   23.00
  -2  -1 -10  648.54   38.30
   2   1  10  711.63   45.70
   2   1  10  699.43   41.60
   2   1  10  693.53   34.00
  -3  -1 -10  267.47   28.50
  -3  -1 -10  262.57   10.60
  -3  -1 -10  257.47   30.30
  -3  -1 -10  275.47   25.90
   3   1  10  248.78   34.20
   3   1  10  286.47   30.10
   3   1  10  252.47   21.10
  -4  -1 -10   -8.70   12.30
  -4  -1 -10    3.50    6.10
  -4  -1 -10   16.40   14.80
  -4  -1 -10  -11.90   13.80
   4   1  10   -4.90   13.70
   4   1  10   10.70   14.90
   4   1  10   -1.60    8.40
  -5  -1 -10   16.10    9.70
  -5  -1 -10   40.00   21.70
  -5  -1 -10   29.10   16.40
  -5  -1 -10    4.90   18.40
   5   1  10   24.70   19.60
   5   1  10   24.60   19.60
   5   1  10   15.90   21.10
   7  -2 -10  198.18   36.40
   7  -2 -10  160.38   18.90
   7  -2 -10  215.38   26.90
  -7   2  10  211.28   30.50
  -7   2  10  169.78   24.50
   6  -2 -10  220.38   42.30
   6  -2 -10  280.17   24.60
   6  -2 -10  232.78   27.50
  -6   2  10  279.47   30.90
  -6   2  10  262.17   26.50
  -6   2  10  304.17   34.10
   5  -2 -10   18.50   16.80
   5  -2 -10   25.00   11.90
   5  -2 -10   -4.40   12.50
   5  -2 -10   24.40    9.20
  -5   2  10   -2.60   10.30
  -5   2  10   25.50   10.70
  -5   2  10   26.30   15.80
   4  -2 -10   57.79   11.50
   4  -2 -10   74.39   13.90
   4  -2 -10   71.19   14.70
  -4   2  10   66.79   18.40
  -4   2  10   48.10   10.90
   3  -2 -10  247.48   22.50
   3  -2 -10  221.28   15.50
   3  -2 -10  275.27   28.00
   3  -2 -10  218.88   21.20
  -3   2  10  228.78   24.30
  -3   2  10  227.18   20.50
  -3   2  10  231.78   29.40
   2  -2 -10   18.50    8.00
   2  -2 -10   10.70   10.90
   2  -2 -10   21.50   11.00
   2  -2 -10   22.30   10.00
  -2   2  10   32.00   12.80
  -2   2  10   12.10    8.50
  -2   2  10   20.80   13.00
   1  -2 -10    4.90    2.20
   1  -2 -10   -0.60    9.20
   1  -2 -10    1.70    8.90
  -1   2  10    5.50    9.00
  -1   2  10    3.00    7.60
  -1   2  10    3.80   10.10
   0  -2 -10   57.39   14.30
   0  -2 -10   58.59   15.90
   0   2  10   60.79   12.50
   0   2  10   59.99   16.60
   0   2  10   43.50   13.50
  -1  -2 -10   20.00   11.90
   1   2  10   -8.60   11.00
   1   2  10    6.20    9.40
   1   2  10    4.80   11.40
  -2  -2 -10  459.55   35.00
   2   2  10  394.06   32.70
   2   2  10  394.06   28.30
   2   2  10  439.36   37.00
  -3  -2 -10  811.52   48.00
  -3  -2 -10  906.11   50.39
   3   2  10  832.32   40.30
   3   2  10  914.51   55.09
   3   2  10  810.22   49.00
  -4  -2 -10   34.00    8.60
  -4  -2 -10   15.00   18.10
  -4  -2 -10   59.59   21.10
   4   2  10   32.90   13.40
   4   2  10   12.50   17.40
   4   2  10   32.10   21.20
   6  -3 -10  -11.90   16.20
   6  -3 -10   17.80   12.80
   6  -3 -10   -5.40   13.60
   6  -3 -10    0.70    9.40
  -6   3  10  -14.20   16.50
  -6   3  10    8.10   12.60
  -6   3  10    3.30   17.60
   5  -3 -10  269.17   34.00
   5  -3 -10  262.07   23.10
   5  -3 -10  265.47   28.20
   5  -3 -10  330.37   25.10
  -5   3  10  222.58   31.40
  -5   3  10  237.48   27.80
  -5   3  10  281.77   33.90
   4  -3 -10  758.62   42.00
   4  -3 -10  739.33   33.70
   4  -3 -10  722.73   38.50
   4  -3 -10  782.52   48.70
  -4   3  10  771.92   45.90
  -4   3  10  705.63   46.40
   3  -3 -10   73.09   16.10
   3  -3 -10   54.19   15.20
   3  -3 -10   65.79   10.20
   3  -3 -10   92.49   19.60
  -3   3  10   76.69   13.50
  -3   3  10   46.20   14.80
  -3   3  10   87.39   18.60
   2  -3 -10  855.81   49.10
   2  -3 -10  853.81   29.90
   2  -3 -10  920.71   45.30
  -2   3  10  918.91   50.69
  -2   3  10  896.61   38.90
  -2   3  10  819.52   45.30
   1  -3 -10   70.79    7.90
   1  -3 -10   63.09   15.40
   1  -3 -10   67.99   17.60
  -1   3  10   53.39   16.10
  -1   3  10   77.49   19.00
  -1   3  10   89.39   14.40
   0  -3 -10   14.10    3.70
   0  -3 -10    0.20   13.20
   0   3  10   19.90    9.50
   0   3  10   15.50   11.40
   0   3  10  -10.10   12.00
  -1  -3 -10   30.90    4.40
  -1  -3 -10   40.00    5.10
  -1  -3 -10   42.50   15.90
   1   3  10   14.30   14.40
   1   3  10    7.10   14.20
   1   3  10   36.10   13.60
  -2  -3 -10  195.78   11.60
  -2  -3 -10  184.08   27.40
   2   3  10  175.28   27.10
   2   3  10  221.58   29.40
   2   3  10  226.58   25.50
  -3  -3 -10   15.50    6.60
  -3  -3 -10  -23.80   16.60
  -3  -3 -10   35.00   16.70
   3   3  10  -17.70   14.30
   3   3  10   -3.50   18.00
   6  -4 -10   50.89   20.20
   6  -4 -10   21.40   13.40
   6  -4 -10   34.80   22.30
   6  -4 -10   17.60   15.00
  -6   4  10   42.70   23.20
  -6   4  10   28.50   20.40
  -6   4  10   46.10   16.80
   5  -4 -10   -1.40   14.70
   5  -4 -10   25.00   12.70
   5  -4 -10    4.40   19.90
   5  -4 -10   30.40   12.30
  -5   4  10   12.10   18.10
  -5   4  10   19.60   16.80
   4  -4 -10  173.78   22.70
   4  -4 -10  195.58   20.20
   4  -4 -10  177.78   27.60
  -4   4  10  208.98   20.30
  -4   4  10  178.08   26.30
  -4   4  10  171.48   27.50
   3  -4 -10  124.39   23.30
   3  -4 -10  130.69   15.20
  -3   4  10  130.19   17.00
  -3   4  10  130.19   23.80
  -3   4  10  158.68   25.50
   2  -4 -10  153.78   14.50
   2  -4 -10  178.58   26.80
  -2   4  10   71.19   20.40
  -2   4  10  159.68   17.80
  -2   4  10  148.39   25.10
   1  -4 -10   13.10    6.40
   1  -4 -10    7.40   12.70
   1  -4 -10   -2.00   14.00
  -1   4  10   -8.80   13.10
  -1   4  10    0.80   12.60
  -1   4  10    1.90    8.60
   0  -4 -10  637.64   43.00
   0  -4 -10  644.14   24.60
   0  -4 -10  644.04   43.10
   0   4  10  593.74   40.60
   0   4  10  652.63   45.10
  -1  -4 -10  378.66   20.80
  -1  -4 -10  368.06   18.70
  -1  -4 -10  342.97   34.80
   1   4  10  291.87   32.30
   1   4  10  374.46   36.10
  -2  -4 -10   52.39   18.50
  -2  -4 -10    2.70    7.30
  -2  -4 -10    4.30    7.20
   2   4  10   23.00   18.20
   2   4  10   34.10   16.20
   2   4  10    2.80   16.90
  -3  -4 -10   14.50   22.80
  -3  -4 -10   51.99   12.10
  -3  -4 -10   42.00   10.60
   3   4  10   43.90   18.60
   3   4  10   38.60   20.50
   3   4  10   64.79   23.70
   5  -5 -10   25.70   14.30
   5  -5 -10   -5.10   12.90
   5  -5 -10   -2.20   21.10
   5  -5 -10   22.20   18.50
  -5   5  10   34.40   13.30
   4  -5 -10    7.30   19.20
   4  -5 -10   -2.80   10.70
   4  -5 -10   -4.10   16.00
  -4   5  10   21.70   19.50
  -4   5  10    9.00   17.80
  -4   5  10   -9.20   10.10
   3  -5 -10   88.79   23.40
   3  -5 -10   52.89   21.90
   3  -5 -10   76.29   13.30
  -3   5  10  120.19   22.20
  -3   5  10  103.19   22.20
  -3   5  10  113.29   14.90
   2  -5 -10  146.19   26.40
   2  -5 -10  147.09   25.10
   2  -5 -10  103.09   14.10
  -2   5  10   87.99   13.90
  -2   5  10  138.29   25.90
  -2   5  10   74.69   21.60
   1  -5 -10   51.39   19.00
   1  -5 -10   28.20    9.50
   1  -5 -10   42.70   18.00
  -1   5  10   57.39   20.10
  -1   5  10    4.30   16.90
   0  -5 -10    4.60   19.10
   0  -5 -10   34.10    8.90
   0   5  10    5.20   16.10
   0   5  10   31.60   19.00
  -1  -5 -10    3.40    8.70
  -1  -5 -10   19.60   19.80
   1   5  10    6.10   16.30
   1   5  10  -20.30   16.90
   2  -6 -10  138.49   19.10
   2  -6 -10  129.19   27.10
   2  -6 -10  113.69   27.90
  -2   6  10   88.39   23.70
  -2   6  10  134.29   30.10
   1  -6 -10   22.70   11.50
   1  -6 -10   36.30   21.20
  -1   6  10   50.69   23.30
  -1   6  10   40.10   21.10
   3  10 -11   53.89   20.70
  -3 -10  11   66.79   26.20
  -3 -10  11   65.19   24.90
   2  10 -11  104.89   25.80
  -2 -10  11  120.59   26.70
  -2 -10  11   91.99   22.60
  -2 -10  11  122.49   27.50
  -2 -10  11  115.59   13.70
   1  10 -11   46.40   18.80
  -1 -10  11   37.20   19.20
  -1 -10  11   53.69   11.40
  -1 -10  11   28.20   18.00
  -1 -10  11   39.70    6.20
  -1 -10  11   64.39   21.10
  -1 -10  11   47.50   10.80
  -1 -10  11   24.40   16.50
   0  10 -11  171.98   29.60
   0 -10  11   82.09   22.20
   0 -10  11  113.99   23.20
   0 -10  11  160.98   25.10
   0 -10  11  128.09   22.40
   0 -10  11  103.49   15.30
   0 -10  11  137.79   13.80
  -1  10 -11    7.40   13.80
   1 -10  11   11.70   16.50
   1 -10  11    8.50   19.30
   1 -10  11   41.40   17.90
   1 -10  11   27.10   15.00
   1 -10  11   27.90   10.20
   1 -10  11   18.10   12.30
  -2  10 -11    4.00   13.40
   2 -10  11    0.90   18.80
   2 -10  11   16.60   16.10
   2 -10  11    1.10   11.40
   2 -10  11   37.50   15.20
   2 -10  11    4.30   13.70
   4   9 -11   -7.40   13.60
  -4  -9  11  -42.40   18.20
   3   9 -11   55.19   19.50
  -3  -9  11   22.20   18.00
  -3  -9  11   -9.50   16.30
   2   9 -11  472.05   40.20
  -2  -9  11  449.26   37.10
  -2  -9  11  462.25   39.60
  -2  -9  11  396.56   47.60
   1   9 -11  699.93   47.90
  -1  -9  11  634.94   44.00
  -1  -9  11  658.73   42.60
  -1  -9  11  689.83   28.20
  -1  -9  11  784.62   43.10
  -1  -9  11  606.04   42.60
  -1  -9  11  647.54   27.30
   0   9 -11   42.70   16.90
   0  -9  11  -28.60   13.90
   0  -9  11   36.50   10.50
   0  -9  11   -7.50   12.30
   0  -9  11   30.90   13.50
   0  -9  11   16.20   15.70
   0  -9  11    8.80    8.70
   0  -9  11   37.30   16.70
  -1   9 -11  142.49   26.50
   1  -9  11  160.28   20.80
   1  -9  11  162.68   19.60
   1  -9  11  136.19   23.40
   1  -9  11  170.18   24.60
   1  -9  11  177.48   25.50
   1  -9  11  151.18   24.50
   1  -9  11  173.58   19.00
  -2   9 -11    8.80   13.10
   2  -9  11   -1.00   10.60
   2  -9  11    9.50   13.80
   2  -9  11  -10.90   10.30
   2  -9  11   -0.40   16.60
   2  -9  11   20.70   16.30
   2  -9  11   16.70   17.30
   2  -9  11   -5.70   11.40
   3  -9  11   83.29   20.10
   3  -9  11   82.29   16.70
   3  -9  11   78.99   19.20
   3  -9  11   91.89   18.60
   3  -9  11   52.99   19.80
   3  -9  11   70.69   17.70
   5   8 -11   13.90   12.50
   5   8 -11   31.00   17.30
  -5  -8  11   39.50   19.80
  -5  -8  11    6.60   18.10
   4   8 -11  108.39   16.00
   4   8 -11  150.18   28.60
  -4  -8  11  148.79   25.50
  -4  -8  11  169.08   27.20
   3   8 -11   25.40   16.20
  -3  -8  11    4.90   15.70
  -3  -8  11   20.50   13.60
  -3  -8  11    6.00    8.00
  -3  -8  11   20.50    8.00
   2   8 -11   14.10   13.10
  -2  -8  11   -3.30    8.20
  -2  -8  11   16.40   13.50
  -2  -8  11   10.60   13.60
  -2  -8  11    0.10    6.40
   1   8 -11   88.59   20.60
  -1  -8  11   49.60   11.00
  -1  -8  11   67.39   13.70
  -1  -8  11   52.49   15.50
  -1  -8  11   65.59   17.20
  -1  -8  11   49.10   15.80
   0   8 -11   23.20   12.10
   0  -8  11   16.30   10.10
   0  -8  11   27.90    8.70
   0  -8  11   38.20   15.70
   0  -8  11   20.20   11.80
   0  -8  11   28.90    9.70
   0  -8  11   18.80   12.90
   0  -8  11   20.10   11.70
  -1   8 -11   76.29   18.50
   1  -8  11   75.19   18.90
   1  -8  11   82.99   14.30
   1  -8  11   86.29   17.60
   1  -8  11   79.29   13.60
   1  -8  11   99.59   15.80
   1  -8  11  114.89   19.70
   1  -8  11   79.29   17.10
  -2   8 -11  152.78   25.30
   2  -8  11  102.09   18.30
   2  -8  11  142.49   19.20
   2  -8  11  148.49   18.50
   2  -8  11  129.19   20.70
   2  -8  11  126.49   20.50
   2  -8  11  126.19   23.20
   2  -8  11  132.99   22.70
   3  -8  11  442.76   42.30
   3  -8  11  612.04   37.30
   3  -8  11  519.45   32.40
   3  -8  11  500.85   37.40
   3  -8  11  500.45   34.60
   4  -8  11   82.29   13.50
   4  -8  11   99.49   26.90
   4  -8  11  105.59   22.00
   4  -8  11   77.79   21.50
   4  -8  11   91.59   16.10
   6   7 -11   39.40   17.20
  -6  -7  11   24.00   19.20
  -6  -7  11   13.30   21.10
   5   7 -11   -3.20   12.60
   5   7 -11   21.90   13.00
  -5  -7  11   13.70   14.50
  -5  -7  11   37.90   16.00
  -5  -7  11   -0.20   13.50
   4   7 -11  635.54   45.00
   4   7 -11  665.23   36.40
  -4  -7  11  646.64   40.10
  -4  -7  11  695.23   41.90
  -4  -7  11  659.63   26.70
  -4  -7  11  700.13   46.40
   3   7 -11  440.26   27.90
   3   7 -11  434.16   36.10
  -3  -7  11  461.75   36.30
  -3  -7  11  407.46   23.20
  -3  -7  11  475.75   34.70
  -3  -7  11  436.66   25.80
   2   7 -11   12.20   11.50
  -2  -7  11   38.60   10.20
  -2  -7  11   32.50   10.30
  -2  -7  11   51.99   15.60
   1   7 -11  172.98   25.80
  -1  -7  11  153.38   22.70
  -1  -7  11   99.59   18.60
  -1  -7  11  126.89   17.20
  -1  -7  11  156.98   17.30
  -1  -7  11  133.29   10.30
  -1  -7  11  119.59   24.20
   0   7 -11  236.48   25.40
   0  -7  11  265.47   20.90
   0  -7  11  239.88   24.50
   0  -7  11  262.87   28.10
   0  -7  11  249.58   17.60
   0  -7  11  244.08   21.90
   0  -7  11  263.27   24.50
   0  -7  11  262.27   24.80
  -1   7 -11   52.19   15.30
   1  -7  11   47.20   10.20
   1  -7  11   50.29   15.20
   1  -7  11   56.79   14.70
   1  -7  11   51.29   13.20
   1  -7  11   55.79   11.90
   1  -7  11   44.50   15.50
   1  -7  11   53.89   12.90
  -2   7 -11   56.89   15.90
   2  -7  11   50.49   17.70
   2  -7  11   58.29   14.40
   2  -7  11   63.99   11.80
   2  -7  11   54.29   13.40
   2  -7  11   33.20   12.00
   2  -7  11   67.19   16.30
   2  -7  11   45.50   15.60
   3  -7  11   -7.80   12.60
   3  -7  11    3.70    8.00
   3  -7  11   12.10   12.10
   3  -7  11    3.00   16.10
   3  -7  11  -10.10   14.90
   3  -7  11    7.10    9.80
   4  -7  11  131.29   22.80
   4  -7  11  131.49   19.70
   4  -7  11  139.09   17.60
   4  -7  11  164.98   27.50
   4  -7  11  127.39   24.50
   6   6 -11   25.40   15.40
  -6  -6  11   -0.40   14.70
  -6  -6  11   14.50   16.80
  -6  -6  11   12.30    6.40
   5   6 -11   11.90   14.20
   5   6 -11   -2.00   11.80
  -5  -6  11   19.40   12.80
  -5  -6  11   17.10   13.80
  -5  -6  11   -2.20    6.20
   4   6 -11   19.30   11.00
   4   6 -11    7.90   11.10
  -4  -6  11   26.10   10.10
  -4  -6  11   24.00    7.80
  -4  -6  11   58.69   15.70
  -4  -6  11   23.30   11.90
   3   6 -11   19.90   10.40
   3   6 -11   -5.40   10.40
  -3  -6  11    0.10    6.90
  -3  -6  11   -1.50    7.10
  -3  -6  11    2.40    8.80
   2   6 -11  139.79   18.40
   2   6 -11   64.39   16.70
  -2  -6  11   74.49   13.50
  -2  -6  11  112.09   15.10
   1   6 -11  170.28   24.20
  -1  -6  11  134.79   18.60
  -1  -6  11  148.59   17.90
  -1  -6  11  135.99   10.20
  -1  -6  11  154.98   22.70
   0   6 -11  735.43   40.50
   0  -6  11  653.03   28.30
   0  -6  11  713.63   30.10
   0  -6  11  648.74   35.30
   0  -6  11  679.63   36.30
   0  -6  11  744.53   38.80
   0  -6  11  666.73   35.90
   0  -6  11  735.43   42.90
  -1   6 -11 1293.87   54.99
   1  -6  11 1187.48   51.19
   1  -6  11 1306.47   46.80
   1  -6  11 1299.97   52.69
   1  -6  11 1271.77   53.29
   1  -6  11 1205.28   49.00
   1  -6  11 1177.18   56.79
   1  -6  11 1247.88   41.30
   2  -6  11   -8.10   10.00
   2  -6  11    6.90    6.20
   2  -6  11   11.00    8.30
   2  -6  11    1.70   12.80
   2  -6  11   18.50   14.70
   2  -6  11    6.60    8.70
   3  -6  11   45.90   18.60
   3  -6  11   45.50    9.10
   3  -6  11   40.10   14.50
   3  -6  11   72.49   15.10
   3  -6  11   41.90   10.70
   3  -6  11   34.40   16.60
   4  -6  11   24.20   14.00
   4  -6  11   35.60   19.40
   4  -6  11   36.80    4.20
   4  -6  11   38.60   10.10
   4  -6  11   32.70   17.60
   5  -6  11   -1.50   10.00
   5  -6  11   34.70   20.60
   5  -6  11   17.80   16.50
   7   5 -11   36.10   21.10
  -7  -5  11   29.00   18.10
  -7  -5  11    6.80   18.50
  -6  -5  11  131.19   22.40
  -6  -5  11  169.48   24.00
   5   5 -11   24.90   13.70
  -5  -5  11   -5.90   10.10
  -5  -5  11   -2.30   12.40
   4   5 -11  100.79   20.80
  -4  -5  11   82.09   15.90
  -4  -5  11  103.29   15.70
   3   5 -11  889.51   43.60
   3   5 -11  845.72   45.20
  -3  -5  11  834.02   39.50
  -3  -5  11  876.61   36.70
  -3  -5  11  805.22   44.10
   2   5 -11  307.97   25.00
   2   5 -11  287.97   25.20
  -2  -5  11  299.87   19.70
  -2  -5  11  270.77   22.90
   1   5 -11   34.50   12.00
   1   5 -11   60.49   14.30
  -1  -5  11   49.30    7.10
  -1  -5  11   45.90   11.50
  -1  -5  11   72.29   14.90
  -1  -5  11   55.59   14.00
   0   5 -11    5.00    8.00
   0  -5  11    3.40    4.60
   0  -5  11    2.00    9.10
   0  -5  11   17.50   10.30
   0  -5  11   11.00    5.80
   0  -5  11    7.20   10.40
   0  -5  11    1.10    8.20
  -1   5 -11  299.47   24.70
   1  -5  11  309.17   27.40
   1  -5  11  347.37   16.30
   1  -5  11  346.17   23.00
   1  -5  11  327.57   26.40
   1  -5  11  286.17   27.90
   2  -5  11    5.90    4.70
   2  -5  11   12.60    8.90
   2  -5  11    6.00    6.80
   2  -5  11   11.70   11.00
   2  -5  11  -15.90    9.70
   2  -5  11   18.90   11.90
   3  -5  11 1054.29   55.79
   3  -5  11 1137.39   53.79
   3  -5  11 1147.09   50.69
   3  -5  11 1085.89   36.60
   4  -5  11  350.66   31.90
   4  -5  11  399.16   37.80
   4  -5  11  389.06   22.40
   4  -5  11  415.16   41.00
   5  -5  11   21.40   16.50
   5  -5  11    7.40   19.10
   5  -5  11   25.20   20.00
   5  -5  11    3.90    9.60
   7   4 -11   34.00   21.00
  -7  -4  11   12.30   16.30
  -7  -4  11   22.60   17.00
   6   4 -11   73.29   23.20
  -6  -4  11  113.49   19.70
   5   4 -11   25.30   13.30
  -5  -4  11   20.40   11.50
   4   4 -11  967.40   47.90
   4   4 -11  917.11   46.30
  -4  -4  11  920.11   44.00
  -4  -4  11  940.11   45.40
  -4  -4  11  976.20   39.70
   3   4 -11  107.49   19.40
   3   4 -11  103.29   21.70
  -3  -4  11   86.59   12.00
  -3  -4  11   80.59   15.50
  -3  -4  11   93.99   16.70
   2   4 -11  616.54   36.10
   2   4 -11  550.24   38.00
  -2  -4  11  577.54   23.80
  -2  -4  11  644.54   35.40
  -2  -4  11  476.95   30.90
   1   4 -11  262.87   22.00
   1   4 -11  290.37   25.60
   1   4 -11  256.17   24.50
  -1  -4  11  257.17   24.10
   0   4 -11  109.59   16.30
   0  -4  11  105.59    6.80
   0  -4  11  108.19   13.20
   0  -4  11   87.79   17.10
  -1   4 -11  210.48   19.10
  -1   4 -11  195.18   19.40
   1  -4  11  210.68   18.60
   1  -4  11  212.18   29.40
   1  -4  11  188.18    8.60
   1  -4  11  177.48   21.40
  -2   4 -11   14.80   10.10
   2  -4  11   22.90   11.00
   2  -4  11   10.50    3.60
   2  -4  11   29.60   14.20
   2  -4  11   32.10    9.80
  -3   4 -11   -8.70    8.80
   3  -4  11   11.70   24.20
   3  -4  11   -6.40    6.30
   3  -4  11   -3.90    4.70
   3  -4  11    7.50    5.00
   3  -4  11    3.90   10.10
   3  -4  11  -20.00   11.50
  -4   4 -11   -1.00   14.40
  -4   4 -11   -3.80   10.70
   4  -4  11   -1.30   11.40
   4  -4  11  -13.90   13.10
   4  -4  11   -0.50    6.90
   4  -4  11   17.10   16.90
  -5   4 -11   49.10   15.00
   5  -4  11   36.20   19.90
   5  -4  11   40.70   21.20
   5  -4  11   38.50   18.50
   5  -4  11   42.00   11.10
   7   3 -11  -29.50   19.00
  -7  -3  11   12.80   14.80
   6   3 -11   34.40   17.30
  -6  -3  11   30.80   13.40
  -6  -3  11   24.10   13.70
  -5  -3  11  216.58   26.60
  -5  -3  11  189.68   20.90
   4   3 -11  713.03   38.80
   4   3 -11  665.43   40.40
  -4  -3  11  699.53   40.50
  -4  -3  11  711.53   31.40
   3   3 -11 1078.29   51.99
   3   3 -11 1266.77   49.70
   3   3 -11 1164.98   48.60
  -3  -3  11 1160.18   38.00
  -3  -3  11 1201.28   52.39
   2   3 -11  102.59    7.60
   2   3 -11  104.29   15.90
   2   3 -11   90.49   15.90
  -2  -3  11   90.79   17.10
  -2  -3  11   86.59    9.30
   1   3 -11  417.86   36.60
   1   3 -11  462.15   20.30
   1   3 -11  459.25   29.40
   1   3 -11  489.45   26.30
  -1  -3  11  433.96   11.80
  -1  -3  11  540.15   34.20
  -1  -3  11  468.35   31.10
  -1  -3  11  437.26   22.00
  -1  -3  11  442.46   11.90
   0   3 -11  197.78   20.00
   0   3 -11  163.58   14.40
   0   3 -11  170.78   16.40
   0  -3  11  206.88   26.00
   0  -3  11  157.28   15.80
  -1   3 -11  357.16   22.90
  -1   3 -11  370.76   26.60
   1  -3  11  352.66   24.30
   1  -3  11  377.76   31.40
  -2   3 -11    4.20    9.00
  -2   3 -11   14.30   10.20
   2  -3  11   20.40   10.80
   2  -3  11   12.00    6.00
   2  -3  11   10.40   12.10
  -3   3 -11  279.77   24.40
  -3   3 -11  296.77   25.40
   3  -3  11  238.68   32.00
   3  -3  11  293.47   27.00
   3  -3  11  275.07   15.20
  -4   3 -11  393.36   30.10
  -4   3 -11  375.16   32.10
  -4   3 -11  444.86   38.20
   4  -3  11  395.76   32.60
   4  -3  11  439.26   40.40
   4  -3  11  375.06   34.90
  -5   3 -11   82.19   17.40
  -5   3 -11   84.99   22.90
   5  -3  11   63.99   19.70
   5  -3  11  128.39   25.90
   5  -3  11   48.00   25.90
   7   2 -11   33.30    5.40
  -7  -2  11   45.10   15.90
   6   2 -11  272.27   34.20
  -6  -2  11  300.37   30.80
  -6  -2  11  362.36   28.60
  -5  -2  11   50.79   11.70
  -5  -2  11   58.49   15.60
   4   2 -11   52.39   14.50
   4   2 -11   34.60   12.00
   4   2 -11   40.10   10.40
   4   2 -11   44.00    4.80
  -4  -2  11   47.50   13.50
  -4  -2  11   29.00    8.40
   3   2 -11   14.30   11.70
   3   2 -11   13.50    5.70
   3   2 -11   11.30    8.40
   3   2 -11   29.80   10.30
  -3  -2  11   36.50   15.70
  -3  -2  11   19.20    5.70
   2   2 -11  323.77   16.60
   2   2 -11  326.87   24.60
   2   2 -11  365.46   29.10
   2   2 -11  319.57   20.60
  -2  -2  11  316.97   12.00
  -2  -2  11  327.77   29.40
  -2  -2  11  344.57   27.20
   1   2 -11   73.99   10.50
   1   2 -11  114.69   19.40
   1   2 -11   74.69   14.20
   1   2 -11   91.69   12.80
  -1  -2  11   87.89   16.50
  -1  -2  11   69.59   11.60
  -1  -2  11   81.99   17.70
   0   2 -11  159.28   15.40
   0   2 -11  170.78   18.60
   0   2 -11  136.89   21.70
   0  -2  11  148.19   20.30
   0  -2  11  148.89   26.80
   0  -2  11  144.39   17.30
  -1   2 -11  419.16   26.00
  -1   2 -11  415.86   28.50
   1  -2  11  406.76   24.00
   1  -2  11  509.95   33.40
   1  -2  11  433.46   27.70
   1  -2  11  501.25   35.80
  -2   2 -11   13.10    9.70
  -2   2 -11   38.50   12.10
   2  -2  11   33.10   12.10
   2  -2  11   30.80    8.40
   2  -2  11   44.40   15.70
  -3   2 -11  579.44   34.60
   3  -2  11  610.94   37.90
   3  -2  11  586.64   24.30
   3  -2  11  602.44   43.70
  -4   2 -11    1.40   13.20
  -4   2 -11    4.80   13.70
  -4   2 -11  -11.80   10.50
   4  -2  11    6.00   13.10
   4  -2  11   -6.80   14.80
   4  -2  11   -2.90   14.90
  -5   2 -11  414.26   32.20
  -5   2 -11  367.66   22.50
  -5   2 -11  312.77   44.60
  -5   2 -11  381.96   36.60
   5  -2  11  314.57   46.60
   5  -2  11  389.56   39.50
   5  -2  11  331.17   36.40
   7   1 -11   16.50    7.10
   7   1 -11    0.40    8.00
   7   1 -11   -2.20   20.90
  -7  -1  11   -7.70   14.40
   6   1 -11  900.31   53.89
   6   1 -11  821.52   28.40
   6   1 -11  903.41   31.20
  -6  -1  11  866.11   41.90
  -6  -1  11  803.82   50.59
   5   1 -11  543.45   40.70
   5   1 -11  553.84   22.90
   5   1 -11  547.45   32.30
  -5  -1  11  532.55   39.60
  -5  -1  11  590.44   29.80
   4   1 -11    9.90    9.20
   4   1 -11   35.50   12.00
   4   1 -11   16.00    5.90
  -4  -1  11   43.80   15.40
  -4  -1  11   24.40    7.20
   3   1 -11   19.70    6.60
   3   1 -11   24.70   12.50
   3   1 -11   29.80    9.40
   3   1 -11   30.90   10.30
  -3  -1  11   21.20   11.20
  -3  -1  11   14.80    5.10
   2   1 -11  224.48   15.00
   2   1 -11  239.18   21.10
   2   1 -11  204.58   26.20
   2   1 -11  194.58   15.60
  -2  -1  11  196.58   21.40
  -2  -1  11  251.07   25.50
   1   1 -11   78.79   16.70
   1   1 -11   49.00   12.20
   1   1 -11   57.39   10.60
   1   1 -11   59.79    9.00
  -1  -1  11   84.69   14.50
  -1  -1  11   90.19   18.80
  -1  -1  11   59.99   13.90
   0   1 -11   45.00   10.40
   0   1 -11   47.10   11.70
   0   1 -11    2.50   10.30
   0  -1  11   39.10   10.60
   0  -1  11   23.30    9.30
   0  -1  11   22.10   11.80
   0  -1  11   39.90   12.40
  -1   1 -11  171.38   19.00
  -1   1 -11  203.58   20.90
   1  -1  11  203.58   20.90
   1  -1  11  196.68   17.90
   1  -1  11  178.88   25.50
   1  -1  11  212.38   22.90
  -2   1 -11  255.27   24.90
  -2   1 -11  293.57   25.10
   2  -1  11  280.77   19.80
   2  -1  11  255.97   26.50
   2  -1  11  280.37   31.30
  -3   1 -11  620.14   37.00
  -3   1 -11  712.13   59.39
  -3   1 -11  668.73   44.90
   3  -1  11  650.43   46.60
   3  -1  11  642.54   41.20
   3  -1  11  656.53   28.40
  -4   1 -11  248.28   28.20
  -4   1 -11  280.37   33.00
  -4   1 -11  259.37   33.20
   4  -1  11  310.77   38.40
   4  -1  11  223.18   33.10
   4  -1  11  277.17   32.60
  -5   1 -11  142.09   23.10
  -5   1 -11  156.88   28.10
  -5   1 -11  169.18   30.40
   5  -1  11  137.59   30.50
   5  -1  11  124.09   26.00
   7   0 -11   63.79   10.90
   7   0 -11  101.69   25.60
   7   0 -11   90.49   15.00
  -7   0  11   96.89   19.90
  -7   0  11  148.69   26.20
   6   0 -11   42.70   11.30
   6   0 -11   69.69   14.30
   6   0 -11   83.59   23.40
  -6   0  11   15.50   17.00
  -6   0  11   59.99   20.00
  -6   0  11   53.19   14.40
   5   0 -11    9.00    9.20
   5   0 -11   -7.60   10.40
   5   0 -11    7.80    8.00
  -5   0  11    6.40    8.20
  -5   0  11    2.70   15.40
  -5   0  11   20.60   14.20
   4   0 -11  203.08   20.50
   4   0 -11  170.78   16.30
   4   0 -11  186.98   16.90
  -4   0  11  159.48   14.90
  -4   0  11  136.99   23.60
  -4   0  11  162.18   23.40
   3   0 -11    5.10    7.90
   3   0 -11   -3.30    5.90
   3   0 -11    4.70    6.60
  -3   0  11   -6.50    9.70
  -3   0  11   -0.90    4.40
  -3   0  11    2.90   10.10
   2   0 -11 1337.27   47.30
   2   0 -11 1270.47   35.10
   2   0 -11 1396.86   54.19
  -2   0  11 1281.57   53.09
  -2   0  11 1282.47   59.99
  -2   0  11 1421.06   55.79
   1   0 -11  660.73   35.30
   1   0 -11  578.44   30.30
  -1   0  11  546.15   35.00
  -1   0  11  598.64   40.40
  -1   0  11  568.74   33.90
   0   0 -11  136.79   18.90
   0   0 -11  179.98   19.10
   0   0  11  150.08   24.10
   0   0  11  210.28   21.60
   0   0  11  182.18   19.20
   0   0  11  175.48   21.20
  -1   0 -11  169.88   22.40
  -1   0 -11  190.68   22.70
   1   0  11  221.78   23.10
   1   0  11  163.28   26.00
   1   0  11  202.08   19.90
   1   0  11  175.68   23.80
  -2   0 -11    1.60   10.50
   2   0  11  -12.00   10.20
   2   0  11   16.90    8.50
   2   0  11    3.10   13.20
  -3   0 -11  -16.20   12.40
  -3   0 -11  -23.40   13.00
  -3   0 -11   17.00   11.70
   3   0  11   -3.60    8.20
   3   0  11   11.60   13.70
   3   0  11    7.20   15.70
  -4   0 -11   80.99   23.10
  -4   0 -11   69.39   17.70
   4   0  11   50.09    9.70
   4   0  11   26.80   21.30
   4   0  11   79.99   19.60
   7  -1 -11   39.30   14.40
   7  -1 -11   59.89   33.70
  -7   1  11   25.80   15.80
  -7   1  11   28.10   22.00
   6  -1 -11  116.79   17.50
   6  -1 -11   92.79   26.30
   6  -1 -11  120.49   19.20
   6  -1 -11   74.99   15.00
  -6   1  11   88.49   23.40
  -6   1  11   97.09   23.20
  -6   1  11   92.49   15.90
   5  -1 -11  203.38   21.20
   5  -1 -11  211.38   21.80
   5  -1 -11  212.68   31.00
   5  -1 -11  237.98   20.80
  -5   1  11  240.28   29.70
  -5   1  11  224.28   20.80
  -5   1  11  174.28   28.20
   4  -1 -11   48.40   10.00
   4  -1 -11   49.30   13.30
   4  -1 -11   24.20   10.10
   4  -1 -11   36.80    8.80
  -4   1  11   42.10   18.20
  -4   1  11   21.90   14.10
  -4   1  11   54.09   10.10
   3  -1 -11    6.80    9.80
   3  -1 -11   13.80    8.80
  -3   1  11   -5.60    9.30
  -3   1  11   -6.70   11.60
  -3   1  11    0.90    9.90
   2  -1 -11   19.40   11.00
   2  -1 -11   35.20   11.00
  -2   1  11    0.30   13.30
  -2   1  11   26.60   11.30
  -2   1  11   33.80   13.50
   1  -1 -11  190.48   23.10
   1  -1 -11  153.18   19.90
  -1   1  11  214.68   22.40
  -1   1  11  171.28   20.90
  -1   1  11  161.48   25.80
   0  -1 -11  324.07   27.60
   0  -1 -11  317.07   26.60
   0   1  11  313.17   26.00
   0   1  11  334.67   27.70
   0   1  11  327.87   26.40
   0   1  11  307.07   31.30
  -1  -1 -11 1410.26   59.89
  -1  -1 -11 1478.25   60.59
   1   1  11 1521.15   62.89
   1   1  11 1548.55   60.79
   1   1  11 1471.45   69.09
   1   1  11 1394.16   55.19
  -2  -1 -11  257.37   26.40
  -2  -1 -11  236.58   27.70
   2   1  11  225.88   28.50
   2   1  11  252.17   32.70
   2   1  11  280.87   24.10
  -3  -1 -11   33.00   18.10
  -3  -1 -11   70.89   17.60
   3   1  11   34.60   20.10
   3   1  11   55.99   19.40
   3   1  11   40.40   11.80
  -4  -1 -11   21.40   15.60
  -4  -1 -11    8.90   17.90
  -4  -1 -11   -3.20   17.70
  -4  -1 -11    3.30    5.50
   4   1  11   15.80   11.20
   4   1  11   13.90   18.20
   6  -2 -11  524.35   34.60
   6  -2 -11  517.75   33.60
   6  -2 -11  491.35   34.80
   6  -2 -11  549.15   46.60
  -6   2  11  533.25   34.60
  -6   2  11  540.85   44.20
   5  -2 -11   19.20   10.00
   5  -2 -11  -43.90   19.40
   5  -2 -11   17.30   11.10
  -5   2  11   -3.30   17.50
  -5   2  11    8.30   10.00
  -5   2  11    8.50   17.40
   4  -2 -11  468.05   30.90
   4  -2 -11  474.85   38.10
   4  -2 -11  454.55   25.10
   4  -2 -11  513.65   39.40
  -4   2  11  401.46   34.50
  -4   2  11  471.45   25.40
  -4   2  11  395.26   37.70
   3  -2 -11  157.28   21.40
   3  -2 -11  136.19   13.10
   3  -2 -11  149.59   24.10
  -3   2  11  128.19   23.80
  -3   2  11  148.19   23.80
  -3   2  11  123.19   18.20
   2  -2 -11   28.90   16.30
   2  -2 -11   38.40   12.40
   2  -2 -11   50.99   15.20
  -2   2  11   23.10   15.50
  -2   2  11   25.20   12.10
  -2   2  11   32.20   13.80
   1  -2 -11   -3.50   12.30
   1  -2 -11    3.10   10.40
   1  -2 -11    5.90    9.00
  -1   2  11    9.40    9.60
  -1   2  11    9.00   10.70
  -1   2  11    1.90   13.10
   0  -2 -11  166.28   22.80
   0  -2 -11  133.29   23.70
   0  -2 -11  173.18   23.50
   0   2  11  187.18   22.40
   0   2  11  165.18   26.10
   0   2  11  131.49   20.60
  -1  -2 -11   -6.90   12.60
   1   2  11   -0.70   13.30
   1   2  11   38.40   13.70
   1   2  11    8.20   11.40
  -2  -2 -11   14.20   15.10
   2   2  11   -4.70   13.00
   2   2  11    3.40   13.80
   2   2  11   22.30   17.70
  -3  -2 -11   39.30   20.40
   3   2  11   24.90   16.30
   3   2  11    4.40   12.80
   3   2  11   43.30   17.70
   6  -3 -11  180.78   22.70
   6  -3 -11  223.68   25.20
  -6   3  11  231.18   27.30
  -6   3  11  163.88   31.80
   5  -3 -11  162.48   20.10
   5  -3 -11  181.48   23.10
   5  -3 -11  179.58   31.10
   5  -3 -11  183.08   30.90
  -5   3  11  159.88   29.20
  -5   3  11  180.88   25.00
  -5   3  11  176.88   28.40
   4  -3 -11  168.78   29.60
   4  -3 -11  131.89   16.10
   4  -3 -11  153.28   21.40
   4  -3 -11  135.19   21.80
  -4   3  11  135.59   19.90
  -4   3  11  106.69   27.70
  -4   3  11  163.98   28.50
   3  -3 -11   85.59   11.80
   3  -3 -11   79.79   17.20
   3  -3 -11   96.99   19.10
   3  -3 -11  105.29   24.70
  -3   3  11  109.59   22.10
  -3   3  11   95.29   19.10
  -3   3  11  102.39   23.40
   2  -3 -11  350.96   41.40
   2  -3 -11  412.06   24.50
   2  -3 -11  405.46   37.20
   2  -3 -11  439.46   32.60
  -2   3  11  415.86   37.30
  -2   3  11  427.96   34.40
   1  -3 -11  366.86   12.50
   1  -3 -11  354.06   35.40
  -1   3  11  387.06   32.30
  -1   3  11  376.76   28.30
  -1   3  11  373.66   35.40
   0  -3 -11   50.99   17.60
   0  -3 -11   25.60   18.50
   0   3  11   72.59   19.30
   0   3  11   68.09   18.30
  -1  -3 -11  153.28   25.80
   1   3  11  148.39   26.40
   1   3  11  186.18   25.60
  -2  -3 -11    1.00   20.50
   2   3  11   60.79   17.90
   2   3  11   51.99   19.50
   2   3  11   59.39   19.10
   5  -4 -11   64.79   19.10
   5  -4 -11   66.89   26.60
   5  -4 -11   62.49   20.60
   5  -4 -11   96.59   17.80
  -5   4  11   26.30   15.30
  -5   4  11   47.90   23.70
   4  -4 -11  112.89   23.20
   4  -4 -11   98.89   18.80
   4  -4 -11  139.49   28.60
   4  -4 -11   99.69   16.80
  -4   4  11  171.28   27.90
  -4   4  11  121.19   21.40
  -4   4  11  111.19   26.20
   3  -4 -11    1.40    8.20
   3  -4 -11   21.50   15.90
   3  -4 -11    1.60   12.90
  -3   4  11   -7.60   16.30
  -3   4  11   -2.30   10.60
  -3   4  11   14.10   19.90
   2  -4 -11    0.60    6.70
   2  -4 -11    4.50   15.00
   2  -4 -11   22.60   16.80
  -2   4  11   23.50   11.00
  -2   4  11   49.70   19.10
  -2   4  11  -34.60   15.10
   1  -4 -11   61.09   20.80
   1  -4 -11   83.89   21.30
  -1   4  11   47.00   19.10
  -1   4  11   59.99   19.70
   0  -4 -11  169.88   10.00
   0  -4 -11  174.78   29.70
   0   4  11  144.09   26.00
   0   4  11  186.48   29.20
  -1  -4 -11  300.97   15.20
  -1  -4 -11  277.17   34.70
  -1  -4 -11  260.27   11.40
   1   4  11  257.67   35.00
   1   4  11  243.98   31.90
   3  -5 -11   39.60   21.60
   3  -5 -11   14.60   10.80
  -3   5  11   49.50   25.20
  -3   5  11  -20.00   26.80
  -3   5  11    6.40   11.60
   2  -5 -11  123.29   14.50
   2  -5 -11  103.19   27.10
  -2   5  11  110.79   26.60
  -2   5  11  125.39   25.80
   1  -5 -11   79.99   11.70
   1  -5 -11   90.79   25.40
   1  -5 -11   74.49   24.60
  -1   5  11  136.99   28.70
  -1   5  11  123.49   28.30
   2  10 -12   49.70   20.60
   1  10 -12   70.99   22.20
  -1 -10  12   37.50    8.90
  -1 -10  12   37.00   20.30
  -1 -10  12   57.49   21.70
  -1 -10  12   66.19   10.80
  -1 -10  12   56.89   22.40
  -1 -10  12   53.29   10.50
  -1 -10  12   57.59   17.70
   0  10 -12    2.40   13.90
   0 -10  12   -5.10    9.70
   0 -10  12   -7.50   14.60
   0 -10  12   16.50   18.60
   0 -10  12   -0.30    8.70
   0 -10  12   28.20   20.30
   0 -10  12  -11.50   17.40
   3   9 -12   -2.70   12.70
  -3  -9  12    0.10   16.30
  -3  -9  12   13.80   18.70
   2   9 -12   13.50   16.00
  -2  -9  12   26.00   12.40
  -2  -9  12    8.60    8.70
  -2  -9  12    1.70   17.70
  -2  -9  12   16.80   16.50
  -2  -9  12   16.00   17.40
   1   9 -12   16.50   15.40
  -1  -9  12   23.90   16.50
  -1  -9  12    7.80   15.20
  -1  -9  12    7.50   16.40
  -1  -9  12   12.20   13.20
  -1  -9  12    9.30    8.40
  -1  -9  12   -5.40   12.10
   0   9 -12   50.69   18.70
   0  -9  12   25.40   10.40
   0  -9  12   46.30   18.90
   0  -9  12   46.10   16.10
   0  -9  12   19.30   10.50
   0  -9  12   42.40   15.00
   0  -9  12   45.30   17.00
  -1   9 -12  485.95   40.30
   1  -9  12  487.55   42.00
   1  -9  12  556.64   39.10
   1  -9  12  516.05   39.00
   1  -9  12  536.45   32.70
   1  -9  12  523.25   33.70
   1  -9  12  547.55   32.00
  -2   9 -12  302.17   32.20
   2  -9  12  245.48   26.40
   2  -9  12  283.57   29.80
   2  -9  12  168.18   36.60
   2  -9  12  236.68   25.30
   2  -9  12  242.38   26.90
  -5  -8  12  139.39   28.90
   4   8 -12   66.09   15.40
   4   8 -12   78.89   21.80
  -4  -8  12   48.20   19.60
  -4  -8  12   60.49   10.50
  -4  -8  12   75.29   20.20
  -4  -8  12   50.99   20.40
   3   8 -12  110.09   23.70
  -3  -8  12  101.69   13.90
  -3  -8  12  102.79   24.50
  -3  -8  12  123.39   15.90
   2   8 -12  128.39   24.20
  -2  -8  12  190.78   27.20
  -2  -8  12  197.28   20.30
  -2  -8  12  163.78   18.50
  -2  -8  12  134.09   25.00
  -2  -8  12  241.68   31.30
   1   8 -12   26.50   14.70
  -1  -8  12   16.50   14.70
  -1  -8  12   12.40   14.20
  -1  -8  12   11.60    5.80
  -1  -8  12    7.50   15.20
  -1  -8  12   17.50   11.60
  -1  -8  12    7.40    9.20
  -1  -8  12   12.90   11.10
   0   8 -12   50.29   16.80
   0  -8  12   94.59   19.50
   0  -8  12   75.09   15.60
   0  -8  12   83.59   20.70
   0  -8  12   55.09   10.30
   0  -8  12   72.99   14.30
   0  -8  12   33.60   15.30
   0  -8  12   58.39   13.90
  -1   8 -12   26.00   13.00
   1  -8  12   39.40   13.70
   1  -8  12   35.90   15.70
   1  -8  12   19.70   10.40
   1  -8  12   18.40    9.90
   1  -8  12   20.50   12.20
   1  -8  12    3.50   16.30
   1  -8  12   21.40   14.50
  -2   8 -12    1.80   10.50
   2  -8  12   34.00   16.50
   2  -8  12   19.50   14.70
   2  -8  12    9.30    9.60
   2  -8  12   -4.40   12.50
   2  -8  12   19.50   12.30
   2  -8  12    7.50   14.70
   2  -8  12   23.00   16.90
   3  -8  12  224.68   30.00
   3  -8  12  195.98   29.30
   3  -8  12  189.28   25.10
   3  -8  12  205.78   22.90
   3  -8  12  195.28   23.10
   5   7 -12   22.20   15.90
   5   7 -12    1.20   13.00
  -5  -7  12    4.10   19.30
  -5  -7  12   38.60   17.10
  -5  -7  12   12.80    7.50
   4   7 -12   15.00   13.20
   4   7 -12   26.60   16.40
  -4  -7  12    4.60   15.30
  -4  -7  12   16.40   10.80
  -4  -7  12   20.10   13.70
  -4  -7  12   16.50    8.80
  -4  -7  12    5.60   14.70
   3   7 -12  132.69   20.90
   3   7 -12  171.28   27.70
  -3  -7  12  154.48   18.30
  -3  -7  12  154.78   25.50
  -3  -7  12  140.19   24.00
  -3  -7  12  188.08   18.40
  -3  -7  12  124.99   19.30
   2   7 -12  271.87   28.70
  -2  -7  12  263.87   22.50
  -2  -7  12  264.17   21.90
  -2  -7  12  238.08   30.00
  -2  -7  12  297.57   29.80
  -2  -7  12  158.18   24.20
   1   7 -12  922.81   50.09
  -1  -7  12  912.81   39.90
  -1  -7  12  945.61   48.40
  -1  -7  12  937.91   42.80
  -1  -7  12  872.71   41.40
  -1  -7  12  897.61   47.20
  -1  -7  12  882.11   50.49
   0   7 -12   59.39   16.70
   0  -7  12   46.50    9.50
   0  -7  12   82.89   18.70
   0  -7  12   72.39   15.60
   0  -7  12   66.69   16.20
   0  -7  12   56.09   15.50
   0  -7  12   48.80   16.90
   0  -7  12   57.29   11.00
  -1   7 -12    4.80   10.60
   1  -7  12    4.40   10.20
   1  -7  12   30.20   13.20
   1  -7  12  -13.00   12.00
   1  -7  12    3.30    6.60
   1  -7  12   12.90    9.10
   1  -7  12    5.80   14.40
  -2   7 -12  150.18   24.10
   2  -7  12  104.39   23.40
   2  -7  12  138.19   21.50
   2  -7  12  131.49   15.10
   2  -7  12  120.89   22.30
   2  -7  12  142.89   23.00
   2  -7  12  130.79   19.10
   2  -7  12  106.89   16.80
   3  -7  12   34.50   17.20
   3  -7  12    9.60    8.70
   3  -7  12    2.50   17.20
   3  -7  12   38.80   14.80
   3  -7  12   20.70   11.20
   4  -7  12    3.70   10.40
   4  -7  12   34.10   17.10
   4  -7  12   15.90    8.10
   6   6 -12   47.60   19.00
   6   6 -12   42.80   20.00
  -6  -6  12   10.30   16.50
  -6  -6  12   34.90    8.60
  -6  -6  12   30.70   18.70
   5   6 -12  359.66   35.10
   5   6 -12  346.67   33.30
  -5  -6  12  372.06   21.70
  -5  -6  12  303.17   30.10
  -5  -6  12  320.57   27.60
  -5  -6  12  339.07   32.00
   4   6 -12  264.67   27.60
   4   6 -12  320.27   31.60
  -4  -6  12  248.18   29.40
  -4  -6  12  293.57   25.80
  -4  -6  12  253.17   23.40
  -4  -6  12  326.47   21.90
   3   6 -12  157.18   28.90
   3   6 -12  183.68   26.70
  -3  -6  12  182.28   18.70
  -3  -6  12  204.08   26.20
  -3  -6  12  198.58   22.70
  -3  -6  12  149.69   18.30
   2   6 -12   -8.10    9.00
   2   6 -12   -7.50   10.10
  -2  -6  12   14.00   10.30
  -2  -6  12   13.90   10.20
  -2  -6  12   -6.80   12.40
   1   6 -12  475.35   33.50
  -1  -6  12  492.35   32.00
  -1  -6  12  467.35   19.00
  -1  -6  12  416.16   24.00
  -1  -6  12  469.75   36.60
  -1  -6  12  454.35   29.70
   0   6 -12   85.89   17.60
   0  -6  12   88.89   11.20
   0  -6  12   99.09   17.60
   0  -6  12   77.19   11.20
   0  -6  12   92.69   18.20
   0  -6  12   62.19   17.90
   0  -6  12   80.29   16.70
   0  -6  12   90.29   16.50
  -1   6 -12  703.23   40.20
   1  -6  12  736.23   40.60
   1  -6  12  668.13   35.90
   1  -6  12  700.03   34.00
   1  -6  12  688.43   39.70
   1  -6  12  740.93   42.00
   1  -6  12  676.73   44.30
   2  -6  12  522.65   39.10
   2  -6  12  493.05   40.00
   2  -6  12  486.95   31.30
   2  -6  12  456.75   35.40
   2  -6  12  458.45   28.30
   2  -6  12  426.26   21.50
   3  -6  12   12.50   11.50
   3  -6  12    0.90    6.80
   3  -6  12  -17.20   13.60
   3  -6  12    5.50    8.90
   4  -6  12   87.79   23.10
   4  -6  12   86.09   13.60
   4  -6  12   86.79   22.30
   4  -6  12   45.40   17.80
   6   5 -12  221.98   31.50
  -6  -5  12  180.28   25.00
  -6  -5  12  284.17   31.60
   5   5 -12   34.40   16.00
  -5  -5  12   14.60   14.30
  -5  -5  12   45.40   13.60
  -5  -5  12   34.80   15.20
   4   5 -12  177.88   24.50
   4   5 -12  151.38   24.50
  -4  -5  12  176.28   24.20
  -4  -5  12  187.78   23.60
  -4  -5  12  153.18   18.30
   3   5 -12  161.98   22.80
   3   5 -12  189.08   26.20
  -3  -5  12  171.48   21.60
  -3  -5  12  161.28   22.60
  -3  -5  12  172.08   17.10
   2   5 -12   90.69   17.50
   2   5 -12  116.19   19.20
  -2  -5  12  121.49   19.30
  -2  -5  12   99.19   12.30
   1   5 -12  223.48   21.40
  -1  -5  12  185.58   24.10
  -1  -5  12  159.48   13.50
  -1  -5  12  211.58   14.30
   0   5 -12   57.69   14.40
   0  -5  12   73.69   11.70
   0  -5  12   47.50   13.10
   0  -5  12   60.39   27.40
  -1   5 -12   44.40   12.10
  -1   5 -12   33.00   13.30
   1  -5  12   46.20   11.90
   1  -5  12   83.09   16.90
   1  -5  12   65.19   17.80
   1  -5  12   50.59    6.40
   1  -5  12   64.59   16.50
  -2   5 -12  108.69   18.30
   2  -5  12  121.99   18.30
   2  -5  12  110.79   22.10
   2  -5  12  125.29   23.80
   2  -5  12   74.59   13.00
   2  -5  12   92.59   21.20
  -3   5 -12   78.79   17.00
   3  -5  12   40.30    8.40
   3  -5  12   46.30   18.80
   3  -5  12   28.00    7.00
   3  -5  12   36.00    9.50
   3  -5  12   45.30   18.50
   3  -5  12   40.00   14.50
   4  -5  12   26.50   16.40
   4  -5  12   24.80    9.60
   4  -5  12   44.40   22.00
   4  -5  12   47.90   21.00
   6   4 -12  358.16   37.50
  -6  -4  12  339.67   30.20
  -6  -4  12  394.06   33.20
   5   4 -12 1005.50   52.39
  -5  -4  12  997.40   48.20
  -5  -4  12  960.40   50.39
  -5  -4  12  889.81   48.30
   4   4 -12    7.50   12.10
   4   4 -12   16.00   12.10
  -4  -4  12   -5.40   12.10
  -4  -4  12   -7.70    7.20
  -4  -4  12   18.70   11.70
   3   4 -12  247.28   24.10
   3   4 -12  259.47   27.10
  -3  -4  12  262.67   17.70
  -3  -4  12  276.27   25.90
   2   4 -12    4.70    8.70
   2   4 -12   14.30   11.80
   2   4 -12    5.30    8.50
  -2  -4  12   -1.30    4.30
   1   4 -12   77.29   17.70
   1   4 -12  107.09   17.00
   1   4 -12  105.49   17.10
  -1  -4  12   89.09   10.70
  -1  -4  12   85.99    6.90
  -1  -4  12  108.09    7.40
   0   4 -12   13.00    9.00
   0   4 -12    8.00    8.30
   0  -4  12    5.10   10.40
   0  -4  12   -0.90    6.70
  -1   4 -12  258.97   23.70
   1  -4  12  253.27   21.20
   1  -4  12  207.08   27.60
   1  -4  12  237.88   25.30
  -2   4 -12  559.44   34.50
   2  -4  12  471.15   39.10
   2  -4  12  501.15   35.40
   2  -4  12  522.95   33.70
  -3   4 -12  160.18   22.30
   3  -4  12  178.38   24.70
   3  -4  12  184.88   27.10
   3  -4  12  176.38   15.20
   3  -4  12  182.08   13.80
   3  -4  12  199.98   29.30
  -4   4 -12   36.00   15.00
   4  -4  12   -7.50   18.30
   4  -4  12   -8.60   12.10
   4  -4  12   32.40   20.40
   6   3 -12   10.10   18.90
  -6  -3  12   24.90   13.10
  -6  -3  12   14.30   15.50
   5   3 -12   -3.50   13.00
  -5  -3  12   -3.30   12.70
  -5  -3  12   11.90    9.60
   4   3 -12  168.28   23.50
  -4  -3  12  132.69   22.40
  -4  -3  12  107.69   13.60
   3   3 -12   26.60   10.90
   3   3 -12   -6.20   12.10
  -3  -3  12   43.30   14.80
  -3  -3  12   21.00    6.30
   2   3 -12  122.59   17.00
   2   3 -12  106.19   16.80
   2   3 -12  101.29   19.80
   2   3 -12  140.19   13.20
  -2  -3  12  132.69    8.10
  -2  -3  12  132.59   21.40
   1   3 -12  797.12   30.10
   1   3 -12  869.71   46.80
   1   3 -12  778.22   35.10
   1   3 -12  782.52   40.60
  -1  -3  12  842.22   46.10
  -1  -3  12  849.22   33.50
   0   3 -12   27.70   11.90
   0   3 -12   21.20    9.40
   0   3 -12   32.10    9.30
   0  -3  12   27.60   10.30
   0  -3  12   20.00   13.70
  -1   3 -12  562.94   34.60
  -1   3 -12  493.75   28.70
   1  -3  12  521.85   31.20
   1  -3  12  505.35   38.90
  -2   3 -12    9.70   10.60
  -2   3 -12  -10.00    9.00
   2  -3  12   40.40   15.10
   2  -3  12    5.70    7.00
   2  -3  12   -1.90   14.10
   2  -3  12   -0.20   13.40
  -3   3 -12  401.76   35.90
  -3   3 -12  420.76   32.20
   3  -3  12  405.06   32.50
   3  -3  12  418.86   34.10
   3  -3  12  356.16   37.20
   3  -3  12  378.76   19.60
  -4   3 -12   82.09   18.40
  -4   3 -12   87.99   20.60
   4  -3  12  114.99   26.60
   4  -3  12   44.90   17.60
   4  -3  12   86.69   24.10
   7   2 -12  326.67   41.40
  -7  -2  12  325.27   31.60
   6   2 -12    4.50   20.10
  -6  -2  12    4.70   15.90
  -6  -2  12    8.70   12.00
   5   2 -12   95.59   22.20
  -5  -2  12   35.50   11.20
  -5  -2  12   11.30   15.30
   4   2 -12   92.39    6.80
   4   2 -12   74.79   20.10
   4   2 -12  101.79   19.10
   4   2 -12   85.49   15.40
  -4  -2  12   82.69   11.00
  -4  -2  12   95.69   21.00
   3   2 -12   73.19   13.50
   3   2 -12   49.60    7.50
   3   2 -12   73.39   15.80
  -3  -2  12   88.49   18.20
  -3  -2  12   51.59    7.30
   2   2 -12   11.50    9.00
   2   2 -12    3.60    5.00
   2   2 -12   13.30    7.30
  -2  -2  12   10.60   13.60
   1   2 -12   52.19   12.90
   1   2 -12   44.70    9.60
   1   2 -12   29.10    8.10
  -1  -2  12   46.90   15.70
   0   2 -12  116.69   18.90
   0   2 -12  102.19   14.40
   0  -2  12  135.19   18.00
   0  -2  12  105.59   22.00
   0  -2  12  161.68   17.20
  -1   2 -12 1054.49   49.10
  -1   2 -12 1103.69   46.40
   1  -2  12 1128.69   43.40
   1  -2  12 1035.00   47.00
   1  -2  12 1083.39   57.29
   1  -2  12 1006.60   52.99
  -2   2 -12  802.42   42.40
  -2   2 -12  712.23   39.40
   2  -2  12  794.82   47.10
   2  -2  12  748.23   42.40
   2  -2  12  805.32   33.70
   2  -2  12  803.22   50.49
  -3   2 -12  142.99   23.50
  -3   2 -12  105.99   19.50
   3  -2  12   95.69   20.70
   3  -2  12  116.29   13.40
   3  -2  12  106.39   25.60
   3  -2  12  137.69   26.30
  -4   2 -12  274.57   42.60
  -4   2 -12  357.26   44.90
  -4   2 -12  291.27   29.00
   4  -2  12  328.47   34.80
   4  -2  12  304.87   37.60
   6   1 -12   78.69   10.10
   6   1 -12   95.69   27.10
   6   1 -12   78.69   12.40
  -6  -1  12   81.59   15.60
  -6  -1  12  121.89   24.90
   5   1 -12   -0.40    5.90
   5   1 -12    9.50   15.80
   5   1 -12    5.10   10.10
  -5  -1  12   21.40    9.10
  -5  -1  12    5.00   13.80
   4   1 -12  706.93   33.90
   4   1 -12  707.53   46.60
   4   1 -12  708.03   27.50
   4   1 -12  740.13   39.50
  -4  -1  12  693.63   28.40
  -4  -1  12  666.03   44.20
   3   1 -12  545.75   41.40
   3   1 -12  564.94   26.50
   3   1 -12  577.64   25.90
   3   1 -12  587.64   34.30
  -3  -1  12  586.44   40.20
   2   1 -12    7.90    6.40
   2   1 -12   -1.30    6.40
   2   1 -12   -6.80    8.00
  -2  -1  12  -14.40    9.50
  -2  -1  12    8.90    9.80
  -2  -1  12   -9.40   10.90
   1   1 -12   54.49   11.60
   1   1 -12   60.79   12.80
  -1  -1  12   54.29   13.60
  -1  -1  12   74.99   16.70
  -1  -1  12   79.19   19.60
   0   1 -12   -5.80    8.10
   0   1 -12    1.90    9.30
   0  -1  12   -1.20   11.70
   0  -1  12   12.60   10.10
   0  -1  12    6.70   10.30
  -1   1 -12    8.00    9.90
  -1   1 -12    1.00   10.30
   1  -1  12    3.40   11.40
   1  -1  12   29.10   12.10
   1  -1  12   -0.30    8.50
   1  -1  12   -3.20   12.60
  -2   1 -12   63.09   15.60
   2  -1  12   42.90   11.10
   2  -1  12   54.29   16.00
   2  -1  12   43.40   16.70
  -3   1 -12  117.99   21.80
  -3   1 -12   74.29   17.80
   3  -1  12   83.89   25.10
   3  -1  12   98.49   20.80
   3  -1  12   97.29   13.50
  -4   1 -12   10.20   17.30
  -4   1 -12   14.50   15.90
   4  -1  12   16.70    7.00
   4  -1  12   14.70   18.80
   4  -1  12   26.60   18.70
   4  -1  12   16.10   18.40
   6   0 -12   77.99   24.40
   6   0 -12   71.09   15.30
   6   0 -12   66.99   12.30
  -6   0  12   14.70   19.80
  -6   0  12   58.49   21.60
  -6   0  12   71.29   15.80
   5   0 -12    0.80   16.00
   5   0 -12   30.00   12.80
   5   0 -12   22.00    9.90
  -5   0  12   44.00   18.90
  -5   0  12   14.90   16.00
  -5   0  12   25.50   10.30
   4   0 -12   -3.30    9.00
   4   0 -12    7.70   15.40
   4   0 -12    5.20    8.70
   4   0 -12   12.20    8.10
  -4   0  12   25.20   13.80
  -4   0  12    6.10    6.80
  -4   0  12   -4.40   11.10
   3   0 -12  441.06   30.30
   3   0 -12  410.66   18.30
   3   0 -12  418.86   24.80
  -3   0  12  427.66   32.60
  -3   0  12  358.46   33.70
   2   0 -12   55.59   11.90
   2   0 -12   64.49   14.60
  -2   0  12   63.99   15.70
  -2   0  12   66.09   16.00
  -2   0  12   34.60   15.50
   1   0 -12 1427.26   59.19
   1   0 -12 1532.85   55.19
  -1   0  12 1464.95   58.29
  -1   0  12 1455.35   61.59
  -1   0  12 1551.64   69.69
   0   0 -12  533.75   35.00
   0   0 -12  523.15   32.60
   0   0  12  522.85   34.10
   0   0  12  563.44   42.20
   0   0  12  537.15   32.70
  -1   0 -12   14.90   11.40
  -1   0 -12    0.60   10.90
   1   0  12  -14.40    9.40
   1   0  12   20.80   12.00
   1   0  12   11.70   12.40
   1   0  12   -4.40   14.80
  -2   0 -12   13.90   12.10
  -2   0 -12   38.60   15.50
   2   0  12   11.40   13.80
   2   0  12    8.10   15.60
   2   0  12   15.10   10.30
  -3   0 -12  -20.80   13.30
  -3   0 -12  -14.90   14.20
   3   0  12   24.10   19.20
   3   0  12    0.00    9.60
   3   0  12   13.80   14.80
   6  -1 -12  170.18   20.50
   6  -1 -12  109.29   19.00
   6  -1 -12  132.09   32.40
  -6   1  12  175.68   22.20
  -6   1  12  114.59   26.70
  -6   1  12  131.69   27.60
   5  -1 -12  113.69   26.80
   5  -1 -12  112.99   17.80
   5  -1 -12   71.79   16.40
   5  -1 -12  116.89   15.90
  -5   1  12  119.19   16.10
  -5   1  12   99.19   23.70
  -5   1  12   97.79   24.40
   4  -1 -12  104.29   10.40
   4  -1 -12  123.89   18.60
   4  -1 -12  111.79   16.70
   4  -1 -12  112.09   24.60
  -4   1  12   97.19   22.80
  -4   1  12  129.49   23.30
  -4   1  12  119.59   13.30
   3  -1 -12   12.30   10.10
   3  -1 -12   -7.60   14.00
   3  -1 -12  -12.90   10.00
  -3   1  12   17.90   13.50
  -3   1  12   10.10   11.50
  -3   1  12  -10.10   14.90
   2  -1 -12   47.50   13.50
   2  -1 -12   70.09   19.00
   2  -1 -12   26.50   13.10
  -2   1  12   25.30   13.70
  -2   1  12   63.09   19.10
  -2   1  12   48.10   15.30
   1  -1 -12    1.90   13.70
   1  -1 -12    2.70    9.90
   1  -1 -12    7.50   10.70
  -1   1  12    3.80   13.30
  -1   1  12   20.80   12.20
  -1   1  12   10.40   11.10
   0  -1 -12   28.20   13.50
   0  -1 -12   -4.20   11.70
   0  -1 -12   77.29   20.20
   0   1  12   44.00   17.90
   0   1  12   39.50   13.70
  -1  -1 -12   87.29   19.20
  -1  -1 -12  118.09   22.00
   1   1  12  106.19   20.60
   1   1  12  116.19   21.00
   1   1  12   76.19   22.40
   1   1  12   79.79   16.10
  -2  -1 -12   14.70   14.70
  -2  -1 -12    9.60   15.30
   2   1  12    1.90   16.20
   2   1  12   -5.90   17.60
   2   1  12   -0.10   14.10
  -3  -1 -12  491.55   40.00
  -3  -1 -12  560.14   44.80
   3   1  12  468.85   47.10
   3   1  12  499.35   32.50
   3   1  12  573.54   45.10
   5  -2 -12  108.99   11.40
   5  -2 -12  174.08   25.00
   5  -2 -12  111.99   17.10
   5  -2 -12  164.08   29.20
   5  -2 -12  127.09   20.70
  -5   2  12  146.99   18.30
  -5   2  12  111.69   25.00
   4  -2 -12  126.29   27.40
   4  -2 -12  118.59   14.70
   4  -2 -12  128.79   20.70
   4  -2 -12  128.49   20.00
  -4   2  12  154.28   32.90
  -4   2  12   71.49   23.60
   3  -2 -12  189.28   23.80
   3  -2 -12  156.28   22.90
   3  -2 -12  158.88   28.30
  -3   2  12  173.28   22.90
  -3   2  12  147.39   27.20
  -3   2  12  218.68   29.20
   2  -2 -12  124.19   22.20
   2  -2 -12  139.39   21.90
   2  -2 -12  132.59   21.30
  -2   2  12  145.19   22.50
  -2   2  12  110.79   19.10
  -2   2  12  109.89   24.80
   1  -2 -12  286.37   27.70
   1  -2 -12  216.78   30.90
  -1   2  12  231.28   33.50
  -1   2  12  303.17   29.40
  -1   2  12  246.08   26.50
   0  -2 -12  146.19   23.40
   0  -2 -12  139.99   22.80
   0   2  12  162.48   27.70
   0   2  12  171.38   24.50
  -1  -2 -12    6.90   15.10
  -1  -2 -12   23.20   14.40
   1   2  12   13.10   13.80
   1   2  12   21.00   17.20
   1   2  12    8.10   15.70
  -2  -2 -12    0.80   23.80
  -2  -2 -12   38.80   20.10
   2   2  12   19.20   22.60
   2   2  12    1.20   16.30
   2   2  12  -16.10   13.40
   4  -3 -12   45.00   22.30
   4  -3 -12   26.60   15.50
   4  -3 -12    8.70    9.70
  -4   3  12   19.60   16.20
  -4   3  12   56.69   21.10
   3  -3 -12  173.68   24.30
   3  -3 -12  200.58   33.70
   3  -3 -12  198.38   16.20
   3  -3 -12  184.98   35.70
  -3   3  12  208.58   32.00
  -3   3  12  212.88   24.50
  -3   3  12  184.18   28.80
   2  -3 -12   63.99   16.70
   2  -3 -12   80.79   19.50
   2  -3 -12   63.89   24.00
  -2   3  12   86.79   22.00
  -2   3  12   60.09   23.50
  -2   3  12   71.69   17.10
   1  -3 -12  303.17   32.20
   1  -3 -12  355.76   38.60
   1  -3 -12  380.26   34.10
  -1   3  12  410.56   36.60
  -1   3  12  314.47   39.00
  -1   3  12  364.96   29.70
   0  -3 -12    2.50   16.50
   0   3  12  -15.70   16.00
   0   3  12  -42.00   17.10
  -1  -3 -12  200.98   35.70
   1   3  12  217.98   27.80
   3  -4 -12   98.09   26.70
   2  -4 -12   35.10   10.00
   2  -4 -12   58.19   24.00
   2  -4 -12   60.39   21.90
  -2   4  12   29.80   14.20
  -2   4  12   26.30   20.10
   1  -4 -12  416.26   41.40
  -1   4  12  371.16   39.20
   2   9 -13   33.70   15.10
  -2  -9  13   31.50   14.00
  -2  -9  13   51.09   24.30
  -2  -9  13   -1.70   18.30
  -2  -9  13   27.80   11.10
  -2  -9  13   -3.40   18.40
   1   9 -13   87.89   22.60
  -1  -9  13   84.79   22.90
  -1  -9  13   59.99    7.60
  -1  -9  13   86.79   15.30
  -1  -9  13   86.69   19.30
  -1  -9  13  101.79   26.40
  -1  -9  13   88.99   18.00
  -1  -9  13   83.59   21.80
   0   9 -13   70.79   20.10
   0  -9  13   74.29   22.20
   0  -9  13   75.39   20.50
   0  -9  13   38.90   16.40
   0  -9  13   52.39   15.10
   0  -9  13   61.69   23.70
   0  -9  13   45.30   11.70
   0  -9  13   18.90   13.30
  -1   9 -13   71.59   19.40
   1  -9  13   58.79   14.40
   1  -9  13   83.59   17.50
   1  -9  13   62.29   21.30
   1  -9  13  113.39   27.00
   1  -9  13   53.99   14.10
   1  -9  13   98.29   25.40
   1  -9  13   32.70   18.90
   4   8 -13  100.89   22.40
   4   8 -13   78.19   22.00
  -4  -8  13   61.89   19.40
  -4  -8  13   90.89   25.40
  -4  -8  13  104.39   13.90
  -4  -8  13  131.69   27.20
  -4  -8  13   80.99   16.40
   3   8 -13  437.26   39.50
  -3  -8  13  469.05   28.90
  -3  -8  13  482.65   30.40
  -3  -8  13  598.44   46.00
  -3  -8  13  452.05   41.50
  -3  -8  13  472.15   34.90
   2   8 -13   90.89   21.60
  -2  -8  13   23.60   18.60
  -2  -8  13   68.59   15.80
  -2  -8  13   43.30   13.30
  -2  -8  13   62.49   19.90
   1   8 -13   13.40   13.80
  -1  -8  13   -1.90   17.60
  -1  -8  13   -3.70   10.90
  -1  -8  13   10.20   11.60
  -1  -8  13   -7.60   14.10
  -1  -8  13    1.30    4.10
  -1  -8  13  -28.60   12.70
  -1  -8  13    2.20   15.30
   0   8 -13  164.08   26.80
   0  -8  13  140.09   23.40
   0  -8  13  163.98   31.40
   0  -8  13  159.78   24.90
   0  -8  13  159.88   19.10
   0  -8  13  190.08   24.10
   0  -8  13  202.88   34.50
   0  -8  13  152.18   16.70
  -1   8 -13   30.90   14.10
   1  -8  13   55.89   16.30
   1  -8  13   51.59   12.10
   1  -8  13   30.60   17.70
   1  -8  13   15.60   11.20
   1  -8  13   69.39   17.90
   1  -8  13  -17.00   28.30
   1  -8  13   23.10   19.20
   2  -8  13   36.70   21.80
   2  -8  13   72.09   20.10
   2  -8  13   38.40   19.90
   2  -8  13   84.79   17.40
   2  -8  13   65.19   17.80
   2  -8  13   84.09   20.90
   2  -8  13   73.39   14.20
  -5  -7  13  171.98   29.20
   4   7 -13   16.00   15.10
   4   7 -13   30.90   16.00
  -4  -7  13    5.10   16.60
  -4  -7  13   13.00   11.70
  -4  -7  13   13.00   13.80
  -4  -7  13   26.20   11.30
   3   7 -13  311.07   31.50
   3   7 -13  285.17   28.90
  -3  -7  13  306.27   26.00
  -3  -7  13  273.77   30.00
   2   7 -13  166.88   27.20
  -2  -7  13  192.88   28.90
  -2  -7  13  203.38   27.60
  -2  -7  13  263.57   31.40
  -2  -7  13  244.18   23.20
  -2  -7  13  245.38   24.30
   1   7 -13  218.78   29.80
  -1  -7  13  223.08   27.80
  -1  -7  13  247.98   30.30
  -1  -7  13  188.68   26.00
  -1  -7  13  203.78   12.20
  -1  -7  13  230.78   20.60
  -1  -7  13  214.78   25.20
  -1  -7  13  157.68   27.70
   0   7 -13  261.77   27.80
   0  -7  13  257.87   27.20
   0  -7  13  294.47   28.10
   0  -7  13  203.58   28.90
   0  -7  13  248.08   19.20
   0  -7  13  266.47   33.60
   0  -7  13  183.68   25.00
   0  -7  13  218.98   18.50
  -1   7 -13    4.90   10.10
   1  -7  13   31.20   15.90
   1  -7  13    4.30   17.40
   1  -7  13    5.40   12.50
   1  -7  13    5.70    9.20
   1  -7  13   10.90   13.60
   1  -7  13   -8.50   14.80
   1  -7  13    9.10    7.40
   2  -7  13  131.79   14.70
   2  -7  13  168.58   26.00
   2  -7  13  105.69   26.50
   2  -7  13  181.58   32.10
   2  -7  13  137.89   19.80
   2  -7  13  135.69   19.80
   3  -7  13  142.89   27.90
   3  -7  13  113.79   17.40
   3  -7  13  130.19   26.70
   3  -7  13  149.88   23.80
   5   6 -13   48.30   23.10
   5   6 -13  125.79   24.60
  -5  -6  13   66.79   25.10
  -5  -6  13  111.69   20.00
  -5  -6  13   68.49   17.40
  -5  -6  13  109.59   15.20
   4   6 -13   69.79   20.00
   4   6 -13   44.90   21.10
  -4  -6  13   58.59   14.10
  -4  -6  13   62.99   15.70
  -4  -6  13   80.29   16.70
  -4  -6  13   70.79   19.10
   3   6 -13   65.89   18.10
   3   6 -13  104.69   20.20
  -3  -6  13   86.99   15.90
  -3  -6  13   71.69   13.40
  -3  -6  13  113.39   18.40
  -3  -6  13   91.59   21.10
   2   6 -13   28.70   15.10
   2   6 -13   47.30   15.40
  -2  -6  13   46.80   13.40
  -2  -6  13   22.80    9.00
  -2  -6  13    1.00   15.60
  -2  -6  13   23.30   15.40
  -2  -6  13   41.20   13.80
   1   6 -13   98.39   19.20
  -1  -6  13   82.79   20.20
  -1  -6  13   73.69   17.30
  -1  -6  13  104.39   19.90
  -1  -6  13  102.79   18.00
  -1  -6  13   90.79   12.00
  -1  -6  13  108.49   11.50
   0   6 -13  286.07   27.00
   0  -6  13  307.97   31.90
   0  -6  13  307.57   30.50
   0  -6  13  281.47   20.40
   0  -6  13  270.07   27.10
  -1   6 -13   -3.50    9.20
   1  -6  13   26.30   17.60
   1  -6  13   26.40   14.00
   1  -6  13   11.10    5.50
   1  -6  13   22.50   11.50
   1  -6  13   31.80   11.10
   1  -6  13   19.80   13.00
   2  -6  13   85.19   21.30
   2  -6  13  100.69   16.10
   2  -6  13   68.99    9.10
   2  -6  13   70.79   26.50
   2  -6  13   33.80   14.80
   2  -6  13   75.99   23.70
   3  -6  13  198.98   31.00
   3  -6  13  210.18   28.20
   3  -6  13  284.67   35.80
   5   5 -13   57.09   21.10
   5   5 -13   37.60   17.90
  -5  -5  13   47.60   17.10
  -5  -5  13   97.49   17.00
  -5  -5  13   30.40   18.30
   4   5 -13    4.90   12.10
  -4  -5  13    8.50   12.10
  -4  -5  13   13.00   13.90
  -4  -5  13   10.00    9.80
   3   5 -13    2.90   10.80
   3   5 -13   -8.80   14.50
  -3  -5  13    4.90   12.50
  -3  -5  13   -1.60    7.30
  -3  -5  13   11.80   11.80
   2   5 -13   45.70   16.50
   2   5 -13   54.59   15.30
  -2  -5  13   62.39   16.10
  -2  -5  13   33.00    8.20
  -2  -5  13   52.99   16.90
   1   5 -13   48.40   14.50
  -1  -5  13   49.60   16.10
  -1  -5  13   47.60    9.50
  -1  -5  13   39.80   16.30
   0   5 -13  345.57   26.90
   0  -5  13  366.16   32.60
   0  -5  13  356.06   11.90
   0  -5  13  377.16   23.90
   0  -5  13  378.86   30.00
   0  -5  13  350.36   12.30
   0  -5  13  329.97   33.90
  -1   5 -13  187.48   23.90
   1  -5  13  232.38   29.60
   1  -5  13  219.98   28.20
   1  -5  13  227.78   29.90
   1  -5  13  225.68   21.80
  -2   5 -13  158.18   24.00
   2  -5  13  131.69   17.10
   2  -5  13  178.98   23.30
   2  -5  13  113.19   22.80
   2  -5  13  140.79   28.40
  -3   5 -13  -11.10   13.20
   3  -5  13    4.40    7.50
   3  -5  13    8.30   18.30
   3  -5  13    9.40   17.10
   3  -5  13   14.60    8.80
   3  -5  13   17.50   14.90
   6   4 -13   59.69   23.90
   6   4 -13   67.99   21.00
  -6  -4  13  118.79   23.70
  -6  -4  13   54.69   17.00
   5   4 -13   26.20   14.30
   5   4 -13   16.20   17.80
  -5  -4  13   15.00   19.90
  -5  -4  13   -8.20   12.90
   4   4 -13   37.70   14.20
   4   4 -13   42.10   19.50
  -4  -4  13   31.80   15.20
  -4  -4  13   28.80    9.70
   3   4 -13  677.73   38.60
  -3  -4  13  647.64   41.50
  -3  -4  13  616.14   26.30
   2   4 -13  179.18   22.60
   2   4 -13  178.18   22.60
  -2  -4  13  189.28   25.90
   1   4 -13  232.08   21.40
   1   4 -13  238.58   24.00
  -1  -4  13  208.78   28.30
  -1  -4  13  202.48   16.60
   0   4 -13   10.20    9.70
   0   4 -13    5.60   10.60
   0  -4  13    6.00    8.80
   0  -4  13   -8.70   12.40
   0  -4  13    6.80   11.50
  -1   4 -13  345.77   28.90
   1  -4  13  388.46   33.50
   1  -4  13  392.16   35.70
   1  -4  13  412.06   35.80
   1  -4  13  372.26   27.20
  -2   4 -13   75.39   17.10
   2  -4  13   36.00   10.40
   2  -4  13   27.60   18.00
   2  -4  13   38.50   14.10
   2  -4  13   73.19   23.40
   2  -4  13   54.29   20.80
  -3   4 -13   71.19   18.00
   3  -4  13   49.90   16.80
   3  -4  13   72.59   10.30
   3  -4  13   34.50   18.10
   3  -4  13   57.69   10.70
   3  -4  13   57.19   24.00
   6   3 -13   -0.30   22.30
  -6  -3  13   58.39   16.20
  -6  -3  13   68.39   20.10
   5   3 -13    7.60   12.60
   5   3 -13   27.30   18.80
  -5  -3  13   17.40   10.50
  -5  -3  13    5.00   15.50
   4   3 -13   -3.80   14.10
   4   3 -13   22.30   11.90
  -4  -3  13   -0.30   12.60
  -4  -3  13   20.70    7.70
   3   3 -13   -0.40   13.70
   3   3 -13   28.70   11.60
   3   3 -13   20.50   10.20
  -3  -3  13   15.50    5.50
  -3  -3  13    7.80   13.00
   2   3 -13    3.60    8.10
   2   3 -13   -0.50    4.60
   2   3 -13   12.00   15.00
   2   3 -13  -27.00    9.40
  -2  -3  13   12.30   12.30
  -2  -3  13   -3.10   12.00
   1   3 -13  924.51   51.89
   1   3 -13  904.51   33.80
   1   3 -13  780.72   43.00
  -1  -3  13  876.71   49.10
  -1  -3  13  968.80   52.59
   0   3 -13 1217.28   54.19
   0   3 -13 1185.78   44.30
   0  -3  13 1149.58   46.90
   0  -3  13 1189.98   57.09
   0  -3  13 1088.29   58.09
  -1   3 -13   32.10   12.40
  -1   3 -13    9.20   18.90
   1  -3  13   12.90   10.90
   1  -3  13   32.30   10.70
   1  -3  13   17.10   15.70
   1  -3  13   37.50   15.50
  -2   3 -13  318.87   29.50
  -2   3 -13  329.67   33.50
   2  -3  13  329.07   43.00
   2  -3  13  393.26   41.20
   2  -3  13  375.86   23.40
   2  -3  13  377.26   30.10
   2  -3  13  367.16   36.70
  -3   3 -13    7.40   13.70
  -3   3 -13  -10.70   13.20
   3  -3  13    3.00    7.50
   3  -3  13   -8.90   15.00
   3  -3  13  -16.00   17.40
   3  -3  13   15.20   15.40
   6   2 -13  177.28   32.90
  -6  -2  13  212.18   31.80
  -6  -2  13  200.58   23.20
   5   2 -13  354.96   29.40
   5   2 -13  385.46   38.10
  -5  -2  13  355.66   35.40
  -5  -2  13  362.06   24.30
   4   2 -13   42.40   14.00
   4   2 -13   34.60    5.90
   4   2 -13   26.00   19.70
  -4  -2  13   28.00   15.70
  -4  -2  13   13.60    7.50
   3   2 -13    6.30    5.40
   3   2 -13   24.20   16.20
   3   2 -13    3.70   11.00
   3   2 -13    3.70    8.70
  -3  -2  13   15.10   13.30
  -3  -2  13   32.50   15.50
   2   2 -13    8.30   10.70
   2   2 -13   19.30   14.60
   2   2 -13    8.60    6.50
   2   2 -13    9.70    8.30
  -2  -2  13   33.40   14.60
  -2  -2  13   16.60   13.10
   1   2 -13   13.30   10.80
   1   2 -13   -2.90    7.30
   1   2 -13   -0.30   14.00
   1   2 -13    5.80    7.50
  -1  -2  13   11.00    9.90
  -1  -2  13    2.10   13.20
  -1  -2  13  -19.90   10.70
   0   2 -13   58.39   13.70
   0   2 -13   87.79   17.50
   0  -2  13   55.99   18.20
   0  -2  13   84.49   15.30
   0  -2  13   43.30   15.70
   0  -2  13   64.39   15.20
  -1   2 -13  136.19   19.20
  -1   2 -13  100.39   19.20
   1  -2  13  132.89   18.50
   1  -2  13  115.99   25.00
   1  -2  13  127.79   23.20
  -2   2 -13   26.50   14.30
   2  -2  13   -8.60   16.20
   2  -2  13   13.00    9.10
   2  -2  13   10.80   13.00
   2  -2  13   37.20   20.70
  -3   2 -13   57.29   18.90
  -3   2 -13   86.19   21.50
   3  -2  13   87.09   12.60
   3  -2  13   98.09   22.50
   3  -2  13  114.79   25.50
   6   1 -13   11.00   10.10
   6   1 -13  -43.40   21.30
  -6  -1  13   -7.40   13.40
  -6  -1  13   12.40   20.60
   5   1 -13  398.36   31.20
   5   1 -13  446.66   34.90
   5   1 -13  387.46   19.50
   5   1 -13  305.77   40.20
  -5  -1  13  424.46   39.30
  -5  -1  13  433.46   25.90
   4   1 -13   15.90   10.10
   4   1 -13   12.30   19.50
   4   1 -13   20.20   11.80
   4   1 -13   15.80    8.00
  -4  -1  13   11.50    7.30
  -4  -1  13   28.60   16.90
  -4  -1  13   20.90   17.70
   3   1 -13  853.21   44.60
   3   1 -13  802.32   31.80
   3   1 -13  772.52   51.19
  -3  -1  13  829.52   48.00
  -3  -1  13  864.61   47.60
  -3  -1  13  865.01   51.69
   2   1 -13  590.74   36.70
   2   1 -13  543.95   28.70
   2   1 -13  538.15   22.70
   2   1 -13  570.64   44.20
  -2  -1  13  561.14   38.30
  -2  -1  13  549.85   42.80
  -2  -1  13  591.04   37.00
   1   1 -13    6.30    8.70
   1   1 -13   16.40   15.90
   1   1 -13   15.40   11.80
  -1  -1  13   40.40   14.70
  -1  -1  13    5.60   14.60
  -1  -1  13   -4.60   10.90
   0   1 -13   59.39   15.20
   0   1 -13   85.09   18.60
   0  -1  13   72.59   18.40
   0  -1  13   80.69   15.40
   0  -1  13   87.39   20.30
   0  -1  13   90.49   17.30
  -1   1 -13    9.00   11.40
  -1   1 -13    5.30   12.10
   1  -1  13   12.70   14.30
   1  -1  13   23.30   18.60
   1  -1  13    4.00   13.30
   1  -1  13   20.70   13.30
  -2   1 -13  104.89   21.90
  -2   1 -13  118.69   21.50
   2  -1  13  100.99   21.30
   2  -1  13  121.59   25.70
   2  -1  13  105.19   16.20
  -3   1 -13   17.70   16.00
   3  -1  13   27.10   11.70
   3  -1  13   17.00   22.40
   3  -1  13   39.00   18.70
   5   0 -13    7.00    9.50
   5   0 -13   -3.10   19.50
   5   0 -13   -6.20   10.30
   5   0 -13   12.50   12.90
  -5   0  13  -18.90   20.10
  -5   0  13   26.90   18.50
  -5   0  13   19.40   10.20
   4   0 -13    4.40    7.80
   4   0 -13    2.10   11.90
   4   0 -13    1.30   19.60
   4   0 -13    3.00    8.70
  -4   0  13  -11.90   15.80
  -4   0  13    5.90    7.00
   3   0 -13   29.40   21.10
   3   0 -13   48.10   15.30
   3   0 -13   26.70    9.10
   3   0 -13   43.30   11.90
  -3   0  13   18.00   16.10
  -3   0  13   55.39   16.30
  -3   0  13   62.09   18.10
   2   0 -13  161.28   29.30
   2   0 -13  153.88   18.70
   2   0 -13  119.99   21.00
  -2   0  13  114.89   25.60
  -2   0  13  157.58   23.20
  -2   0  13  164.48   23.60
   1   0 -13  120.29   21.50
   1   0 -13  116.79   18.40
   1   0 -13   45.00   21.30
  -1   0  13  106.69   20.30
  -1   0  13   81.49   21.50
  -1   0  13   85.19   19.70
   0   0 -13   -7.40   13.00
   0   0 -13   18.00   13.50
   0   0  13   58.09   20.50
   0   0  13   38.60   14.20
   0   0  13   25.80   15.10
  -1   0 -13  542.25   39.20
  -1   0 -13  443.96   34.70
   1   0  13  487.45   37.00
   1   0  13  466.65   40.60
   1   0  13  570.84   34.50
   1   0  13  497.15   38.20
  -2   0 -13  420.66   36.30
  -2   0 -13  426.36   36.50
   2   0  13  413.26   36.60
   2   0  13  448.16   38.80
   5  -1 -13    6.50   14.70
   5  -1 -13   25.30    9.90
   5  -1 -13   41.90   28.10
   5  -1 -13   16.70   12.20
  -5   1  13  -25.30   20.30
  -5   1  13    1.80   10.50
  -5   1  13   28.00   22.20
   4  -1 -13   52.59   21.30
   4  -1 -13   46.80   15.20
   4  -1 -13   37.20   13.70
  -4   1  13   63.39   21.20
  -4   1  13   71.79   24.40
  -4   1  13   66.79   18.70
   3  -1 -13  208.98   24.30
   3  -1 -13  202.48   33.20
   3  -1 -13  218.28   27.70
  -3   1  13  218.58   35.10
  -3   1  13  225.98   30.40
  -3   1  13  209.78   26.80
   2  -1 -13  202.28   36.10
   2  -1 -13  188.48   23.80
   2  -1 -13  207.08   27.20
  -2   1  13  188.18   30.90
  -2   1  13  187.88   27.30
  -2   1  13  274.97   29.60
   1  -1 -13   33.60   15.60
   1  -1 -13   43.70   23.40
   1  -1 -13   30.40   13.90
  -1   1  13   15.90   18.10
  -1   1  13   44.10   16.70
  -1   1  13   48.10   16.60
   0  -1 -13   37.90   16.40
   0  -1 -13   35.50   17.10
   0   1  13   26.40   15.70
   0   1  13   31.60   16.20
   0   1  13   40.60   22.00
  -1  -1 -13   97.89   22.20
  -1  -1 -13   99.99   25.20
   1   1  13   86.79   18.00
   1   1  13   64.39   30.80
   1   1  13  111.69   23.30
  -2  -1 -13  334.77   37.20
   4  -2 -13   -0.80   14.90
   4  -2 -13  -11.70   26.30
   4  -2 -13    8.50   15.60
  -4   2  13   -2.20   19.80
  -4   2  13    1.50   21.00
  -4   2  13   -1.20   16.70
   3  -2 -13  264.07   31.10
   3  -2 -13  288.37   38.20
  -3   2  13  197.98   25.70
  -3   2  13  211.48   29.70
   2  -2 -13    6.70   14.80
   2  -2 -13   33.00   21.30
  -2   2  13   -5.00   13.70
  -2   2  13    5.20   17.50
  -2   2  13    3.30   27.00
   1  -2 -13  112.99   24.60
   1  -2 -13   83.09   26.20
   1  -2 -13  111.59   21.80
  -1   2  13  171.18   33.00
  -1   2  13  115.69   24.00
  -1   2  13  128.59   22.50
   0  -2 -13   57.79   22.80
   0  -2 -13   57.39   19.10
   0   2  13   95.59   22.30
   0   2  13   69.09   20.10
   2   8 -14   40.90   17.30
  -2  -8  14   54.29   26.50
  -2  -8  14    6.30   17.00
  -2  -8  14   47.60   16.30
  -2  -8  14   16.00   21.20
  -2  -8  14   67.49   23.20
   1   8 -14    7.80   13.40
  -1  -8  14  -25.30   16.60
  -1  -8  14   11.80   17.70
  -1  -8  14    5.90   21.90
  -1  -8  14    9.10   12.80
  -1  -8  14    0.70   10.80
  -1  -8  14  -19.90   14.70
   0   8 -14   95.49   21.50
   0  -8  14  101.09   21.90
   0  -8  14  109.89   15.80
   0  -8  14   93.29   24.30
   0  -8  14   93.49   19.80
   0  -8  14   46.50   23.60
   0  -8  14  117.39   22.00
   0  -8  14   91.09   13.80
   3   7 -14   40.00   16.80
  -3  -7  14   40.40   22.00
  -3  -7  14   22.70   14.00
  -3  -7  14   60.49   16.30
  -3  -7  14   44.20   20.90
   2   7 -14  344.47   34.40
  -2  -7  14  310.17   39.20
  -2  -7  14  387.06   31.20
  -2  -7  14  272.17   29.20
  -2  -7  14  360.96   35.40
   1   7 -14  -12.90   10.90
  -1  -7  14    2.50    8.60
  -1  -7  14   -1.90   14.10
  -1  -7  14  -11.00   13.80
  -1  -7  14   33.40   14.70
  -1  -7  14   34.20   23.10
  -1  -7  14   13.20   16.80
   0   7 -14    8.20   13.10
   0  -7  14   26.90    8.70
   0  -7  14    1.80   14.30
   0  -7  14   10.40   14.90
   0  -7  14    5.80   18.00
   0  -7  14   64.19   19.00
   0  -7  14   33.10   10.80
   0  -7  14   29.40   17.50
  -1   7 -14  104.69   21.40
   1  -7  14  104.79   22.90
   1  -7  14  124.59   20.10
   1  -7  14   98.39   11.60
   1  -7  14   93.79   26.50
   1  -7  14  128.79   18.80
   1  -7  14  183.18   28.00
   4   6 -14   73.49   22.30
   4   6 -14   89.69   22.20
  -4  -6  14   31.80   21.30
  -4  -6  14   45.60   21.20
  -4  -6  14  100.29   17.70
  -4  -6  14   57.69   17.60
   3   6 -14   11.80   13.00
   3   6 -14    4.50   18.40
  -3  -6  14    7.00   13.50
  -3  -6  14  -25.50   17.60
  -3  -6  14   14.70   14.10
  -3  -6  14    1.40    9.20
  -3  -6  14    0.30   13.30
   2   6 -14   96.59   22.40
  -2  -6  14   66.39   20.50
  -2  -6  14   93.69   19.00
  -2  -6  14   72.69   22.70
  -2  -6  14   58.19   17.00
  -2  -6  14   91.59   12.40
   1   6 -14  151.78   23.90
  -1  -6  14  142.59   24.20
  -1  -6  14  156.98   13.90
  -1  -6  14  182.48   26.00
  -1  -6  14  142.19   12.90
  -1  -6  14  127.89   30.60
   0   6 -14  320.57   28.60
   0  -6  14  317.87   23.50
   0  -6  14  286.67   32.30
   0  -6  14  299.97   34.20
   0  -6  14  296.97   35.90
   1  -6  14    6.50    3.80
   1  -6  14  -25.60   20.50
   1  -6  14    7.50   15.80
   1  -6  14   29.30   20.20
   1  -6  14   15.70   11.30
   2  -6  14  591.44   39.00
   2  -6  14  666.33   47.20
   2  -6  14  627.74   58.39
   2  -6  14  589.34   35.20
   2  -6  14  705.13   48.80
   5   5 -14  291.77   37.80
   5   5 -14  233.58   32.80
  -5  -5  14  312.37   32.80
  -5  -5  14  303.07   28.50
   4   5 -14  208.58   29.70
   4   5 -14  179.28   29.10
  -4  -5  14  129.89   23.70
  -4  -5  14  160.28   18.20
   3   5 -14   48.50   20.00
   3   5 -14   61.49   17.00
  -3  -5  14   21.50   19.30
  -3  -5  14   51.09    9.70
  -3  -5  14   47.20   16.90
   2   5 -14    7.20   16.50
   2   5 -14    9.30   11.00
  -2  -5  14  -15.10   14.20
  -2  -5  14    1.70    5.10
   1   5 -14  250.77   24.40
  -1  -5  14  326.37   44.70
  -1  -5  14  281.27   31.00
   0   5 -14   33.80   13.00
   0   5 -14   25.80   14.00
   0  -5  14   19.50   17.50
   0  -5  14   68.69   24.00
   0  -5  14   37.30   17.00
   0  -5  14   36.50   11.80
  -1   5 -14   52.99   16.90
   1  -5  14   60.39   15.10
   1  -5  14   72.89   19.70
   1  -5  14   45.20   18.80
  -2   5 -14   37.60   17.20
   2  -5  14    1.80   14.90
   2  -5  14    9.20   10.50
   2  -5  14   70.09   24.30
   2  -5  14   20.60   17.50
   2  -5  14   11.30   16.50
   2  -5  14   41.80   13.30
   5   4 -14   24.90   26.20
   5   4 -14   68.39   19.40
  -5  -4  14   50.79   20.20
  -5  -4  14   13.90   16.50
   4   4 -14   55.89   16.80
   4   4 -14   28.10   20.00
  -4  -4  14   52.29   18.30
  -4  -4  14   48.70   11.30
   3   4 -14  373.46   29.50
   3   4 -14  470.35   40.40
  -3  -4  14  371.36   18.30
  -3  -4  14  383.76   35.10
   2   4 -14  971.80   44.80
   2   4 -14  892.71   54.49
   2   4 -14 1022.10   50.69
  -2  -4  14 1040.20   55.59
  -2  -4  14 1006.50   57.39
   1   4 -14    1.50    9.60
   1   4 -14   12.80   12.90
  -1  -4  14   14.80   15.60
  -1  -4  14  -22.10   15.20
   0   4 -14  173.58   25.40
   0  -4  14  132.99   25.40
   0  -4  14  147.09   19.40
  -1   4 -14   22.40   15.40
   1  -4  14   -9.50   11.00
   1  -4  14   20.80   13.00
   1  -4  14   41.30   20.00
   1  -4  14   24.10   16.60
  -2   4 -14   63.09   18.60
   2  -4  14   59.79   23.00
   2  -4  14   57.99   21.80
   2  -4  14   59.59   16.70
   2  -4  14    5.50   18.60
   2  -4  14   49.40   13.30
   5   3 -14   12.40   15.00
   5   3 -14   13.00   20.20
  -5  -3  14   10.20   10.80
  -5  -3  14   -7.20   15.90
   4   3 -14    0.50   19.40
   4   3 -14   16.90   12.70
  -4  -3  14    4.90    7.60
  -4  -3  14    4.40   15.40
   3   3 -14   19.80   13.30
   3   3 -14   35.60   18.40
   3   3 -14   23.10   11.60
  -3  -3  14   -4.80   14.00
  -3  -3  14    3.70    6.10
  -3  -3  14   45.50   19.00
   2   3 -14  104.99   11.60
   2   3 -14   81.79   18.20
   2   3 -14  144.79   25.80
  -2  -3  14   96.79   24.30
  -2  -3  14  104.69   22.20
   1   3 -14  137.29   27.20
   1   3 -14  162.28   24.00
   1   3 -14  130.69   22.60
   1   3 -14  145.19   15.60
  -1  -3  14  162.18   27.70
  -1  -3  14  146.49   26.60
   0   3 -14    9.30   12.60
   0   3 -14    4.80    9.50
   0  -3  14   -2.30   17.00
   0  -3  14   34.50   12.70
   0  -3  14   15.50   10.40
   0  -3  14   11.40   16.30
  -1   3 -14   19.00   14.30
  -1   3 -14   42.90   14.30
   1  -3  14   51.79   20.60
   1  -3  14   15.30   17.30
   1  -3  14   25.00   13.80
   1  -3  14   32.10   12.90
  -2   3 -14  477.55   37.50
  -2   3 -14  468.75   36.00
   2  -3  14  485.25   53.59
   2  -3  14  453.85   43.60
   2  -3  14  504.95   29.50
   2  -3  14  549.85   44.50
   2  -3  14  409.06   35.90
   5   2 -14  242.08   26.00
   5   2 -14  247.28   37.70
  -5  -2  14  239.28   38.70
  -5  -2  14  211.78   21.00
   4   2 -14  211.78   35.40
   4   2 -14  228.18   28.50
   4   2 -14  232.38   14.90
   4   2 -14  287.87   41.70
  -4  -2  14  232.48   33.80
  -4  -2  14  230.58   16.00
   3   2 -14   51.19   15.90
   3   2 -14   32.70   10.90
   3   2 -14   34.60   20.60
   3   2 -14   28.90    7.70
  -3  -2  14   35.20   19.40
  -3  -2  14   39.50   18.10
   2   2 -14  162.08   15.70
   2   2 -14  115.59   20.30
   2   2 -14  133.99   27.50
   2   2 -14  169.48   16.20
  -2  -2  14  176.38   24.40
  -2  -2  14  177.58   29.20
  -2  -2  14  174.18   27.40
   1   2 -14   20.50   17.30
   1   2 -14    0.50   12.50
   1   2 -14   -2.50    9.10
  -1  -2  14   -2.50   12.20
  -1  -2  14   -8.10   15.90
  -1  -2  14   11.90   16.00
   0   2 -14  100.69   20.90
   0   2 -14   89.89   17.20
   0  -2  14   86.39   16.90
   0  -2  14   81.59   18.20
   0  -2  14  108.19   26.30
   0  -2  14   84.29   21.40
  -1   2 -14   48.60   16.20
   1  -2  14   34.30   14.20
   1  -2  14   83.69   22.70
   1  -2  14   77.29   23.60
   1  -2  14   57.49   17.30
  -2   2 -14   66.09   28.70
  -2   2 -14  120.09   22.00
   2  -2  14  190.18   21.00
   2  -2  14  117.49   29.60
   2  -2  14  121.09   24.30
   4   1 -14  164.68   31.60
   4   1 -14  178.68   18.30
   4   1 -14  206.68   17.10
   4   1 -14  267.37   28.80
  -4  -1  14  201.58   14.50
  -4  -1  14  215.78   33.80
  -4  -1  14  186.28   29.90
   3   1 -14   23.60   19.70
   3   1 -14   24.60    8.90
   3   1 -14   12.60    9.20
   3   1 -14   40.00   15.20
  -3  -1  14    8.80   17.10
  -3  -1  14   36.10   17.20
  -3  -1  14   57.99   18.90
   2   1 -14   12.50   20.30
   2   1 -14   12.30   13.40
   2   1 -14   26.40   11.00
  -2  -1  14   17.50   19.80
  -2  -1  14   37.30   16.90
  -2  -1  14   29.20   16.50
   1   1 -14  403.46   40.30
   1   1 -14  300.57   29.70
  -1  -1  14  317.57   38.20
  -1  -1  14  319.97   32.70
  -1  -1  14  292.87   30.30
   0   1 -14  380.96   29.50
   0   1 -14  334.17   33.20
   0  -1  14  448.06   38.80
   0  -1  14  347.37   30.20
   0  -1  14  381.36   32.70
   0  -1  14  384.36   40.40
  -1   1 -14    9.70   14.80
   1  -1  14   10.70   12.90
   1  -1  14  -10.60   14.90
   1  -1  14  -11.40   16.50
   4   0 -14  120.39   16.90
   4   0 -14  109.99   22.80
   4   0 -14  120.79   33.40
  -4   0  14   96.59   24.10
  -4   0  14  150.08   32.40
  -4   0  14  107.79   26.80
   3   0 -14   62.79   14.90
   3   0 -14   62.99   23.70
   3   0 -14   61.89   16.80
  -3   0  14   62.89   20.90
  -3   0  14   88.49   22.10
   2   0 -14  109.19   17.60
   2   0 -14   97.29   27.80
   2   0 -14  124.99   23.60
  -2   0  14  119.09   24.60
  -2   0  14   72.89   20.50
  -2   0  14  142.29   27.30
   1   0 -14   36.10   23.10
   1   0 -14   45.20   15.40
   1   0 -14   27.50   18.20
  -1   0  14   50.39   17.90
  -1   0  14   32.00   21.60
  -1   0  14    4.80   15.60
   0   0 -14  601.54   40.60
   0   0  14  664.83   49.80
   0   0  14  659.73   41.60
  -1   0 -14   45.60   19.30
  -1   0 -14   55.29   20.10
   1   0  14   20.80   15.70
   1   0  14   53.09   22.10
   1   0  14   14.20   18.30
   1   0  14   35.10   21.70
   3  -1 -14   50.09   16.50
  -3   1  14   59.59   25.60
  -3   1  14   48.00   21.30
  -3   1  14   53.99   21.80
   2  -1 -14   26.20   18.50
   2  -1 -14   -0.10   26.80
  -2   1  14   43.50   23.10
  -2   1  14   67.69   22.60
  -2   1  14   20.50   18.20
   1  -1 -14   86.99   21.00
   1  -1 -14   88.99   22.30
   1  -1 -14   67.09   32.80
  -1   1  14   99.99   30.20
  -1   1  14  109.89   23.40
  -1   1  14  151.88   25.60
   2   6 -15   78.89   19.10
  -2  -6  15   95.59   21.60
  -2  -6  15   47.90    8.80
  -2  -6  15   23.60   23.80
  -2  -6  15   58.59    9.70
  -2  -6  15   74.19   21.20
   1   6 -15   81.59   19.40
  -1  -6  15   81.89   23.70
  -1  -6  15   62.89   21.80
  -1  -6  15   73.39    7.00
  -1  -6  15   98.59   10.60
  -1  -6  15   80.29   24.70
   0   6 -15   18.90   12.40
   0  -6  15    0.50   18.10
   0  -6  15    6.80   19.60
   0  -6  15    7.60   10.60
   3   5 -15   21.10   14.60
   3   5 -15   11.50   20.70
  -3  -5  15   74.79   21.40
  -3  -5  15   26.30    8.30
  -3  -5  15   72.69   27.80
   2   5 -15   50.49   15.70
   2   5 -15   64.69   22.90
  -2  -5  15    9.00   16.60
  -2  -5  15   57.59   21.90
   1   5 -15   15.10   11.90
  -1  -5  15  -13.70   17.30
  -1  -5  15  -16.10   18.20
   0   5 -15   68.29   21.10
   0   5 -15   59.39   15.30
   0  -5  15   47.70   13.70
   0  -5  15   56.59   23.60
   0  -5  15   26.80   19.30
   0  -5  15   57.19   22.70
   3   4 -15  216.38   23.70
  -3  -4  15  214.28   31.20
  -3  -4  15  227.88   35.60
  -3  -4  15  162.38   10.20
   2   4 -15   19.80   12.00
  -2  -4  15   50.49   18.10
  -2  -4  15    1.70   20.70
   1   4 -15   -2.40    9.40
  -1  -4  15  -21.90   18.10
  -1  -4  15  -12.10   18.10
   0   4 -15  372.26   36.30
   0  -4  15  241.08   34.80
   0  -4  15  293.17   26.60
   0  -4  15  320.67   37.60
   3   3 -15   23.20   11.70
   3   3 -15   32.80   22.30
  -3  -3  15    1.00   19.50
  -3  -3  15   24.40   21.10
   2   3 -15   16.90    7.90
   2   3 -15    2.00   20.60
   2   3 -15   24.30   10.90
  -2  -3  15   10.10   20.20
  -2  -3  15   23.90   19.00
   1   3 -15   42.00   10.70
  -1  -3  15   58.89   21.70
  -1  -3  15   27.50   16.30
  -1  -3  15   29.20   21.90
   0   3 -15  304.17   26.00
   0   3 -15  261.07   33.30
   0  -3  15  317.77   28.70
   0  -3  15  338.07   29.70
   0  -3  15  254.87   34.10
   3   2 -15  160.48   29.40
   3   2 -15  192.68   34.50
   3   2 -15  163.08   17.60
   3   2 -15  134.49   15.00
  -3  -2  15  126.69   33.50
  -3  -2  15  154.28   29.20
  -3  -2  15  228.48   31.50
   2   2 -15  140.49   23.50
   2   2 -15  229.78   36.00
  -2  -2  15  178.38   30.40
  -2  -2  15  205.28   29.30
   1   2 -15   22.20   15.80
   1   2 -15  -39.00   17.40
   1   2 -15   -6.50   10.80
  -1  -2  15    6.20   17.80
  -1  -2  15  -25.90   14.30
   0   2 -15   -2.60   16.70
   0   2 -15    8.90   13.50
   0  -2  15   44.90   16.50
   0  -2  15   -3.30   20.50
   0  -2  15   39.80   23.70
   0  -2  15   21.70   15.90
   2   1 -15  584.04   34.40
   2   1 -15  635.64   43.90
  -2  -1  15  715.63   53.99
  -2  -1  15  637.44   48.10
  -2  -1  15  587.84   50.49
   1   1 -15  173.48   26.60
   0   0   0    0.00    0.00

_computing_structure_solution     'SHELXT 2018/2 (Sheldrick, 2018)'
;
loop_
_space_group_symop_operation_xyz
'x, y, z'
'-x, -y, -z'
loop_
_atom_site_label
_atom_site_type_symbol
_atom_site_fract_x
_atom_site_fract_y
_atom_site_fract_z
_atom_site_U_iso_or_equiv
_atom_site_adp_type
_atom_site_occupancy
_atom_site_site_symmetry_order
_atom_site_calc_flag
_atom_site_refinement_flags_posn
_atom_site_refinement_flags_adp
_atom_site_refinement_flags_occupancy
_atom_site_disorder_assembly
_atom_site_disorder_group
C1 C 0.9540(6) 0.2526(5) 0.6136(4) 0.0204(10) Uani 1 1 d . . . . .
C2 C 0.8744(6) 0.2678(5) 0.5012(4) 0.0209(10) Uani 1 1 d . . . . .
C3 C 0.8110(6) 0.3904(5) 0.4862(4) 0.0257(11) Uani 1 1 d . . . . .
H3 H 0.816407 0.478628 0.550662 0.031 Uiso 1 1 calc R U . . .
C4 C 0.7357(6) 0.3856(6) 0.3719(4) 0.0279(11) Uani 1 1 d . . . . .
H4 H 0.687965 0.470450 0.359699 0.033 Uiso 1 1 calc R U . . .
C5 C 0.7322(6) 0.2592(6) 0.2800(4) 0.0269(11) Uani 1 1 d . . . . .
H5 H 0.682366 0.256349 0.203720 0.032 Uiso 1 1 calc R U . . .
C6 C 0.8028(6) 0.1314(5) 0.2977(4) 0.0208(10) Uani 1 1 d . . . . .
I1 I 0.62729(5) 0.31666(4) 0.96864(3) 0.02959(9) Uani 1 1 d . . . . .
I2 I 0.48900(4) 0.25468(3) 0.69938(2) 0.02325(8) Uani 1 1 d . . . . .
I3 I 0.36535(4) 0.18894(4) 0.46452(3) 0.03150(9) Uani 1 1 d . . . . .
I4 I 0.80776(5) -0.30113(4) 0.81772(3) 0.03111(9) Uani 1 1 d . . . . .
I5 I 0.72338(4) -0.00810(3) 0.89310(2) 0.02435(8) Uani 1 1 d . . . . .
N1 N 0.8668(5) 0.1409(4) 0.4078(3) 0.0189(8) Uani 1 1 d . . . . .
H1 H 0.905890 0.061554 0.420587 0.023 Uiso 1 1 calc R U . . .
N2 N 0.8079(5) 0.0076(4) 0.2119(3) 0.0277(9) Uani 1 1 d . . . . .
H2A H 0.853126 -0.068723 0.226765 0.033 Uiso 1 1 calc R U . . .
H2B H 0.765963 0.001213 0.139807 0.033 Uiso 1 1 calc R U . . .
O1 O 0.9811(5) 0.3782(3) 0.7009(3) 0.0275(8) Uani 1 1 d . . . . .
H1A H 1.020862 0.362390 0.762739 0.041 Uiso 1 1 calc R U . . .
O2 O 0.9927(4) 0.1336(3) 0.6218(2) 0.0223(7) Uani 1 1 d . . . . .
O1W O 0.0920(6) 0.3149(4) 0.8878(3) 0.0399(9) Uani 1 1 d G . . . .
H1WA H 0.199111 0.349720 0.930224 0.060 Uiso 1 1 d G U . . .
H1WB H 0.017030 0.342507 0.935769 0.060 Uiso 1 1 d G U . . .
loop_
_atom_site_aniso_label
_atom_site_aniso_U_11
_atom_site_aniso_U_22
_atom_site_aniso_U_33
_atom_site_aniso_U_23
_atom_site_aniso_U_13
_atom_site_aniso_U_12
C1 0.013(2) 0.020(3) 0.028(2) 0.007(2) 0.0043(18) 0.0020(19)
C2 0.016(2) 0.022(3) 0.025(2) 0.0083(19) 0.0039(18) 0.0022(19)
C3 0.018(2) 0.026(3) 0.035(3) 0.012(2) 0.007(2) 0.005(2)
C4 0.023(3) 0.028(3) 0.041(3) 0.023(2) 0.005(2) 0.004(2)
C5 0.020(2) 0.036(3) 0.031(3) 0.021(2) 0.004(2) 0.003(2)
C6 0.019(2) 0.022(3) 0.023(2) 0.012(2) 0.0013(18) 0.0014(19)
I1 0.0393(2) 0.02434(18) 0.02273(16) 0.00603(13) 0.00170(14) 0.00847(15)
I2 0.02119(16) 0.02342(17) 0.02688(16) 0.01077(13) 0.00425(12) 0.00362(13)
I3 0.02185(17) 0.0479(2) 0.02499(16) 0.01357(15) 0.00348(13) -0.00068(15)
I4 0.0406(2) 0.02846(19) 0.02514(16) 0.00885(13) 0.00666(14) 0.01365(15)
I5 0.02464(17) 0.02854(18) 0.02015(15) 0.00882(13) 0.00291(12) 0.00582(13)
N1 0.018(2) 0.019(2) 0.0242(19) 0.0141(16) 0.0023(15) 0.0029(16)
N2 0.035(2) 0.032(2) 0.020(2) 0.0135(18) 0.0051(17) 0.0071(19)
O1 0.033(2) 0.0203(18) 0.0235(17) 0.0025(14) -0.0020(15) 0.0041(15)
O2 0.0276(18) 0.0180(17) 0.0224(16) 0.0075(13) 0.0052(13) 0.0057(14)
O1W 0.045(2) 0.047(2) 0.0237(18) 0.0086(17) 0.0046(16) -0.003(2)
loop_
_atom_type_symbol
_atom_type_description
_atom_type_scat_dispersion_real
_atom_type_scat_dispersion_imag
_atom_type_scat_source
C C 0.0033 0.0016 'International Tables Vol C Tables 4.2.6.8 and 6.1.1.4'
H H 0.0000 0.0000 'International Tables Vol C Tables 4.2.6.8 and 6.1.1.4'
I I -0.4742 1.8119 'International Tables Vol C Tables 4.2.6.8 and 6.1.1.4'
O O 0.0106 0.0060 'International Tables Vol C Tables 4.2.6.8 and 6.1.1.4'
N N 0.0061 0.0033 'International Tables Vol C Tables 4.2.6.8 and 6.1.1.4'
loop_
_geom_angle_atom_site_label_1
_geom_angle_atom_site_label_2
_geom_angle_atom_site_label_3
_geom_angle
_geom_angle_site_symmetry_1
_geom_angle_site_symmetry_3
O1 C1 C2 113.6(4) . .
O2 C1 C2 122.1(4) . .
O2 C1 O1 124.3(4) . .
C3 C2 C1 125.9(4) . .
C3 C2 N1 120.4(4) . .
N1 C2 C1 113.7(4) . .
C2 C3 H3 120.6 . .
C2 C3 C4 118.7(4) . .
C4 C3 H3 120.6 . .
C3 C4 H4 120.0 . .
C5 C4 C3 120.0(4) . .
C5 C4 H4 120.0 . .
C4 C5 H5 119.9 . .
C4 C5 C6 120.3(4) . .
C6 C5 H5 119.9 . .
N1 C6 C5 117.1(4) . .
N2 C6 C5 123.0(4) . .
N2 C6 N1 119.9(4) . .
I4 I5 I1 178.189(13) . .
C2 N1 H1 118.3 . .
C6 N1 C2 123.4(4) . .
C6 N1 H1 118.3 . .
C6 N2 H2A 120.0 . .
C6 N2 H2B 120.0 . .
H2A N2 H2B 120.0 . .
C1 O1 H1A 109.5 . .
H1WA O1W H1WB 104.5 . .
loop_
_geom_bond_atom_site_label_1
_geom_bond_atom_site_label_2
_geom_bond_distance
_geom_bond_site_symmetry_2
C1 C2 1.481(6) .
C1 O1 1.313(5) .
C1 O2 1.222(5) .
C2 C3 1.344(6) .
C2 N1 1.371(6) .
C3 H3 0.9500 .
C3 C4 1.424(6) .
C4 H4 0.9500 .
C4 C5 1.362(7) .
C5 H5 0.9500 .
C5 C6 1.424(6) .
C6 N1 1.344(5) .
C6 N2 1.317(6) .
I1 I5 3.1006(5) .
I2 I3 2.7604(4) .
I4 I5 2.7943(5) .
N1 H1 0.8800 .
N2 H2A 0.8800 .
N2 H2B 0.8800 .
O1 H1A 0.8400 .
O1W H1WA 0.8702 .
O1W H1WB 0.8699 .
loop_
_geom_torsion_atom_site_label_1
_geom_torsion_atom_site_label_2
_geom_torsion_atom_site_label_3
_geom_torsion_atom_site_label_4
_geom_torsion
_geom_torsion_site_symmetry_1
_geom_torsion_site_symmetry_2
_geom_torsion_site_symmetry_3
_geom_torsion_site_symmetry_4
C1 C2 C3 C4 -179.0(4) . . . .
C1 C2 N1 C6 -178.7(4) . . . .
C2 C3 C4 C5 -1.3(7) . . . .
C3 C2 N1 C6 2.1(7) . . . .
C3 C4 C5 C6 0.3(7) . . . .
C4 C5 C6 N1 1.8(7) . . . .
C4 C5 C6 N2 -178.0(5) . . . .
C5 C6 N1 C2 -3.0(7) . . . .
N1 C2 C3 C4 0.2(7) . . . .
N2 C6 N1 C2 176.7(4) . . . .
O1 C1 C2 C3 -8.5(7) . . . .
O1 C1 C2 N1 172.4(4) . . . .
O2 C1 C2 C3 172.8(5) . . . .
O2 C1 C2 N1 -6.4(6) . . . .
