#------------------------------------------------------------------------------
#$Date: 2022-03-03 11:55:10 +0200 (Thu, 03 Mar 2022) $
#$Revision: 273223 $
#$URL: file:///home/coder/svn-repositories/cod/cif/8/10/46/8104614.cif $
#------------------------------------------------------------------------------
#
# This file is available in the Crystallography Open Database (COD),
# http://www.crystallography.net/
#
# All data on this site have been placed in the public domain by the
# contributors.
#
data_8104614
loop_
_publ_author_name
'Yang, Shuai'
'Dong, Jin-Ling'
'Chen, Jin-Ming'
_publ_section_title
;
 Crystal structure of diethyl
 6,12-dimethyl-3,9-di-p-tolyl-3,9-diazapentacyclo[6.4.0.02,7.04,11.05,10]dodecane-1,5-dicarboxylate,
 C32H38N2O4
;
_journal_issue                   6
_journal_name_full
'Zeitschrift f\"ur Kristallographie - New Crystal Structures'
_journal_page_first              1381
_journal_page_last               1382
_journal_paper_doi               10.1515/ncrs-2021-0358
_journal_volume                  236
_journal_year                    2021
_chemical_formula_sum            'C32 H38 Cl0 N2 O4'
_chemical_formula_weight         514.64
_space_group_crystal_system      triclinic
_space_group_IT_number           2
_space_group_name_Hall           '-P 1'
_space_group_name_H-M_alt        'P -1'
_atom_sites_solution_hydrogens   geom
_cell_angle_alpha                88.009(11)
_cell_angle_beta                 73.45(3)
_cell_angle_gamma                81.793(9)
_cell_formula_units_Z            1
_cell_length_a                   6.983(5)
_cell_length_b                   8.472(6)
_cell_length_c                   12.113(7)
_cell_measurement_reflns_used    1705
_cell_measurement_temperature    296(2)
_cell_measurement_theta_max      27.59
_cell_measurement_theta_min      2.43
_cell_volume                     679.9(8)
_computing_structure_refinement  'SHELXL-2016/6 (Sheldrick, 2016)'
_computing_structure_solution    'SHELXT 2014/5 (Sheldrick, 2014)'
_diffrn_ambient_temperature      296(2)
_diffrn_measured_fraction_theta_full 0.985
_diffrn_measured_fraction_theta_max 0.966
_diffrn_measurement_device_type  'Bruker APEX-II CCD'
_diffrn_measurement_method       '\f and \w scans'
_diffrn_radiation_type           MoK\a
_diffrn_radiation_wavelength     0.71073
_diffrn_reflns_av_R_equivalents  0.0264
_diffrn_reflns_av_unetI/netI     0.0466
_diffrn_reflns_Laue_measured_fraction_full 0.985
_diffrn_reflns_Laue_measured_fraction_max 0.966
_diffrn_reflns_limit_h_max       9
_diffrn_reflns_limit_h_min       -8
_diffrn_reflns_limit_k_max       11
_diffrn_reflns_limit_k_min       -5
_diffrn_reflns_limit_l_max       15
_diffrn_reflns_limit_l_min       -15
_diffrn_reflns_number            4252
_diffrn_reflns_point_group_measured_fraction_full 0.985
_diffrn_reflns_point_group_measured_fraction_max 0.966
_diffrn_reflns_theta_full        25.242
_diffrn_reflns_theta_max         27.630
_diffrn_reflns_theta_min         1.754
_exptl_absorpt_coefficient_mu    0.083
_exptl_crystal_colour            red
_exptl_crystal_density_diffrn    1.257
_exptl_crystal_description       block
_exptl_crystal_F_000             276
_exptl_crystal_size_max          0.180
_exptl_crystal_size_mid          0.160
_exptl_crystal_size_min          0.150
_refine_diff_density_max         0.312
_refine_diff_density_min         -0.271
_refine_diff_density_rms         0.062
_refine_ls_extinction_coef       .
_refine_ls_extinction_method     none
_refine_ls_goodness_of_fit_ref   1.083
_refine_ls_hydrogen_treatment    constr
_refine_ls_matrix_type           full
_refine_ls_number_parameters     175
_refine_ls_number_reflns         3054
_refine_ls_number_restraints     0
_refine_ls_restrained_S_all      1.083
_refine_ls_R_factor_all          0.0676
_refine_ls_R_factor_gt           0.0566
_refine_ls_shift/su_max          0.000
_refine_ls_shift/su_mean         0.000
_refine_ls_structure_factor_coef Fsqd
_refine_ls_weighting_details
'w=1/[\s^2^(Fo^2^)+(0.1200P)^2^] where P=(Fo^2^+2Fc^2^)/3'
_refine_ls_weighting_scheme      calc
_refine_ls_wR_factor_gt          0.1737
_refine_ls_wR_factor_ref         0.1875
_reflns_Friedel_coverage         0.000
_reflns_Friedel_fraction_full    .
_reflns_Friedel_fraction_max     .
_reflns_number_gt                2416
_reflns_number_total             3054
_reflns_threshold_expression     'I > 2\s(I)'
_cod_data_source_file            suppl_j_ncrs-2021-0358_suppl.cif
_cod_data_source_block           zixi_0m
_cod_database_code               8104614
_shelx_space_group_comment
;
The symmetry employed for this shelxl refinement is uniquely defined
by the following loop, which should always be used as a source of
symmetry information in preference to the above space-group names.
They are only intended as comments.
;
_shelx_estimated_absorpt_t_min   0.985
_shelx_estimated_absorpt_t_max   0.988
_shelx_res_file
;
TITL ZIXI_0m_a.res in P-1             New: P-1
    zixi_0m.res
    created by SHELXL-2016/6 at 17:47:48 on 31-Jul-2021
CELL  0.71073    6.9830    8.4720   12.1130    88.009    73.450    81.793
ZERR        1    0.0050    0.0060    0.0070     0.011     0.030     0.009
LATT   1
SFAC  C  H Cl  N  O
UNIT    32   38  0   2   4
LIST 4 ! automatically inserted. Change 6 to 4 for CHECKCIF!!
TEMP    23
L.S. 50
FMAP 2
PLAN -20
ACTA
size 0.18 0.16 0.15
BOND $H
CONF
REM RESI 0
WGHT    0.120000
FVAR       1.15737
O1    5    0.023120    0.285256    0.462725    11.00000    0.02669    0.06079 =
         0.06383    0.02144   -0.01015   -0.00662
O2    5    0.293136    0.352142    0.330275    11.00000    0.03195    0.05084 =
         0.04243    0.02241   -0.01045   -0.00229
N1    4    0.305033    0.000938    0.647886    11.00000    0.02585    0.04286 =
         0.03039    0.01320   -0.01107   -0.01224
C1    1    0.294030    0.539476    0.180964    11.00000    0.08395    0.07772 =
         0.05524    0.03475   -0.02618   -0.00947
AFIX 137
H1A   2    0.213974    0.622278    0.151057    11.00000   -1.50000
H1B   2    0.354800    0.458629    0.123087    11.00000   -1.50000
H1C   2    0.397681    0.583680    0.202300    11.00000   -1.50000
AFIX   0
C2    1    0.163016    0.467793    0.284153    11.00000    0.04967    0.05314 =
         0.04764    0.01736   -0.02243    0.00151
AFIX  23
H2A   2    0.093260    0.549674    0.341189    11.00000   -1.20000
H2B   2    0.063264    0.416255    0.262729    11.00000   -1.20000
AFIX   0
C3    1    0.201575    0.267579    0.420667    11.00000    0.03044    0.03685 =
         0.03518    0.00780   -0.01335   -0.00896
C4    1    0.352237    0.152200    0.460351    11.00000    0.02602    0.03531 =
         0.03239    0.01047   -0.01233   -0.00985
C5    1    0.479883    0.020592    0.368683    11.00000    0.02619    0.03815 =
         0.03051    0.00942   -0.01337   -0.01092
AFIX  13
H5    2    0.445168    0.032310    0.295651    11.00000   -1.20000
AFIX   0
C6    1    0.372698   -0.109063    0.446993    11.00000    0.02819    0.03627 =
         0.03426    0.00847   -0.01511   -0.01449
AFIX  13
H6    2    0.282916   -0.155574    0.412076    11.00000   -1.20000
AFIX   0
C7    1    0.254472    0.018832    0.539124    11.00000    0.02363    0.03797 =
         0.03229    0.01154   -0.01236   -0.01150
AFIX  13
H7    2    0.108634    0.029251    0.550152    11.00000   -1.20000
AFIX   0
C8    1    0.489241    0.237046    0.510301    11.00000    0.03136    0.03424 =
         0.03662    0.00983   -0.01466   -0.01338
AFIX  13
H8    2    0.574127    0.293154    0.447073    11.00000   -1.20000
AFIX   0
C9    1    0.372861    0.359963    0.602307    11.00000    0.04767    0.04073 =
         0.04800    0.00223   -0.01832   -0.01052
AFIX 137
H9A   2    0.465995    0.411599    0.628355    11.00000   -1.50000
H9B   2    0.289547    0.307984    0.666011    11.00000   -1.50000
H9C   2    0.289531    0.437944    0.570672    11.00000   -1.50000
AFIX   0
C10   1    0.173683   -0.064638    0.743032    11.00000    0.02985    0.03825 =
         0.02788    0.00560   -0.00723   -0.01117
C11   1    0.241391   -0.181484    0.811682    11.00000    0.03873    0.05242 =
         0.03962    0.01474   -0.00815   -0.00462
AFIX  43
H11   2    0.377096   -0.224097    0.792268    11.00000   -1.20000
AFIX   0
C12   1    0.107488   -0.235119    0.909254    11.00000    0.05773    0.05937 =
         0.03805    0.02035   -0.01007   -0.01243
AFIX  43
H12   2    0.157013   -0.312215    0.954479    11.00000   -1.20000
AFIX   0
C13   1   -0.094712   -0.178875    0.941472    11.00000    0.05152    0.06316 =
         0.03271    0.00496   -0.00199   -0.02468
C14   1   -0.162351   -0.065337    0.871700    11.00000    0.03413    0.07616 =
         0.04327    0.00230   -0.00195   -0.01179
AFIX  43
H14   2   -0.299115   -0.026280    0.890073    11.00000   -1.20000
AFIX   0
C15   1   -0.031281   -0.007907    0.774699    11.00000    0.03382    0.05554 =
         0.03996    0.00938   -0.00861   -0.00516
AFIX  43
H15   2   -0.081587    0.069837    0.730201    11.00000   -1.20000
AFIX   0
C16   1   -0.236795   -0.235929    1.050373    11.00000    0.07874    0.09291 =
         0.04364    0.00894    0.00818   -0.03649
AFIX 137
H16A  2   -0.372670   -0.215889    1.045017    11.00000   -1.50000
H16B  2   -0.227379   -0.179727    1.115682    11.00000   -1.50000
H16C  2   -0.200175   -0.348247    1.059279    11.00000   -1.50000
AFIX   0
HKLF 4 1  0.0000  0.0000 -0.5000 -1.0000  0.0000  0.0000  0.0000  1.0000 -0.5000




REM  ZIXI_0m_a.res in P-1             New: P-1
REM R1 =  0.0566 for    2416 Fo > 4sig(Fo)  and  0.0676 for all    3054 data
REM    175 parameters refined using      0 restraints

END

WGHT      0.1141      0.0176

REM Highest difference peak  0.312,  deepest hole -0.271,  1-sigma level  0.062
Q1    1   0.4297  0.1938  0.4846  11.00000  0.05    0.31
Q2    1  -0.3241 -0.1181  1.1045  11.00000  0.05    0.26
Q3    1   0.5656  0.1749  0.5235  11.00000  0.05    0.22
Q4    1   0.2845  0.2078  0.4475  11.00000  0.05    0.21
Q5    1  -0.1496 -0.2832  1.1233  11.00000  0.05    0.18
Q6    1  -0.2568  0.0643  0.9936  11.00000  0.05    0.17
Q7    1   0.3147 -0.0369  0.9022  11.00000  0.05    0.17
Q8    1  -0.1208 -0.2402  1.1643  11.00000  0.05    0.17
Q9    1  -0.0501  0.1408  0.7413  11.00000  0.05    0.16
Q10   1  -0.1180 -0.0445  1.0375  11.00000  0.05    0.16
Q11   1  -0.0364 -0.1532  1.0992  11.00000  0.05    0.16
Q12   1  -0.2897 -0.3139  1.0234  11.00000  0.05    0.16
Q13   1   0.3085  0.1008  0.5040  11.00000  0.05    0.16
Q14   1  -0.5512 -0.0572  1.1795  11.00000  0.05    0.15
Q15   1   0.5378  0.2838  0.4275  11.00000  0.05    0.15
Q16   1  -0.1231 -0.0960  0.9227  11.00000  0.05    0.15
Q17   1   0.5673  0.0628  0.5859  11.00000  0.05    0.15
Q18   1  -0.4057 -0.0421  1.0841  11.00000  0.05    0.15
Q19   1   0.0940  0.3424  0.4713  11.00000  0.05    0.15
Q20   1   0.4122  0.1013  0.4061  11.00000  0.05    0.15
;
_shelx_res_checksum              48318
_shelx_hkl_file
;
  -1   0   0 3085.09  116.29
  -1   0   0 3131.89  116.59
  -2   0   0   16.60    1.00
  -2   0   0   15.30    0.90
  -3   0   0  641.24   25.00
  -3   0   0  686.03   25.30
  -4   0   0  938.11   36.00
  -4   0   0  969.90   36.40
  -5   0   0  141.29    6.30
  -5   0   0  127.99    5.70
  -6   0   0   63.99    3.90
  -6   0   0   68.49    3.40
  -7   0   0    7.80    1.10
  -7   0   0    6.90    1.50
  -8   0   0   51.39    4.00
  -9   0   0    2.80    1.40
 -10   0   0    6.50    2.00
 -10   1   0    9.20    2.30
  -9   1   0    7.80    1.90
  -8   1   0  113.59    5.40
  -8   1   0   99.79    6.00
  -7   1   0  212.88    8.80
  -7   1   0  192.68    9.30
  -6   1   0  109.29    5.50
  -6   1   0  110.89    5.10
  -5   1   0    0.50    0.30
  -5   1   0    0.40    0.50
  -4   1   0  150.68    6.50
  -4   1   0  161.78    6.60
  -3   1   0 1387.36   52.99
  -3   1   0 1441.86   52.99
  -2   1   0  290.97   11.10
  -1   1   0 1661.73   62.99
   0  -1   0 3326.07  115.29
   0  -1   0 2819.02  121.59
  -1  -1   0  466.75   18.70
  -1  -1   0  512.75   18.30
  -2  -1   0   82.29    3.30
  -2  -1   0   81.79    3.70
  -3  -1   0 1222.68   46.10
  -3  -1   0 1214.38   45.60
  -4  -1   0   31.60    2.20
  -4  -1   0   32.10    1.70
  -5  -1   0  118.59    6.10
  -5  -1   0  130.99    5.40
  -6  -1   0    3.90    1.10
  -6  -1   0    4.20    0.70
  -7  -1   0    8.10    1.10
  -7  -1   0    8.40    1.70
  -8  -1   0   52.99    4.10
  -9  -1   0    0.50    1.00
 -10  -1   0    3.00    1.50
  -9   2   0    7.60    1.70
  -9   2   0    5.50    1.70
  -8   2   0   62.69    3.60
  -8   2   0   59.49    4.10
  -7   2   0   41.80    2.60
  -7   2   0   40.20    2.90
  -6   2   0  183.08    7.90
  -6   2   0  182.78    8.10
  -5   2   0    0.50    0.40
  -5   2   0    0.00    0.30
  -4   2   0  102.29    4.60
  -3   2   0  323.07   11.70
  -3   2   0  272.57   11.50
  -2   2   0 8141.39  296.97
  -2   2   0 7782.12  298.07
   1  -2   0  175.18    6.90
  -1   2   0  178.88    6.90
   0  -2   0  663.53   23.60
   0  -2   0  668.73   23.70
   0   2   0  562.94   23.60
  -1  -2   0  288.07   11.30
  -2  -2   0 1081.59   43.50
  -2  -2   0 1217.68   42.90
  -3  -2   0    2.70    0.70
  -3  -2   0    2.80    0.40
  -4  -2   0   -0.60    0.50
  -4  -2   0   -0.10    0.20
  -5  -2   0   42.70    3.10
  -5  -2   0   50.69    2.40
  -6  -2   0   -0.10    0.50
  -6  -2   0    0.90    0.40
  -7  -2   0   18.60    2.60
  -8  -2   0    9.50    2.00
  -9  -2   0   11.10    2.30
 -10  -2   0    2.90    1.70
  -9   3   0    4.80    1.10
  -8   3   0   24.70    2.10
  -7   3   0    6.80    1.20
  -5   3   0   24.70    1.60
  -5   3   0   25.70    1.80
  -4   3   0   12.20    1.10
  -4   3   0   13.30    1.00
  -3   3   0 2285.47   85.79
  -3   3   0 2277.37   85.89
   2  -3   0  115.09    4.90
  -2   3   0  118.69    5.00
   1  -3   0  523.25   20.10
  -1   3   0  534.25   20.10
   0  -3   0  332.57   12.80
   0  -3   0  330.37   12.80
   0   3   0  343.67   12.80
  -1  -3   0   31.30    1.80
  -1  -3   0   30.60    1.60
   1   3   0   34.20    1.50
  -2  -3   0  276.77   12.10
   2   3   0  315.67   11.30
  -3  -3   0    1.10    0.60
  -3  -3   0    1.80    0.30
  -4  -3   0   58.69    3.70
  -4  -3   0   65.69    2.80
  -5  -3   0   70.19    4.50
  -5  -3   0   86.39    3.60
  -6  -3   0    6.90    1.50
  -7  -3   0   33.20    3.20
  -8  -3   0   71.89    5.10
  -9  -3   0    3.20    1.40
 -10  -3   0   -0.20    1.30
 -10   4   0    9.10    1.80
  -9   4   0   13.00    1.90
  -8   4   0   19.60    1.90
  -7   4   0    1.90    0.70
  -6   4   0   81.89    4.40
  -6   4   0   90.99    4.30
  -5   4   0   17.40    1.30
  -5   4   0   14.60    1.40
  -4   4   0   27.60    1.90
  -4   4   0   28.20    1.60
  -3   4   0 1802.92   67.09
  -3   4   0 1795.02   67.59
   2  -4   0    1.00    0.30
  -2   4   0    1.30    0.40
   1  -4   0   49.80    2.20
   1  -4   0   48.40    2.40
  -1   4   0   49.50    2.40
   0  -4   0   -0.10    0.10
   0  -4   0   -0.20    0.10
   0   4   0   -0.20    0.10
  -1  -4   0    6.00    0.60
  -1  -4   0    5.90    0.70
   1   4   0    6.70    0.50
  -2  -4   0  451.95   17.20
  -2  -4   0  444.56   17.70
   2   4   0  447.26   16.90
  -3  -4   0  203.68    9.50
   3   4   0  223.88    8.30
  -4  -4   0   11.30    1.80
  -4  -4   0   14.50    0.90
  -5  -4   0   61.39    4.10
  -6  -4   0    0.50    0.70
  -7  -4   0   16.50    2.60
  -8  -4   0  165.88    9.00
  -9  -4   0    5.90    1.90
 -10  -4   0    3.70    1.80
 -10   5   0   30.20    2.80
  -9   5   0    0.40    0.60
  -8   5   0    3.80    1.00
  -7   5   0    1.00    0.70
  -6   5   0  128.59    6.20
  -5   5   0   12.50    1.00
  -5   5   0   10.00    1.40
  -4   5   0   11.90    0.90
  -4   5   0   11.80    1.20
   3  -5   0  124.19    5.50
  -3   5   0  125.79    5.70
   2  -5   0   91.09    4.20
  -2   5   0   91.89    4.20
   1  -5   0   68.19    3.20
   1  -5   0   68.09    3.00
  -1   5   0   65.79    3.20
   0  -5   0   80.39    3.60
   0  -5   0   84.99    3.80
   0   5   0   83.19    3.60
  -1  -5   0   53.09    2.70
  -1  -5   0   57.49    2.90
   1   5   0   60.39    2.60
  -2  -5   0   43.00    2.10
  -2  -5   0   35.50    2.50
   2   5   0   39.40    1.80
  -3  -5   0   52.59    3.30
  -3  -5   0   50.69    2.60
   3   5   0   49.10    2.20
  -4  -5   0  112.09    6.10
   4   5   0  120.59    4.90
  -5  -5   0   63.59    4.20
  -6  -5   0   26.10    2.70
  -7  -5   0   61.89    4.70
  -8  -5   0   16.10    2.70
  -9  -5   0   13.10    2.60
 -10  -5   0   10.40    2.50
 -10   6   0    6.20    1.50
  -9   6   0    7.70    1.60
  -8   6   0    1.60    0.80
  -7   6   0    0.30    0.60
  -6   6   0    1.70    0.70
  -5   6   0   43.10    2.80
  -4   6   0    4.00    0.90
   3  -6   0    3.50    0.70
  -3   6   0    3.90    0.80
   2  -6   0   80.69    4.00
  -2   6   0   89.19    4.10
   1  -6   0   14.10    1.20
   1  -6   0   15.60    1.10
  -1   6   0   15.10    1.20
   0  -6   0    7.50    0.90
   0  -6   0    7.80    0.80
   0   6   0    9.40    0.80
  -1  -6   0  479.85   19.10
   1   6   0  507.65   18.90
  -2  -6   0  492.95   19.30
  -2  -6   0  493.55   18.90
   2   6   0  474.15   18.50
  -3  -6   0   54.19    2.90
  -3  -6   0   61.79    3.60
   3   6   0   54.89    2.50
  -4  -6   0    5.00    0.80
  -4  -6   0    5.70    1.30
  -5  -6   0    1.90    1.00
  -6  -6   0  316.17   14.40
  -7  -6   0    3.10    1.40
  -8  -6   0    7.60    2.00
  -9  -6   0    7.10    2.00
 -10  -6   0   29.60    4.00
  -9   7   0    6.10    1.40
  -8   7   0    9.00    1.60
  -7   7   0   11.00    1.70
  -6   7   0   24.40    2.20
  -5   7   0   15.60    1.60
  -4   7   0   13.00    1.60
   3  -7   0    0.40    0.40
  -3   7   0    0.80    0.50
   2  -7   0  172.78    7.60
  -2   7   0  178.38    7.70
   1  -7   0  280.47   11.10
   1  -7   0  281.37   11.40
  -1   7   0  275.37   11.30
   0  -7   0  139.89    6.10
   0  -7   0  138.99    6.20
   0   7   0  144.69    6.10
  -1  -7   0   15.50    1.30
  -1  -7   0   17.30    1.40
   1   7   0   17.80    1.20
  -2  -7   0   55.79    2.90
  -2  -7   0   53.99    3.10
   2   7   0   55.79    2.60
  -3  -7   0  218.78    9.70
  -3  -7   0  217.68    9.20
  -4  -7   0  204.08    8.90
  -4  -7   0  219.58    9.90
  -5  -7   0 1906.61   72.49
  -5  -7   0 1940.51   73.89
  -6  -7   0   91.19    5.80
  -7  -7   0    3.90    1.50
  -8  -7   0    0.40    1.20
  -9  -7   0   47.10    4.50
  -9   8   0    2.00    1.00
  -8   8   0    0.10    0.60
  -7   8   0    3.90    1.10
  -6   8   0    1.00    0.70
  -5   8   0   20.50    2.00
  -4   8   0   13.10    1.70
   3  -8   0   61.99    3.50
  -3   8   0   62.59    3.60
   2  -8   0   80.49    4.10
  -2   8   0   81.59    4.20
   1  -8   0  387.86   15.00
   1  -8   0  367.26   15.20
  -1   8   0  381.96   15.20
   0  -8   0   97.99    4.60
   0  -8   0   95.09    4.60
   0   8   0   98.69    4.50
  -1  -8   0    0.70    0.50
  -1  -8   0    1.10    0.50
   1   8   0    0.90    0.40
  -2  -8   0  522.95   20.90
   2   8   0  539.65   20.40
  -3  -8   0  394.96   16.00
  -3  -8   0  371.56   15.40
  -4  -8   0   21.90    1.90
  -4  -8   0   20.30    2.20
  -5  -8   0  132.99    6.30
  -5  -8   0  138.19    7.30
  -6  -8   0   49.70    4.00
  -7  -8   0    6.80    1.80
  -8  -8   0    0.20    0.90
  -9  -8   0    0.60    1.40
  -8   9   0    0.90    0.80
  -7   9   0    2.50    1.10
  -6   9   0    3.80    1.20
  -5   9   0    0.00    0.60
  -4   9   0   43.60    3.00
   3  -9   0    1.90    0.70
  -3   9   0    0.40    0.60
   2  -9   0   15.00    1.70
  -2   9   0   14.20    1.50
   1  -9   0  145.69    6.80
  -1   9   0  150.68    6.80
   0  -9   0   14.00    1.40
   0  -9   0   11.10    1.40
   0   9   0   13.10    1.30
  -1  -9   0   31.70    2.20
  -1  -9   0   34.40    2.30
   1   9   0   29.00    1.90
  -2  -9   0   20.80    1.80
  -2  -9   0   20.90    1.90
  -3  -9   0  647.54   25.40
  -4  -9   0   15.30    1.80
  -4  -9   0   12.40    2.00
  -5  -9   0   10.30    1.50
  -5  -9   0    9.90    1.90
  -6  -9   0    1.10    1.00
  -7  -9   0   98.79    6.30
  -8  -9   0   56.09    4.60
  -8  10   0    1.30    0.90
  -7  10   0    0.40    0.80
  -6  10   0   12.00    2.00
  -5  10   0    2.30    0.90
  -4  10   0   12.10    1.80
   3 -10   0   13.90    1.80
  -3  10   0   13.60    1.90
   2 -10   0    0.80    0.60
  -2  10   0    1.00    0.60
   1 -10   0  168.28    7.80
  -1  10   0  168.38    7.60
   0 -10   0  126.39    6.10
   0  10   0  126.19    5.90
  -1 -10   0  223.88    9.70
  -1 -10   0  219.08    9.70
   1  10   0  226.08    9.40
  -2 -10   0  234.08   10.20
  -3 -10   0   29.40    2.50
  -3 -10   0   26.60    2.20
  -4 -10   0   30.10    2.30
  -5 -10   0    4.20    1.10
  -5 -10   0    3.70    1.30
  -6 -10   0    9.10    2.10
  -7 -10   0   72.39    5.30
  -8 -10   0   16.20    2.90
  -7  11   0    5.80    1.50
  -6  11   0   27.90    2.80
  -5  11   0    0.90    0.90
  -4  11   0    6.40    1.30
   3 -11   0   10.70    1.70
  -3  11   0    8.60    1.50
   2 -11   0   23.90    2.10
  -2  11   0   20.50    2.00
   1 -11   0   74.69    4.30
  -1  11   0   75.19    4.20
   0 -11   0   41.60    2.90
   0  11   0   43.50    2.80
  -1 -11   0    4.80    1.10
  -2 -11   0  130.99    6.60
  -2 -11   0  134.89    6.60
  -3 -11   0    6.40    1.50
  -3 -11   0    6.00    1.20
  -4 -11   0    1.70    0.80
  -4 -11   0    2.30    1.10
  -5 -11   0   -0.20    0.80
  -6 -11   0    1.20    1.10
  -7 -11   0   66.69    5.30
  -6  12   0   31.00    3.00
  -5  12   0   10.70    2.00
  -4  12   0    1.30    0.80
   3 -12   0   12.90    1.90
  -3  12   0   11.00    1.80
   2 -12   0   11.00    1.70
  -2  12   0   11.70    1.80
   1 -12   0   71.99    4.30
  -1  12   0   72.89    4.20
   0 -12   0   14.80    2.00
  -1 -12   0   17.20    2.10
  -2 -12   0   52.19    3.50
  -3 -12   0    4.50    1.20
  -4 -12   0    2.40    1.10
  -4 -12   0    0.50    1.00
  -5 -12   0    4.70    1.60
  -6 -12   0    0.00    0.50
  -5  13   0    1.50    1.00
  -4  13   0   12.80    2.10
   3 -13   0    2.10    1.10
  -3  13   0    3.70    1.20
   2 -13   0    0.80    0.80
  -2  13   0    0.90    0.80
   1 -13   0   -0.20    0.60
   0 -13   0    2.90    1.10
  -1 -13   0    9.30    1.60
  -2 -13   0    5.90    1.30
  -3 -13   0    0.90    0.80
  -5 -13   0    4.10    1.50
  -4  14   0   22.00    2.80
   3 -14   0   13.80    2.20
  -3  14   0   11.50    2.00
   2 -14   0    8.80    1.70
  -2  14   0   12.80    2.00
   1 -14   0    4.40    1.30
   0 -14   0    6.30    1.50
  -1 -14   0    0.00    0.80
  -2 -14   0    0.10    0.90
   1 -15   0    0.40    0.90
   0 -15   0    8.30    1.80
  -1 -15   0   -0.40    0.90
  -1 -14   1   -0.10    0.90
   0 -14   1   -0.20    0.70
   1 -14   1   -0.50    0.70
  -2  14  -1   -0.60    0.70
   2 -14   1   -0.10    0.80
  -3  14  -1    1.00    0.90
   3 -14   1   -0.50    0.70
  -5 -13   1    1.70    1.30
  -2 -13   1    0.20    0.80
  -1 -13   1    0.20    0.80
   0 -13   1    0.10    0.70
  -1  13  -1   -1.00    0.60
   1 -13   1   -0.30    0.60
  -2  13  -1    0.30    0.80
   2 -13   1    0.10    0.60
  -3  13  -1    0.20    0.70
   3 -13   1   -0.10    0.60
  -4  13  -1   -0.30    0.80
  -5  13  -1    0.30    0.90
  -6 -12   1    0.40    1.10
  -5 -12   1    0.60    0.90
  -4 -12   1    0.20    0.80
  -3 -12   1    0.70    0.70
  -3 -12   1    0.20    0.70
  -2 -12   1   -0.30    0.50
  -1 -12   1   -0.20    0.60
   0 -12   1   -0.20    0.60
  -1  12  -1   -1.10    0.50
   1 -12   1   -0.80    0.40
  -2  12  -1   -0.50    0.50
   2 -12   1   -0.20    0.60
  -3  12  -1   -0.70    0.50
   3 -12   1    0.20    0.70
  -4  12  -1   -0.70    0.70
  -5  12  -1   -0.20    0.60
  -6  12  -1    0.60    1.00
  -7 -11   1    0.70    1.30
  -6 -11   1   -0.10    0.80
  -5 -11   1   -0.60    0.90
  -4 -11   1    0.00    0.70
  -3 -11   1    0.10    0.70
  -3 -11   1    0.10    0.50
  -2 -11   1    0.60    0.70
  -2 -11   1   -0.50    0.50
  -1 -11   1   -0.80    0.50
   0  11  -1    0.40    0.60
   0 -11   1   -0.20    0.60
  -1  11  -1    0.30    0.60
   1 -11   1    0.10    0.70
  -2  11  -1   -0.70    0.50
   2 -11   1   -0.20    0.50
  -3  11  -1   -0.20    0.60
   3 -11   1   -0.80    0.50
  -4  11  -1    0.40    0.80
  -5  11  -1    0.80    0.90
  -6  11  -1   -0.20    0.80
  -7  11  -1   -0.70    0.80
  -7 -10   1    0.90    1.30
  -6 -10   1    0.00    1.00
  -5 -10   1   -0.40    0.70
  -4 -10   1    0.00    0.50
  -4 -10   1   -0.40    0.70
  -3 -10   1    0.00    0.50
  -3 -10   1    0.40    0.70
  -2 -10   1    0.10    0.60
  -2 -10   1    0.20    0.70
   1  10  -1    0.10    0.50
  -1 -10   1    0.10    0.60
  -1 -10   1    0.00    0.60
   0  10  -1    0.00    0.50
   0 -10   1   -0.90    0.40
  -1  10  -1   -0.30    0.50
   1 -10   1    0.10    0.50
  -2  10  -1    0.30    0.60
   2 -10   1   -0.10    0.60
  -3  10  -1    0.10    0.50
   3 -10   1    0.10    0.60
  -4  10  -1   -0.10    0.60
  -5  10  -1    0.40    0.70
  -6  10  -1    0.60    0.80
  -7  10  -1    0.70    0.90
  -8  10  -1    0.00    0.80
  -8  -9   1    0.60    1.20
  -7  -9   1   -0.40    1.00
  -6  -9   1    0.90    1.00
  -5  -9   1    0.00    0.80
  -4  -9   1   -0.60    0.80
  -4  -9   1    0.20    0.50
  -3  -9   1   -0.20    0.50
  -3  -9   1    0.10    0.80
  -2  -9   1   -0.10    0.60
  -2  -9   1   -0.60    0.40
   1   9  -1   -0.10    0.30
  -1  -9   1    0.50    0.50
  -1  -9   1    0.50    0.50
   0   9  -1    0.40    0.50
   0  -9   1   -0.50    0.40
   0  -9   1   -0.20    0.40
  -1   9  -1   -0.50    0.40
   1  -9   1   -0.10    0.80
   1  -9   1    0.80    0.50
  -2   9  -1   -0.10    0.40
   2  -9   1   -0.20    0.40
  -3   9  -1   -0.50    0.50
   3  -9   1    0.50    0.50
  -4   9  -1    0.20    0.60
  -5   9  -1   -0.30    0.50
  -6   9  -1    0.20    0.60
  -7   9  -1   -0.30    0.70
  -8   9  -1    0.00    0.60
  -9  -8   1    0.30    1.10
  -8  -8   1    0.00    1.10
  -7  -8   1    0.00    0.90
  -6  -8   1    0.60    0.90
  -5  -8   1   -0.40    0.60
  -5  -8   1   -0.40    0.80
  -4  -8   1   -0.20    0.50
  -4  -8   1    0.10    0.80
  -3  -8   1    0.60    0.70
  -3  -8   1   -0.10    0.40
   2   8  -1    0.20    0.30
  -2  -8   1   -0.50    0.40
  -2  -8   1    0.20    0.60
   1   8  -1    0.20    0.30
  -1  -8   1   -0.10    0.40
  -1  -8   1   -0.60    0.30
   0   8  -1   -0.40    0.30
   0  -8   1   -0.20    0.40
   0  -8   1   -0.50    0.30
  -1   8  -1   -0.10    0.30
   1  -8   1   -0.20    0.30
   1  -8   1   -0.30    0.40
  -2   8  -1   -0.10    0.40
   2  -8   1   -0.30    0.40
  -3   8  -1   -0.30    0.50
   3  -8   1    0.00    0.40
  -4   8  -1    0.20    0.50
  -5   8  -1    0.00    0.50
  -6   8  -1    0.20    0.50
  -7   8  -1    0.10    0.50
  -8   8  -1    0.20    0.70
  -9   8  -1    0.30    0.80
  -9  -7   1    1.00    1.30
  -8  -7   1   -0.60    0.90
  -7  -7   1   -0.10    0.80
  -6  -7   1   -0.50    0.70
  -5  -7   1    0.30    0.70
  -5  -7   1    0.70    1.20
  -4  -7   1    0.00    0.20
  -4  -7   1    0.50    0.70
  -3  -7   1    0.00    0.30
  -3  -7   1   -0.30    0.50
   2   7  -1   -0.10    0.20
  -2  -7   1   -0.10    0.30
  -2  -7   1    0.50    0.40
   1   7  -1    0.10    0.30
  -1  -7   1    0.10    0.30
  -1  -7   1   -0.20    0.30
   0   7  -1   -0.20    0.20
   0  -7   1   -0.10    0.30
   0  -7   1    0.00    0.30
  -1   7  -1    0.10    0.30
   1  -7   1    0.10    0.30
   1  -7   1    0.10    0.40
  -2   7  -1   -0.20    0.30
   2  -7   1   -0.20    0.30
  -3   7  -1    0.10    0.40
   3  -7   1    0.00    0.30
  -4   7  -1   -0.30    0.40
  -5   7  -1   -0.30    0.50
  -6   7  -1   -0.20    0.50
  -7   7  -1    0.70    0.70
  -8   7  -1    0.00    0.60
  -9   7  -1    0.30    0.70
  -9  -6   1    0.60    1.10
  -8  -6   1    0.90    1.10
  -7  -6   1   -0.20    0.80
  -6  -6   1    0.10    0.80
  -5  -6   1    0.90    0.90
  -4  -6   1   -0.20    0.30
  -4  -6   1    0.60    0.60
   3   6  -1    0.00    0.20
  -3  -6   1   -0.20    0.20
  -3  -6   1    0.10    0.40
   2   6  -1   -0.10    0.20
  -2  -6   1   -0.10    0.20
  -2  -6   1    0.20    0.40
   1   6  -1    0.00    0.20
  -1  -6   1   -0.20    0.20
  -1  -6   1    0.20    0.40
   0   6  -1    0.00    0.20
   0  -6   1    0.10    0.30
   0  -6   1    0.10    0.20
  -1   6  -1    0.20    0.30
   1  -6   1    0.00    0.30
   1  -6   1   -0.10    0.30
  -2   6  -1    0.10    0.30
   2  -6   1   -0.10    0.20
  -3   6  -1   -0.20    0.30
   3  -6   1    0.30    0.30
  -4   6  -1    0.00    0.30
  -4   6  -1   -0.30    0.30
  -5   6  -1    0.50    0.70
  -6   6  -1   -0.30    0.40
  -7   6  -1   -0.80    0.40
  -8   6  -1    1.30    0.70
  -9   6  -1    0.10    0.70
 -10   6  -1   -0.10    0.70
 -10  -5   1    1.80    1.40
  -9  -5   1   -1.00    0.80
  -8  -5   1   -0.30    0.90
  -7  -5   1   -0.40    0.80
  -6  -5   1    0.50    0.80
  -5  -5   1   -0.40    0.60
   4   5  -1    0.00    0.20
  -4  -5   1   -0.20    0.40
   3   5  -1   -0.10    0.20
  -3  -5   1    0.10    0.40
  -3  -5   1   -0.20    0.10
   2   5  -1   -0.10    0.20
  -2  -5   1   -0.20    0.30
  -2  -5   1    0.10    0.20
   1   5  -1   -0.70    0.20
  -1  -5   1   -0.70    0.20
  -1  -5   1   -0.90    0.20
   0   5  -1    0.00    0.20
   0  -5   1   -0.20    0.20
   0  -5   1   -0.10    0.20
  -1   5  -1   -0.20    0.20
   1  -5   1    0.10    0.30
   1  -5   1   -0.10    0.20
  -2   5  -1    0.00    0.20
   2  -5   1    0.00    0.20
  -3   5  -1    0.00    0.30
  -4   5  -1    0.00    0.30
  -4   5  -1   -0.10    0.30
  -5   5  -1   -0.10    0.30
  -5   5  -1   -0.30    0.30
  -6   5  -1   -0.30    0.40
  -7   5  -1    0.00    0.50
  -8   5  -1   -0.20    0.40
  -9   5  -1    0.80    0.70
 -10   5  -1    0.70    0.80
 -10  -4   1    0.60    1.30
  -9  -4   1   -0.70    0.90
  -8  -4   1   -0.20    0.90
  -7  -4   1   -0.40    0.70
  -6  -4   1    0.00    0.70
  -5  -4   1    0.00    0.30
  -5  -4   1    0.50    0.70
  -4  -4   1   -0.10    0.20
  -4  -4   1    0.00    0.40
   3   4  -1    0.10    0.20
  -3  -4   1    0.00    0.40
   2   4  -1   -0.70    0.20
  -2  -4   1   -0.80    0.10
  -2  -4   1   -0.30    0.40
   1   4  -1   -0.20    0.10
  -1  -4   1    0.10    0.20
  -1  -4   1   -0.10    0.10
   0   4  -1   -0.10    0.20
   0  -4   1   -0.10    0.10
   0  -4   1   -0.10    0.20
  -1   4  -1   -0.20    0.20
   1  -4   1   -0.30    0.10
   1  -4   1   -0.10    0.20
  -2   4  -1   -0.10    0.20
   2  -4   1   -0.20    0.20
  -3   4  -1   -0.10    0.30
  -4   4  -1   -0.20    0.30
  -4   4  -1   -0.10    0.30
  -5   4  -1   -0.20    0.30
  -5   4  -1   -0.20    0.30
  -6   4  -1    0.40    0.50
  -6   4  -1    0.90    0.60
  -7   4  -1   -0.10    0.40
  -7   4  -1   -0.40    0.40
  -8   4  -1    0.00    0.50
  -9   4  -1    0.50    0.70
 -10   4  -1    0.90    1.00
 -10  -3   1    0.40    1.40
  -9  -3   1    0.70    1.30
  -8  -3   1    0.90    1.20
  -7  -3   1    0.30    0.70
  -6  -3   1   -0.20    0.70
  -5  -3   1   -0.50    0.40
  -5  -3   1   -0.30    0.20
  -4  -3   1    0.40    0.70
  -4  -3   1   -0.30    0.20
  -3  -3   1   -0.10    0.30
  -3  -3   1   -0.10    0.20
   2   3  -1   -0.40    0.10
  -2  -3   1   -0.40    0.30
   1   3  -1    0.00    0.10
  -1  -3   1    0.10    0.20
  -1  -3   1    0.00    0.10
   0   3  -1    0.10    0.10
   0  -3   1    0.20    0.20
   0  -3   1   -0.10    0.10
  -1   3  -1    0.00    0.20
   1  -3   1    0.00    0.20
  -2   3  -1   -0.60    0.20
  -3   3  -1    0.10    0.30
  -3   3  -1   -0.20    0.20
  -4   3  -1   -0.50    0.30
  -4   3  -1   -0.20    0.20
  -5   3  -1   -0.10    0.20
  -5   3  -1    0.20    0.30
  -6   3  -1    0.40    0.40
  -6   3  -1   -0.10    0.30
  -7   3  -1    0.30    0.40
  -7   3  -1    0.00    0.50
  -8   3  -1    0.00    0.60
  -8   3  -1    0.10    0.50
  -9   3  -1    0.70    0.60
 -10  -2   1   -1.30    1.00
  -9  -2   1    0.40    1.00
  -8  -2   1   -1.20    0.60
  -7  -2   1    0.80    0.80
  -6  -2   1   -0.30    0.50
  -6  -2   1    0.20    0.30
  -5  -2   1   -0.10    0.20
  -5  -2   1   -0.30    0.50
  -4  -2   1    0.00    0.20
  -4  -2   1   -0.10    0.40
  -3  -2   1   -0.10    0.30
  -3  -2   1    0.00    0.20
  -2  -2   1    0.00    0.30
  -2  -2   1   -0.30    0.10
   1   2  -1   -0.10    0.10
  -1  -2   1   -0.10    0.10
  -1  -2   1   -0.10    0.10
   0   2  -1    0.00    0.10
   0  -2   1   -0.20    0.10
   0  -2   1   -0.10    0.10
  -1   2  -1    0.00    0.10
   1  -2   1   -0.10    0.10
  -2   2  -1   -0.20    0.10
  -3   2  -1   -0.20    0.10
  -3   2  -1    0.10    0.20
  -4   2  -1   -0.30    0.20
  -4   2  -1   -0.10    0.20
  -5   2  -1   -0.10    0.30
  -5   2  -1   -0.30    0.30
  -6   2  -1   -0.10    0.30
  -6   2  -1   -0.40    0.40
  -7   2  -1    0.20    0.50
  -7   2  -1   -0.10    0.40
  -8   2  -1   -0.40    0.50
  -8   2  -1    0.20    0.70
  -9   2  -1   -1.00    0.70
 -10  -1   1    0.30    1.00
  -9  -1   1    0.30    1.10
  -8  -1   1    0.20    0.80
  -7  -1   1    0.40    0.80
  -7  -1   1    0.00    0.40
  -6  -1   1    0.00    0.60
  -6  -1   1   -0.40    0.30
  -5  -1   1   -0.10    0.20
  -5  -1   1    0.00    0.50
  -4  -1   1   -0.20    0.20
  -4  -1   1   -0.20    0.50
  -3  -1   1   -0.10    0.20
  -3  -1   1   -0.20    0.30
  -2  -1   1    0.00    0.20
  -2  -1   1   -0.10    0.10
  -1  -1   1   -0.50    0.10
  -1  -1   1   -0.40    0.20
   0   1  -1   -0.10    0.10
   0  -1   1   -0.10    0.10
   0  -1   1    0.00    0.10
  -1   1  -1   -0.30    0.10
  -2   1  -1   -0.40    0.20
  -2   1  -1   -0.30    0.10
  -3   1  -1    0.00    0.20
  -3   1  -1   -0.20    0.20
  -4   1  -1   -0.50    0.20
  -4   1  -1   -0.20    0.30
  -5   1  -1   -0.20    0.20
  -5   1  -1    0.10    0.40
  -6   1  -1   -0.40    0.20
  -6   1  -1   -0.20    0.40
  -7   1  -1    0.10    0.60
  -7   1  -1    0.20    0.40
  -8   1  -1   -0.10    0.50
  -8   1  -1   -0.30    0.80
  -9   1  -1   -0.80    0.70
 -10   1  -1    1.20    1.00
 -10   0   1   -0.40    1.00
  -9   0   1   -0.70    0.90
  -8   0   1   -0.80    0.70
  -7   0   1    0.40    0.50
  -7   0   1   -0.20    0.60
  -6   0   1   -0.10    0.30
  -6   0   1   -0.20    0.50
  -5   0   1    0.00    0.50
  -5   0   1    0.00    0.30
  -4   0   1    0.10    0.30
  -4   0   1   -0.40    0.50
  -3   0   1    0.20    0.30
  -3   0   1    0.00    0.20
  -2   0   1    0.00    0.20
  -2   0   1   -0.10    0.10
  -1   0   1   -0.10    0.10
  -1   0   1   -0.10    0.10
   0   0   1   -1.20    0.20
   0   0   1   -1.20    0.20
  -1   0  -1   -1.10    0.10
  -2   0  -1   -0.10    0.20
  -2   0  -1   -0.10    0.10
  -3   0  -1    0.00    0.20
  -3   0  -1   -0.20    0.10
  -4   0  -1   -0.40    0.20
  -4   0  -1    0.10    0.20
  -5   0  -1   -0.20    0.30
  -5   0  -1   -0.10    0.20
  -6   0  -1    0.20    0.30
  -6   0  -1    0.10    0.40
  -7   0  -1    0.00    0.30
  -7   0  -1   -0.10    0.50
  -8   0  -1    0.00    0.80
  -9   0  -1   -0.10    0.90
 -10   0  -1    1.20    1.10
 -11   0  -1   -0.40    1.20
  -9   1   1    0.40    1.00
  -8   1   1   -0.80    0.70
  -8   1   1    1.00    0.60
  -7   1   1   -0.10    0.60
  -7   1   1    0.10    0.40
  -6   1   1   -0.20    0.30
  -6   1   1   -0.10    0.50
  -5   1   1    0.20    0.40
  -5   1   1    0.20    0.30
  -4   1   1    0.10    0.50
  -4   1   1   -0.30    0.20
  -3   1   1   -0.10    0.20
  -3   1   1    0.00    0.30
  -2   1   1   -0.20    0.10
  -2   1   1   -0.20    0.10
   1  -1  -1   -0.80    0.10
  -1   1   1   -0.60    0.20
  -1   1   1   -0.50    0.20
   0  -1  -1   -2.90    0.20
   0   1   1   -3.60    0.20
  -1  -1  -1   -0.10    0.10
  -2  -1  -1   -0.10    0.20
  -2  -1  -1    0.10    0.10
  -3  -1  -1   -0.30    0.20
  -3  -1  -1    0.20    0.10
  -4  -1  -1   -0.10    0.20
  -4  -1  -1   -0.20    0.20
  -5  -1  -1    0.20    0.20
  -5  -1  -1   -0.30    0.40
  -6  -1  -1   -0.30    0.20
  -6  -1  -1   -0.30    0.40
  -7  -1  -1    0.20    0.60
  -7  -1  -1   -0.20    0.30
  -8  -1  -1   -0.10    0.90
  -9  -1  -1    0.40    1.00
 -10  -1  -1    0.20    1.00
 -11  -1  -1   -0.50    1.20
  -9   2   1    0.00    0.50
  -8   2   1   -0.70    0.50
  -8   2   1   -0.30    0.80
  -7   2   1    0.50    0.70
  -7   2   1   -0.10    0.40
  -6   2   1   -0.50    0.40
  -6   2   1   -0.30    0.30
  -5   2   1    0.10    0.30
  -5   2   1    0.20    0.30
  -4   2   1    0.10    0.30
  -4   2   1   -0.10    0.30
  -3   2   1   -0.30    0.20
  -3   2   1   -0.30    0.20
  -2   2   1   -1.10    0.20
  -2   2   1   -0.70    0.20
   1  -2  -1   -0.90    0.20
  -1   2   1   -1.10    0.10
  -1   2   1   -1.00    0.20
   0  -2  -1   -0.10    0.10
   0  -2  -1   -0.10    0.10
   0   2   1   -0.10    0.10
  -1  -2  -1    0.00    0.10
  -2  -2  -1   -0.10    0.10
  -2  -2  -1   -0.10    0.20
  -3  -2  -1   -0.10    0.20
  -3  -2  -1   -0.10    0.10
  -4  -2  -1    0.60    0.70
  -4  -2  -1   -0.10    0.20
  -5  -2  -1    0.00    0.20
  -5  -2  -1   -0.10    0.30
  -6  -2  -1    0.10    0.30
  -6  -2  -1   -0.50    0.40
  -7  -2  -1   -0.20    0.50
  -8  -2  -1    0.80    0.90
  -9  -2  -1   -0.20    0.90
 -10  -2  -1    0.40    1.20
  -9   3   1    0.50    0.60
  -8   3   1    0.00    0.50
  -7   3   1    0.00    0.40
  -7   3   1    0.00    0.50
  -6   3   1    0.20    0.40
  -6   3   1   -0.90    0.50
  -5   3   1   -0.10    0.30
  -5   3   1   -0.40    0.20
  -4   3   1    0.20    0.30
  -4   3   1    0.00    0.30
  -3   3   1   -0.80    0.30
  -3   3   1   -0.40    0.20
   2  -3  -1   -0.20    0.10
  -2   3   1   -0.10    0.20
  -2   3   1    0.10    0.10
   1  -3  -1   -0.10    0.20
  -1   3   1   -0.10    0.20
   0  -3  -1   -0.20    0.10
   0  -3  -1   -0.40    0.10
   0   3   1   -0.30    0.10
  -1  -3  -1    0.10    0.20
  -1  -3  -1    0.10    0.20
   1   3   1    0.00    0.10
  -2  -3  -1   -0.10    0.20
   2   3   1    0.00    0.10
  -3  -3  -1   -0.30    0.30
  -3  -3  -1    0.00    0.10
  -4  -3  -1   -0.50    0.20
  -4  -3  -1    0.10    0.10
  -5  -3  -1    0.20    0.50
  -5  -3  -1    0.00    0.20
  -6  -3  -1    0.30    0.60
  -7  -3  -1   -0.30    0.60
  -8  -3  -1    0.80    1.10
  -9  -3  -1   -0.10    1.00
 -10  -3  -1    0.70    1.40
 -10   4   1   -0.40    0.60
  -9   4   1   -0.40    0.60
  -8   4   1    0.20    0.50
  -7   4   1    0.40    0.50
  -6   4   1   -0.80    0.30
  -6   4   1    0.60    0.80
  -5   4   1   -0.30    0.30
  -5   4   1    0.30    0.30
  -4   4   1   -0.20    0.30
  -4   4   1   -0.20    0.20
   3  -4  -1   -0.10    0.30
  -3   4   1   -0.10    0.20
  -3   4   1    0.10    0.40
   2  -4  -1    0.10    0.20
  -2   4   1    0.20    0.30
  -2   4   1   -0.20    0.10
   1  -4  -1   -0.10    0.10
  -1   4   1    0.10    0.20
   0  -4  -1   -0.20    0.10
   0  -4  -1   -0.10    0.10
   0   4   1   -0.10    0.10
  -1  -4  -1   -0.10    0.20
  -1  -4  -1    0.10    0.20
   1   4   1   -0.20    0.10
  -2  -4  -1   -0.20    0.30
   2   4   1   -0.10    0.10
  -3  -4  -1   -0.40    0.50
   3   4   1   -0.10    0.10
  -4  -4  -1   -0.60    0.50
  -5  -4  -1   -0.30    0.40
  -6  -4  -1   -0.10    0.60
  -7  -4  -1   -0.20    0.70
  -8  -4  -1   -0.10    0.90
  -9  -4  -1    0.00    1.10
 -10  -4  -1    0.70    1.50
 -10   5   1    0.10    0.70
  -9   5   1    1.00    0.70
  -8   5   1    0.50    0.60
  -7   5   1   -0.20    0.50
  -6   5   1   -0.50    0.40
  -5   5   1    0.00    0.30
  -4   5   1    0.10    0.20
  -4   5   1    0.00    0.30
   3  -5  -1    0.00    0.30
  -3   5   1    0.10    0.20
  -3   5   1    0.10    0.30
   2  -5  -1    0.20    0.30
  -2   5   1    0.60    0.50
   1  -5  -1    0.00    0.20
   1  -5  -1    0.00    0.10
  -1   5   1    0.00    0.20
   0  -5  -1   -0.10    0.20
   0  -5  -1    0.00    0.20
   0   5   1    0.00    0.10
  -1  -5  -1    0.00    0.30
  -1  -5  -1    0.10    0.20
   1   5   1   -0.30    0.10
  -2  -5  -1    0.00    0.20
  -2  -5  -1   -0.70    0.30
   2   5   1    0.00    0.10
  -3  -5  -1   -0.50    0.40
   3   5   1   -0.10    0.10
  -4  -5  -1   -0.10    0.50
  -5  -5  -1    0.10    0.60
  -6  -5  -1    0.60    0.90
  -7  -5  -1    0.20    0.80
  -8  -5  -1    0.10    0.90
  -9  -5  -1    0.60    1.10
 -10  -5  -1   -0.70    1.10
  -9   6   1    0.30    0.60
  -8   6   1   -0.20    0.50
  -7   6   1   -0.20    0.50
  -6   6   1    0.20    0.40
  -5   6   1   -0.60    0.30
  -4   6   1   -0.10    0.30
   3  -6  -1    0.40    0.40
  -3   6   1    0.00    0.30
  -3   6   1   -0.20    0.10
   2  -6  -1   -0.10    0.20
  -2   6   1   -0.20    0.30
   1  -6  -1    0.00    0.20
   1  -6  -1    0.10    0.30
  -1   6   1    0.10    0.30
   0  -6  -1   -0.30    0.20
   0  -6  -1   -0.40    0.20
   0   6   1   -0.10    0.30
  -1  -6  -1   -0.20    0.20
  -1  -6  -1   -0.10    0.30
   1   6   1   -0.10    0.20
  -2  -6  -1   -0.10    0.20
  -2  -6  -1    0.00    0.30
   2   6   1    0.10    0.20
  -3  -6  -1    0.00    0.30
  -3  -6  -1   -0.30    0.40
   3   6   1    0.00    0.10
  -4  -6  -1    0.00    0.50
  -5  -6  -1    0.10    0.60
  -6  -6  -1    0.50    0.90
  -7  -6  -1   -0.50    1.00
  -8  -6  -1    0.30    0.90
  -9  -6  -1   -0.40    1.00
 -10  -6  -1   -0.60    1.10
  -9   7   1    0.40    0.80
  -8   7   1    0.10    0.50
  -7   7   1    0.20    0.60
  -6   7   1   -0.30    0.40
  -5   7   1    0.60    0.60
  -4   7   1   -0.30    0.30
   3  -7  -1    0.30    0.40
  -3   7   1    0.20    0.40
   2  -7  -1   -0.10    0.30
  -2   7   1   -0.40    0.30
   1  -7  -1   -0.60    0.30
   1  -7  -1   -0.30    0.20
  -1   7   1   -0.10    0.30
   0  -7  -1   -0.10    0.30
   0  -7  -1   -0.20    0.30
   0   7   1    0.30    0.30
  -1  -7  -1    0.20    0.30
  -1  -7  -1    0.10    0.30
   1   7   1   -0.20    0.20
  -2  -7  -1   -0.40    0.30
  -2  -7  -1   -0.30    0.20
   2   7   1   -0.20    0.20
  -3  -7  -1   -0.30    0.30
  -3  -7  -1    0.20    0.50
  -4  -7  -1   -0.70    0.50
  -4  -7  -1    0.30    0.50
  -5  -7  -1   -1.00    0.60
  -6  -7  -1    0.10    0.90
  -7  -7  -1    0.50    1.00
  -8  -7  -1    0.50    1.00
  -9  -7  -1   -0.60    0.90
  -9   8   1    0.80    0.90
  -8   8   1    0.80    0.80
  -7   8   1    1.00    0.70
  -6   8   1   -0.20    0.40
  -5   8   1    0.30    0.50
   4  -8  -1    0.10    0.40
  -4   8   1   -0.10    0.40
   3  -8  -1   -0.40    0.30
  -3   8   1   -0.50    0.30
   2  -8  -1   -0.20    0.30
  -2   8   1    0.10    0.40
   1  -8  -1    0.30    0.40
   1  -8  -1    0.10    0.30
  -1   8   1   -0.50    0.30
   0  -8  -1    0.20    0.40
   0  -8  -1    0.10    0.30
   0   8   1    0.20    0.30
  -1  -8  -1    0.20    0.40
  -1  -8  -1   -0.20    0.30
   1   8   1    0.00    0.30
  -2  -8  -1    3.30    0.90
  -2  -8  -1    0.00    0.30
  -3  -8  -1   -0.20    0.50
  -3  -8  -1    0.40    0.50
  -4  -8  -1   -0.10    0.60
  -4  -8  -1   -0.10    0.40
  -5  -8  -1   -0.50    0.50
  -5  -8  -1   -0.30    0.60
  -6  -8  -1    0.30    0.90
  -6  -8  -1   -0.40    0.50
  -8  -8  -1    1.80    1.50
  -9  -8  -1    0.70    1.40
  -8   9   1    0.50    0.80
  -7   9   1    0.10    0.70
  -6   9   1   -0.20    0.50
  -5   9   1   -0.40    0.50
   4  -9  -1    0.00    0.50
  -4   9   1   -0.80    0.40
   3  -9  -1    0.00    0.50
  -3   9   1    0.10    0.40
   2  -9  -1    0.10    0.40
  -2   9   1   -0.10    0.40
   1  -9  -1    0.20    0.40
  -1   9   1    0.30    0.40
   0  -9  -1    0.00    0.40
   0  -9  -1   -0.10    0.30
   0   9   1    0.30    0.40
  -1  -9  -1   -0.30    0.40
  -1  -9  -1   -0.20    0.40
   1   9   1    0.00    0.30
  -2  -9  -1    0.90    0.50
  -2  -9  -1   -0.20    0.40
  -3  -9  -1   -0.30    0.40
  -3  -9  -1    0.20    0.60
  -4  -9  -1   -0.50    0.50
  -4  -9  -1    0.00    0.70
  -5  -9  -1   -0.20    0.40
  -5  -9  -1    0.40    0.80
  -6  -9  -1   -0.30    0.80
  -6  -9  -1   -0.30    0.50
  -7  -9  -1   -0.80    0.80
  -8  -9  -1   -0.50    1.10
  -9  -9  -1    0.70    1.20
  -8  10   1    0.20    0.70
  -7  10   1    0.30    0.70
  -6  10   1    0.80    0.80
  -5  10   1   -0.10    0.50
   4 -10  -1   -0.20    0.50
  -4  10   1   -0.20    0.50
   3 -10  -1    0.40    0.60
  -3  10   1    0.90    0.60
   2 -10  -1   -0.30    0.40
  -2  10   1   -0.40    0.40
   1 -10  -1    0.10    0.50
  -1  10   1   -0.10    0.50
   0 -10  -1    0.20    0.40
   0  10   1   -0.20    0.40
  -1 -10  -1    0.30    0.60
  -1 -10  -1   -0.20    0.40
   1  10   1   -0.50    0.40
  -2 -10  -1   -0.10    0.40
  -2 -10  -1   -0.10    0.50
  -3 -10  -1    0.00    0.40
  -3 -10  -1    0.40    0.60
  -4 -10  -1   -0.20    0.70
  -4 -10  -1    0.20    0.60
  -5 -10  -1   -0.40    0.80
  -5 -10  -1   -0.30    0.60
  -6 -10  -1   -0.20    0.70
  -6 -10  -1    0.20    1.10
  -7 -10  -1    0.10    1.20
  -8 -10  -1    0.80    1.40
  -7  11   1   -0.70    0.90
  -6  11   1    0.20    0.80
  -5  11   1   -0.20    0.60
   4 -11  -1    0.10    0.60
  -4  11   1    0.70    0.70
   3 -11  -1    0.00    0.50
  -3  11   1    0.00    0.60
   2 -11  -1    0.10    0.60
  -2  11   1    0.10    0.60
   1 -11  -1   -0.20    0.50
  -1  11   1   -0.10    0.70
   0 -11  -1    0.70    0.70
   0  11   1   -0.60    0.40
  -1 -11  -1   -0.30    0.60
  -2 -11  -1   -0.20    0.60
  -3 -11  -1    0.40    0.60
  -3 -11  -1   -0.40    0.50
  -4 -11  -1    0.60    0.70
  -4 -11  -1    0.10    0.70
  -5 -11  -1    0.40    0.90
  -5 -11  -1   -0.10    0.70
  -6 -11  -1    0.00    0.90
  -7 -11  -1   -0.40    1.00
  -6  12   1   -0.30    0.80
  -5  12   1    0.20    0.90
   4 -12  -1    0.30    0.70
  -4  12   1   -0.30    0.60
   3 -12  -1    0.60    0.70
  -3  12   1    0.90    0.70
   2 -12  -1    0.00    0.70
  -2  12   1   -0.40    0.50
   1 -12  -1    1.00    0.70
  -1  12   1    0.60    0.60
   0 -12  -1    0.10    0.60
  -1 -12  -1   -0.30    0.50
  -2 -12  -1    0.60    0.70
  -3 -12  -1   -0.30    0.60
  -4 -12  -1    1.10    0.80
  -4 -12  -1   -0.40    0.60
  -5 -12  -1   -0.70    0.80
  -5 -12  -1    0.20    1.00
  -6 -12  -1   -0.10    0.90
  -7 -12  -1   -0.10    1.00
  -5  13   1   -0.50    0.80
   4 -13  -1    0.00    0.70
  -4  13   1   -0.30    0.60
   3 -13  -1    0.80    0.80
  -3  13   1    0.30    0.70
   2 -13  -1   -0.30    0.60
  -2  13   1    0.30    0.70
   1 -13  -1    0.10    0.60
   0 -13  -1    0.70    0.70
  -1 -13  -1   -0.40    0.60
  -2 -13  -1    0.40    0.70
  -3 -13  -1    0.20    0.70
  -4 -13  -1   -0.30    0.70
  -6 -13  -1   -0.10    0.70
   4 -14  -1    0.70    0.90
  -4  14   1   -0.10    0.90
   3 -14  -1   -0.50    0.70
  -3  14   1    1.00    0.90
   2 -14  -1   -0.20    0.70
  -2  14   1    0.00    0.60
   1 -14  -1    0.30    0.80
   0 -14  -1    0.10    0.80
  -1 -14  -1   -0.70    0.60
  -2 -14  -1    0.10    0.80
  -3 -14  -1   -0.20    0.80
   2 -15  -1    0.10    0.90
   1 -15  -1    1.10    1.00
   0 -15  -1    0.50    0.80
  -1 -15  -1   -0.60    0.70
  -2 -15  -1    0.30    0.90
   0 -14   2    1.50    1.10
   1 -14   2    1.60    0.90
  -2  14  -2    9.90    1.80
   2 -14   2    8.30    1.70
  -3  14  -2    0.90    1.00
  -1 -13   2   33.70    2.90
   0 -13   2    0.30    0.80
  -1  13  -2    8.40    1.80
   1 -13   2    6.60    1.50
  -2  13  -2    1.90    1.00
   2 -13   2    1.50    1.00
  -3  13  -2    0.90    1.00
  -4  13  -2    1.30    1.10
  -5 -12   2    5.60    1.90
  -4 -12   2    8.90    2.00
  -3 -12   2    0.20    0.80
  -2 -12   2    2.00    1.00
  -1 -12   2   25.60    2.40
   0 -12   2   19.40    2.30
  -1  12  -2    3.80    1.10
   1 -12   2    4.80    1.30
  -2  12  -2    0.50    0.80
   2 -12   2    0.30    0.70
  -3  12  -2    2.00    1.00
  -4  12  -2    1.10    0.90
  -5  12  -2    0.10    0.80
  -6  12  -2   20.20    2.80
  -6 -11   2   -0.80    1.10
  -5 -11   2    1.10    1.20
  -4 -11   2    3.00    1.30
  -2 -11   2   13.30    1.80
  -2 -11   2   14.10    2.10
  -1 -11   2   59.79    3.70
   0  11  -2    8.60    1.40
   0 -11   2    8.50    1.40
  -1  11  -2  169.78    7.90
   1 -11   2  172.08    8.00
  -2  11  -2   42.60    3.00
   2 -11   2   41.40    3.00
  -3  11  -2    3.40    1.10
   3 -11   2    2.80    1.00
  -4  11  -2    0.40    0.80
  -5  11  -2   27.50    2.60
  -6  11  -2   31.00    2.90
  -7  11  -2   21.30    2.90
  -6 -10   2   41.60    3.90
  -5 -10   2   12.40    2.30
  -4 -10   2    6.90    1.60
  -3 -10   2    2.60    0.90
  -3 -10   2    0.40    0.70
  -2 -10   2  449.56   19.10
  -2 -10   2  474.35   18.70
  -1 -10   2  503.85   19.60
  -1 -10   2  472.05   19.90
   0  10  -2    4.10    0.90
   0 -10   2    4.60    1.00
   0 -10   2    4.50    1.10
  -1  10  -2   16.00    1.80
   1 -10   2   12.90    1.70
  -2  10  -2   65.49    3.90
   2 -10   2   65.49    3.80
  -3  10  -2    0.00    0.60
   3 -10   2   -0.40    0.60
  -4  10  -2    3.90    1.10
  -5  10  -2    0.60    0.80
  -6  10  -2    1.90    0.90
  -7  10  -2   17.30    2.40
  -8  -9   2    5.20    1.90
  -7  -9   2    3.00    1.40
  -6  -9   2    1.70    1.10
  -5  -9   2    6.70    1.50
  -3  -9   2    2.30    0.80
  -3  -9   2    2.70    1.10
  -2  -9   2   99.19    5.30
  -2  -9   2   91.19    4.70
  -1  -9   2  190.88    8.50
  -1  -9   2  197.88    8.80
   0   9  -2  108.29    5.20
   0  -9   2  106.29    5.30
   0  -9   2  111.49    5.40
  -1   9  -2   28.40    2.10
   1  -9   2   31.40    2.20
   1  -9   2   30.40    2.20
  -2   9  -2   26.70    2.10
   2  -9   2   23.70    2.00
  -3   9  -2  276.97   11.60
   3  -9   2  258.57   11.40
  -4   9  -2   62.19    3.90
  -5   9  -2    2.90    1.00
  -6   9  -2   11.60    1.90
  -7   9  -2   26.60    2.60
  -8   9  -2    1.00    0.90
  -8  -8   2   44.80    4.20
  -7  -8   2   30.60    3.30
  -6  -8   2    0.20    0.90
  -5  -8   2    5.20    1.50
  -4  -8   2  629.54   25.70
  -3  -8   2  405.16   17.00
   2   8  -2   34.00    2.10
  -2  -8   2   35.10    2.60
  -2  -8   2   36.00    2.30
  -1  -8   2   14.30    1.30
  -1  -8   2   15.00    1.80
   0   8  -2   66.59    3.50
   0  -8   2   71.69    3.80
   0  -8   2   68.69    3.60
  -1   8  -2    6.50    1.00
   1  -8   2    6.70    1.10
   1  -8   2    6.40    1.10
  -2   8  -2   76.79    4.00
   2  -8   2   74.99    4.00
  -3   8  -2  145.39    6.80
  -4   8  -2   42.20    3.00
  -5   8  -2    0.80    0.80
  -6   8  -2    7.40    1.50
  -7   8  -2    0.30    0.70
  -8   8  -2    4.80    1.40
  -9   8  -2    5.00    1.40
  -9  -7   2    6.70    2.10
  -8  -7   2   45.00    4.10
  -7  -7   2    1.10    1.10
  -6  -7   2    7.80    1.70
  -5  -7   2  248.18   11.60
  -4  -7   2 1322.27   50.29
  -4  -7   2 1330.67   51.39
   3   7  -2  143.79    5.90
  -3  -7   2  140.09    6.90
  -3  -7   2  133.39    6.10
   2   7  -2    0.90    0.40
  -2  -7   2    0.60    0.40
  -2  -7   2    0.30    0.50
  -1  -7   2  133.99    6.30
  -1  -7   2  137.49    6.00
   0   7  -2   79.89    3.90
   0  -7   2   82.79    4.00
   0  -7   2   82.99    4.10
  -1   7  -2    4.60    0.80
   1  -7   2    5.00    0.90
   1  -7   2    6.20    0.90
  -2   7  -2    6.60    1.00
   2  -7   2    5.00    0.90
  -3   7  -2  166.38    7.50
  -4   7  -2  207.88    9.20
  -5   7  -2    6.10    1.20
  -6   7  -2    2.60    0.90
  -7   7  -2   34.70    2.80
  -8   7  -2    0.70    0.80
  -9   7  -2    2.50    1.00
  -9  -6   2   -0.70    1.10
  -8  -6   2    7.70    1.90
  -7  -6   2   43.30    3.80
  -6  -6   2  108.99    6.40
  -5  -6   2  391.66   16.80
  -4  -6   2  400.96   16.40
  -4  -6   2  372.76   15.20
   3   6  -2    0.70    0.30
  -3  -6   2    1.50    0.50
  -3  -6   2    0.30    0.50
   2   6  -2   19.30    1.30
  -2  -6   2   20.20    1.70
  -1  -6   2  217.98    9.30
  -1  -6   2  223.68    9.00
   0   6  -2    9.80    0.90
   0  -6   2    9.20    1.00
   0  -6   2    7.60    1.10
  -1   6  -2   56.29    2.90
   1  -6   2   55.39    2.90
   1  -6   2   58.19    3.00
  -2   6  -2   37.20    2.30
   2  -6   2   37.60    2.20
  -3   6  -2  202.98    8.70
  -4   6  -2  395.76   16.00
  -5   6  -2    4.80    1.10
  -6   6  -2    9.00    1.50
  -7   6  -2    5.40    1.20
  -8   6  -2    0.80    0.70
  -9   6  -2    0.50    0.80
  -9  -5   2    5.30    1.70
  -8  -5   2   11.30    2.30
  -7  -5   2   -1.00    0.60
  -6  -5   2  137.69    7.40
  -5  -5   2  656.33   26.60
   4   5  -2  178.08    7.50
  -4  -5   2  188.68    8.60
  -4  -5   2  184.28    7.60
   3   5  -2    4.70    0.60
  -3  -5   2    5.60    0.80
  -3  -5   2    7.00    1.20
   2   5  -2   10.20    0.80
  -2  -5   2   11.90    1.40
  -2  -5   2    9.80    0.90
   1   5  -2  129.79    5.40
  -1  -5   2  128.79    5.50
   0   5  -2    2.60    0.50
   0  -5   2    2.40    0.50
   0  -5   2    2.70    0.60
  -1   5  -2    0.10    0.20
   1  -5   2    0.00    0.20
   1  -5   2    0.00    0.20
  -2   5  -2   34.10    2.00
   2  -5   2   34.30    2.00
  -3   5  -2  207.38    8.70
  -4   5  -2  273.67   11.30
  -5   5  -2    7.00    1.20
  -5   5  -2    8.20    1.10
  -6   5  -2   19.50    1.80
  -6   5  -2   20.60    1.60
  -7   5  -2    3.90    1.00
  -8   5  -2    2.00    0.90
  -9   5  -2   -0.10    0.60
 -10   5  -2    1.60    0.80
 -10  -4   2    3.80    1.80
  -9  -4   2    2.60    1.40
  -8  -4   2    1.30    1.20
  -7  -4   2  291.87   13.50
  -6  -4   2    8.30    1.70
  -5  -4   2  125.09    6.70
  -5  -4   2  131.59    5.60
  -4  -4   2  262.37   10.60
  -4  -4   2  270.37   11.60
   3   4  -2    0.20    0.20
  -3  -4   2    0.60    0.50
  -3  -4   2    0.00    0.20
   2   4  -2    2.70    0.40
  -2  -4   2    1.60    0.40
  -2  -4   2    0.30    0.40
   1   4  -2   83.09    3.20
  -1  -4   2   60.19    3.10
   0   4  -2   37.80    1.90
   0  -4   2   37.30    1.90
   0  -4   2   35.40    2.00
  -1   4  -2  216.58    8.50
   1  -4   2  205.88    8.50
   1  -4   2  206.48    8.40
  -2   4  -2   47.30    2.50
  -3   4  -2  678.63   26.10
  -4   4  -2   28.60    1.90
  -4   4  -2   40.50    2.30
  -5   4  -2   16.30    1.30
  -6   4  -2   40.70    2.70
  -7   4  -2    0.10    0.30
  -7   4  -2    0.50    0.60
  -8   4  -2    4.90    1.10
  -9   4  -2    0.70    0.60
 -10  -3   2   10.40    2.50
  -9  -3   2    0.00    1.10
  -8  -3   2   23.00    3.00
  -7  -3   2  257.17   12.10
  -6  -3   2   18.20    2.50
  -5  -3   2   48.70    2.60
  -5  -3   2   50.49    3.50
  -4  -3   2  255.57   11.00
  -4  -3   2  247.28   10.10
  -3  -3   2    0.90    0.60
  -3  -3   2    1.50    0.40
   2   3  -2  875.51   35.00
  -2  -3   2  962.20   34.90
  -2  -3   2  955.90   35.50
   1   3  -2    0.10    0.20
  -1  -3   2    0.50    0.30
  -1  -3   2    1.50    0.30
   0   3  -2  961.80   35.40
   0  -3   2  951.30   35.60
   0  -3   2  911.61   35.30
  -1   3  -2  746.43   28.00
   1  -3   2  732.33   27.90
  -2   3  -2   11.20    0.90
  -3   3  -2  906.41   34.40
  -4   3  -2 1405.36   56.09
  -4   3  -2 1580.64   56.29
  -5   3  -2    4.00    0.80
  -5   3  -2    5.20    0.80
  -6   3  -2    1.30    0.60
  -6   3  -2    0.80    0.50
  -7   3  -2   15.10    1.50
  -7   3  -2   15.10    1.50
  -8   3  -2    0.80    0.60
  -8   3  -2    1.60    0.80
  -9   3  -2    0.60    0.60
 -10  -2   2   16.50    2.90
  -9  -2   2   36.40    3.60
  -8  -2   2   23.30    3.10
  -7  -2   2   71.49    4.80
  -6  -2   2    0.20    0.40
  -6  -2   2    0.20    0.60
  -5  -2   2    0.60    0.40
  -5  -2   2    0.10    0.50
  -4  -2   2    0.70    0.60
  -4  -2   2    1.00    0.40
  -3  -2   2 1099.69   42.40
  -3  -2   2 1155.58   43.10
  -2  -2   2  439.66   16.60
  -2  -2   2  408.06   16.20
   1   2  -2  310.57   12.10
  -1  -2   2  315.37   11.90
  -1  -2   2  315.57   12.30
   0  -2   2   61.69    2.80
  -1   2  -2 7263.27  271.67
  -2   2  -2  311.97   12.10
  -3   2  -2   21.80    1.40
  -4   2  -2  170.58    7.20
  -4   2  -2  171.78    7.10
  -5   2  -2  243.18   10.00
  -5   2  -2  247.18   10.10
  -6   2  -2    0.50    0.50
  -6   2  -2    0.50    0.40
  -7   2  -2    0.10    0.40
  -7   2  -2   -0.10    0.50
  -8   2  -2  131.19    6.40
  -8   2  -2  144.99    6.80
  -9   2  -2   32.60    2.90
 -10  -1   2    0.30    1.40
  -9  -1   2   12.30    2.40
  -8  -1   2   28.70    3.50
  -7  -1   2   73.59    4.80
  -7  -1   2   70.89    3.80
  -6  -1   2   62.09    4.10
  -6  -1   2   63.69    3.40
  -5  -1   2    0.20    0.50
  -5  -1   2   -0.10    0.30
  -4  -1   2  134.99    5.90
  -4  -1   2  140.29    6.60
  -3  -1   2  114.09    5.20
  -3  -1   2  107.19    4.70
  -2  -1   2 1161.68   42.50
  -2  -1   2 1093.19   42.30
  -1  -1   2    2.00    0.50
  -1  -1   2    0.10    0.10
  -1  -1   2   -0.10    0.30
   0   1  -2   50.09    2.20
   0  -1   2   51.69    2.30
  -2   1  -2 9999.00  373.46
  -3   1  -2  100.29    4.30
  -3   1  -2  100.59    4.30
  -4   1  -2   10.20    0.90
  -4   1  -2    9.50    1.00
  -5   1  -2  386.86   15.00
  -5   1  -2  370.86   14.90
  -6   1  -2  191.38    8.10
  -6   1  -2  183.08    7.90
  -7   1  -2   60.29    3.30
  -7   1  -2   66.69    3.70
  -8   1  -2  111.99    5.80
  -8   1  -2  104.59    5.20
  -9   1  -2   22.40    2.40
 -10   1  -2    0.10    0.80
 -10   0   2    1.30    1.40
  -9   0   2    5.40    1.60
  -8   0   2    3.30    1.40
  -7   0   2   56.19    4.10
  -7   0   2   55.99    3.30
  -6   0   2    0.10    0.40
  -6   0   2   -0.20    0.50
  -5   0   2  775.42   31.60
  -5   0   2  835.22   30.90
  -4   0   2    0.30    0.30
  -4   0   2   -0.20    0.40
  -3   0   2   28.50    1.90
  -3   0   2   26.50    1.60
  -2   0   2   98.99    4.30
  -2   0   2   99.99    4.40
  -1   0   2 4352.76  165.18
  -1   0   2 4451.45  165.58
   0   0   2 1454.85   56.49
   0   0   2 1543.65   56.19
  -1   0  -2 4310.57  161.18
  -2   0  -2 1359.26   51.89
  -2   0  -2 1394.96   51.49
  -3   0  -2   35.90    1.90
  -3   0  -2   38.40    1.80
  -4   0  -2   23.70    1.50
  -4   0  -2   24.30    1.40
  -5   0  -2  294.37   11.70
  -5   0  -2  279.37   11.30
  -6   0  -2   34.50    2.20
  -6   0  -2   30.30    1.90
  -7   0  -2   -0.20    0.40
  -7   0  -2    0.20    0.40
  -8   0  -2   89.89    5.20
  -9   0  -2   77.49    5.10
 -10   0  -2    2.40    1.40
 -11   0  -2    0.50    1.10
  -9   1   2    6.90    1.80
  -8   1   2    7.60    1.30
  -8   1   2    5.80    1.70
  -7   1   2   16.20    2.30
  -7   1   2   16.00    1.60
  -6   1   2    0.20    0.60
  -6   1   2   -0.30    0.40
  -5   1   2   73.09    4.30
  -5   1   2   81.29    3.90
  -4   1   2  472.65   19.60
  -4   1   2  517.75   19.30
  -3   1   2   11.80    1.00
  -3   1   2   11.50    1.10
  -2   1   2  921.31   34.70
   1  -1  -2 1304.27   46.80
  -1   1   2 1142.79   47.20
  -1   1   2 1302.57   46.80
   0   1   2   39.50    1.80
  -1  -1  -2 1299.07   48.70
  -2  -1  -2  153.98    6.40
  -2  -1  -2  164.28    6.10
  -3  -1  -2    8.40    0.80
  -3  -1  -2    9.10    0.60
  -4  -1  -2   18.00    1.10
  -4  -1  -2   19.10    1.40
  -5  -1  -2   14.30    1.00
  -5  -1  -2   14.70    1.30
  -6  -1  -2   67.59    3.70
  -6  -1  -2   65.49    3.20
  -7  -1  -2    2.40    0.90
  -7  -1  -2    2.70    0.90
  -8  -1  -2   96.59    5.60
  -9  -1  -2  138.19    7.70
 -10  -1  -2    4.00    1.50
 -11  -1  -2    2.80    1.80
  -9   2   2    0.50    0.70
  -8   2   2   15.00    2.40
  -8   2   2   12.40    1.70
  -7   2   2   29.40    2.70
  -7   2   2   32.60    2.30
  -6   2   2    6.30    1.40
  -6   2   2    5.90    1.00
  -5   2   2    4.40    0.80
  -4   2   2   90.09    4.10
  -4   2   2   82.89    4.20
  -3   2   2  141.99    5.70
  -3   2   2  120.09    5.60
   2  -2  -2  991.70   35.90
  -2   2   2  967.50   36.10
  -2   2   2  915.71   35.90
   1  -2  -2 1730.13   67.29
  -1   2   2 1772.92   67.09
  -1   2   2 1865.51   66.79
   0  -2  -2 3222.08  121.29
   0   2   2 3239.98  121.09
  -1  -2  -2  804.22   29.60
   1   2   2  772.72   29.50
  -2  -2  -2  138.19    5.40
  -2  -2  -2  141.29    5.80
  -3  -2  -2  116.09    4.60
  -3  -2  -2  122.19    5.10
  -4  -2  -2  135.79    5.70
  -4  -2  -2  153.48    6.30
  -5  -2  -2   35.20    1.80
  -5  -2  -2   39.20    2.40
  -6  -2  -2    4.50    0.60
  -6  -2  -2    5.00    1.10
  -7  -2  -2    2.60    0.90
  -8  -2  -2   46.00    3.60
  -9  -2  -2   79.99    5.40
 -10  -2  -2   35.00    4.40
 -11  -2  -2    3.00    1.70
  -9   3   2    2.00    0.90
  -8   3   2    0.40    0.60
  -7   3   2    2.70    1.00
  -7   3   2    2.70    0.80
  -6   3   2    9.40    1.60
  -6   3   2    9.20    1.40
  -5   3   2   28.20    2.10
  -5   3   2   28.30    2.00
  -4   3   2   37.40    2.30
  -4   3   2   40.00    2.30
  -3   3   2  174.88    7.00
  -3   3   2  153.58    6.70
   2  -3  -2  779.32   27.70
  -2   3   2  675.63   27.50
  -2   3   2  747.03   27.90
   1  -3  -2  444.16   17.00
  -1   3   2  447.46   17.10
   0  -3  -2  429.26   15.30
   0  -3  -2  384.56   15.50
  -1  -3  -2  738.33   27.50
   1   3   2  720.13   27.30
  -2  -3  -2  548.15   20.90
  -3  -3  -2 1059.39   40.20
  -4  -3  -2  136.59    5.30
  -4  -3  -2  136.29    6.20
  -5  -3  -2   -0.60    0.30
  -5  -3  -2    0.20    0.20
  -6  -3  -2   55.89    3.60
  -7  -3  -2   35.40    3.00
  -8  -3  -2   55.39    4.20
  -9  -3  -2    0.40    0.90
 -10  -3  -2   41.80    4.20
 -10   4   2    2.40    1.10
  -9   4   2    8.60    1.60
  -8   4   2   43.40    3.10
  -7   4   2   12.10    1.70
  -6   4   2   48.70    3.00
  -5   4   2  155.08    6.90
  -5   4   2  145.99    6.70
  -4   4   2  467.15   17.50
  -4   4   2  413.36   17.10
   3  -4  -2  645.24   23.70
  -3   4   2  636.64   23.90
  -3   4   2  571.24   23.30
   2  -4  -2 1084.09   38.20
  -2   4   2 1050.69   38.30
  -2   4   2  906.21   37.60
   1  -4  -2   52.99    2.60
  -1   4   2   59.59    2.70
   0  -4  -2   78.89    3.30
   0  -4  -2   72.39    3.20
  -1  -4  -2  192.58    7.70
  -1  -4  -2  179.78    7.80
   1   4   2  204.28    7.50
  -2  -4  -2    0.70    0.40
   2   4   2    0.40    0.10
  -3  -4  -2 3135.69  117.39
  -4  -4  -2   62.49    3.60
  -5  -4  -2   50.29    3.30
  -6  -4  -2  135.39    7.00
  -7  -4  -2   90.09    5.50
  -8  -4  -2    0.20    0.90
  -9  -4  -2   43.30    4.00
 -10  -4  -2    3.70    1.70
 -10   5   2    9.90    1.90
  -9   5   2    3.20    1.10
  -8   5   2    3.60    1.00
  -7   5   2    7.50    1.40
  -6   5   2   79.79    4.40
  -5   5   2  111.39    5.40
  -4   5   2   42.20    2.50
  -4   5   2   37.80    2.10
   3  -5  -2  191.98    7.90
  -3   5   2  182.58    8.00
  -3   5   2  190.18    7.40
   2  -5  -2  343.87   13.60
  -2   5   2  347.07   13.80
   1  -5  -2   10.00    0.90
  -1   5   2   11.60    1.00
   0  -5  -2   86.29    3.60
   0  -5  -2   83.49    3.80
  -1  -5  -2    6.40    0.90
  -1  -5  -2    7.00    0.80
   1   5   2    7.30    0.60
  -2  -5  -2 1308.87   56.29
  -2  -5  -2 1498.95   55.89
   2   5   2 1657.53   55.99
  -3  -5  -2 1099.09   42.30
  -4  -5  -2   18.80    1.90
  -5  -5  -2   39.10    3.00
  -6  -5  -2  650.63   26.60
  -7  -5  -2    0.30    0.80
  -8  -5  -2   26.70    3.60
  -9  -5  -2    8.90    2.30
 -10  -5  -2    0.50    1.40
  -9   6   2    1.70    1.00
  -8   6   2   10.70    1.70
  -7   6   2    5.80    1.30
  -6   6   2   19.90    1.90
  -5   6   2   -0.10    0.40
  -4   6   2    4.40    0.90
   3  -6  -2  318.17   12.70
  -3   6   2  307.87   12.80
   2  -6  -2  154.28    6.60
  -2   6   2  149.99    6.70
   1  -6  -2  121.19    5.00
   1  -6  -2  130.79    5.60
  -1   6   2  132.79    5.60
   0  -6  -2  274.97   10.50
   0  -6  -2  262.37   10.80
  -1  -6  -2 1480.35   55.99
  -1  -6  -2 1438.16   55.99
   1   6   2 1544.05   55.69
  -2  -6  -2    5.30    1.10
  -2  -6  -2    4.40    0.70
   2   6   2    6.80    0.50
  -3  -6  -2   33.90    2.60
  -4  -6  -2    2.50    0.90
  -5  -6  -2   24.20    2.40
  -6  -6  -2    9.90    2.00
  -7  -6  -2  318.17   14.70
  -8  -6  -2   12.40    2.60
  -9  -6  -2    0.70    1.20
 -10  -6  -2    6.70    2.30
  -9   7   2   -0.50    0.60
  -8   7   2   14.40    2.10
  -7   7   2    0.30    0.60
  -6   7   2    1.90    0.80
  -5   7   2   13.90    1.70
   4  -7  -2   71.59    3.70
  -4   7   2   68.69    3.90
   3  -7  -2   52.19    2.90
  -3   7   2   50.19    3.00
   2  -7  -2   57.39    3.10
  -2   7   2   59.29    3.20
   1  -7  -2   28.20    1.80
  -1   7   2   26.40    1.80
   0  -7  -2 1477.25   55.39
   0  -7  -2 1482.85   55.89
  -1  -7  -2  224.78    8.80
  -1  -7  -2  202.98    8.90
   1   7   2  211.98    8.60
  -2  -7  -2   49.99    3.10
  -2  -7  -2   50.29    2.80
   2   7   2   53.69    2.40
  -3  -7  -2    0.30    0.30
  -3  -7  -2    1.00    0.70
  -4  -7  -2  693.13   28.00
  -5  -7  -2   85.59    5.30
  -6  -7  -2    1.10    0.90
  -7  -7  -2   31.60    3.80
  -8  -7  -2   -0.60    0.90
  -9  -7  -2    5.00    2.00
 -10  -7  -2    1.60    1.70
  -9   8   2    2.60    1.10
  -8   8   2    0.60    0.80
  -7   8   2    5.70    1.30
  -6   8   2    0.20    0.50
  -5   8   2    1.50    0.70
   4  -8  -2   30.20    2.20
  -4   8   2   27.70    2.20
   3  -8  -2   27.80    2.10
  -3   8   2   30.60    2.20
   2  -8  -2    0.20    0.40
  -2   8   2    0.20    0.40
   1  -8  -2   69.49    3.70
  -1   8   2   75.89    3.80
   0  -8  -2   85.29    3.90
   0  -8  -2   93.99    4.50
  -1  -8  -2  115.79    5.60
  -1  -8  -2  127.59    5.50
   1   8   2  122.69    5.30
  -2  -8  -2   23.00    1.80
  -2  -8  -2   22.30    1.80
   2   8   2   21.50    1.40
  -3  -8  -2    2.20    0.80
  -3  -8  -2    0.70    0.50
  -4  -8  -2   16.10    2.30
  -4  -8  -2   16.40    1.50
  -5  -8  -2   87.89    5.60
  -5  -8  -2   94.39    4.70
  -6  -8  -2   24.40    3.30
  -7  -8  -2   41.20    3.80
  -8  -8  -2    1.50    1.20
  -9  -8  -2    9.70    2.40
  -8   9   2    4.30    1.30
  -7   9   2   -0.40    0.60
  -6   9   2    9.10    1.60
  -5   9   2    0.10    0.50
   4  -9  -2   15.30    1.80
  -4   9   2   13.90    1.80
   3  -9  -2    2.00    0.70
  -3   9   2    3.20    0.90
   2  -9  -2  196.88    8.80
  -2   9   2  205.88    8.90
   1  -9  -2   10.00    1.30
  -1   9   2    9.10    1.20
   0  -9  -2    3.40    0.80
  -1  -9  -2   34.00    2.30
  -1  -9  -2   33.90    2.20
   1   9   2   34.50    2.00
  -2  -9  -2  100.99    4.90
  -2  -9  -2   95.89    4.90
  -3  -9  -2   11.40    1.70
  -3  -9  -2    7.80    1.30
  -4  -9  -2   94.39    5.40
  -4  -9  -2   87.49    4.70
  -5  -9  -2   57.19    4.30
  -5  -9  -2   61.79    3.60
  -6  -9  -2    5.00    1.50
  -6  -9  -2    5.00    1.20
  -7  -9  -2   48.20    3.20
  -7  -9  -2   41.70    3.90
  -8  -9  -2    2.20    1.30
  -9  -9  -2   18.60    3.10
  -8  10   2   12.60    2.20
  -7  10   2    1.60    1.00
  -6  10   2    2.50    1.10
  -5  10   2    0.40    0.60
   4 -10  -2   -0.10    0.50
  -4  10   2   -0.40    0.50
   3 -10  -2    7.40    1.30
  -3  10   2    9.90    1.60
   2 -10  -2   33.70    2.50
  -2  10   2   36.10    2.60
   1 -10  -2    1.00    0.60
  -1  10   2    0.60    0.50
   0 -10  -2    7.10    1.20
  -1 -10  -2    0.70    0.60
  -2 -10  -2   36.80    2.60
  -3 -10  -2   26.30    2.20
  -3 -10  -2   32.50    2.50
  -4 -10  -2   -0.30    0.50
  -4 -10  -2    0.00    0.80
  -5 -10  -2   36.40    2.70
  -5 -10  -2   37.40    3.30
  -6 -10  -2   30.10    3.10
  -6 -10  -2   29.20    2.50
  -7 -10  -2   65.69    5.00
  -8 -10  -2   10.20    2.40
  -7  11   2    1.60    1.10
  -6  11   2    3.70    1.30
  -5  11   2   -0.10    0.70
   4 -11  -2    8.20    1.50
  -4  11   2    8.80    1.60
   3 -11  -2   40.90    2.90
  -3  11   2   37.20    2.90
   2 -11  -2    6.10    1.20
  -2  11   2    8.70    1.40
   1 -11  -2   34.50    2.60
  -1  11   2   33.80    2.50
  -1 -11  -2   84.49    4.70
  -2 -11  -2   56.29    3.50
  -3 -11  -2   40.10    3.00
  -3 -11  -2   35.20    2.70
  -4 -11  -2   12.30    2.00
  -4 -11  -2    9.60    1.60
  -5 -11  -2    2.30    1.00
  -5 -11  -2    0.10    0.80
  -6 -11  -2   29.90    3.20
  -6 -11  -2   29.40    2.60
  -7 -11  -2   20.70    3.10
  -8 -11  -2  107.89    7.00
  -6  12   2   17.50    2.60
  -5  12   2    9.70    1.80
   4 -12  -2   -0.60    0.50
  -4  12   2    0.50    0.70
   3 -12  -2    1.90    0.90
  -3  12   2    1.90    0.90
   2 -12  -2    3.50    1.10
  -2  12   2    4.10    1.20
   1 -12  -2  160.28    7.60
  -1  12   2  146.59    7.20
   0 -12  -2   12.20    1.80
  -1 -12  -2   27.50    2.40
  -2 -12  -2   41.40    3.10
  -3 -12  -2   15.70    2.00
  -4 -12  -2   17.60    2.20
  -5 -12  -2    0.90    1.00
  -5 -12  -2   -1.00    0.60
  -6 -12  -2   30.40    3.20
  -7 -12  -2   53.09    4.50
  -5  13   2   17.40    2.40
   4 -13  -2    2.90    1.20
  -4  13   2    1.30    0.90
   3 -13  -2   13.70    2.00
  -3  13   2   12.20    1.90
   2 -13  -2   15.80    2.20
  -2  13   2   13.70    2.00
   1 -13  -2    1.60    0.90
   0 -13  -2    4.10    1.20
  -1 -13  -2    3.00    1.10
  -2 -13  -2   52.59    3.70
  -3 -13  -2    5.60    1.40
  -4 -13  -2    8.70    1.60
  -5 -13  -2    7.20    1.60
  -6 -13  -2   31.90    3.40
   4 -14  -2    3.10    1.20
  -4  14   2    3.50    1.20
   3 -14  -2   35.70    3.10
  -3  14   2   39.00    3.20
   2 -14  -2    2.00    1.00
  -2  14   2    2.00    1.00
   1 -14  -2   12.20    2.00
   0 -14  -2    3.40    1.20
  -1 -14  -2    5.20    1.40
  -2 -14  -2   35.90    3.10
  -3 -14  -2   -0.60    0.80
  -4 -14  -2   83.59    5.30
   2 -15  -2    3.80    1.40
   1 -15  -2    2.80    1.10
   0 -15  -2    2.20    1.10
  -1 -15  -2    0.00    0.80
  -2 -15  -2    1.40    1.00
  -3 -15  -2   14.10    2.30
   1 -14   3   -0.70    0.80
   0 -13   3   -0.10    0.80
  -1  13  -3   -1.10    0.50
   1 -13   3   -0.80    0.70
  -2  13  -3   -0.70    0.70
   2 -13   3    0.30    0.80
  -3  13  -3    0.70    0.90
  -4  13  -3    0.80    0.90
  -5 -12   3   -0.70    1.10
  -4 -12   3   -1.00    0.80
  -3 -12   3    1.30    1.10
  -1 -12   3    0.30    0.70
   0 -12   3   -0.40    0.70
  -1  12  -3   -0.40    0.60
   1 -12   3    0.60    0.60
  -2  12  -3    0.10    0.80
   2 -12   3    0.00    0.60
  -3  12  -3    0.20    0.70
  -4  12  -3    0.90    0.80
  -5  12  -3    0.70    1.00
  -6 -11   3   -1.00    1.20
  -5 -11   3   -0.40    1.10
  -4 -11   3    0.00    1.00
  -3 -11   3    0.40    0.90
  -2 -11   3    0.50    0.80
  -1 -11   3    0.40    0.80
  -1 -11   3    0.00    0.60
   0  11  -3   -0.30    0.50
   0 -11   3    0.70    0.70
  -1  11  -3   -0.70    0.50
   1 -11   3   -0.40    0.50
  -2  11  -3   -0.40    0.50
   2 -11   3    0.60    0.70
  -3  11  -3    0.00    0.70
  -4  11  -3   -0.50    0.60
  -5  11  -3   -0.10    0.70
  -6  11  -3   -0.10    0.90
  -7 -10   3   -0.10    1.20
  -6 -10   3    0.00    1.10
  -5 -10   3   -0.50    0.80
  -4 -10   3    0.20    0.80
  -3 -10   3   -0.60    0.70
  -2 -10   3    0.30    0.70
  -2 -10   3   -0.70    0.50
   1  10  -3    0.40    0.60
  -1 -10   3    0.10    0.80
  -1 -10   3    0.10    0.60
   0  10  -3   -0.30    0.40
   0 -10   3    0.30    0.70
   0 -10   3   -0.90    0.60
  -1  10  -3    0.60    0.60
   1 -10   3   -0.30    0.50
  -2  10  -3   -0.40    0.50
   2 -10   3   -0.40    0.50
  -3  10  -3    0.10    0.60
  -4  10  -3    0.10    0.70
  -5  10  -3    0.70    0.80
  -6  10  -3   -0.50    0.80
  -7  10  -3    0.50    0.80
  -7  -9   3    0.80    1.30
  -6  -9   3   -0.80    0.70
  -5  -9   3    0.30    1.00
  -4  -9   3   -0.10    0.80
  -3  -9   3    0.00    0.70
  -2  -9   3    0.80    0.90
  -2  -9   3    0.20    0.40
   1   9  -3   -0.10    0.40
  -1  -9   3    0.10    0.70
  -1  -9   3   -0.50    0.50
   0   9  -3    0.00    0.50
   0  -9   3   -0.20    0.40
   0  -9   3    0.20    0.60
  -1   9  -3    0.10    0.50
   1  -9   3    0.10    0.50
   1  -9   3    0.00    0.60
  -2   9  -3    0.00    0.50
   2  -9   3    0.40    0.50
  -3   9  -3    0.60    0.60
  -4   9  -3   -0.30    0.60
  -5   9  -3    0.00    0.60
  -6   9  -3    0.20    0.60
  -7   9  -3    1.20    0.90
  -8   9  -3   -0.30    0.80
  -8  -8   3   -0.10    1.00
  -7  -8   3    0.10    1.00
  -6  -8   3    0.40    0.90
  -5  -8   3    0.00    0.70
  -4  -8   3   -0.40    0.70
  -3  -8   3   -0.50    0.60
   2   8  -3   -0.10    0.40
  -2  -8   3   -0.80    0.50
  -2  -8   3   -0.20    0.30
   1   8  -3   -0.40    0.30
  -1  -8   3    0.00    0.50
  -1  -8   3    0.00    0.40
   0   8  -3   -0.20    0.40
   0  -8   3    0.30    0.40
   0  -8   3   -0.50    0.40
  -1   8  -3    0.20    0.40
   1  -8   3   -0.20    0.30
   1  -8   3    0.30    0.50
  -2   8  -3    0.10    0.40
   2  -8   3    0.00    0.40
  -3   8  -3   -0.10    0.50
  -4   8  -3    0.20    0.60
  -5   8  -3    0.10    0.60
  -6   8  -3   -0.20    0.60
  -7   8  -3   -0.10    0.60
  -8   8  -3   -0.50    0.60
  -8  -7   3   -0.20    0.90
  -7  -7   3   -0.10    0.90
  -6  -7   3    0.70    0.90
  -5  -7   3   -1.40    0.60
  -4  -7   3   -0.80    0.80
   3   7  -3    0.30    0.40
  -3  -7   3    0.00    0.40
  -3  -7   3   -0.40    0.60
   2   7  -3    0.20    0.30
  -2  -7   3   -0.20    0.50
  -2  -7   3    0.00    0.30
   1   7  -3    0.40    0.40
  -1  -7   3   -0.10    0.40
  -1  -7   3    0.00    0.30
   0   7  -3   -0.20    0.30
   0  -7   3   -0.30    0.20
   0  -7   3    0.20    0.50
  -1   7  -3   -0.50    0.30
   1  -7   3   -0.20    0.30
   1  -7   3    0.10    0.40
  -2   7  -3   -0.20    0.30
   2  -7   3   -0.20    0.30
  -3   7  -3    0.50    0.50
  -4   7  -3    0.20    0.60
  -5   7  -3   -0.30    0.50
  -6   7  -3   -0.10    0.50
  -7   7  -3   -1.20    0.50
  -8   7  -3   -0.10    0.70
  -9   7  -3    0.50    0.80
  -9  -6   3   -0.70    1.00
  -8  -6   3   -0.30    0.90
  -7  -6   3    0.30    0.90
  -6  -6   3    0.00    0.70
  -5  -6   3   -0.30    0.70
  -4  -6   3   -0.50    0.70
   3   6  -3   -0.10    0.30
  -3  -6   3    0.10    0.30
  -3  -6   3   -0.10    0.50
   2   6  -3    0.00    0.20
  -2  -6   3   -0.20    0.20
  -2  -6   3    0.20    0.40
   1   6  -3   -0.10    0.20
  -1  -6   3   -0.30    0.30
  -1  -6   3    0.00    0.20
   0   6  -3   -0.10    0.30
   0  -6   3   -0.20    0.30
   0  -6   3   -0.10    0.20
  -1   6  -3    0.00    0.30
   1  -6   3   -0.20    0.30
   1  -6   3   -0.20    0.30
  -2   6  -3   -0.10    0.30
  -3   6  -3    0.50    0.50
  -4   6  -3    0.20    0.50
  -5   6  -3    0.10    0.40
  -5   6  -3    0.20    0.50
  -6   6  -3    0.10    0.50
  -7   6  -3    0.20    0.60
  -8   6  -3   -0.80    0.50
  -9   6  -3   -0.80    0.70
  -9  -5   3   -0.90    0.80
  -8  -5   3   -0.80    0.70
  -7  -5   3   -0.50    0.70
  -6  -5   3    0.10    0.80
  -5  -5   3    0.00    0.60
   4   5  -3    0.40    0.40
  -4  -5   3    0.00    0.30
  -4  -5   3   -0.10    0.50
   3   5  -3    0.40    0.30
  -3  -5   3    0.10    0.30
  -3  -5   3   -0.20    0.30
   2   5  -3   -0.10    0.10
  -2  -5   3   -0.10    0.20
  -2  -5   3   -0.20    0.30
   1   5  -3    0.20    0.30
  -1  -5   3    0.00    0.20
  -1  -5   3    0.00    0.40
   0   5  -3   -0.60    0.20
   0  -5   3   -0.30    0.30
   0  -5   3   -0.40    0.20
  -1   5  -3   -0.30    0.20
   1  -5   3   -0.30    0.30
   1  -5   3   -0.20    0.20
  -2   5  -3    0.10    0.30
  -3   5  -3   -0.10    0.30
  -4   5  -3   -0.40    0.40
  -5   5  -3   -0.10    0.50
  -5   5  -3    0.10    0.30
  -6   5  -3    0.10    0.50
  -6   5  -3    0.30    0.40
  -7   5  -3   -0.50    0.50
  -8   5  -3    0.20    0.60
  -9   5  -3   -0.60    0.50
 -10   5  -3    0.50    0.70
  -9  -4   3    0.30    1.20
  -8  -4   3   -0.40    0.80
  -7  -4   3   -0.70    0.90
  -6  -4   3    0.10    0.80
  -5  -4   3    0.50    0.40
  -5  -4   3   -0.40    0.50
  -4  -4   3   -0.20    0.20
  -4  -4   3    0.00    0.30
  -4  -4   3    0.80    0.60
   3   4  -3    0.20    0.30
  -3  -4   3   -0.10    0.20
  -3  -4   3   -0.40    0.30
   2   4  -3   -0.10    0.10
  -2  -4   3    0.10    0.30
  -2  -4   3    0.00    0.20
   1   4  -3   -0.10    0.20
  -1  -4   3    0.00    0.20
  -1  -4   3   -0.10    0.20
   0   4  -3    0.10    0.20
   0  -4   3   -0.20    0.20
   0  -4   3    0.00    0.10
  -1   4  -3   -0.20    0.20
   1  -4   3   -0.20    0.20
   1  -4   3   -0.10    0.20
  -2   4  -3    0.10    0.30
  -3   4  -3    0.00    0.30
  -4   4  -3    0.00    0.40
  -5   4  -3   -0.40    0.30
  -5   4  -3   -0.10    0.40
  -6   4  -3   -0.20    0.50
  -6   4  -3   -1.10    0.40
  -7   4  -3    0.20    0.60
  -7   4  -3   -0.30    0.50
  -8   4  -3    0.20    0.60
  -9   4  -3    0.70    0.60
 -10  -3   3    0.80    1.20
  -9  -3   3   -0.10    0.90
  -8  -3   3   -0.30    0.70
  -7  -3   3   -1.30    0.80
  -6  -3   3   -0.30    0.60
  -5  -3   3    0.20    0.50
  -5  -3   3    0.00    0.30
  -4  -3   3   -0.20    0.30
  -4  -3   3   -0.30    0.40
  -3  -3   3   -0.10    0.20
  -3  -3   3    0.00    0.30
  -3  -3   3   -0.20    0.20
   2   3  -3    0.30    0.30
  -2  -3   3   -0.10    0.20
  -2  -3   3    0.10    0.40
   1   3  -3   -0.20    0.20
  -1  -3   3    0.00    0.20
  -1  -3   3   -0.10    0.10
   0   3  -3   -0.10    0.20
   0  -3   3   -0.10    0.10
   0  -3   3   -0.10    0.20
  -1   3  -3    0.10    0.20
  -2   3  -3   -0.10    0.20
  -3   3  -3   -0.40    0.30
  -4   3  -3   -0.20    0.30
  -5   3  -3   -0.50    0.30
  -5   3  -3   -0.20    0.30
  -6   3  -3    0.00    0.50
  -6   3  -3   -0.50    0.30
  -7   3  -3   -0.20    0.30
  -7   3  -3    0.00    0.50
  -8   3  -3    0.70    0.60
  -8   3  -3    0.10    0.50
  -9   3  -3    0.90    0.60
 -10  -2   3   -0.80    1.10
  -9  -2   3   -0.20    0.90
  -8  -2   3   -0.30    0.70
  -7  -2   3    1.10    0.90
  -6  -2   3   -0.50    0.60
  -6  -2   3    0.00    0.30
  -5  -2   3   -0.20    0.30
  -5  -2   3    0.20    0.50
  -4  -2   3    0.10    0.30
  -4  -2   3   -0.20    0.30
  -3  -2   3   -0.20    0.30
  -3  -2   3    0.20    0.30
  -2  -2   3    0.10    0.20
  -2  -2   3    0.30    0.10
  -2  -2   3    0.00    0.30
   1   2  -3   -0.40    0.20
  -1  -2   3   -0.20    0.10
  -1  -2   3   -0.10    0.20
   0   2  -3   -0.70    0.20
   0  -2   3   -0.20    0.30
  -1   2  -3   -0.10    0.20
  -2   2  -3   -0.20    0.20
  -3   2  -3   -0.20    0.20
  -4   2  -3   -0.10    0.30
  -4   2  -3   -0.20    0.30
  -5   2  -3   -0.30    0.30
  -5   2  -3   -0.40    0.30
  -6   2  -3    0.30    0.40
  -6   2  -3   -0.10    0.30
  -7   2  -3    0.40    0.60
  -7   2  -3    0.20    0.40
  -8   2  -3   -0.40    0.40
  -8   2  -3   -0.60    0.50
  -9   2  -3   -0.40    0.70
 -10  -1   3    0.10    1.20
  -9  -1   3   -0.10    1.00
  -8  -1   3   -0.10    0.70
  -7  -1   3   -0.10    0.40
  -7  -1   3   -0.50    0.70
  -6  -1   3    0.40    0.50
  -6  -1   3    0.30    0.90
  -5  -1   3    0.20    0.50
  -5  -1   3   -0.50    0.30
  -4  -1   3    0.10    0.40
  -4  -1   3   -1.00    0.40
  -3  -1   3   -0.10    0.20
  -3  -1   3   -0.10    0.30
  -2  -1   3   -0.20    0.20
  -2  -1   3    0.00    0.20
  -1  -1   3   -0.40    0.10
  -1  -1   3    0.00    0.20
   0   1  -3   -0.20    0.10
   0  -1   3   -0.20    0.20
  -1   1  -3    0.00    0.20
  -3   1  -3    0.10    0.20
  -4   1  -3    0.00    0.30
  -4   1  -3    0.20    0.30
  -5   1  -3   -0.50    0.30
  -5   1  -3   -0.20    0.20
  -6   1  -3   -0.30    0.40
  -6   1  -3   -0.20    0.30
  -7   1  -3    0.00    0.50
  -7   1  -3    0.10    0.40
  -8   1  -3    0.10    0.40
  -8   1  -3   -0.10    0.60
  -9   1  -3    0.90    0.80
 -10   1  -3    0.00    0.80
 -10   0   3   -0.40    1.20
  -9   0   3    0.00    0.90
  -8   0   3    0.10    0.80
  -7   0   3   -0.20    0.70
  -7   0   3   -0.10    0.50
  -6   0   3    0.10    0.40
  -6   0   3    0.70    0.70
  -5   0   3   -0.20    0.40
  -5   0   3    0.00    0.40
  -4   0   3   -0.20    0.20
  -4   0   3   -0.10    0.40
  -3   0   3    0.10    0.20
  -3   0   3   -0.20    0.30
  -2   0   3   -0.10    0.20
  -2   0   3   -0.10    0.20
  -1   0   3    0.00    0.20
  -1   0   3    0.00    0.20
   0   0   3   -0.10    0.10
   0   0   3   -0.20    0.10
  -1   0  -3   -0.40    0.20
  -2   0  -3    0.00    0.10
  -3   0  -3    0.00    0.20
  -3   0  -3    0.10    0.20
  -4   0  -3    0.40    0.30
  -4   0  -3   -0.20    0.20
  -5   0  -3    0.00    0.30
  -5   0  -3    0.00    0.20
  -6   0  -3    0.30    0.40
  -6   0  -3   -0.20    0.30
  -7   0  -3    1.10    0.60
  -7   0  -3    0.20    0.30
  -8   0  -3    0.80    0.80
  -9   0  -3   -0.10    0.70
 -10   0  -3    0.80    1.10
 -11   0  -3    1.30    1.40
  -9   1   3   -0.60    0.90
  -8   1   3   -0.30    0.70
  -8   1   3    0.10    0.50
  -7   1   3   -0.10    0.60
  -7   1   3   -0.10    0.40
  -6   1   3    0.20    0.60
  -6   1   3    0.30    0.40
  -5   1   3    0.10    0.30
  -5   1   3    0.10    0.50
  -4   1   3    0.10    0.40
  -4   1   3   -0.40    0.20
  -3   1   3   -0.10    0.20
  -3   1   3    0.10    0.30
  -2   1   3   -0.10    0.20
  -2   1   3    0.00    0.10
   1  -1  -3   -0.10    0.10
  -1   1   3    0.00    0.20
  -1   1   3   -0.10    0.10
   0   1   3   -1.30    0.20
  -2  -1  -3   -0.10    0.10
  -2  -1  -3    0.50    0.20
  -3  -1  -3   -0.20    0.20
  -3  -1  -3   -0.20    0.10
  -4  -1  -3   -0.30    0.20
  -4  -1  -3    0.70    0.30
  -5  -1  -3   -0.10    0.20
  -5  -1  -3   -0.40    0.30
  -6  -1  -3   -0.30    0.30
  -6  -1  -3    0.20    0.30
  -7  -1  -3    0.10    0.50
  -8  -1  -3    0.10    0.70
  -9  -1  -3    0.00    0.80
 -10  -1  -3   -0.30    0.80
 -11  -1  -3    0.90    1.30
  -9   2   3   -0.90    0.40
  -8   2   3    0.20    0.80
  -8   2   3   -0.40    0.40
  -7   2   3    0.30    0.70
  -7   2   3    0.20    0.50
  -6   2   3   -0.30    0.30
  -6   2   3    0.30    0.60
  -5   2   3   -0.30    0.30
  -5   2   3    0.10    0.30
  -4   2   3   -0.40    0.30
  -4   2   3   -0.10    0.30
  -3   2   3    0.10    0.20
  -3   2   3    0.00    0.20
   2  -2  -3   -0.40    0.10
  -2   2   3   -0.30    0.10
  -2   2   3   -0.40    0.20
   1  -2  -3   -0.80    0.10
  -1   2   3   -0.50    0.20
  -1   2   3   -0.80    0.20
   0   2   3    0.00    0.20
   1   2   3    0.00    0.10
  -2  -2  -3   -0.30    0.10
  -2  -2  -3   -0.20    0.20
  -3  -2  -3    0.00    0.10
  -3  -2  -3    0.00    0.20
  -4  -2  -3    0.10    0.20
  -4  -2  -3    0.10    0.30
  -5  -2  -3    0.10    0.20
  -5  -2  -3   -0.10    0.30
  -6  -2  -3    0.00    0.40
  -6  -2  -3    0.10    0.20
  -7  -2  -3    0.00    0.50
  -8  -2  -3    0.20    0.80
  -9  -2  -3    0.00    0.80
 -10  -2  -3   -0.10    0.90
 -11  -2  -3   -0.20    1.10
  -9   3   3   -0.30    0.50
  -8   3   3    0.00    0.60
  -7   3   3    0.10    0.50
  -6   3   3    0.00    0.70
  -6   3   3   -0.10    0.40
  -5   3   3    0.00    0.30
  -5   3   3   -0.30    0.40
  -4   3   3    0.10    0.30
  -4   3   3   -0.20    0.30
   3  -3  -3   -0.30    0.20
  -3   3   3    0.00    0.30
  -3   3   3    0.10    0.40
   2  -3  -3    0.00    0.20
  -2   3   3   -0.20    0.20
  -2   3   3   -0.10    0.10
   1  -3  -3    0.00    0.10
  -1   3   3    0.20    0.20
   0  -3  -3    0.10    0.10
   0  -3  -3    0.00    0.10
   0   3   3   -0.10    0.10
  -1  -3  -3   -0.10    0.10
   1   3   3    0.10    0.10
  -2  -3  -3   -0.10    0.10
  -2  -3  -3   -0.10    0.20
  -3  -3  -3    0.00    0.10
  -3  -3  -3   -0.10    0.20
  -4  -3  -3   -0.40    0.20
  -4  -3  -3    0.00    0.10
  -5  -3  -3   -0.40    0.30
  -5  -3  -3   -0.10    0.20
  -6  -3  -3   -0.40    0.40
  -7  -3  -3    0.00    0.60
  -8  -3  -3    0.00    0.70
  -9  -3  -3    0.40    1.00
 -10  -3  -3    0.30    1.10
 -10   4   3   -0.40    0.70
  -9   4   3    0.30    0.70
  -8   4   3   -0.20    0.50
  -7   4   3   -0.30    0.50
  -6   4   3   -0.20    0.40
  -5   4   3    0.00    0.40
  -5   4   3   -0.20    0.30
  -4   4   3    0.00    0.30
  -4   4   3   -0.10    0.30
   3  -4  -3   -0.10    0.20
  -3   4   3   -0.20    0.30
  -3   4   3    0.10    0.20
   2  -4  -3   -0.10    0.20
  -2   4   3    0.00    0.10
  -2   4   3   -0.20    0.20
   1  -4  -3    0.00    0.20
  -1   4   3    0.00    0.20
   0  -4  -3   -0.50    0.20
   0  -4  -3   -0.50    0.10
   0   4   3   -0.70    0.10
  -1  -4  -3    0.10    0.20
  -1  -4  -3   -0.10    0.10
   1   4   3   -0.20    0.10
  -2  -4  -3    0.00    0.20
   2   4   3    0.00    0.10
  -3  -4  -3    0.20    0.30
  -4  -4  -3    0.30    0.50
  -5  -4  -3   -0.50    0.30
  -6  -4  -3   -0.20    0.50
  -7  -4  -3    0.20    0.70
  -8  -4  -3   -0.20    0.80
  -9  -4  -3   -0.30    0.80
 -10  -4  -3    0.10    1.20
 -10   5   3    0.30    0.90
  -9   5   3   -0.50    0.60
  -8   5   3   -0.10    0.70
  -7   5   3   -0.20    0.50
  -6   5   3    0.00    0.50
  -5   5   3   -0.20    0.40
  -4   5   3    0.00    0.40
   3  -5  -3   -0.40    0.20
  -3   5   3    0.20    0.30
  -3   5   3    0.00    0.10
   2  -5  -3    0.30    0.30
  -2   5   3   -0.20    0.30
   1  -5  -3   -0.40    0.20
  -1   5   3    0.00    0.30
   0  -5  -3    0.00    0.20
   0  -5  -3    0.20    0.20
   0   5   3   -0.10    0.10
  -1  -5  -3    0.00    0.20
  -1  -5  -3   -0.20    0.20
   1   5   3    0.00    0.10
  -2  -5  -3   -0.20    0.30
   2   5   3   -0.20    0.10
  -3  -5  -3    0.40    0.40
  -4  -5  -3   -0.30    0.30
  -5  -5  -3    0.10    0.50
  -6  -5  -3   -0.10    0.60
  -7  -5  -3   -0.30    0.70
  -8  -5  -3   -0.90    0.70
  -9  -5  -3    0.80    1.10
 -10  -5  -3   -0.10    1.10
  -9   6   3    1.20    0.90
  -8   6   3    0.20    0.60
  -7   6   3   -0.40    0.50
  -6   6   3   -0.30    0.40
  -5   6   3   -0.50    0.30
   4  -6  -3    0.30    0.40
  -4   6   3    0.10    0.30
   3  -6  -3    0.00    0.40
  -3   6   3    0.00    0.40
   2  -6  -3    0.00    0.30
  -2   6   3    0.10    0.30
   1  -6  -3   -0.30    0.20
  -1   6   3   -0.10    0.20
   0  -6  -3   -0.30    0.30
   0  -6  -3   -0.50    0.30
   0   6   3   -0.50    0.10
  -1  -6  -3    0.10    0.30
  -1  -6  -3    0.30    0.50
  -2  -6  -3   -0.50    0.20
  -2  -6  -3   -0.60    0.40
   2   6   3    0.10    0.10
  -3  -6  -3    0.20    0.40
  -4  -6  -3   -0.40    0.40
  -5  -6  -3    0.50    0.60
  -6  -6  -3    0.10    0.70
  -7  -6  -3   -1.40    1.00
  -8  -6  -3   -0.70    0.90
  -9  -6  -3   -1.00    0.90
 -10  -6  -3   -1.00    1.20
  -9   7   3   -0.20    0.80
  -8   7   3   -0.20    0.60
  -7   7   3   -0.10    0.60
  -6   7   3   -0.20    0.40
  -5   7   3   -0.30    0.40
   4  -7  -3   -0.30    0.30
  -4   7   3   -0.20    0.40
   3  -7  -3   -0.30    0.30
  -3   7   3    0.20    0.40
   2  -7  -3   -0.20    0.30
  -2   7   3   -0.20    0.20
   1  -7  -3   -0.20    0.10
   1  -7  -3   -0.30    0.20
  -1   7   3   -0.30    0.20
   0  -7  -3    0.10    0.20
   0  -7  -3    0.00    0.30
   0   7   3    0.10    0.20
  -1  -7  -3    0.00    0.30
  -1  -7  -3    0.00    0.30
   1   7   3   -0.20    0.20
  -2  -7  -3    0.00    0.40
  -2  -7  -3    0.30    0.30
   2   7   3    0.20    0.20
  -3  -7  -3   -0.30    0.30
  -3  -7  -3    0.30    0.60
  -4  -7  -3    1.00    0.70
  -5  -7  -3   -0.20    0.60
  -6  -7  -3   -0.10    0.70
  -7  -7  -3   -1.20    0.70
  -8  -7  -3    0.10    0.90
  -9  -7  -3   -0.10    1.00
 -10  -7  -3   -0.80    1.30
  -9   8   3    0.20    0.70
  -8   8   3    0.00    0.70
  -7   8   3    0.20    0.60
  -6   8   3    0.20    0.50
  -5   8   3    0.50    0.60
   4  -8  -3   -0.10    0.40
  -4   8   3   -0.10    0.40
   3  -8  -3   -0.10    0.40
  -3   8   3    0.30    0.40
   2  -8  -3   -0.50    0.30
  -2   8   3    0.10    0.30
   1  -8  -3    0.20    0.30
  -1   8   3    0.00    0.30
   0  -8  -3    0.50    0.40
   0  -8  -3    0.10    0.20
   0   8   3    0.10    0.20
  -1  -8  -3    0.20    0.30
  -1  -8  -3   -0.20    0.30
   1   8   3    0.10    0.30
  -2  -8  -3   -0.40    0.40
  -2  -8  -3    0.10    0.40
   2   8   3   -0.10    0.30
  -3  -8  -3   -0.80    0.20
  -3  -8  -3   -0.10    0.50
  -4  -8  -3   -0.60    0.50
  -4  -8  -3    0.10    0.40
  -5  -8  -3    0.00    0.80
  -6  -8  -3   -0.40    1.10
  -7  -8  -3   -1.20    0.60
  -8  -8  -3    0.20    1.00
  -9  -8  -3   -1.00    1.00
  -8   9   3    1.20    0.90
  -7   9   3   -0.50    0.60
  -6   9   3   -0.40    0.50
  -5   9   3    0.10    0.50
   4  -9  -3    0.00    0.40
  -4   9   3    0.20    0.50
   3  -9  -3   -0.60    0.40
  -3   9   3   -0.30    0.40
   2  -9  -3   -0.10    0.40
  -2   9   3   -0.40    0.30
   1  -9  -3   -0.40    0.30
  -1   9   3   -0.10    0.40
   0  -9  -3   -0.30    0.40
   0   9   3    0.10    0.20
  -1  -9  -3   -0.40    0.30
  -1  -9  -3    0.20    0.40
   1   9   3    0.40    0.30
  -2  -9  -3   -0.40    0.30
  -2  -9  -3    0.00    0.50
  -3  -9  -3   -0.30    0.30
  -3  -9  -3   -0.60    0.50
  -4  -9  -3   -0.50    0.60
  -4  -9  -3   -0.20    0.40
  -5  -9  -3   -0.20    0.50
  -5  -9  -3   -0.70    0.80
  -6  -9  -3   -0.50    0.70
  -6  -9  -3   -0.20    0.50
  -7  -9  -3   -0.80    0.80
  -8  -9  -3   -0.20    1.00
  -8  10   3    0.00    0.70
  -7  10   3    0.20    0.80
  -6  10   3    0.80    0.70
  -5  10   3   -0.10    0.70
   4 -10  -3    0.40    0.60
  -4  10   3    0.20    0.50
   3 -10  -3   -0.40    0.40
  -3  10   3   -0.30    0.50
   2 -10  -3   -0.50    0.40
  -2  10   3   -0.10    0.50
   1 -10  -3   -0.10    0.50
  -1  10   3    0.40    0.50
   0 -10  -3   -0.60    0.30
   0  10   3   -0.10    0.20
  -1 -10  -3    0.00    0.40
  -2 -10  -3   -0.20    0.40
  -2 -10  -3    0.50    0.50
  -3 -10  -3   -0.30    0.50
  -3 -10  -3   -0.40    0.40
  -4 -10  -3    0.00    0.50
  -4 -10  -3    0.20    0.80
  -5 -10  -3    0.50    0.90
  -5 -10  -3    0.00    0.60
  -6 -10  -3   -0.60    0.80
  -6 -10  -3   -0.60    0.50
  -7 -10  -3    0.20    0.70
  -7 -10  -3    0.30    1.10
  -8 -10  -3    0.50    1.30
  -7  11   3   -0.10    0.70
  -6  11   3   12.60    2.30
  -5  11   3    0.30    0.80
   4 -11  -3   -0.30    0.50
  -4  11   3    0.20    0.60
   3 -11  -3   -0.30    0.60
  -3  11   3    0.10    0.60
   2 -11  -3   -0.60    0.50
  -2  11   3   -0.10    0.50
   1 -11  -3   -0.50    0.40
  -1  11   3   -0.40    0.40
   0 -11  -3    0.30    0.50
   0  11   3    0.20    0.30
  -1 -11  -3   -0.40    0.50
  -2 -11  -3    0.00    0.50
  -3 -11  -3    0.50    0.70
  -3 -11  -3   -0.30    0.50
  -4 -11  -3   -0.50    0.50
  -4 -11  -3    0.00    0.70
  -5 -11  -3    1.00    0.80
  -5 -11  -3    0.20    0.70
  -6 -11  -3   -0.80    0.90
  -6 -11  -3    0.30    0.70
  -7 -11  -3    0.50    1.10
  -7 -11  -3   -0.60    0.70
  -8 -11  -3   -0.70    1.10
  -6  12   3   -0.50    0.90
  -5  12   3   -0.40    0.60
   4 -12  -3    0.30    0.70
  -4  12   3   -0.10    0.70
   3 -12  -3    0.00    0.60
  -3  12   3    0.30    0.50
   2 -12  -3   -0.80    0.60
  -2  12   3    0.70    0.60
   1 -12  -3   -0.50    0.60
  -1  12   3   -0.60    0.50
   0 -12  -3   -0.60    0.50
  -1 -12  -3    1.60    0.80
  -2 -12  -3   -0.60    0.50
  -3 -12  -3    0.00    0.60
  -4 -12  -3    0.00    0.70
  -5 -12  -3    1.10    1.00
  -5 -12  -3   -0.40    0.70
  -6 -12  -3   -0.10    0.70
  -6 -12  -3   -0.50    1.00
  -7 -12  -3   -1.50    0.90
  -5  13   3   -0.20    0.90
   4 -13  -3   -0.10    0.70
  -4  13   3    0.40    0.80
   3 -13  -3    0.30    0.70
  -3  13   3   -0.10    0.60
   2 -13  -3    0.80    0.80
  -2  13   3   -0.20    0.50
   1 -13  -3    0.30    0.70
   0 -13  -3   -0.20    0.50
  -1 -13  -3   -0.20    0.70
  -2 -13  -3    0.40    0.70
  -3 -13  -3   -0.10    0.60
  -4 -13  -3   -0.80    0.60
  -5 -13  -3    0.80    0.80
  -6 -13  -3   -0.50    0.80
   4 -14  -3   -0.30    0.70
  -4  14   3   -0.50    0.80
   3 -14  -3   -0.30    0.80
  -3  14   3   -0.20    0.70
   2 -14  -3   -1.10    0.70
  -2  14   3    0.20    0.60
   1 -14  -3    0.50    0.80
   0 -14  -3    0.00    0.70
  -1 -14  -3   -0.20    0.60
  -2 -14  -3    0.00    0.70
  -3 -14  -3   -0.60    0.70
  -4 -14  -3   -0.30    0.70
  -5 -14  -3   -0.30    0.80
   2 -15  -3    0.40    0.80
   1 -15  -3   -0.50    0.80
   0 -15  -3   -0.40    0.70
  -1 -15  -3   -0.10    0.80
  -2 -15  -3    1.30    1.10
  -3 -15  -3   -1.00    0.90
   1 -13   4    8.60    1.70
  -2  13  -4   45.10    3.60
  -3  13  -4   10.20    2.00
  -4 -12   4    6.60    2.00
  -3 -12   4    0.50    1.00
  -2 -12   4    3.00    1.50
   0 -12   4  111.59    6.10
  -1  12  -4    2.10    1.00
   1 -12   4    3.30    1.10
  -2  12  -4    2.50    1.10
  -3  12  -4   10.90    2.00
  -4  12  -4    5.40    1.50
  -5  12  -4   -0.20    0.90
  -5 -11   4    2.00    1.40
  -4 -11   4   52.99    4.40
  -3 -11   4    8.10    1.80
  -2 -11   4    1.00    1.00
  -1 -11   4   32.10    2.90
   0  11  -4  115.29    6.00
   0 -11   4  127.29    6.20
  -1  11  -4   65.29    4.00
   1 -11   4   64.59    4.00
  -2  11  -4    3.60    1.10
  -3  11  -4    2.00    1.00
  -4  11  -4   17.00    2.40
  -5  11  -4    1.60    1.00
  -6  11  -4    5.70    1.60
  -6 -10   4   38.60    3.90
  -5 -10   4    0.30    1.00
  -4 -10   4   14.80    2.40
  -3 -10   4   73.89    5.00
  -2 -10   4   16.60    2.40
   1  10  -4    6.10    1.30
  -1 -10   4    4.90    1.10
  -1 -10   4    4.30    1.30
   0  10  -4    7.50    1.30
   0 -10   4    4.20    1.00
   0 -10   4    7.90    1.60
  -1  10  -4   56.49    3.50
   1 -10   4   54.89    3.40
  -2  10  -4    0.70    0.60
  -3  10  -4    5.80    1.30
  -4  10  -4    0.10    0.70
  -5  10  -4    6.00    1.50
  -6  10  -4   -0.60    0.70
  -7  10  -4    5.80    1.60
  -7  -9   4   15.90    3.10
  -6  -9   4   24.50    3.40
  -5  -9   4   10.70    2.10
  -4  -9   4   50.59    4.00
  -3  -9   4   76.99    4.90
  -2  -9   4  394.96   16.90
   1   9  -4   20.60    1.70
  -1  -9   4   16.60    1.60
  -1  -9   4   17.10    2.20
   0   9  -4   36.80    2.50
   0  -9   4   37.30    2.50
   0  -9   4   34.60    2.80
  -1   9  -4    0.20    0.50
   1  -9   4   -0.30    0.40
  -2   9  -4    0.40    0.60
  -3   9  -4    9.20    1.50
  -4   9  -4   20.20    2.10
  -5   9  -4    0.50    0.70
  -6   9  -4    1.60    0.90
  -7   9  -4   15.30    2.30
  -8   9  -4    2.90    1.20
  -8  -8   4   23.60    3.60
  -7  -8   4   -0.60    1.00
  -6  -8   4   -0.30    1.00
  -5  -8   4    9.20    2.00
  -4  -8   4   59.29    4.30
  -3  -8   4   65.39    4.30
  -2  -8   4   59.09    4.00
  -2  -8   4   66.99    4.50
   1   8  -4   85.59    4.30
  -1  -8   4   84.29    4.80
   0   8  -4    4.20    0.90
   0  -8   4    4.00    1.10
   0  -8   4    2.90    0.80
  -1   8  -4   67.09    3.80
   1  -8   4   72.79    3.80
   1  -8   4   72.99    4.10
  -2   8  -4    2.30    0.80
  -3   8  -4    8.30    1.40
  -4   8  -4   29.30    2.50
  -5   8  -4    3.80    1.10
  -6   8  -4    3.00    1.10
  -7   8  -4    9.10    1.70
  -8   8  -4    3.20    1.20
  -8  -7   4    1.60    1.10
  -7  -7   4    0.40    0.70
  -6  -7   4    1.50    1.10
  -5  -7   4   33.80    3.20
  -4  -7   4  110.89    6.30
   3   7  -4  130.19    5.70
  -3  -7   4  122.59    6.60
   2   7  -4    0.60    0.50
  -2  -7   4    0.70    0.70
  -2  -7   4    0.90    0.40
   1   7  -4   -0.10    0.30
  -1  -7   4    0.30    0.30
  -1  -7   4    0.10    0.60
   0   7  -4   12.10    1.20
   0  -7   4   13.50    1.70
   0  -7   4   12.80    1.20
  -1   7  -4   63.89    3.50
   1  -7   4   69.69    3.80
   1  -7   4   67.09    3.50
  -2   7  -4    0.70    0.50
  -3   7  -4   39.40    2.70
  -4   7  -4  174.78    8.00
  -5   7  -4   43.70    3.00
  -6   7  -4    5.50    1.30
  -7   7  -4    1.30    0.90
  -8   7  -4   12.70    2.00
  -9   7  -4   15.80    2.40
  -9  -6   4    1.70    1.40
  -8  -6   4    3.20    1.50
  -7  -6   4    2.30    1.30
  -5  -6   4   21.60    2.70
   4   6  -4   37.80    3.20
  -4  -6   4   33.70    2.90
   3   6  -4   31.30    1.90
  -3  -6   4   28.70    2.50
   2   6  -4    3.80    0.70
  -2  -6   4    3.60    0.60
  -2  -6   4    2.50    0.80
   1   6  -4    8.60    1.10
  -1  -6   4    7.90    1.30
  -1  -6   4    8.30    1.00
   0   6  -4   18.10    1.40
   0  -6   4   15.60    1.30
   0  -6   4   16.40    1.60
  -1   6  -4  119.89    5.50
   1  -6   4  115.99    5.30
   1  -6   4  122.29    5.70
  -2   6  -4   49.60    2.90
  -3   6  -4   46.80    2.80
  -4   6  -4  333.97   13.90
  -5   6  -4  188.88    8.60
  -6   6  -4    0.40    0.60
  -7   6  -4   14.60    2.00
  -8   6  -4   12.20    1.90
  -9   6  -4    5.50    1.40
  -9  -5   4    7.30    2.00
  -8  -5   4    1.40    1.10
  -7  -5   4    6.10    1.70
  -6  -5   4    3.00    1.30
   4   5  -4  144.79    6.50
  -4  -5   4  151.58    7.50
   3   5  -4    0.20    0.30
  -3  -5   4    0.60    0.50
  -3  -5   4    0.70    0.40
   2   5  -4    0.90    0.40
  -2  -5   4    0.70    0.30
  -2  -5   4    0.00    0.40
   1   5  -4    1.90    0.50
  -1  -5   4    2.40    0.70
  -1  -5   4    1.50    0.40
   0   5  -4    3.80    0.70
   0  -5   4    8.70    1.20
  -1   5  -4  245.88   10.20
   1  -5   4  248.78   10.40
  -2   5  -4    3.00    0.70
  -3   5  -4    1.30    0.50
  -4   5  -4  688.33   26.80
  -5   5  -4  276.47   11.70
  -6   5  -4  125.19    5.80
  -6   5  -4  113.49    5.90
  -7   5  -4    2.30    0.90
  -7   5  -4    2.30    1.00
  -8   5  -4    1.90    0.80
  -9   5  -4    0.20    0.70
 -10   5  -4   -0.20    0.60
  -9  -4   4    1.70    1.50
  -8  -4   4   56.39    4.50
  -7  -4   4    0.10    0.80
  -6  -4   4  116.69    6.60
  -5  -4   4    7.20    1.50
  -5  -4   4    6.80    1.10
  -4  -4   4  163.58    7.10
  -3  -4   4   18.60    1.10
  -3  -4   4   19.90    1.80
   2   4  -4    2.00    0.50
  -2  -4   4    1.40    0.60
  -2  -4   4    1.10    0.30
   1   4  -4  270.77   10.90
  -1  -4   4  274.87   10.60
  -1  -4   4  274.57   11.40
   0   4  -4  350.46   13.90
   0  -4   4  349.17   13.70
   0  -4   4  361.96   14.30
  -1   4  -4  133.79    5.80
  -2   4  -4  134.59    5.90
  -3   4  -4   93.39    4.50
  -4   4  -4  190.68    8.20
  -5   4  -4  286.47   11.80
  -5   4  -4  283.97   11.90
  -6   4  -4  388.36   16.50
  -6   4  -4  425.66   16.50
  -7   4  -4    4.60    1.10
  -7   4  -4    2.70    0.90
  -8   4  -4   -0.10    0.60
  -8   4  -4    0.40    0.70
  -9   4  -4   21.80    2.20
  -9  -3   4    3.40    1.50
  -8  -3   4   15.40    2.50
  -7  -3   4    5.60    1.60
  -6  -3   4   33.70    2.90
  -6  -3   4   30.00    2.40
  -5  -3   4    1.90    0.60
  -5  -3   4    2.50    0.90
  -3  -3   4    2.60    0.60
  -3  -3   4    3.40    0.90
  -3  -3   4    2.70    0.40
   2   3  -4  952.10   37.90
  -2  -3   4 1002.70   38.20
  -2  -3   4 1037.90   37.30
   1   3  -4 3045.40  114.39
  -1  -3   4 3081.29  115.29
  -1  -3   4 3076.39  114.79
   0   3  -4    7.90    0.80
   0  -3   4    8.30    1.10
  -1   3  -4  125.39    5.40
  -2   3  -4 1433.96   53.99
  -3   3  -4  860.21   32.80
  -4   3  -4  142.49    6.30
  -5   3  -4    4.30    0.90
  -5   3  -4    5.40    1.00
  -6   3  -4    4.80    1.00
  -6   3  -4    4.60    1.00
  -7   3  -4    3.10    0.90
  -7   3  -4    2.50    0.90
  -8   3  -4    0.10    0.50
  -8   3  -4   -0.10    0.60
  -9   3  -4    7.10    1.40
  -9   3  -4    6.50    1.40
 -10  -2   4    0.00    1.10
  -9  -2   4    0.30    0.90
  -8  -2   4   12.90    2.30
  -7  -2   4   55.29    4.00
  -6  -2   4    4.20    1.30
  -6  -2   4    4.90    1.00
  -5  -2   4    4.90    0.90
  -5  -2   4    8.20    1.50
  -4  -2   4   34.40    2.30
  -4  -2   4   41.30    2.70
  -3  -2   4  232.48    8.60
  -3  -2   4  213.98    9.30
  -3  -2   4  228.38    9.70
  -2  -2   4  860.31   33.10
  -2  -2   4  896.51   32.40
  -2  -2   4  852.11   33.30
   1   2  -4    5.90    0.80
  -1  -2   4    5.00    0.80
   0   2  -4  136.49    5.70
   0  -2   4  133.49    5.90
  -1   2  -4  675.03   25.70
  -2   2  -4  962.20   36.40
  -3   2  -4 2509.85   93.79
  -4   2  -4  827.62   31.60
  -5   2  -4   20.00    1.50
  -5   2  -4   22.20    1.70
  -6   2  -4   75.99    3.90
  -6   2  -4   74.19    4.00
  -7   2  -4    0.20    0.60
  -7   2  -4   -0.20    0.40
  -8   2  -4   32.50    2.50
  -8   2  -4   39.70    2.80
  -9   2  -4    0.50    0.70
 -10   2  -4    2.30    1.20
 -10  -1   4    2.80    1.40
  -9  -1   4    2.30    1.30
  -8  -1   4    3.80    1.30
  -7  -1   4  115.29    6.10
  -7  -1   4  134.59    6.90
  -6  -1   4   12.80    1.60
  -6  -1   4   12.10    1.90
  -5  -1   4   21.30    2.00
  -5  -1   4   21.60    1.80
  -4  -1   4  197.48    8.70
  -4  -1   4  214.38    9.00
  -3  -1   4 1773.92   66.69
  -2  -1   4 1588.94   59.99
  -2  -1   4 1604.34   60.09
  -1  -1   4  378.76   14.80
  -1  -1   4  379.76   14.90
   0   1  -4  237.58    9.40
   0  -1   4  233.58    9.50
  -1   1  -4   35.90    1.90
  -2   1  -4  147.49    6.10
  -3   1  -4  486.75   18.70
  -4   1  -4  111.99    4.90
  -4   1  -4  113.09    5.10
  -5   1  -4    6.50    1.00
  -5   1  -4    9.30    1.10
  -6   1  -4    5.10    1.00
  -6   1  -4    5.10    0.90
  -7   1  -4    0.00    0.40
  -7   1  -4    0.00    0.60
  -8   1  -4   10.30    1.60
  -8   1  -4   11.70    1.50
  -9   1  -4    2.50    1.00
 -10   1  -4    2.40    1.30
  -9   0   4    3.70    1.40
  -8   0   4   27.70    4.10
  -8   0   4   23.80    2.50
  -7   0   4  121.59    6.20
  -7   0   4  102.69    5.60
  -6   0   4   15.60    1.60
  -6   0   4   16.50    2.10
  -5   0   4   47.70    3.00
  -5   0   4   52.39    3.20
  -4   0   4  471.75   19.20
  -4   0   4  501.05   19.30
  -3   0   4    8.50    1.10
  -2   0   4  903.21   33.90
  -2   0   4  878.81   33.90
  -1   0   4  856.81   32.20
  -1   0   4  838.82   32.10
   0   0   4  837.32   31.70
   0   0   4  834.72   31.70
  -1   0  -4 4355.46  163.98
  -2   0  -4  361.06   13.90
  -3   0  -4    8.20    0.70
  -4   0  -4   36.90    2.20
  -4   0  -4   38.30    2.00
  -5   0  -4    5.90    0.80
  -5   0  -4    5.30    0.90
  -6   0  -4   13.20    1.20
  -6   0  -4   14.90    1.40
  -7   0  -4    5.70    1.20
  -7   0  -4    4.00    0.80
  -8   0  -4   26.20    2.30
  -9   0  -4    6.50    1.50
 -10   0  -4    0.50    1.00
  -8   1   4   18.70    2.00
  -8   1   4   21.30    2.60
  -7   1   4   19.60    2.00
  -7   1   4   28.90    2.60
  -6   1   4   65.19    3.90
  -6   1   4   71.79    4.10
  -5   1   4    0.90    0.60
  -5   1   4    1.70    0.60
  -4   1   4  401.46   16.80
  -4   1   4  440.96   16.80
  -3   1   4  110.59    5.10
  -2   1   4  109.29    4.80
  -2   1   4  109.99    4.90
   1  -1  -4   15.50    0.80
  -1   1   4   16.60    1.20
  -1   1   4   15.80    1.10
   0   1   4  431.56   16.60
   1   1   4  344.97   13.40
  -2  -1  -4  234.58    9.10
  -3  -1  -4   63.99    2.80
  -3  -1  -4   58.49    3.00
  -4  -1  -4   84.89    4.10
  -4  -1  -4   87.79    3.70
  -5  -1  -4   32.70    1.80
  -5  -1  -4   34.50    2.20
  -6  -1  -4    1.40    0.60
  -6  -1  -4    1.50    0.50
  -7  -1  -4   72.59    4.10
  -8  -1  -4   26.80    2.40
  -9  -1  -4   16.80    2.40
 -10  -1  -4    9.00    2.10
 -11  -1  -4   -0.20    1.10
  -9   2   4    0.80    0.70
  -8   2   4    0.70    0.80
  -7   2   4   10.90    1.70
  -7   2   4   10.20    1.60
  -6   2   4  206.78    8.40
  -6   2   4  162.28    8.20
  -4   2   4   15.20    1.40
  -4   2   4   18.00    1.40
  -3   2   4    7.40    0.80
  -3   2   4   12.60    1.10
   2  -2  -4    2.30    0.40
  -2   2   4    2.50    0.60
  -2   2   4    2.90    0.50
   1  -2  -4    3.50    0.40
  -1   2   4    3.20    0.50
  -1   2   4    3.30    0.60
   0   2   4 1421.96   53.29
   1   2   4   21.60    1.20
  -2  -2  -4  591.74   22.40
  -2  -2  -4  596.54   22.70
  -3  -2  -4   15.80    1.20
  -3  -2  -4   14.60    0.90
  -4  -2  -4  130.09    5.70
  -4  -2  -4  128.49    5.20
  -5  -2  -4  152.88    6.80
  -5  -2  -4  152.98    6.20
  -6  -2  -4   39.70    2.00
  -6  -2  -4   30.70    2.30
  -7  -2  -4   17.20    1.70
  -8  -2  -4    0.80    0.80
  -9  -2  -4   22.90    3.00
 -10  -2  -4    5.50    1.80
  -9   3   4    0.40    0.80
  -8   3   4    2.00    0.90
  -7   3   4   79.59    4.50
  -6   3   4  279.47   11.20
  -6   3   4  239.38   11.10
  -5   3   4   53.29    3.20
  -5   3   4   49.70    2.90
  -4   3   4    9.60    1.30
  -4   3   4   12.40    1.10
   3  -3  -4  411.36   16.20
  -3   3   4  432.96   16.30
  -3   3   4  425.76   16.80
   2  -3  -4  698.33   26.70
  -2   3   4  703.83   26.70
  -2   3   4  719.63   27.20
   1  -3  -4  331.97   12.80
  -1   3   4  333.17   13.10
   0  -3  -4   43.60    2.10
   0   3   4   44.50    2.20
  -1  -3  -4   61.59    2.60
   1   3   4   55.49    2.60
  -2  -3  -4  794.22   30.10
  -3  -3  -4   39.50    1.70
  -3  -3  -4   38.70    2.10
  -4  -3  -4   17.40    0.90
  -4  -3  -4   18.00    1.40
  -5  -3  -4  686.03   26.40
  -5  -3  -4  717.93   27.20
  -6  -3  -4   14.90    1.50
  -7  -3  -4   -0.30    0.50
  -8  -3  -4   28.70    2.80
  -9  -3  -4   -0.10    0.70
 -10  -3  -4   43.80    4.10
 -10   4   4    0.80    0.90
  -9   4   4   20.10    2.50
  -8   4   4    2.60    1.00
  -7   4   4    7.10    1.40
  -6   4   4    3.10    0.90
  -5   4   4   35.70    2.20
  -5   4   4   28.80    2.30
  -4   4   4    1.20    0.60
  -4   4   4    1.70    0.40
   3  -4  -4   46.50    2.40
  -3   4   4   42.70    2.70
  -3   4   4   49.60    2.20
   2  -4  -4   70.89    3.20
  -2   4   4   69.39    3.50
  -2   4   4   69.99    2.90
   1  -4  -4    2.20    0.40
  -1   4   4    1.60    0.40
   0  -4  -4   92.69    3.80
   0  -4  -4   93.79    4.10
   0   4   4   94.89    4.10
  -1  -4  -4   57.99    2.70
   1   4   4   60.19    2.70
  -2  -4  -4 1448.85   56.89
   2   4   4 1591.24   56.79
  -3  -4  -4  547.25   20.20
  -3  -4  -4  533.65   20.90
  -4  -4  -4 1493.05   56.69
  -4  -4  -4 1558.74   57.59
  -5  -4  -4  185.98    8.20
  -6  -4  -4   31.50    2.40
  -7  -4  -4   90.99    5.20
  -8  -4  -4  182.98    9.20
  -9  -4  -4    6.70    1.80
 -10  -4  -4    6.80    2.20
  -9   5   4   12.20    2.00
  -8   5   4   16.40    2.30
  -7   5   4   13.10    1.90
  -6   5   4    6.70    1.30
  -5   5   4    0.50    0.50
   4  -5  -4  287.07   11.20
  -4   5   4  266.87   11.70
   3  -5  -4   88.09    4.00
  -3   5   4   85.39    4.40
  -3   5   4   87.49    3.50
   2  -5  -4  309.37   12.10
  -2   5   4  298.07   12.30
   1  -5  -4   82.19    3.70
  -1   5   4   80.09    3.90
   0  -5  -4   65.79    3.20
   0  -5  -4   66.99    2.80
   0   5   4   64.99    3.10
  -1  -5  -4  998.40   35.40
  -1  -5  -4  909.41   35.60
   1   5   4  914.91   35.40
  -2  -5  -4  243.48    9.60
   2   5   4  236.38    9.20
  -3  -5  -4   10.60    1.00
  -4  -5  -4   57.69    3.20
  -5  -5  -4   95.79    4.90
  -6  -5  -4   71.99    4.30
  -7  -5  -4    1.60    0.90
  -8  -5  -4  114.29    6.70
  -9  -5  -4   45.90    4.20
 -10  -5  -4    0.80    1.40
  -9   6   4   15.50    2.40
  -8   6   4    2.40    1.00
  -7   6   4   28.60    2.50
  -6   6   4    1.70    0.80
  -5   6   4   10.70    1.60
   4  -6  -4    6.80    1.00
  -4   6   4    5.20    1.00
   3  -6  -4   16.10    1.30
  -3   6   4   16.70    1.50
   2  -6  -4  635.34   24.70
  -2   6   4  647.74   25.00
   1  -6  -4   32.20    1.90
  -1   6   4   31.00    2.00
   0  -6  -4  292.77   11.30
   0  -6  -4  325.87   11.70
   0   6   4  251.67   11.40
  -1  -6  -4   74.59    3.50
  -1  -6  -4   76.19    3.60
   1   6   4   74.09    3.40
  -2  -6  -4 1278.67   50.29
  -2  -6  -4 1395.46   50.39
   2   6   4 1321.17   49.80
  -3  -6  -4  526.05   20.70
  -4  -6  -4   58.49    3.40
  -5  -6  -4    6.40    1.30
  -6  -6  -4   55.59    3.90
  -7  -6  -4   10.90    2.10
  -8  -6  -4   30.40    3.30
  -9  -6  -4    4.70    1.70
 -10  -6  -4    1.00    1.40
  -9   7   4    2.00    1.20
  -8   7   4    0.90    0.90
  -7   7   4    4.30    1.20
  -6   7   4   16.10    2.10
  -5   7   4   52.39    3.40
   4  -7  -4    0.90    0.50
  -4   7   4    0.70    0.60
   3  -7  -4   54.09    3.00
  -3   7   4   52.89    3.20
   2  -7  -4  242.18   10.00
  -2   7   4  242.58   10.30
   1  -7  -4  327.27   13.20
  -1   7   4  326.87   13.20
   0  -7  -4   94.89    4.10
   0  -7  -4   93.99    4.50
  -1  -7  -4   14.70    1.30
  -1  -7  -4   16.50    1.40
   1   7   4   15.80    1.10
  -2  -7  -4    3.50    0.80
  -2  -7  -4    4.00    0.80
   2   7   4    3.90    0.50
  -3  -7  -4  164.98    7.70
  -4  -7  -4   14.00    2.00
  -5  -7  -4    7.90    1.60
  -6  -7  -4  118.09    6.60
  -7  -7  -4    9.80    2.10
  -8  -7  -4    0.90    0.90
  -9  -7  -4    0.70    1.20
 -10  -7  -4    0.50    1.30
  -9   8   4    4.40    1.40
  -8   8   4    4.70    1.50
  -7   8   4    0.00    0.70
  -6   8   4    5.90    1.30
  -5   8   4    0.30    0.60
   4  -8  -4    1.70    0.60
  -4   8   4    1.40    0.70
   3  -8  -4   31.30    2.20
  -3   8   4   29.20    2.30
   2  -8  -4  143.29    6.60
  -2   8   4  149.49    6.80
   1  -8  -4   23.60    1.80
  -1   8   4   23.10    1.80
   0  -8  -4    9.00    1.20
  -1  -8  -4  174.28    7.60
  -1  -8  -4  168.68    7.40
   1   8   4  175.18    7.20
  -2  -8  -4   73.99    3.70
  -2  -8  -4   63.59    3.80
  -3  -8  -4   29.00    2.10
  -3  -8  -4   26.70    2.30
  -4  -8  -4   34.00    2.30
  -4  -8  -4   30.90    2.80
  -5  -8  -4    2.70    1.20
  -6  -8  -4   32.90    3.30
  -7  -8  -4    3.60    1.50
  -8  -8  -4    6.40    2.00
  -9  -8  -4    2.90    1.60
  -8   9   4   23.10    2.90
  -7   9   4    3.40    1.20
  -6   9   4    0.50    0.70
  -5   9   4    2.40    0.90
   4  -9  -4   -0.20    0.40
  -4   9   4    0.90    0.70
   3  -9  -4    0.10    0.40
  -3   9   4    0.30    0.50
   2  -9  -4   10.00    1.30
  -2   9   4    7.40    1.30
   1  -9  -4    1.70    0.60
  -1   9   4    1.00    0.50
   0  -9  -4  179.68    8.00
  -1  -9  -4   10.90    1.40
  -1  -9  -4    8.90    1.30
   1   9   4   11.00    1.00
  -2  -9  -4    9.50    1.30
  -2  -9  -4    8.00    1.30
  -3  -9  -4    1.80    0.90
  -3  -9  -4    3.10    0.80
  -4  -9  -4   22.00    1.90
  -4  -9  -4   23.60    2.50
  -5  -9  -4   48.90    3.00
  -5  -9  -4   35.70    3.30
  -6  -9  -4    6.40    1.70
  -7  -9  -4    1.20    1.20
  -8  -9  -4   -1.10    0.90
  -9  -9  -4   11.00    2.80
  -8  10   4   29.80    3.00
  -7  10   4    2.50    1.10
  -6  10   4    1.70    1.00
   5 -10  -4   28.40    2.40
  -5  10   4   22.30    2.30
   4 -10  -4   16.80    1.90
  -4  10   4   14.90    2.00
   3 -10  -4   19.30    2.10
  -3  10   4   18.90    1.90
   2 -10  -4   93.29    4.80
  -2  10   4   91.79    4.90
   1 -10  -4   84.39    4.40
  -1  10   4   77.39    4.20
  -1 -10  -4    0.20    0.60
  -2 -10  -4   58.59    3.40
  -2 -10  -4   47.90    4.00
  -3 -10  -4   14.80    2.00
  -3 -10  -4   11.00    1.50
  -4 -10  -4   31.60    2.40
  -4 -10  -4   30.20    2.90
  -5 -10  -4    0.20    0.50
  -5 -10  -4    0.10    0.80
  -6 -10  -4    7.70    1.40
  -6 -10  -4    8.40    2.10
  -7 -10  -4   22.00    2.50
  -7 -10  -4   17.80    3.00
  -8 -10  -4    1.30    1.40
  -7  11   4    7.40    1.70
  -6  11   4    0.00    0.70
   5 -11  -4   -0.30    0.60
  -5  11   4    0.30    0.70
   4 -11  -4   57.79    3.70
  -4  11   4   57.69    3.90
   3 -11  -4   26.50    2.30
  -3  11   4   23.20    2.30
   2 -11  -4    5.00    1.20
  -2  11   4    7.00    1.30
   1 -11  -4   40.10    2.80
  -1  11   4   38.70    2.70
   0 -11  -4    6.90    1.30
   0  11   4    5.70    1.00
  -1 -11  -4   11.50    1.60
  -2 -11  -4    6.40    1.20
  -3 -11  -4   77.99    4.40
  -4 -11  -4    2.60    0.90
  -4 -11  -4    3.60    1.30
  -5 -11  -4    1.40    1.00
  -5 -11  -4    3.70    1.10
  -6 -11  -4    6.80    1.40
  -6 -11  -4   10.80    2.20
  -7 -11  -4   64.99    4.20
  -7 -11  -4   57.99    4.80
  -8 -11  -4   17.70    2.40
  -8 -11  -4   18.30    3.10
  -6  12   4    4.20    1.50
   5 -12  -4   12.40    1.90
  -5  12   4   11.60    2.00
   4 -12  -4   52.79    3.60
  -4  12   4   52.19    3.80
   3 -12  -4   24.30    2.30
  -3  12   4   22.30    2.20
   2 -12  -4    0.00    0.60
  -2  12   4   -0.10    0.50
   1 -12  -4   51.69    3.50
  -1  12   4   49.90    3.30
   0 -12  -4   53.99    3.50
  -1 -12  -4   92.99    5.20
  -2 -12  -4   43.80    3.10
  -3 -12  -4    1.70    0.90
  -4 -12  -4    0.40    0.70
  -5 -12  -4    0.00    0.70
  -5 -12  -4    0.00    0.80
  -6 -12  -4    7.20    1.50
  -6 -12  -4    7.70    2.00
  -7 -12  -4   33.80    3.00
  -7 -12  -4   33.00    4.00
   5 -13  -4   39.30    3.20
  -5  13   4   35.80    3.30
   4 -13  -4   23.40    2.70
  -4  13   4   25.30    2.60
   3 -13  -4   13.20    1.90
  -3  13   4   11.50    1.90
   2 -13  -4   23.10    2.60
  -2  13   4   21.60    2.20
   1 -13  -4   42.70    3.20
   0 -13  -4    0.50    0.70
  -1 -13  -4    3.00    1.10
  -2 -13  -4    0.90    0.90
  -3 -13  -4   12.10    1.90
  -4 -13  -4    0.50    0.80
  -5 -13  -4   30.90    2.80
  -6 -13  -4   17.50    2.40
   4 -14  -4    0.70    0.80
  -4  14   4   -0.70    0.60
   3 -14  -4   15.20    2.30
  -3  14   4   16.20    2.30
   2 -14  -4    0.60    0.80
  -2  14   4    2.40    1.40
   1 -14  -4    1.50    0.90
   0 -14  -4   30.30    2.70
  -1 -14  -4    0.40    0.70
  -2 -14  -4    0.60    0.80
  -3 -14  -4    1.10    0.90
  -4 -14  -4   42.20    3.40
  -5 -14  -4   40.20    3.30
  -3  15   4    3.20    1.20
   2 -15  -4    0.00    0.80
   1 -15  -4    4.00    1.30
   0 -15  -4    1.50    1.10
  -1 -15  -4    1.40    0.90
  -2 -15  -4    6.30    1.50
  -3 -15  -4    7.90    1.70
  -1  13  -5   -1.30    1.10
  -2  13  -5    0.00    0.90
  -3 -12   5    0.00    0.90
  -2 -12   5   -0.80    0.90
  -1  12  -5    0.30    0.80
  -2  12  -5   -0.30    0.80
  -3  12  -5    0.20    0.90
  -4  12  -5    0.40    0.90
  -5 -11   5    0.30    1.10
  -4 -11   5    0.80    1.20
  -3 -11   5   -0.60    0.80
  -2 -11   5    0.70    1.00
  -1 -11   5   -0.60    0.80
   0  11  -5    0.30    0.70
  -1  11  -5    0.30    0.80
  -2  11  -5    0.10    0.70
  -3  11  -5   -0.60    0.80
  -4  11  -5    0.50    1.00
  -5  11  -5    0.20    0.90
  -6  11  -5    0.50    0.90
  -6 -10   5   -0.40    1.00
  -5 -10   5    1.10    1.20
  -4 -10   5   -0.30    0.80
  -3 -10   5   -0.50    0.80
  -2 -10   5    0.00    0.80
   1  10  -5   -0.10    0.60
  -1 -10   5   -0.10    0.80
   0  10  -5   -0.80    0.60
   0 -10   5    0.50    0.80
   0 -10   5    0.30    0.60
  -1  10  -5   -0.40    0.60
  -2  10  -5   -0.60    0.60
  -3  10  -5    0.50    0.70
  -4  10  -5    0.50    0.80
  -5  10  -5   -0.50    0.70
  -6  10  -5   -0.60    0.80
  -7  10  -5   -0.40    0.80
  -7  -9   5    1.20    1.30
  -6  -9   5   -1.10    1.00
  -5  -9   5    0.70    1.20
  -4  -9   5    1.00    0.90
  -3  -9   5   -0.60    0.70
   2   9  -5   -0.10    0.60
  -2  -9   5    0.70    0.90
   1   9  -5    0.00    0.60
  -1  -9   5    0.20    0.80
   0   9  -5    0.10    0.60
   0  -9   5   -0.30    0.60
   0  -9   5    0.20    0.50
  -1   9  -5   -0.10    0.60
  -2   9  -5   -0.20    0.60
  -3   9  -5   -0.40    0.50
  -4   9  -5    0.10    0.70
  -5   9  -5    0.30    0.70
  -6   9  -5    0.00    0.70
  -7   9  -5    0.00    0.90
  -7  -8   5    0.80    1.30
  -6  -8   5   -0.50    0.90
  -5  -8   5    0.10    0.80
  -4  -8   5    1.30    0.90
  -3  -8   5   -0.50    0.80
   2   8  -5    0.20    0.50
  -2  -8   5   -0.10    0.80
   1   8  -5    0.60    0.50
  -1  -8   5   -0.50    0.50
  -1  -8   5   -0.70    0.50
   0   8  -5    0.40    0.50
   0  -8   5   -0.60    0.50
   0  -8   5    0.00    0.40
  -1   8  -5   -0.30    0.40
  -2   8  -5   -0.40    0.50
  -3   8  -5   -0.20    0.50
  -4   8  -5   -0.20    0.50
  -5   8  -5   -0.30    0.60
  -6   8  -5    0.10    0.70
  -7   8  -5   -0.60    0.60
  -8   8  -5    0.60    1.00
  -8  -7   5   -0.30    1.20
  -7  -7   5    0.80    1.20
  -6  -7   5    0.20    0.90
  -5  -7   5   -0.70    0.70
  -4  -7   5    0.00    0.70
   3   7  -5    0.10    0.30
  -3  -7   5   -1.00    0.60
   2   7  -5   -0.20    0.40
  -2  -7   5   -0.20    0.60
   1   7  -5    0.00    0.40
  -1  -7   5   -0.30    0.30
  -1  -7   5    0.30    0.50
   0   7  -5   -0.10    0.40
   0  -7   5    0.10    0.20
   0  -7   5    0.00    0.60
  -1   7  -5    0.30    0.40
  -2   7  -5    0.10    0.40
  -3   7  -5   -0.70    0.30
  -4   7  -5   -0.50    0.50
  -5   7  -5   -0.70    0.50
  -6   7  -5   -1.00    0.60
  -7   7  -5    0.10    0.80
  -8   7  -5   -0.60    0.60
  -9   7  -5   -0.70    0.60
  -8  -6   5   -0.40    1.10
  -7  -6   5    1.10    1.10
  -6  -6   5   -0.30    0.80
  -5  -6   5    0.60    0.90
   4   6  -5    0.40    0.50
  -4  -6   5    0.60    0.80
   3   6  -5    0.00    0.40
  -3  -6   5   -0.90    0.50
   2   6  -5    0.10    0.40
  -2  -6   5    0.20    0.50
   1   6  -5    0.00    0.30
  -1  -6   5    0.00    0.50
  -1  -6   5    0.00    0.30
   0   6  -5   -0.30    0.30
   0  -6   5    0.20    0.30
   0  -6   5    0.30    0.50
  -1   6  -5   -0.20    0.30
  -2   6  -5    0.10    0.40
  -3   6  -5   -0.30    0.40
  -4   6  -5    0.30    0.50
  -5   6  -5    0.50    0.60
  -6   6  -5    0.20    0.60
  -6   6  -5   -0.20    0.50
  -7   6  -5   -0.10    0.60
  -8   6  -5   -0.40    0.70
  -9   6  -5    0.60    0.80
  -9  -5   5    0.00    0.80
  -8  -5   5    0.10    0.60
  -7  -5   5    0.10    0.70
  -6  -5   5   -1.00    0.60
  -5  -5   5   -0.30    0.70
   4   5  -5    0.20    0.40
  -4  -5   5   -0.60    0.50
   3   5  -5    0.10    0.40
  -3  -5   5   -0.70    0.50
   2   5  -5    0.40    0.40
  -2  -5   5    0.00    0.20
  -2  -5   5    0.20    0.40
   1   5  -5    0.20    0.40
  -1  -5   5   -0.20    0.20
  -1  -5   5   -0.10    0.40
   0   5  -5   -0.10    0.30
   0  -5   5    0.00    0.40
  -1   5  -5   -0.10    0.40
  -2   5  -5   -0.20    0.30
  -3   5  -5    0.00    0.30
  -4   5  -5   -0.80    0.30
  -5   5  -5   -0.10    0.50
  -6   5  -5   -1.30    0.50
  -6   5  -5    0.40    0.60
  -7   5  -5    0.10    0.60
  -7   5  -5   -0.30    0.60
  -8   5  -5    0.50    0.70
  -9   5  -5   -0.20    0.60
  -9  -4   5   -0.50    1.10
  -8  -4   5   -0.70    0.70
  -7  -4   5    0.50    0.90
  -6  -4   5    0.30    0.60
  -5  -4   5    0.10    0.70
  -5  -4   5   -0.10    0.40
  -4  -4   5    0.50    0.60
   3   4  -5    0.00    0.40
  -3  -4   5   -0.30    0.40
   2   4  -5   -0.40    0.30
  -2  -4   5   -0.10    0.20
  -2  -4   5   -0.10    0.40
   1   4  -5    0.20    0.30
  -1  -4   5    0.00    0.40
  -1  -4   5   -0.10    0.20
   0   4  -5    0.00    0.30
   0  -4   5   -0.30    0.30
  -1   4  -5   -0.20    0.30
  -2   4  -5    0.10    0.30
  -3   4  -5   -0.10    0.30
  -4   4  -5   -0.30    0.30
  -5   4  -5    0.30    0.50
  -6   4  -5   -0.50    0.60
  -6   4  -5    0.10    0.60
  -7   4  -5   -0.40    0.50
  -7   4  -5   -0.60    0.60
  -8   4  -5    0.00    0.60
  -8   4  -5   -0.30    0.60
  -9   4  -5   -0.10    0.60
  -9  -3   5   -0.80    0.90
  -8  -3   5   -0.20    0.90
  -7  -3   5    0.10    0.70
  -6  -3   5   -0.90    0.50
  -6  -3   5   -0.10    0.50
  -5  -3   5   -0.20    0.30
  -5  -3   5    0.40    0.50
  -4  -3   5   -0.40    0.40
  -4  -3   5    0.00    0.40
  -3  -3   5    0.40    0.50
  -3  -3   5   -0.60    0.20
   2   3  -5    0.30    0.40
  -2  -3   5    0.40    0.40
  -2  -3   5    0.00    0.10
   1   3  -5   -0.20    0.30
  -1  -3   5    0.20    0.40
   0   3  -5    0.20    0.30
   0  -3   5   -0.40    0.30
  -1   3  -5   -0.20    0.20
  -2   3  -5    0.00    0.30
  -3   3  -5    0.50    0.40
  -4   3  -5   -0.20    0.30
  -5   3  -5   -0.40    0.30
  -6   3  -5   -0.90    0.50
  -6   3  -5    0.10    0.50
  -7   3  -5    0.10    0.60
  -7   3  -5   -0.30    0.50
  -8   3  -5    0.20    0.60
  -8   3  -5   -0.40    0.60
  -9   3  -5    0.40    0.60
  -9   3  -5   -0.60    0.60
  -9  -2   5    0.20    1.10
  -8  -2   5   -0.40    0.70
  -7  -2   5   -0.30    0.70
  -6  -2   5    0.10    0.50
  -6  -2   5   -0.50    0.50
  -5  -2   5   -0.10    0.50
  -5  -2   5   -0.30    0.40
  -4  -2   5    0.10    0.40
  -4  -2   5   -0.50    0.30
  -3  -2   5    0.30    0.40
  -3  -2   5    0.00    0.40
  -2  -2   5    0.00    0.30
  -2  -2   5   -0.10    0.30
   1   2  -5   -0.20    0.30
  -1  -2   5   -0.10    0.30
   0   2  -5    0.00    0.20
   0  -2   5   -0.30    0.20
  -1   2  -5    0.00    0.20
  -2   2  -5    0.00    0.30
  -3   2  -5   -0.10    0.30
  -4   2  -5    0.20    0.40
  -5   2  -5    0.80    0.40
  -5   2  -5    0.00    0.50
  -6   2  -5    0.50    0.50
  -6   2  -5   -0.50    0.30
  -7   2  -5    0.50    0.70
  -7   2  -5    0.00    0.50
  -8   2  -5   -0.70    0.40
  -8   2  -5    0.00    0.60
  -9   2  -5    0.20    0.70
 -10   2  -5    0.00    0.80
  -9  -1   5    0.00    0.70
  -8  -1   5   -0.40    0.60
  -7  -1   5   -0.10    0.60
  -7  -1   5    0.00    0.70
  -6  -1   5   -0.80    0.50
  -6  -1   5    0.60    0.60
  -5  -1   5    0.10    0.40
  -5  -1   5   -0.20    0.40
  -4  -1   5    0.30    0.40
  -4  -1   5   -0.10    0.40
  -3  -1   5    0.20    0.40
  -3  -1   5    0.20    0.40
  -2  -1   5    0.30    0.30
  -2  -1   5    0.00    0.30
  -1  -1   5    0.00    0.30
  -1  -1   5   -0.10    0.30
   0   1  -5   -1.30    0.20
   0  -1   5   -1.10    0.30
  -1   1  -5   -0.10    0.20
  -2   1  -5    0.10    0.20
  -3   1  -5    0.40    0.30
  -4   1  -5    0.10    0.30
  -5   1  -5    0.10    0.30
  -5   1  -5   -0.20    0.40
  -6   1  -5   -0.40    0.40
  -6   1  -5   -0.10    0.30
  -7   1  -5   -0.70    0.50
  -7   1  -5   -0.10    0.40
  -8   1  -5   -0.10    0.50
  -8   1  -5   -0.30    0.60
  -9   1  -5   -0.60    0.60
 -10   1  -5    1.20    0.90
  -9   0   5   -0.40    0.80
  -8   0   5    1.20    0.90
  -8   0   5    0.40    0.70
  -7   0   5   -0.10    0.70
  -7   0   5    0.40    0.70
  -6   0   5   -0.60    0.40
  -6   0   5   -0.50    0.40
  -5   0   5   -0.50    0.40
  -5   0   5    0.20    0.50
  -4   0   5   -0.50    0.30
  -4   0   5   -0.10    0.20
  -3   0   5   -0.10    0.30
  -3   0   5   -0.30    0.30
  -2   0   5    0.30    0.30
  -2   0   5    0.00    0.30
  -1   0   5   -0.20    0.20
  -1   0   5   -0.60    0.20
   0   0   5   -0.10    0.20
   0   0   5   -0.20    0.20
  -1   0  -5    0.20    0.20
  -2   0  -5    0.30    0.30
  -3   0  -5   -0.10    0.20
  -4   0  -5    0.00    0.20
  -4   0  -5    0.10    0.30
  -5   0  -5    0.10    0.30
  -5   0  -5   -0.10    0.30
  -6   0  -5    0.40    0.50
  -6   0  -5    0.20    0.40
  -7   0  -5    0.00    0.60
  -7   0  -5    0.10    0.40
  -8   0  -5    0.50    0.70
  -9   0  -5    0.00    0.60
 -10   0  -5   -1.10    0.80
  -8   1   5   -0.30    0.60
  -8   1   5   -0.40    0.60
  -7   1   5   -0.20    0.60
  -7   1   5    0.10    0.50
  -6   1   5    0.00    0.50
  -6   1   5   -0.50    0.40
  -5   1   5    0.10    0.40
  -5   1   5   -0.10    0.40
  -4   1   5   -0.10    0.20
  -4   1   5   -0.10    0.40
  -4   1   5   -0.10    0.20
  -3   1   5    0.30    0.40
  -3   1   5   -0.10    0.30
   2  -1  -5    0.00    0.10
  -2   1   5   -0.20    0.30
  -2   1   5   -0.10    0.20
   1  -1  -5    0.00    0.10
  -1   1   5   -0.20    0.20
  -1   1   5   -0.10    0.20
   0   1   5    0.10    0.20
   1   1   5    0.10    0.20
  -2  -1  -5    0.00    0.20
  -3  -1  -5    0.10    0.20
  -4  -1  -5   -0.20    0.20
  -4  -1  -5    0.10    0.30
  -5  -1  -5   -0.10    0.40
  -5  -1  -5    0.10    0.30
  -6  -1  -5   -0.10    0.40
  -6  -1  -5    0.00    0.30
  -7  -1  -5    0.30    0.60
  -8  -1  -5   -0.30    0.60
  -9  -1  -5    0.10    0.70
 -10  -1  -5    0.40    0.90
  -9   2   5    1.00    0.80
  -8   2   5   -0.10    0.60
  -7   2   5    0.00    0.60
  -7   2   5   -0.10    0.60
  -6   2   5    0.20    0.50
  -6   2   5   -0.50    0.50
  -5   2   5    0.10    0.20
  -5   2   5   -0.10    0.40
  -4   2   5    0.40    0.40
  -4   2   5    0.20    0.20
  -3   2   5    0.30    0.40
  -3   2   5    0.00    0.20
   2  -2  -5   -0.10    0.10
  -2   2   5    0.00    0.20
  -2   2   5   -0.30    0.30
   1  -2  -5    0.00    0.10
  -1   2   5    0.00    0.20
  -1   2   5    0.00    0.20
   0   2   5    0.00    0.20
   1   2   5    0.20    0.20
  -2  -2  -5   -0.30    0.10
  -3  -2  -5   -0.10    0.30
  -3  -2  -5    0.00    0.20
  -4  -2  -5    0.10    0.30
  -4  -2  -5   -0.20    0.10
  -5  -2  -5    0.00    0.40
  -5  -2  -5   -0.10    0.20
  -6  -2  -5    0.40    0.50
  -6  -2  -5    0.10    0.30
  -7  -2  -5   -0.10    0.50
  -8  -2  -5    0.50    0.80
  -9  -2  -5    0.30    0.80
 -10  -2  -5    0.40    1.10
  -9   3   5   -0.60    0.50
  -8   3   5   -0.10    0.70
  -7   3   5   -0.20    0.50
  -6   3   5   -0.60    0.40
  -6   3   5    0.00    0.60
  -5   3   5   -0.20    0.40
  -5   3   5    0.50    0.40
  -4   3   5    0.10    0.30
  -4   3   5    0.20    0.40
   3  -3  -5   -0.10    0.20
  -3   3   5   -0.60    0.30
  -3   3   5    0.00    0.20
   2  -3  -5    0.00    0.20
  -2   3   5   -0.10    0.20
  -2   3   5   -0.20    0.30
   1  -3  -5   -0.10    0.10
  -1   3   5    0.30    0.30
   0  -3  -5    0.20    0.20
   0   3   5    0.00    0.20
   1   3   5   -0.50    0.10
  -2  -3  -5   -0.50    0.20
   2   3   5   -0.30    0.20
  -3  -3  -5    0.00    0.30
  -3  -3  -5    0.00    0.10
  -4  -3  -5    0.00    0.20
  -4  -3  -5    0.70    0.50
  -5  -3  -5    0.20    0.50
  -5  -3  -5    0.00    0.20
  -6  -3  -5    0.70    0.50
  -7  -3  -5    0.80    0.60
  -8  -3  -5   -0.10    0.80
  -9  -3  -5   -0.10    0.80
 -10  -3  -5    0.30    1.00
  -9   4   5   -0.60    0.80
  -8   4   5    0.10    0.70
  -7   4   5    0.30    0.60
  -6   4   5    0.70    0.60
  -5   4   5    0.00    0.50
  -4   4   5    0.20    0.40
  -4   4   5    0.10    0.30
   3  -4  -5   -0.20    0.20
  -3   4   5    0.00    0.20
  -3   4   5   -0.10    0.30
   2  -4  -5    0.10    0.20
  -2   4   5   -0.10    0.20
  -2   4   5   -0.10    0.30
   1  -4  -5    0.00    0.10
  -1   4   5    0.00    0.20
   0  -4  -5   -0.10    0.20
   0   4   5   -0.10    0.30
  -1  -4  -5   -0.50    0.20
   1   4   5   -0.50    0.20
  -2  -4  -5   -0.10    0.20
   2   4   5   -0.10    0.20
  -3  -4  -5   -0.40    0.30
  -3  -4  -5   -0.20    0.10
  -4  -4  -5    0.00    0.30
  -4  -4  -5    0.00    0.10
  -5  -4  -5   -0.30    0.30
  -6  -4  -5    0.50    0.50
  -7  -4  -5   -0.50    0.50
  -8  -4  -5   -0.10    0.80
  -9  -4  -5   -0.30    1.00
 -10  -4  -5   -1.30    1.00
  -9   5   5    0.40    0.80
  -8   5   5   -0.10    0.70
  -7   5   5   -0.40    0.50
  -6   5   5    0.00    0.50
  -5   5   5   -0.20    0.40
   4  -5  -5    0.00    0.30
  -4   5   5   -0.30    0.30
   3  -5  -5    0.00    0.20
  -3   5   5    0.30    0.40
  -3   5   5   -0.10    0.20
   2  -5  -5    0.10    0.20
  -2   5   5   -0.10    0.30
   1  -5  -5   -0.10    0.20
  -1   5   5    0.20    0.30
   0  -5  -5    0.00    0.10
   0  -5  -5    0.10    0.30
   0   5   5   -0.10    0.20
  -1  -5  -5   -0.10    0.20
  -1  -5  -5   -0.20    0.20
   1   5   5   -0.30    0.20
  -2  -5  -5   -0.10    0.20
   2   5   5   -0.10    0.20
  -3  -5  -5    0.00    0.10
  -3  -5  -5   -0.10    0.30
  -4  -5  -5   -0.40    0.30
  -5  -5  -5   -0.40    0.30
  -6  -5  -5    0.50    0.60
  -7  -5  -5    0.20    0.60
  -8  -5  -5    0.70    0.90
  -9  -5  -5   -1.10    0.80
 -10  -5  -5    0.00    1.30
  -9   6   5    1.10    1.00
  -8   6   5   -0.20    0.70
  -7   6   5    0.80    0.70
  -6   6   5    0.40    0.60
  -5   6   5   -0.10    0.40
   4  -6  -5    0.00    0.30
  -4   6   5   -0.20    0.30
   3  -6  -5    0.00    0.30
  -3   6   5    0.10    0.40
   2  -6  -5    0.30    0.30
  -2   6   5    0.00    0.40
   1  -6  -5    0.40    0.10
   1  -6  -5   -0.20    0.20
  -1   6   5    0.10    0.30
   0  -6  -5    0.20    0.30
   0  -6  -5   -0.10    0.20
   0   6   5    0.00    0.20
  -1  -6  -5    0.00    0.20
  -1  -6  -5   -0.20    0.20
   1   6   5   -0.10    0.20
  -2  -6  -5    0.10    0.30
   2   6   5    0.10    0.20
  -3  -6  -5    0.10    0.30
  -4  -6  -5   -0.20    0.40
  -5  -6  -5   -0.20    0.40
  -6  -6  -5    0.10    0.50
  -7  -6  -5    0.60    0.80
  -8  -6  -5    0.30    0.90
  -9  -6  -5   -0.10    1.00
 -10  -6  -5   -0.40    1.00
  -9   7   5   -1.00    0.70
  -8   7   5    0.50    0.90
  -7   7   5   -0.60    0.50
  -6   7   5   -0.30    0.50
  -5   7   5   -0.30    0.40
   4  -7  -5   -0.10    0.40
  -4   7   5    0.40    0.50
   3  -7  -5   -0.20    0.30
  -3   7   5   -0.50    0.30
   2  -7  -5   -0.10    0.30
  -2   7   5   -0.30    0.30
   1  -7  -5    0.00    0.30
  -1   7   5    0.20    0.30
   0  -7  -5    0.00    0.30
   0  -7  -5   -0.20    0.20
   0   7   5    0.00    0.30
  -1  -7  -5   -0.20    0.30
  -1  -7  -5    0.20    0.30
   1   7   5   -0.20    0.20
  -2  -7  -5   -0.10    0.30
  -2  -7  -5    0.00    0.30
   2   7   5    0.20    0.20
  -3  -7  -5    0.50    0.50
  -4  -7  -5   -0.50    0.40
  -5  -7  -5   -0.50    0.50
  -6  -7  -5    0.20    0.60
  -7  -7  -5    0.70    1.00
  -8  -7  -5   -1.60    0.70
  -9  -7  -5    0.20    1.00
 -10  -7  -5    0.30    1.10
  -8   8   5    0.60    0.80
  -7   8   5   -0.80    0.50
  -6   8   5   -0.20    0.50
  -5   8   5    0.10    0.50
   4  -8  -5   -0.60    0.40
  -4   8   5   -0.40    0.40
   3  -8  -5   -0.10    0.30
  -3   8   5   -0.30    0.30
   2  -8  -5   -0.10    0.30
  -2   8   5   -0.20    0.30
   1  -8  -5    0.00    0.40
  -1   8   5    0.10    0.40
   0  -8  -5    0.10    0.30
   0   8   5    0.10    0.20
  -1  -8  -5    0.20    0.40
  -1  -8  -5    0.00    0.30
   1   8   5    0.00    0.30
  -2  -8  -5   -0.20    0.30
  -2  -8  -5   -0.40    0.40
  -3  -8  -5   -0.20    0.40
  -3  -8  -5   -0.50    0.30
  -4  -8  -5   -0.60    0.60
  -5  -8  -5   -0.30    0.70
  -6  -8  -5   -0.30    0.80
  -7  -8  -5   -0.40    0.70
  -8  -8  -5   -0.70    1.00
  -9  -8  -5    0.10    1.30
  -8   9   5    0.70    0.90
  -7   9   5    0.40    0.70
  -6   9   5    0.40    0.70
   5  -9  -5   -0.40    0.50
  -5   9   5    0.00    0.50
   4  -9  -5   -0.20    0.50
  -4   9   5   -0.40    0.40
   3  -9  -5   -0.50    0.40
  -3   9   5    0.50    0.50
   2  -9  -5   -0.10    0.40
  -2   9   5   -0.50    0.40
   1  -9  -5    0.40    0.50
  -1   9   5    0.10    0.40
   0  -9  -5    0.10    0.40
   0   9   5   -0.10    0.20
  -1  -9  -5   -0.40    0.30
   1   9   5    0.00    0.30
  -2  -9  -5    0.40    0.50
  -2  -9  -5   -0.30    0.50
  -3  -9  -5   -0.70    0.50
  -3  -9  -5    0.00    0.50
  -4  -9  -5   -0.20    0.40
  -4  -9  -5    0.00    0.60
  -5  -9  -5   -0.30    0.80
  -6  -9  -5   -0.30    0.80
  -7  -9  -5   -0.20    0.80
  -8  -9  -5   -1.40    0.80
  -9  -9  -5   -0.20    1.10
  -7  10   5    0.20    0.80
  -6  10   5   -0.40    0.70
   5 -10  -5   -0.50    0.50
  -5  10   5    0.00    0.60
   4 -10  -5   -0.50    0.50
  -4  10   5   -0.40    0.40
   3 -10  -5   -0.60    0.50
  -3  10   5    0.30    0.70
   2 -10  -5    0.00    0.60
  -2  10   5   -0.60    0.50
   1 -10  -5   -0.70    0.40
  -1  10   5    0.60    0.50
   0 -10  -5   -0.20    0.60
   0  10   5   -0.10    0.30
  -1 -10  -5    0.70    0.60
  -2 -10  -5    0.40    0.60
  -3 -10  -5    0.30    0.50
  -3 -10  -5   -0.60    0.60
  -4 -10  -5   -0.90    0.70
  -4 -10  -5    0.10    0.60
  -5 -10  -5   -0.20    0.80
  -5 -10  -5   -0.20    0.50
  -6 -10  -5   -0.30    0.90
  -6 -10  -5    0.00    0.60
  -7 -10  -5    0.60    1.20
  -8 -10  -5   -0.50    1.10
  -7  11   5    0.50    1.00
  -6  11   5   -0.20    0.80
   5 -11  -5   -1.00    0.60
  -5  11   5    0.00    0.60
   4 -11  -5    0.10    0.70
  -4  11   5   -0.20    0.70
   3 -11  -5   -0.10    0.60
  -3  11   5    0.00    0.60
   2 -11  -5   -0.60    0.40
  -2  11   5   -0.20    0.50
   1 -11  -5   -1.00    0.40
  -1  11   5   -0.20    0.50
   0 -11  -5   -0.60    0.50
   0  11   5    0.00    0.40
  -1 -11  -5    0.30    0.60
  -2 -11  -5    0.30    0.60
  -3 -11  -5    0.20    0.50
  -4 -11  -5    0.00    0.60
  -4 -11  -5   -0.30    0.70
  -5 -11  -5   -1.10    0.70
  -5 -11  -5    0.60    0.70
  -6 -11  -5   -0.10    0.70
  -6 -11  -5    0.40    1.10
  -7 -11  -5   -0.60    0.70
  -7 -11  -5   -0.90    1.00
  -8 -11  -5    0.30    0.90
  -8 -11  -5    0.10    1.10
  -6  12   5   -0.20    0.80
   5 -12  -5   -0.20    0.70
  -5  12   5   -0.20    0.70
   4 -12  -5    0.10    0.60
  -4  12   5    0.10    0.60
   3 -12  -5    0.10    0.60
  -3  12   5   -0.50    0.60
   2 -12  -5   -0.30    0.50
  -2  12   5   -0.20    0.50
   1 -12  -5   -0.50    0.60
  -1  12   5    0.10    0.50
   0 -12  -5    0.70    0.80
  -1 -12  -5    0.50    0.70
  -2 -12  -5    1.10    0.80
  -3 -12  -5   -0.10    0.60
  -4 -12  -5   -0.30    0.50
  -5 -12  -5    0.70    0.80
  -6 -12  -5    1.00    1.10
  -6 -12  -5    0.10    0.60
  -7 -12  -5   -0.10    0.90
  -7 -12  -5    1.00    1.30
   5 -13  -5    0.50    0.80
  -5  13   5    0.10    0.80
   4 -13  -5    0.50    0.90
  -4  13   5   -1.00    0.60
   3 -13  -5   -0.30    0.60
  -3  13   5   -0.30    0.60
   2 -13  -5    0.00    0.80
  -2  13   5    0.00    0.60
   1 -13  -5   -0.70    0.50
   0 -13  -5   -0.60    0.50
  -1 -13  -5   -0.40    0.50
  -2 -13  -5    0.80    0.70
  -3 -13  -5   -0.50    0.60
  -4 -13  -5    0.90    0.80
  -5 -13  -5   -0.60    0.60
  -6 -13  -5   -0.20    0.90
   4 -14  -5   -0.60    0.80
  -4  14   5   -0.20    0.80
   3 -14  -5   -0.50    0.70
  -3  14   5    0.80    0.80
   2 -14  -5   -0.50    0.70
   1 -14  -5   -0.10    0.60
   0 -14  -5    0.00    0.60
  -1 -14  -5   -0.10    0.60
  -2 -14  -5   -0.70    0.60
  -3 -14  -5   -0.40    0.60
  -4 -14  -5    0.20    0.80
  -5 -14  -5   -1.00    0.70
   2 -15  -5   -1.00    0.60
   1 -15  -5   -0.70    0.80
   0 -15  -5   -1.00    0.60
  -1 -15  -5    0.30    0.80
  -2 -15  -5    0.30    0.80
  -3 -15  -5   -0.10    0.80
  -2 -12   6   14.30    2.70
  -1  12  -6    4.20    1.40
  -2  12  -6   75.79    4.90
  -3  12  -6    5.40    1.60
  -4 -11   6   13.90    2.70
  -3 -11   6    0.20    1.00
  -2 -11   6    0.90    1.10
  -1 -11   6    3.40    1.40
   0  11  -6   38.60    3.10
   0 -11   6   38.90    3.70
  -1  11  -6   26.10    2.50
  -2  11  -6   -0.80    0.60
  -3  11  -6    7.30    1.60
  -4  11  -6   -0.80    0.70
  -5  11  -6    2.20    1.30
  -5 -10   6    8.10    2.20
  -4 -10   6   15.20    2.80
  -3 -10   6   -0.20    1.10
  -2 -10   6   39.70    3.50
   1  10  -6   22.40    2.20
  -1 -10   6   22.10    2.80
   0  10  -6  238.58   10.40
   0 -10   6  221.48   10.80
  -1  10  -6   -0.10    0.70
  -2  10  -6    9.80    1.60
  -3  10  -6    0.40    0.80
  -4  10  -6    0.30    0.80
  -5  10  -6   -0.20    0.80
  -6  10  -6    0.70    1.00
  -6  -9   6   30.30    4.20
  -5  -9   6    3.60    1.70
  -4  -9   6   10.70    2.20
  -3  -9   6   15.40    2.50
   2   9  -6   56.79    3.50
  -2  -9   6   54.19    4.10
   1   9  -6  139.69    6.90
  -1  -9   6  147.09    7.60
   0   9  -6   11.40    1.70
   0  -9   6    9.80    1.80
  -1   9  -6   13.00    1.80
  -2   9  -6   45.40    3.30
  -3   9  -6    0.40    0.70
  -4   9  -6    8.60    1.70
  -5   9  -6   22.20    2.70
  -6   9  -6    1.00    1.00
  -7   9  -6    0.40    1.00
  -7  -8   6   11.70    2.70
  -6  -8   6   78.69    5.90
  -5  -8   6    4.10    1.70
  -4  -8   6    1.10    1.00
  -3  -8   6  137.09    7.50
   2   8  -6    4.60    1.10
  -2  -8   6    4.60    1.40
   1   8  -6   67.39    3.80
  -1  -8   6   61.39    4.20
   0   8  -6    6.50    1.20
   0  -8   6    5.90    1.40
  -1   8  -6    4.10    1.00
  -2   8  -6   50.39    3.30
  -3   8  -6    3.90    1.10
  -4   8  -6    3.50    1.10
  -5   8  -6   21.40    2.20
  -6   8  -6    0.70    0.80
  -7   8  -6    2.50    1.10
  -8   8  -6   -1.00    0.60
  -7  -7   6   15.40    2.90
  -6  -7   6   47.20    4.20
  -5  -7   6    2.00    1.20
  -4  -7   6   30.70    3.10
   3   7  -6  265.47   11.20
  -3  -7   6  267.27   12.30
   2   7  -6   14.20    1.50
  -2  -7   6   12.80    2.00
   1   7  -6   -0.30    0.40
  -1  -7   6    0.50    0.80
   0   7  -6    0.40    0.50
   0  -7   6   -0.20    0.50
  -1   7  -6    6.40    1.20
  -2   7  -6   28.90    2.20
  -3   7  -6   15.50    1.90
  -4   7  -6   16.60    2.00
  -5   7  -6    5.10    1.30
  -6   7  -6    2.90    1.10
  -7   7  -6   25.50    2.60
  -8   7  -6    0.10    0.90
  -8  -6   6    6.00    2.10
  -7  -6   6   25.90    3.70
  -6  -6   6   38.30    3.70
  -5  -6   6    6.00    1.60
  -4  -6   6  104.79    6.10
   3   6  -6  291.17   12.30
  -3  -6   6  303.77   13.30
   2   6  -6   12.40    1.30
  -2  -6   6   13.50    2.00
   1   6  -6    8.30    1.20
  -1  -6   6   10.50    1.70
   0   6  -6   20.50    1.80
   0  -6   6   21.80    2.00
  -1   6  -6    4.00    0.90
  -2   6  -6   15.40    1.60
  -3   6  -6   45.30    2.90
  -4   6  -6   14.40    1.80
  -5   6  -6    0.70    0.70
  -6   6  -6   52.09    3.50
  -7   6  -6    9.70    1.70
  -8   6  -6    2.90    1.20
  -9   6  -6    0.00    0.70
  -8  -5   6    5.50    1.90
  -7  -5   6    3.00    1.50
  -6  -5   6  141.49    7.90
  -5  -5   6   28.80    2.90
   4   5  -6  149.69    6.80
  -4  -5   6  140.59    7.50
   3   5  -6   37.90    2.40
  -3  -5   6   38.30    3.00
   2   5  -6   23.20    1.80
  -2  -5   6   22.90    2.10
   1   5  -6  101.59    4.80
  -1  -5   6   94.69    5.20
   0   5  -6   43.40    2.60
   0  -5   6   47.30    3.00
  -1   5  -6  132.79    6.10
  -2   5  -6   15.90    1.50
  -3   5  -6   23.10    1.90
  -4   5  -6    5.80    1.10
  -5   5  -6    0.80    0.60
  -6   5  -6   34.10    2.60
  -6   5  -6   30.10    2.50
  -7   5  -6  136.69    6.70
  -7   5  -6  130.29    6.80
  -8   5  -6   21.40    2.30
  -9   5  -6    1.00    0.80
  -9  -4   6   27.60    3.90
  -8  -4   6   -0.10    1.10
  -7  -4   6   22.80    3.20
  -6  -4   6    0.70    0.90
  -5  -4   6   19.60    2.60
  -5  -4   6   16.10    1.70
  -4  -4   6   -0.30    0.50
   3   4  -6   27.20    2.00
  -3  -4   6   26.70    2.30
   2   4  -6  122.99    5.60
  -2  -4   6  119.29    6.10
   1   4  -6   19.50    1.60
  -1  -4   6   22.00    1.90
   0   4  -6  482.25   19.50
   0  -4   6  512.25   20.00
  -1   4  -6  660.53   25.60
  -2   4  -6    9.80    1.20
  -3   4  -6    8.20    1.20
  -4   4  -6  236.78   10.10
  -5   4  -6    9.80    1.40
  -6   4  -6   73.99    4.20
  -6   4  -6   72.49    4.10
  -7   4  -6    6.50    1.40
  -7   4  -6    9.50    1.60
  -8   4  -6    0.40    0.70
  -8   4  -6    0.40    0.70
  -9   4  -6    1.70    1.00
  -9  -3   6   12.70    2.60
  -8  -3   6   20.90    3.10
  -7  -3   6    3.80    1.30
  -6  -3   6   21.50    2.90
  -6  -3   6   20.10    2.00
  -5  -3   6   11.10    1.60
  -5  -3   6   12.80    2.10
  -4  -3   6   38.70    2.90
  -4  -3   6   36.00    2.50
  -3  -3   6   63.69    3.50
  -3  -3   6   66.29    3.90
   2   3  -6  422.36   16.70
  -2  -3   6  409.36   17.00
   1   3  -6  101.89    4.80
  -1  -3   6  102.59    5.10
   0   3  -6  143.29    6.30
   0  -3   6  144.69    6.70
  -1   3  -6    0.20    0.30
  -2   3  -6    3.10    0.70
  -3   3  -6   57.69    3.20
  -4   3  -6    4.30    0.90
  -5   3  -6  511.75   20.30
  -6   3  -6   10.10    1.50
  -6   3  -6    9.70    1.50
  -7   3  -6   47.40    3.10
  -7   3  -6   37.40    2.80
  -8   3  -6    9.60    1.60
  -8   3  -6    8.90    1.60
  -9   3  -6    0.20    0.60
  -9   3  -6    0.30    0.80
  -9  -2   6   15.70    2.70
  -8  -2   6    6.20    1.60
  -8  -2   6    6.20    1.60
  -7  -2   6    0.60    0.80
  -6  -2   6   -0.10    0.60
  -6  -2   6    0.70    0.80
  -5  -2   6    3.00    0.90
  -5  -2   6    5.10    1.30
  -4  -2   6   43.40    3.10
  -4  -2   6   47.70    2.90
  -3  -2   6  111.99    5.60
  -3  -2   6  111.39    5.40
  -2  -2   6  124.89    5.60
  -2  -2   6  116.19    5.80
   1   2  -6   39.10    2.30
  -1  -2   6   35.10    2.40
   0   2  -6   79.39    3.80
   0  -2   6   78.49    4.10
  -1   2  -6  197.28    8.20
  -2   2  -6   53.99    2.80
  -3   2  -6   -0.10    0.30
  -4   2  -6  148.49    6.50
  -5   2  -6   14.40    1.40
  -6   2  -6   99.49    5.10
  -6   2  -6   98.69    4.90
  -7   2  -6  111.79    5.70
  -7   2  -6  108.19    5.40
  -8   2  -6    7.50    1.50
  -8   2  -6    7.00    1.30
  -9   2  -6    4.00    1.20
 -10   2  -6   14.50    2.30
  -9  -1   6    0.60    0.90
  -8  -1   6    6.70    1.60
  -7  -1   6    6.20    1.40
  -7  -1   6    2.30    0.90
  -6  -1   6   12.50    1.80
  -6  -1   6   21.60    2.20
  -5  -1   6   10.30    1.60
  -5  -1   6   11.40    1.70
  -4  -1   6    3.90    0.90
  -4  -1   6    3.40    0.90
  -3  -1   6   27.80    2.10
  -3  -1   6   30.40    2.10
  -2  -1   6  124.69    5.80
  -2  -1   6  129.29    6.00
  -1  -1   6  662.03   25.40
  -1  -1   6  645.24   25.40
   0   1  -6   25.00    1.70
   0  -1   6   24.20    1.80
  -1   1  -6  200.08    8.30
  -2   1  -6   92.29    4.20
  -3   1  -6   40.00    2.30
  -4   1  -6   37.80    2.20
  -5   1  -6    0.00    0.30
  -5   1  -6   -0.30    0.40
  -6   1  -6   21.60    1.90
  -6   1  -6   21.90    1.70
  -7   1  -6  175.68    8.10
  -7   1  -6  192.28    8.60
  -8   1  -6   18.80    1.90
  -8   1  -6   16.10    2.10
  -9   1  -6    2.60    1.20
 -10   1  -6   14.20    2.20
  -9   0   6   -0.10    1.00
  -8   0   6    6.10    1.60
  -8   0   6   15.60    2.50
  -7   0   6   53.79    3.60
  -6   0   6   42.90    3.20
  -6   0   6   46.30    3.20
  -5   0   6  139.49    7.00
  -5   0   6  154.18    7.20
  -4   0   6   15.40    1.60
  -4   0   6   14.20    1.70
  -3   0   6  369.86   14.90
  -3   0   6  357.16   14.80
  -2   0   6   29.80    2.00
  -2   0   6   30.50    2.10
  -1   0   6  432.16   17.10
  -1   0   6  432.06   17.10
   0   0   6   50.49    2.70
  -1   0  -6   81.29    3.80
  -2   0  -6  408.26   15.90
  -3   0  -6  152.88    6.40
  -4   0  -6    0.30    0.30
  -5   0  -6    2.70    0.80
  -5   0  -6    3.40    0.70
  -6   0  -6    6.30    1.00
  -6   0  -6    9.10    1.40
  -7   0  -6  183.28    8.30
  -7   0  -6  171.08    7.70
  -8   0  -6    1.10    0.80
  -9   0  -6    5.40    1.40
 -10   0  -6    8.80    1.90
  -8   1   6    1.70    1.00
  -8   1   6    3.30    1.20
  -7   1   6   11.10    1.80
  -7   1   6   20.60    2.40
  -6   1   6    7.60    1.50
  -5   1   6  207.58    9.70
  -5   1   6  226.78    9.70
  -4   1   6   16.80    1.60
  -4   1   6   21.70    1.90
  -3   1   6   76.99    4.00
  -3   1   6   81.89    4.30
   2  -1  -6  233.28    9.00
  -2   1   6  240.48    9.90
  -2   1   6  242.48   10.10
   1  -1  -6   34.50    1.50
  -1   1   6   35.20    2.10
  -1   1   6   35.90    2.20
   0   1   6   28.30    1.80
  -2  -1  -6 1195.08   45.00
  -3  -1  -6   26.40    1.50
  -4  -1  -6    7.00    1.10
  -4  -1  -6    5.30    0.80
  -5  -1  -6   48.60    3.00
  -5  -1  -6   52.29    2.60
  -6  -1  -6    1.90    0.80
  -6  -1  -6    2.70    0.60
  -7  -1  -6   49.80    3.30
  -8  -1  -6    9.00    1.60
  -9  -1  -6    5.50    1.40
 -10  -1  -6    8.70    2.00
  -9   2   6    0.70    0.90
  -8   2   6    8.20    1.70
  -7   2   6   26.20    2.40
  -6   2   6   59.99    3.60
  -6   2   6   54.99    3.70
  -5   2   6   83.49    4.40
  -3   2   6   12.50    1.60
   2  -2  -6   80.09    3.30
  -2   2   6   82.59    4.20
   1  -2  -6 1401.66   52.69
  -1   2   6 1442.86   53.49
  -1   2   6 1389.96   53.19
   0   2   6 1308.97   49.50
   1   2   6  698.83   26.80
  -2  -2  -6   -0.10    0.20
  -3  -2  -6    0.50    0.30
  -4  -2  -6  135.29    6.20
  -4  -2  -6  137.19    5.70
  -5  -2  -6  212.98    8.50
  -5  -2  -6  205.28    9.10
  -6  -2  -6   75.89    4.10
  -6  -2  -6   72.89    3.60
  -7  -2  -6   62.79    3.80
  -8  -2  -6    0.50    0.80
  -9  -2  -6    5.30    1.40
 -10  -2  -6   28.70    3.50
  -9   3   6    0.30    0.80
  -8   3   6   24.50    2.50
  -7   3   6  112.79    6.20
  -6   3   6  122.19    6.40
  -5   3   6   10.10    1.40
  -5   3   6    9.20    1.50
  -4   3   6  397.16   15.90
  -4   3   6  401.36   16.50
   3  -3  -6  183.88    7.40
  -3   3   6  179.08    7.70
  -3   3   6  192.78    8.30
   2  -3  -6   26.10    1.40
  -2   3   6   27.60    2.00
  -2   3   6   27.20    1.70
   1  -3  -6   37.50    1.90
  -1   3   6   42.20    2.50
   0   3   6   66.59    3.30
   1   3   6   13.90    1.10
   2   3   6   37.30    2.00
  -3  -3  -6   32.80    2.10
  -3  -3  -6   36.40    1.80
  -4  -3  -6   15.00    1.40
  -4  -3  -6   14.90    1.00
  -5  -3  -6   66.99    3.70
  -5  -3  -6   68.59    3.10
  -6  -3  -6  236.38   10.30
  -7  -3  -6    0.40    0.60
  -8  -3  -6    6.70    1.50
  -9  -3  -6   39.80    3.30
 -10  -3  -6   45.80    4.10
  -9   4   6   -0.10    0.90
  -8   4   6    0.00    0.70
  -7   4   6   47.20    3.50
  -6   4   6    1.80    0.90
  -5   4   6  242.58   10.80
  -4   4   6  281.77   11.20
  -4   4   6  273.17   11.90
   3  -4  -6  124.29    5.30
  -3   4   6  123.89    5.30
  -3   4   6  125.09    6.00
   2  -4  -6  710.03   27.60
  -2   4   6  726.43   28.40
  -2   4   6  748.23   27.60
   1  -4  -6  329.97   13.10
  -1   4   6  345.77   13.70
   0  -4  -6  143.09    6.00
   0   4   6  142.19    6.20
  -2  -4  -6    0.80    0.40
   2   4   6    1.10    0.40
  -3  -4  -6  890.81   33.70
  -3  -4  -6  905.31   34.30
  -4  -4  -6  287.37   11.20
  -4  -4  -6  293.17   11.90
  -5  -4  -6    6.40    1.10
  -6  -4  -6   -0.50    0.50
  -7  -4  -6   12.10    1.70
  -8  -4  -6    2.20    1.00
  -9  -4  -6    3.90    1.50
 -10  -4  -6   19.40    3.10
  -9   5   6   41.90    3.60
  -8   5   6   30.80    2.90
  -7   5   6    4.80    1.30
  -6   5   6    0.40    0.60
  -5   5   6  204.58    9.40
   4  -5  -6  196.08    8.10
  -4   5   6  195.68    8.90
   3  -5  -6   91.39    4.20
  -3   5   6   92.19    4.80
   2  -5  -6  191.88    7.80
  -2   5   6  185.28    8.30
   1  -5  -6    1.90    0.50
  -1   5   6    1.00    0.50
   0  -5  -6   67.29    3.30
   0   5   6   70.49    3.50
  -1  -5  -6  121.69    5.00
   1   5   6  112.19    5.10
  -2  -5  -6   34.10    2.00
   2   5   6   36.10    1.90
  -3  -5  -6   88.09    3.70
  -3  -5  -6   85.49    4.10
  -4  -5  -6  389.56   15.60
  -5  -5  -6    1.80    0.70
  -6  -5  -6    8.20    1.40
  -7  -5  -6   32.40    2.70
  -8  -5  -6   42.20    3.50
  -9  -5  -6   21.80    3.10
 -10  -5  -6    2.20    1.40
  -9   6   6   13.60    2.30
  -8   6   6    1.70    1.10
  -7   6   6   30.50    2.80
  -6   6   6    9.80    1.70
  -5   6   6   13.60    1.90
   4  -6  -6    4.10    0.80
  -4   6   6    4.00    1.00
   3  -6  -6   37.10    2.20
  -3   6   6   37.90    2.70
   2  -6  -6   14.80    1.20
  -2   6   6   17.80    1.60
   1  -6  -6    1.50    0.50
   1  -6  -6    0.90    0.20
  -1   6   6    1.00    0.50
   0  -6  -6    0.10    0.30
   0  -6  -6    0.60    0.20
   0   6   6    0.10    0.30
  -1  -6  -6  303.27   12.10
  -1  -6  -6  300.37   11.70
   1   6   6  297.07   12.00
  -2  -6  -6   50.59    2.60
   2   6   6   50.69    2.50
  -3  -6  -6    1.20    0.50
  -4  -6  -6   76.89    3.90
  -5  -6  -6   36.30    2.50
  -6  -6  -6    7.00    1.30
  -7  -6  -6    0.10    0.60
  -8  -6  -6   -0.50    0.60
  -9  -6  -6    4.30    1.60
 -10  -6  -6   10.70    2.60
  -8   7   6    1.30    1.00
  -7   7   6   35.40    3.20
  -6   7   6    9.80    1.80
  -5   7   6    4.30    1.10
   4  -7  -6    2.10    0.70
  -4   7   6    1.20    0.70
   3  -7  -6   78.09    3.90
  -3   7   6   73.89    4.30
   2  -7  -6    3.50    0.70
  -2   7   6    4.30    0.90
   1  -7  -6   46.40    2.70
  -1   7   6   47.30    2.90
   0  -7  -6   16.60    1.00
   0  -7  -6   18.20    1.40
   0   7   6   14.10    1.30
  -1  -7  -6    6.60    0.80
  -1  -7  -6    5.70    0.90
   1   7   6    7.60    1.00
  -2  -7  -6   67.29    3.60
  -2  -7  -6   72.19    3.40
   2   7   6   69.89    3.30
  -3  -7  -6   64.19    3.40
  -4  -7  -6   86.39    4.50
  -5  -7  -6   32.90    2.50
  -6  -7  -6    0.00    0.70
  -7  -7  -6   13.50    2.20
  -8  -7  -6   25.00    3.20
  -9  -7  -6    7.80    2.10
 -10  -7  -6    3.10    1.60
  -8   8   6    7.30    1.70
  -6   8   6    8.00    1.60
   5  -8  -6    2.50    0.80
  -5   8   6    1.20    0.80
   4  -8  -6   -0.10    0.50
  -4   8   6    0.40    0.60
   3  -8  -6    8.00    1.20
  -3   8   6   10.20    1.60
   2  -8  -6    0.10    0.40
  -2   8   6    0.40    0.50
   1  -8  -6   18.90    1.60
  -1   8   6   23.40    1.80
   0  -8  -6  418.46   16.30
   0   8   6  393.26   16.20
  -1  -8  -6    3.50    0.80
  -1  -8  -6    4.30    0.80
   1   8   6    4.30    0.80
  -2  -8  -6   55.19    3.10
  -2  -8  -6   52.79    3.10
  -3  -8  -6  149.99    6.90
  -3  -8  -6  150.88    6.90
  -4  -8  -6    2.40    0.90
  -5  -8  -6   37.40    2.90
  -6  -8  -6   31.40    2.90
  -7  -8  -6   18.20    2.70
  -8  -8  -6   79.79    5.70
  -9  -8  -6   11.40    2.50
  -8   9   6    1.40    1.20
  -7   9   6    0.80    0.90
  -6   9   6    0.70    0.80
   5  -9  -6    4.50    1.00
  -5   9   6    3.70    1.20
   4  -9  -6    0.80    0.60
  -4   9   6    0.60    0.60
   3  -9  -6   75.49    4.20
  -3   9   6   79.59    4.60
   2  -9  -6    3.30    0.80
  -2   9   6    3.80    1.00
   1  -9  -6   75.89    4.10
  -1   9   6   72.59    4.10
   0   9   6   35.80    2.30
  -1  -9  -6   59.89    3.40
   1   9   6   58.09    3.10
  -2  -9  -6   26.50    2.20
  -2  -9  -6   28.40    2.10
  -3  -9  -6  180.58    7.90
  -3  -9  -6  164.88    8.10
  -4  -9  -6  114.99    5.40
  -4  -9  -6   96.09    5.70
  -5  -9  -6   -0.80    0.70
  -6  -9  -6   15.60    2.50
  -7  -9  -6    1.20    1.00
  -8  -9  -6   57.89    4.80
  -9  -9  -6   18.00    3.30
  -7  10   6    0.50    0.90
  -6  10   6    3.30    1.30
   5 -10  -6    5.00    1.20
  -5  10   6    3.80    1.20
   4 -10  -6   19.80    2.10
  -4  10   6   17.90    2.30
   3 -10  -6   52.19    3.30
  -3  10   6   50.49    3.50
   2 -10  -6  222.58   10.00
  -2  10   6  237.38   10.40
   1 -10  -6   59.69    3.60
  -1  10   6   61.89    3.60
   0 -10  -6   30.20    2.30
  -1 -10  -6  310.97   13.10
  -2 -10  -6  108.99    5.50
  -3 -10  -6   74.79    4.60
  -3 -10  -6   78.49    4.30
  -4 -10  -6   29.40    2.80
  -4 -10  -6   31.50    2.40
  -5 -10  -6   17.50    2.50
  -5 -10  -6   16.60    2.00
  -6 -10  -6   -0.60    0.90
  -7 -10  -6    7.50    2.00
  -8 -10  -6   38.80    4.00
  -7  11   6    3.60    1.50
  -6  11   6    0.70    1.00
   5 -11  -6    5.10    1.20
  -5  11   6    6.60    1.60
   4 -11  -6   18.50    2.20
  -4  11   6   21.60    2.70
   3 -11  -6    9.20    1.50
  -3  11   6   10.90    1.80
   2 -11  -6  150.28    7.40
  -2  11   6  158.58    7.60
   1 -11  -6    0.50    0.60
  -1  11   6    0.50    0.60
   0  11   6  108.19    5.40
  -1 -11  -6  372.66   15.60
  -2 -11  -6   10.70    1.60
  -3 -11  -6   31.80    2.60
  -4 -11  -6   65.09    6.00
  -4 -11  -6   68.89    4.10
  -5 -11  -6    3.60    1.30
  -5 -11  -6    2.60    0.90
  -6 -11  -6   -0.20    0.90
  -6 -11  -6    0.60    0.70
  -7 -11  -6   -0.30    1.00
  -7 -11  -6    0.10    0.70
  -8 -11  -6    0.80    0.90
  -8 -11  -6   -0.10    1.20
  -6  12   6    8.20    1.90
   5 -12  -6   13.70    2.00
  -5  12   6    9.50    1.90
   4 -12  -6   73.39    4.40
  -4  12   6   68.59    4.60
   3 -12  -6   69.79    4.20
  -3  12   6   62.99    4.30
   2 -12  -6   19.50    2.30
  -2  12   6   21.30    2.20
   1 -12  -6    7.70    1.40
  -1  12   6    8.30    1.50
   0 -12  -6  330.47   14.20
  -1 -12  -6  249.18   11.10
  -2 -12  -6    0.10    0.60
  -3 -12  -6    8.80    1.60
  -4 -12  -6    5.70    1.40
  -5 -12  -6    2.00    1.00
  -6 -12  -6    1.60    1.20
  -6 -12  -6    1.00    0.90
  -7 -12  -6   17.30    3.00
  -7 -12  -6   16.00    2.30
   5 -13  -6   -0.20    0.80
  -5  13   6    0.80    1.00
   4 -13  -6   -0.80    0.70
  -4  13   6   -0.70    0.80
   3 -13  -6    0.00    0.70
  -3  13   6    0.50    0.90
   2 -13  -6   27.40    2.90
  -2  13   6   21.60    2.60
   1 -13  -6    1.00    0.80
   0 -13  -6   66.89    4.30
  -1 -13  -6   31.10    2.80
  -2 -13  -6    5.50    1.30
  -3 -13  -6    4.80    1.30
  -4 -13  -6   11.90    1.90
  -5 -13  -6    2.20    1.10
  -6 -13  -6   12.70    2.10
   4 -14  -6    0.70    0.80
  -4  14   6    0.20    0.80
   3 -14  -6    2.10    1.10
  -3  14   6    2.00    1.10
   2 -14  -6   44.70    3.50
   1 -14  -6    0.20    0.70
   0 -14  -6    7.00    1.50
  -1 -14  -6    0.90    0.90
  -2 -14  -6    0.10    0.70
  -3 -14  -6    2.80    1.10
  -4 -14  -6    7.00    1.50
  -5 -14  -6    0.50    0.80
   2 -15  -6   45.50    3.70
   1 -15  -6    1.20    0.90
   0 -15  -6    3.80    1.30
  -1 -15  -6    6.70    1.60
  -2 -15  -6   18.30    2.60
  -3 -15  -6    4.00    1.40
  -1  12  -7   -0.10    0.80
  -2  12  -7   -1.30    0.80
  -3 -11   7    0.00    1.00
  -2 -11   7    0.10    1.20
  -1 -11   7   -1.10    0.80
   0  11  -7   -0.20    0.80
  -1  11  -7    0.80    0.90
  -2  11  -7   -0.10    0.80
  -3  11  -7   -0.70    0.80
  -4  11  -7   -0.30    0.80
  -4 -10   7    0.10    1.10
  -3 -10   7    0.30    1.00
  -2 -10   7   -0.20    0.90
   1  10  -7    0.00    0.70
  -1 -10   7   -0.20    0.90
   0  10  -7   -0.70    0.50
   0 -10   7   -0.40    0.80
  -1  10  -7   -1.00    0.60
  -2  10  -7   -0.10    0.70
  -3  10  -7   -0.70    0.70
  -4  10  -7    0.80    0.80
  -5  10  -7   -0.40    0.80
  -5  -9   7   -1.00    1.20
  -4  -9   7   -0.50    1.00
  -3  -9   7   -0.30    0.90
   2   9  -7   -0.40    0.60
  -2  -9   7    1.40    0.90
   1   9  -7   -0.50    0.70
  -1  -9   7   -0.60    0.80
   0   9  -7    0.40    0.70
   0  -9   7    0.10    0.80
  -1   9  -7    0.10    0.70
  -2   9  -7   -0.50    0.70
  -3   9  -7   -0.60    0.60
  -4   9  -7    0.10    0.70
  -5   9  -7   -0.30    0.80
  -6   9  -7    0.20    0.90
  -6  -8   7   -1.50    1.00
  -5  -8   7   -0.40    1.00
  -4  -8   7    0.60    0.90
  -3  -8   7   -0.10    0.90
   2   8  -7   -0.20    0.60
  -2  -8   7    0.20    0.90
   1   8  -7    0.30    0.70
  -1  -8   7   -0.70    0.70
   0   8  -7    0.10    0.60
   0  -8   7    0.40    0.80
  -1   8  -7    0.20    0.60
  -2   8  -7    0.10    0.60
  -3   8  -7   -0.20    0.60
  -4   8  -7    0.90    0.80
  -5   8  -7    0.20    0.70
  -6   8  -7   -0.10    0.70
  -7   8  -7    0.30    0.80
  -7  -7   7    0.70    1.40
  -6  -7   7    0.40    1.10
  -5  -7   7   -0.90    0.80
  -4  -7   7   -0.30    0.80
   3   7  -7    0.30    0.60
  -3  -7   7   -0.10    0.80
   2   7  -7    0.20    0.50
  -2  -7   7    0.30    0.70
   1   7  -7   -0.20    0.50
  -1  -7   7   -0.40    0.70
   0   7  -7   -0.40    0.50
   0  -7   7   -0.50    0.50
  -1   7  -7    0.50    0.60
  -2   7  -7   -0.20    0.50
  -3   7  -7   -0.20    0.60
  -4   7  -7    0.70    0.70
  -5   7  -7   -0.40    0.70
  -6   7  -7   -0.50    0.70
  -7   7  -7   -0.30    0.80
  -8   7  -7   -0.60    0.70
  -7  -6   7   -0.90    1.00
  -6  -6   7   -0.10    0.90
  -5  -6   7    0.70    1.00
   4   6  -7    0.00    0.60
  -4  -6   7    0.30    0.80
   3   6  -7    0.10    0.60
  -3  -6   7    0.10    0.70
   2   6  -7   -0.30    0.50
  -2  -6   7    0.10    0.80
   1   6  -7    0.60    0.50
  -1  -6   7   -0.10    0.70
   0   6  -7   -0.40    0.30
   0  -6   7   -0.10    0.50
  -1   6  -7    0.10    0.50
  -2   6  -7   -0.60    0.40
  -3   6  -7   -0.50    0.50
  -4   6  -7    0.10    0.50
  -5   6  -7    0.10    0.60
  -6   6  -7    0.60    0.90
  -7   6  -7    0.00    0.80
  -8   6  -7   -0.10    0.70
  -8  -5   7    1.30    1.30
  -7  -5   7    0.20    1.10
  -6  -5   7   -0.20    0.90
  -5  -5   7    0.40    0.90
   4   5  -7    0.10    0.60
  -4  -5   7   -0.20    0.70
   3   5  -7    0.00    0.50
  -3  -5   7   -0.50    0.60
   2   5  -7   -0.30    0.40
  -2  -5   7    0.20    0.70
   1   5  -7   -0.20    0.40
  -1  -5   7    0.10    0.50
   0   5  -7    0.40    0.40
   0  -5   7    0.30    0.60
  -1   5  -7    0.50    0.50
  -2   5  -7   -0.40    0.40
  -3   5  -7    0.10    0.50
  -4   5  -7   -0.40    0.50
  -5   5  -7    0.00    0.50
  -6   5  -7   -0.10    0.60
  -7   5  -7    0.70    0.80
  -7   5  -7   -0.40    0.70
  -8   5  -7    0.00    0.60
  -9   5  -7    0.20    0.80
  -8  -4   7   -0.10    1.10
  -7  -4   7    0.20    1.00
  -6  -4   7    0.00    0.90
  -5  -4   7   -0.60    0.60
   4   4  -7   -1.00    0.50
  -4  -4   7    0.60    0.70
   3   4  -7   -0.20    0.40
  -3  -4   7   -0.50    0.50
   2   4  -7   -0.10    0.40
  -2  -4   7    0.50    0.60
   1   4  -7   -0.30    0.30
  -1  -4   7    0.10    0.50
   0   4  -7    0.10    0.50
   0  -4   7    0.40    0.50
  -1   4  -7   -0.40    0.30
  -2   4  -7   -0.10    0.30
  -3   4  -7    0.40    0.50
  -4   4  -7   -0.10    0.40
  -5   4  -7   -0.10    0.40
  -6   4  -7    0.40    0.60
  -7   4  -7    0.50    0.80
  -7   4  -7    0.00    0.60
  -8   4  -7   -0.10    0.80
  -8   4  -7   -0.20    0.60
  -9   4  -7    0.00    0.70
  -8  -3   7   -0.60    0.90
  -7  -3   7   -1.20    0.70
  -6  -3   7    0.20    0.90
  -6  -3   7    0.10    0.60
  -5  -3   7    0.60    0.60
  -5  -3   7   -0.20    0.60
  -4  -3   7   -0.10    0.50
  -4  -3   7   -0.10    0.40
  -3  -3   7    0.10    0.50
   2   3  -7   -0.50    0.40
  -2  -3   7    0.20    0.50
   1   3  -7   -0.40    0.30
  -1  -3   7    0.60    0.50
   0   3  -7   -0.10    0.30
   0  -3   7   -0.60    0.30
  -1   3  -7   -0.30    0.30
  -2   3  -7    0.20    0.40
  -3   3  -7    0.00    0.30
  -4   3  -7    0.30    0.50
  -5   3  -7    0.20    0.50
  -6   3  -7    0.00    0.50
  -6   3  -7    0.20    0.50
  -7   3  -7    0.80    0.60
  -7   3  -7   -0.20    0.60
  -8   3  -7   -0.30    0.60
  -8   3  -7   -0.30    0.50
  -9   3  -7   -0.50    0.50
  -9   3  -7    1.40    1.00
  -9  -2   7   -0.50    1.10
  -8  -2   7   -0.10    1.00
  -7  -2   7   -0.40    0.70
  -6  -2   7   -0.50    0.60
  -6  -2   7   -0.10    0.60
  -5  -2   7    0.20    0.60
  -5  -2   7    0.20    0.70
  -4  -2   7    0.20    0.60
  -4  -2   7   -0.10    0.50
  -3  -2   7    0.20    0.50
  -3  -2   7    0.30    0.60
  -2  -2   7   -0.10    0.40
  -2  -2   7    0.30    0.40
   1   2  -7   -0.10    0.40
  -1  -2   7   -0.10    0.40
   0   2  -7   -0.20    0.30
   0  -2   7   -0.20    0.30
  -1   2  -7   -0.10    0.30
  -2   2  -7   -0.10    0.30
  -3   2  -7    0.30    0.40
  -4   2  -7    0.10    0.40
  -5   2  -7   -0.20    0.40
  -6   2  -7   -0.20    0.40
  -6   2  -7    0.00    0.60
  -7   2  -7   -0.30    0.60
  -7   2  -7   -0.30    0.50
  -8   2  -7   -0.20    0.50
  -8   2  -7   -0.20    0.70
  -9   2  -7    0.80    0.90
 -10   2  -7    0.80    0.80
  -9  -1   7    0.70    1.10
  -8  -1   7    0.00    1.00
  -7  -1   7   -0.70    0.70
  -7  -1   7   -0.40    0.50
  -6  -1   7    0.00    0.60
  -6  -1   7    0.00    0.70
  -5  -1   7    0.10    0.50
  -5  -1   7   -0.30    0.50
  -4  -1   7    0.30    0.60
  -4  -1   7    0.50    0.60
  -3  -1   7    0.30    0.50
  -3  -1   7   -0.20    0.30
  -2  -1   7    0.00    0.40
  -2  -1   7    0.30    0.40
  -1  -1   7    0.30    0.40
  -1  -1   7   -0.10    0.30
   0   1  -7   -0.30    0.30
   0  -1   7   -0.10    0.30
  -1   1  -7    0.30    0.30
  -2   1  -7    0.20    0.30
  -3   1  -7   -0.10    0.30
  -4   1  -7    0.10    0.30
  -5   1  -7    0.00    0.30
  -6   1  -7   -0.10    0.40
  -6   1  -7    0.60    0.60
  -7   1  -7   -0.10    0.50
  -7   1  -7    0.40    0.70
  -8   1  -7   -0.50    0.70
  -8   1  -7    0.70    0.80
  -9   1  -7   -0.40    0.70
 -10   1  -7   -0.40    0.70
  -8   0   7   -0.20    0.80
  -8   0   7    0.20    0.90
  -7   0   7    0.30    0.80
  -7   0   7    0.30    0.70
  -6   0   7    0.00    0.70
  -6   0   7    0.30    0.60
  -5   0   7   -0.70    0.50
  -5   0   7    0.40    0.60
  -4   0   7   -0.10    0.40
  -4   0   7   -0.20    0.40
  -3   0   7    0.00    0.40
  -3   0   7   -0.50    0.30
  -2   0   7   -0.20    0.30
  -2   0   7   -0.30    0.30
  -1   0   7    0.00    0.30
  -1   0   7    0.10    0.30
   0   0   7    0.00    0.30
  -1   0  -7   -0.20    0.20
  -2   0  -7   -0.40    0.30
  -3   0  -7   -0.40    0.20
  -4   0  -7    0.20    0.30
  -5   0  -7    0.00    0.50
  -5   0  -7   -0.20    0.30
  -6   0  -7   -0.40    0.40
  -6   0  -7   -0.30    0.30
  -7   0  -7   -0.20    0.40
  -7   0  -7   -0.30    0.60
  -8   0  -7    0.20    0.60
  -9   0  -7   -0.40    0.70
 -10   0  -7    0.20    1.00
  -8   1   7   -0.10    0.70
  -7   1   7   -0.50    0.60
  -6   1   7   -0.20    0.60
  -6   1   7    0.30    0.70
  -5   1   7    0.40    0.50
  -5   1   7   -0.90    0.40
  -4   1   7    0.00    0.50
  -4   1   7    0.80    0.50
  -3   1   7   -0.10    0.40
  -3   1   7   -0.40    0.30
   2  -1  -7    0.00    0.10
  -2   1   7   -0.40    0.20
  -2   1   7   -0.20    0.30
   1  -1  -7    0.00    0.10
  -1   1   7   -0.10    0.20
  -1   1   7    0.40    0.40
   0   1   7    0.10    0.30
  -2  -1  -7    0.10    0.30
  -3  -1  -7    0.10    0.20
  -4  -1  -7    0.40    0.30
  -5  -1  -7   -0.30    0.40
  -5  -1  -7   -0.10    0.30
  -6  -1  -7   -0.10    0.50
  -6  -1  -7    0.10    0.40
  -7  -1  -7    0.20    0.60
  -8  -1  -7    0.00    0.70
  -9  -1  -7    0.50    0.80
 -10  -1  -7    1.00    1.10
  -9   2   7   -0.20    0.70
  -8   2   7   -0.90    0.70
  -7   2   7   -0.40    0.70
  -6   2   7    0.10    0.60
  -6   2   7    0.00    0.70
  -5   2   7   -0.70    0.40
  -5   2   7   -0.20    0.50
  -4   2   7   -0.40    0.40
  -4   2   7   -0.20    0.30
  -3   2   7   -0.20    0.40
  -3   2   7    0.00    0.30
   2  -2  -7    0.10    0.20
  -2   2   7    0.00    0.40
  -2   2   7   -0.10    0.20
   1  -2  -7   -0.20    0.10
  -1   2   7    0.10    0.30
  -1   2   7   -0.40    0.20
   0   2   7   -0.20    0.20
   1   2   7    0.00    0.20
  -2  -2  -7   -0.10    0.30
  -3  -2  -7    0.10    0.20
  -4  -2  -7   -0.20    0.40
  -4  -2  -7   -0.10    0.30
  -5  -2  -7   -0.10    0.40
  -5  -2  -7   -0.20    0.20
  -6  -2  -7    0.30    0.40
  -6  -2  -7    0.10    0.50
  -7  -2  -7    0.20    0.70
  -8  -2  -7   -0.30    0.60
  -9  -2  -7    0.10    0.90
 -10  -2  -7   -0.60    1.00
  -9   3   7    0.20    0.90
  -8   3   7    0.40    0.90
  -7   3   7    0.20    0.80
  -6   3   7   -0.20    0.60
  -5   3   7    0.20    0.60
  -5   3   7    0.30    0.50
  -4   3   7   -0.10    0.50
  -4   3   7    0.10    0.40
   3  -3  -7    0.10    0.20
  -3   3   7   -0.20    0.40
  -3   3   7    0.10    0.30
   2  -3  -7   -0.10    0.10
  -2   3   7    0.00    0.30
  -2   3   7   -0.20    0.30
   1  -3  -7    0.10    0.20
  -1   3   7   -0.10    0.30
   0   3   7   -0.10    0.30
   1   3   7    0.20    0.30
  -3  -3  -7   -0.20    0.20
  -3  -3  -7   -0.20    0.30
  -4  -3  -7   -0.20    0.40
  -4  -3  -7    0.20    0.20
  -5  -3  -7   -0.30    0.20
  -5  -3  -7    0.20    0.50
  -6  -3  -7   -0.30    0.50
  -7  -3  -7    0.00    0.60
  -8  -3  -7    0.20    0.70
  -9  -3  -7   -0.50    0.80
 -10  -3  -7    0.90    1.20
  -9   4   7   -1.40    0.60
  -8   4   7    0.80    0.80
  -7   4   7   -0.60    0.50
  -6   4   7    0.10    0.70
  -5   4   7    0.40    0.60
  -4   4   7    0.00    0.60
  -4   4   7    0.00    0.40
   3  -4  -7   -0.10    0.20
  -3   4   7    0.10    0.40
  -3   4   7   -0.30    0.30
   2  -4  -7    0.20    0.20
  -2   4   7   -0.10    0.40
   1  -4  -7   -0.10    0.20
  -1   4   7   -0.10    0.30
   0  -4  -7   -0.20    0.20
   0   4   7    0.30    0.40
   1   4   7   -0.20    0.20
   2   4   7    0.00    0.30
  -3  -4  -7   -0.10    0.30
  -3  -4  -7   -0.10    0.20
  -4  -4  -7    0.00    0.40
  -4  -4  -7   -0.10    0.20
  -5  -4  -7    0.20    0.50
  -6  -4  -7    0.30    0.50
  -7  -4  -7   -0.40    0.60
  -8  -4  -7   -0.20    0.60
  -9  -4  -7    0.50    0.90
 -10  -4  -7    0.30    1.00
  -9   5   7    0.00    0.90
  -8   5   7    0.80    0.90
  -7   5   7   -0.40    0.60
  -6   5   7   -0.20    0.60
  -5   5   7    0.30    0.60
   4  -5  -7    0.00    0.40
  -4   5   7    0.00    0.60
   3  -5  -7    0.20    0.30
  -3   5   7   -0.10    0.50
   2  -5  -7    0.10    0.30
  -2   5   7   -0.30    0.40
   1  -5  -7   -0.10    0.20
  -1   5   7   -0.20    0.30
   0  -5  -7    0.10    0.30
   0   5   7   -0.40    0.20
  -1  -5  -7   -0.10    0.20
   1   5   7    0.40    0.30
  -2  -5  -7   -0.10    0.20
   2   5   7    0.50    0.30
  -3  -5  -7   -0.30    0.30
  -3  -5  -7    0.20    0.20
  -4  -5  -7   -0.30    0.40
  -5  -5  -7   -0.20    0.50
  -6  -5  -7   -0.50    0.40
  -7  -5  -7    0.00    0.60
  -8  -5  -7    0.10    0.80
  -9  -5  -7   -0.10    0.90
 -10  -5  -7    1.70    1.40
  -8   6   7    0.10    0.90
  -7   6   7   -0.20    0.80
  -6   6   7    0.70    0.80
  -5   6   7    0.20    0.60
   4  -6  -7    0.00    0.30
  -4   6   7    0.50    0.70
   3  -6  -7    0.00    0.30
  -3   6   7   -0.40    0.30
   2  -6  -7    0.20    0.30
  -2   6   7   -0.10    0.40
   1  -6  -7    0.10    0.20
  -1   6   7    0.00    0.40
   0  -6  -7   -0.10    0.30
   0  -6  -7    0.00    0.20
   0   6   7   -0.10    0.30
  -1  -6  -7    0.00    0.30
  -1  -6  -7    0.00    0.20
   1   6   7   -0.10    0.20
  -2  -6  -7   -0.10    0.30
   2   6   7   -0.30    0.20
  -3  -6  -7    0.10    0.30
   3   6   7    0.30    0.30
  -4  -6  -7   -0.20    0.40
  -5  -6  -7   -0.40    0.40
  -6  -6  -7    0.50    0.60
  -7  -6  -7    0.00    0.60
  -8  -6  -7    0.30    0.90
  -9  -6  -7   -0.30    0.80
 -10  -6  -7   -0.90    1.00
  -8   7   7   -0.30    0.70
  -7   7   7   -0.30    0.60
  -6   7   7    0.50    0.70
  -5   7   7    0.50    0.70
   4  -7  -7   -0.60    0.30
  -4   7   7    0.10    0.50
   3  -7  -7   -0.40    0.30
  -3   7   7   -0.40    0.40
   2  -7  -7   -0.20    0.30
  -2   7   7    0.00    0.40
   1  -7  -7    0.00    0.30
  -1   7   7   -0.20    0.40
   0  -7  -7    0.00    0.30
   0  -7  -7    0.10    0.20
   0   7   7   -0.10    0.30
  -1  -7  -7    0.00    0.30
  -1  -7  -7   -0.10    0.30
   1   7   7   -0.10    0.30
  -2  -7  -7   -0.10    0.40
  -2  -7  -7    0.30    0.30
   2   7   7    0.20    0.30
  -3  -7  -7    0.20    0.40
  -4  -7  -7   -0.50    0.40
  -5  -7  -7   -0.60    0.40
  -6  -7  -7    0.50    0.60
  -7  -7  -7    0.30    0.80
  -8  -7  -7    0.30    1.00
  -9  -7  -7    0.10    0.90
  -8   8   7    0.00    0.80
  -7   8   7    0.20    0.80
  -6   8   7   -0.20    0.70
   5  -8  -7    0.40    0.50
  -5   8   7   -0.30    0.60
   4  -8  -7   -0.40    0.40
  -4   8   7    0.60    0.70
   3  -8  -7   -0.20    0.40
  -3   8   7    0.00    0.50
   2  -8  -7    0.20    0.40
  -2   8   7   -0.20    0.40
   1  -8  -7    0.20    0.40
  -1   8   7    0.30    0.40
   0  -8  -7    0.00    0.40
   0   8   7   -0.30    0.30
  -1  -8  -7   -0.10    0.40
  -1  -8  -7    0.10    0.30
   1   8   7   -0.10    0.30
  -2  -8  -7   -0.20    0.30
  -2  -8  -7    0.90    0.40
  -3  -8  -7   -0.10    0.40
  -3  -8  -7   -0.20    0.40
  -4  -8  -7   -0.50    0.40
  -5  -8  -7   -0.50    0.50
  -6  -8  -7    0.00    0.60
  -7  -8  -7   -0.40    0.70
  -8  -8  -7    0.40    1.10
  -9  -8  -7   -0.30    1.10
  -8   9   7   -0.50    0.80
  -7   9   7   -0.40    0.70
  -6   9   7   -0.70    0.50
   5  -9  -7    0.20    0.50
  -5   9   7   -1.00    0.50
   4  -9  -7   -0.50    0.40
  -4   9   7    0.60    0.70
   3  -9  -7   -0.50    0.50
  -3   9   7   -0.40    0.50
   2  -9  -7   -0.40    0.40
  -2   9   7   -0.30    0.50
   1  -9  -7   -0.40    0.40
  -1   9   7   -0.30    0.40
   0  -9  -7   -0.10    0.50
   0   9   7    0.30    0.50
  -1  -9  -7   -0.20    0.40
   1   9   7    0.30    0.50
  -2  -9  -7   -0.10    0.50
  -2  -9  -7   -0.50    0.40
  -3  -9  -7   -0.70    0.50
  -3  -9  -7   -0.70    0.40
  -4  -9  -7    0.60    0.60
  -4  -9  -7    0.10    0.60
  -5  -9  -7   -0.10    0.70
  -6  -9  -7    0.20    0.80
  -7  -9  -7    0.30    0.90
  -8  -9  -7    0.20    1.00
  -9  -9  -7    0.20    1.20
  -7  10   7    0.30    1.00
  -6  10   7   -0.60    0.70
   5 -10  -7    0.20    0.50
  -5  10   7    0.30    0.80
   4 -10  -7   -0.50    0.40
  -4  10   7   -0.30    0.60
   3 -10  -7    0.50    0.70
  -3  10   7   -0.50    0.50
   2 -10  -7   -0.50    0.40
  -2  10   7   -0.40    0.50
   1 -10  -7   -0.40    0.50
  -1  10   7    0.10    0.60
   0 -10  -7   -0.40    0.40
   0  10   7   -0.20    0.30
  -1 -10  -7    0.30    0.50
  -2 -10  -7   -0.20    0.40
  -3 -10  -7   -0.30    0.50
  -4 -10  -7   -0.60    0.40
  -4 -10  -7   -0.40    0.60
  -5 -10  -7   -0.20    0.60
  -5 -10  -7    0.10    0.80
  -6 -10  -7    0.30    0.80
  -7 -10  -7   -0.80    0.80
  -8 -10  -7   -0.40    1.10
  -6  11   7   -0.70    0.60
   5 -11  -7   -1.10    0.50
  -5  11   7    0.10    0.80
   4 -11  -7    0.10    0.60
  -4  11   7    0.60    0.80
   3 -11  -7   -0.80    0.40
  -3  11   7    0.40    0.70
   2 -11  -7   -0.90    0.40
  -2  11   7    0.40    0.70
   1 -11  -7    0.30    0.60
  -1  11   7   -0.50    0.50
   0 -11  -7    0.10    0.60
   0  11   7    0.00    0.40
  -1 -11  -7    0.20    0.60
  -2 -11  -7   -0.20    0.60
  -3 -11  -7    0.10    0.60
  -4 -11  -7    0.20    0.60
  -5 -11  -7   -0.10    0.70
  -5 -11  -7    0.00    0.60
  -6 -11  -7   -0.80    0.50
  -6 -11  -7    0.00    1.00
  -7 -11  -7   -0.10    0.60
  -7 -11  -7   -0.70    0.90
  -8 -11  -7    0.40    1.20
  -6  12   7   -0.40    0.80
   5 -12  -7   -0.50    0.70
  -5  12   7    0.90    0.90
   4 -12  -7    0.10    0.60
  -4  12   7   -0.70    0.80
   3 -12  -7    0.80    0.70
  -3  12   7    0.00    0.60
   2 -12  -7    0.60    0.70
  -2  12   7    0.10    0.60
   1 -12  -7    0.40    0.60
  -1  12   7   -0.50    0.40
   0 -12  -7    0.20    0.70
  -1 -12  -7    0.10    0.60
  -2 -12  -7   -0.70    0.50
  -3 -12  -7    0.30    0.70
  -4 -12  -7    0.40    0.70
  -5 -12  -7    0.30    0.80
  -6 -12  -7   -0.60    1.20
  -6 -12  -7   -0.20    0.70
  -7 -12  -7    1.70    1.50
  -7 -12  -7    0.90    0.90
   5 -13  -7    0.90    0.80
  -5  13   7    0.00    0.90
   4 -13  -7   -0.60    0.70
  -4  13   7   -0.40    0.60
   3 -13  -7    0.20    0.70
  -3  13   7   -0.50    0.70
   2 -13  -7    0.80    0.70
  -2  13   7    0.00    0.60
   1 -13  -7   -0.80    0.50
   0 -13  -7    0.00    0.70
  -1 -13  -7    0.10    0.60
  -2 -13  -7    0.50    0.80
  -3 -13  -7   -0.20    0.70
  -4 -13  -7   -0.10    0.60
  -5 -13  -7   -0.80    0.60
  -6 -13  -7    0.00    0.90
   4 -14  -7    0.00    0.80
  -4  14   7   -0.40    0.70
   3 -14  -7    0.30    0.80
  -3  14   7   -0.70    0.80
   2 -14  -7   -1.10    0.70
   1 -14  -7    0.60    0.80
   0 -14  -7    0.30    0.70
  -1 -14  -7    1.00    0.90
  -2 -14  -7   -0.10    0.70
  -3 -14  -7    0.00    0.70
  -4 -14  -7   -0.90    0.70
  -5 -14  -7    0.00    0.80
   2 -15  -7    0.30    0.80
   1 -15  -7   -0.50    0.70
   0 -15  -7    0.10    0.70
  -1 -15  -7   -0.70    0.70
  -2 -15  -7    0.30    1.00
  -3 -15  -7   -0.30    0.80
  -2 -11   8   -0.30    1.10
  -1 -11   8    0.30    1.00
   0  11  -8   14.40    2.20
  -1  11  -8    5.40    1.50
  -2  11  -8    0.00    0.90
  -3  11  -8    0.00    0.90
  -3 -10   8    0.50    1.20
  -2 -10   8    0.20    1.00
   1  10  -8    7.30    1.50
  -1 -10   8    5.90    1.80
   0  10  -8    1.10    0.90
  -1  10  -8   10.70    1.90
  -2  10  -8   21.10    2.70
  -3  10  -8    1.20    1.00
  -4  10  -8    0.60    1.10
  -5  10  -8    0.00    1.00
  -5  -9   8    3.40    1.70
  -4  -9   8    1.40    1.40
  -3  -9   8    4.30    1.60
   2   9  -8    8.40    1.50
  -2  -9   8    6.40    1.90
   1   9  -8   19.70    2.40
  -1  -9   8   21.10    2.90
   0   9  -8   63.19    4.00
   0  -9   8   59.29    4.40
  -1   9  -8    2.10    1.00
  -2   9  -8   18.10    2.30
  -3   9  -8   15.90    2.20
  -4   9  -8   14.70    2.30
  -5   9  -8   10.60    2.00
  -6   9  -8    2.40    1.30
  -6  -8   8   43.30    7.00
  -5  -8   8    1.90    1.40
  -4  -8   8    0.90    1.10
  -3  -8   8    2.70    1.30
   2   8  -8    7.90    1.40
  -2  -8   8    9.60    2.10
   1   8  -8    0.60    0.70
  -1  -8   8    1.50    0.90
   0   8  -8   34.20    2.70
   0  -8   8   29.80    2.90
  -1   8  -8    1.50    0.90
  -2   8  -8   61.69    3.90
  -3   8  -8   64.79    4.20
  -4   8  -8    3.50    1.20
  -5   8  -8    3.10    1.20
  -6   8  -8    1.10    1.00
  -7   8  -8    0.40    1.00
  -6  -7   8   39.60    4.10
  -5  -7   8    1.30    1.30
  -4  -7   8    4.10    1.60
   3   7  -8    0.30    0.60
  -3  -7   8    0.90    0.90
   2   7  -8  106.99    5.40
  -2  -7   8  102.89    6.20
   1   7  -8    1.20    0.70
  -1  -7   8    0.10    0.80
   0   7  -8    0.80    0.70
   0  -7   8   -0.50    0.70
  -1   7  -8    1.80    0.80
  -2   7  -8   29.00    2.50
  -3   7  -8   38.60    2.90
  -4   7  -8   17.10    2.20
  -5   7  -8    8.60    1.70
  -6   7  -8    7.40    1.60
  -7   7  -8    8.70    1.90
  -7  -6   8    0.70    1.40
  -6  -6   8   49.60    4.60
  -5  -6   8   55.89    4.60
   4   6  -8   44.10    3.10
  -4  -6   8   53.59    4.20
   3   6  -8  203.18    9.40
  -3  -6   8  220.38   10.50
   2   6  -8   61.09    3.60
  -2  -6   8   61.09    4.20
   1   6  -8    6.50    1.10
  -1  -6   8    5.50    1.40
   0   6  -8    3.10    0.90
   0  -6   8    2.20    1.00
  -1   6  -8   53.29    3.40
  -2   6  -8   34.60    2.60
  -3   6  -8  142.49    7.00
  -4   6  -8    5.40    1.30
  -5   6  -8   33.60    2.70
  -6   6  -8   28.50    2.60
  -7   6  -8    5.60    1.50
  -7   6  -8    5.90    2.30
  -8   6  -8    5.50    1.60
  -7  -5   8    4.10    1.70
  -6  -5   8   36.20    3.60
  -5  -5   8  102.99    6.40
   4   5  -8    3.70    1.10
  -4  -5   8    2.60    1.20
   3   5  -8  120.69    6.10
  -3  -5   8  129.99    6.90
   2   5  -8    7.10    1.30
  -2  -5   8   11.60    1.90
   1   5  -8    2.20    0.70
  -1  -5   8    3.50    1.10
   0   5  -8    5.40    1.00
   0  -5   8    3.80    1.10
  -1   5  -8    0.90    0.60
  -2   5  -8  411.06   16.80
  -3   5  -8  118.09    6.00
  -4   5  -8   -0.50    0.40
  -5   5  -8   38.50    2.90
  -6   5  -8  194.68    9.20
  -7   5  -8    0.40    0.70
  -7   5  -8   -0.10    0.70
  -8   5  -8   -0.20    0.80
  -8   5  -8   -1.30    0.70
  -9   5  -8    0.40    0.80
  -8  -4   8   28.80    4.00
  -7  -4   8    0.80    1.00
  -6  -4   8   -0.50    0.80
  -5  -4   8   -0.40    0.80
   4   4  -8   11.10    1.70
  -4  -4   8    8.90    1.80
   3   4  -8   14.90    1.80
  -3  -4   8   15.00    2.20
   2   4  -8    6.00    1.10
  -2  -4   8    1.90    0.90
   1   4  -8    4.10    0.90
  -1  -4   8    8.50    1.60
   0   4  -8   50.39    3.00
   0  -4   8   49.10    3.40
  -1   4  -8   -0.40    0.40
  -2   4  -8   17.10    1.60
  -3   4  -8    1.20    0.70
  -4   4  -8    0.30    0.50
  -5   4  -8   33.40    2.60
  -6   4  -8    4.00    1.20
  -7   4  -8   23.20    2.30
  -7   4  -8   29.20    2.60
  -8   4  -8    5.70    1.50
  -8   4  -8    6.50    1.60
  -9   4  -8    3.00    1.30
  -9   4  -8    1.70    1.10
  -8  -3   8   24.70    3.60
  -7  -3   8   12.40    2.40
  -6  -3   8   22.60    3.10
  -6  -3   8   22.80    2.30
  -5  -3   8   -0.30    0.60
  -5  -3   8    0.50    0.80
  -4  -3   8    0.70    0.70
  -4  -3   8    1.50    0.80
  -3  -3   8   17.70    2.40
   2   3  -8   10.30    1.50
  -2  -3   8    6.20    1.30
   1   3  -8    0.50    0.50
  -1  -3   8   -0.20    0.50
   0   3  -8  665.73   25.80
   0  -3   8  655.83   26.30
  -1   3  -8    6.10    1.00
  -2   3  -8    0.30    0.40
  -3   3  -8    0.30    0.50
  -4   3  -8   16.70    1.70
  -5   3  -8    0.90    0.60
  -6   3  -8    0.60    0.60
  -7   3  -8   10.00    1.60
  -7   3  -8    7.70    1.50
  -8   3  -8    0.50    0.80
  -8   3  -8    0.60    0.80
  -9   3  -8    3.10    1.20
  -8  -2   8   19.50    3.10
  -7  -2   8   10.70    2.20
  -6  -2   8   49.00    3.90
  -6  -2   8   49.80    3.60
  -5  -2   8    1.70    1.00
  -5  -2   8    0.40    0.60
  -4  -2   8    3.90    1.00
  -4  -2   8    4.30    1.20
  -3  -2   8   44.40    3.00
  -3  -2   8   44.20    3.20
  -2  -2   8  164.08    7.50
  -2  -2   8  158.18    7.70
   1   2  -8  139.79    6.50
  -1  -2   8  134.29    6.70
   0   2  -8  348.97   14.20
   0  -2   8  345.67   14.50
  -1   2  -8    2.30    0.70
  -2   2  -8   10.40    1.30
  -3   2  -8   51.59    3.00
  -4   2  -8    3.30    0.90
  -5   2  -8   24.70    2.00
  -6   2  -8    9.70    1.40
  -6   2  -8    9.00    1.60
  -7   2  -8   25.00    2.20
  -7   2  -8   23.60    2.40
  -8   2  -8   -0.30    0.50
  -8   2  -8    0.10    0.70
  -9   2  -8   19.40    2.50
 -10   2  -8    2.40    1.30
  -8  -1   8   28.70    3.60
  -7  -1   8   37.90    3.40
  -7  -1   8   35.10    3.10
  -6  -1   8   22.00    2.30
  -6  -1   8   23.80    2.50
  -5  -1   8    4.90    1.20
  -5  -1   8    5.70    1.40
  -4  -1   8    3.40    1.00
  -4  -1   8    1.90    0.90
  -3  -1   8  185.18    8.40
  -3  -1   8  176.28    8.40
  -2  -1   8    2.20    0.80
  -2  -1   8    2.20    0.80
  -1  -1   8  626.34   25.00
  -1  -1   8  636.74   24.90
   0   1  -8   91.09    4.60
  -1   1  -8   28.50    2.00
  -2   1  -8    2.00    0.60
  -3   1  -8  282.17   11.60
  -4   1  -8   33.40    2.20
  -5   1  -8   31.60    2.20
  -6   1  -8   36.80    2.90
  -6   1  -8   38.60    2.50
  -7   1  -8   47.20    3.10
  -7   1  -8   53.39    3.50
  -8   1  -8    9.70    1.80
  -9   1  -8   11.10    2.00
 -10   1  -8    0.50    1.00
  -8   0   8   50.79    5.00
  -8   0   8   45.00    3.80
  -7   0   8   28.00    2.80
  -7   0   8   27.70    3.30
  -6   0   8    7.00    1.50
  -6   0   8    4.10    1.20
  -5   0   8   27.40    2.50
  -5   0   8   26.50    2.40
  -4   0   8  340.07   14.50
  -4   0   8  341.37   14.60
  -3   0   8   52.29    3.40
  -3   0   8   55.39    3.40
  -2   0   8   20.50    1.80
  -2   0   8   19.70    1.80
  -1   0   8   27.30    2.10
  -1   0   8   28.40    2.20
   0   0   8  109.69    5.30
  -1   0  -8  129.69    6.00
  -2   0  -8   17.80    1.50
  -3   0  -8   81.19    4.00
  -4   0  -8   23.70    1.70
  -5   0  -8    4.00    0.80
  -6   0  -8   15.20    2.00
  -6   0  -8   20.00    1.60
  -7   0  -8   20.70    2.10
  -7   0  -8   16.80    1.60
  -8   0  -8    8.50    1.70
  -9   0  -8    2.90    1.30
 -10   0  -8    0.30    1.00
  -8   1   8   13.30    2.30
  -7   1   8   10.40    1.90
  -7   1   8    9.90    1.90
  -6   1   8    6.00    1.50
  -6   1   8   10.10    1.80
  -5   1   8    1.90    0.90
  -5   1   8    2.30    0.90
  -4   1   8   34.10    2.70
  -4   1   8   31.30    2.50
  -3   1   8  401.46   16.70
  -3   1   8  416.36   17.00
  -2   1   8    0.40    0.50
  -2   1   8    0.00    0.40
   1  -1  -8  364.66   14.00
  -1   1   8  366.66   15.20
  -1   1   8  378.96   15.10
   0   1   8   16.80    1.50
  -1  -1  -8  354.96   14.40
  -2  -1  -8 1026.70   39.10
  -3  -1  -8   27.70    1.80
  -4  -1  -8  257.67   10.50
  -5  -1  -8    1.40    0.70
  -5  -1  -8    0.90    0.50
  -6  -1  -8    5.60    1.00
  -6  -1  -8    6.20    1.30
  -7  -1  -8   14.60    2.00
  -8  -1  -8   69.99    4.50
  -9  -1  -8   -0.50    0.70
 -10  -1  -8    3.10    1.40
  -9   2   8    6.10    1.70
  -8   2   8    0.70    0.90
  -7   2   8    0.00    0.70
  -6   2   8  232.48   10.40
  -6   2   8  226.68   10.80
  -5   2   8   81.39    5.00
  -5   2   8   86.99    4.70
  -4   2   8  145.09    7.00
  -4   2   8  158.38    7.60
  -3   2   8   26.10    2.30
  -3   2   8   25.70    2.00
  -2   2   8   62.99    3.80
  -2   2   8   67.09    3.60
   1  -2  -8  856.91   31.60
  -1   2   8  825.52   32.70
   0   2   8   54.89    3.20
   1   2   8   12.90    1.30
  -2  -2  -8  409.86   16.20
  -3  -2  -8   60.79    3.10
  -4  -2  -8  308.57   12.30
  -5  -2  -8    9.50    1.50
  -5  -2  -8   11.10    1.10
  -6  -2  -8   13.50    1.80
  -7  -2  -8  237.78   10.80
  -8  -2  -8   43.10    3.40
  -9  -2  -8    0.90    1.00
 -10  -2  -8   11.30    2.20
  -9   3   8    0.70    0.90
  -8   3   8    5.30    1.60
  -7   3   8   -0.20    0.80
  -6   3   8   13.70    2.10
  -5   3   8   37.80    2.80
  -5   3   8   34.30    2.90
  -4   3   8   55.59    3.30
  -4   3   8   57.89    3.80
  -3   3   8  211.18    9.10
  -3   3   8  214.18    9.80
   2  -3  -8   61.79    2.80
  -2   3   8   63.79    3.80
   1  -3  -8    1.80    0.40
  -1   3   8    2.00    0.70
   0   3   8  369.16   15.00
   1   3   8   -0.30    0.30
  -3  -3  -8   93.29    4.20
  -4  -3  -8   99.39    4.90
  -4  -3  -8   92.29    4.20
  -5  -3  -8    1.50    0.50
  -5  -3  -8    2.40    0.80
  -6  -3  -8    3.20    1.00
  -7  -3  -8    5.80    1.40
  -8  -3  -8    1.40    1.00
  -9  -3  -8    0.70    1.00
 -10  -3  -8    2.50    1.40
  -9   4   8   -0.10    0.80
  -8   4   8    3.00    1.40
  -7   4   8   37.10    3.30
  -6   4   8   43.70    3.50
  -5   4   8    6.80    1.50
  -4   4   8  404.56   17.10
   3  -4  -8  246.38   10.10
  -3   4   8  259.67   10.60
  -3   4   8  262.77   11.50
   2  -4  -8   10.60    0.90
  -2   4   8    9.70    1.50
   1  -4  -8   97.99    4.40
  -1   4   8  101.49    5.10
   0  -4  -8  131.19    5.60
   0   4   8  130.39    6.10
   1   4   8   11.60    1.20
   2   4   8    0.40    0.30
  -3  -4  -8  209.78    9.00
  -3  -4  -8  213.38    8.70
  -4  -4  -8  372.66   14.70
  -4  -4  -8  386.26   15.50
  -5  -4  -8  559.64   22.30
  -6  -4  -8    0.10    0.60
  -7  -4  -8    7.40    1.50
  -8  -4  -8    3.00    1.10
  -9  -4  -8   21.30    2.80
 -10  -4  -8    8.80    2.20
  -8   5   8    5.70    1.60
  -7   5   8   23.60    3.00
  -6   5   8    0.40    0.70
  -5   5   8   12.80    2.00
  -4   5   8  596.44   24.30
   3  -5  -8  115.59    5.10
  -3   5   8  119.29    6.20
   2  -5  -8   24.30    1.60
  -2   5   8   27.00    2.20
   1  -5  -8  189.28    7.90
  -1   5   8  191.78    8.60
   0  -5  -8   48.10    2.60
   0   5   8   47.80    2.90
   1   5   8    0.20    0.30
  -2  -5  -8   51.39    2.80
   2   5   8   49.80    2.80
  -3  -5  -8   92.99    4.70
  -3  -5  -8  101.49    4.40
  -4  -5  -8  409.76   16.50
  -5  -5  -8  206.68    9.20
  -6  -5  -8   12.50    1.80
  -7  -5  -8   28.60    2.50
  -8  -5  -8   13.00    2.10
  -9  -5  -8    1.20    1.00
 -10  -5  -8    4.90    1.90
  -8   6   8    0.90    1.10
  -7   6   8   10.00    2.00
  -6   6   8   28.20    2.80
  -5   6   8    4.00    1.20
   4  -6  -8  349.96   14.20
  -4   6   8  356.36   15.30
   3  -6  -8   38.30    2.30
  -3   6   8   38.60    3.00
   2  -6  -8    0.00    0.30
  -2   6   8   -0.30    0.30
   1  -6  -8  121.59    5.60
  -1   6   8  132.39    6.30
   0  -6  -8   28.20    1.90
   0   6   8   28.40    2.10
  -1  -6  -8  110.79    4.70
  -1  -6  -8  100.99    4.90
  -2  -6  -8   59.59    3.10
   2   6   8   61.79    3.20
  -3  -6  -8   65.19    3.50
   3   6   8   67.89    3.30
  -4  -6  -8  730.23   28.40
  -5  -6  -8   10.20    1.50
  -6  -6  -8   -0.30    0.50
  -7  -6  -8   32.10    2.80
  -8  -6  -8   19.60    2.60
  -9  -6  -8    0.20    1.00
 -10  -6  -8    2.40    1.50
  -8   7   8   -0.10    0.80
  -7   7   8    1.40    1.00
  -6   7   8   50.99    3.90
  -5   7   8   13.30    2.10
   4  -7  -8  143.39    6.60
  -4   7   8  153.88    7.60
   3  -7  -8   48.80    2.80
  -3   7   8   46.30    3.40
   2  -7  -8    1.90    0.60
  -2   7   8    1.40    0.70
   1  -7  -8    3.50    0.70
  -1   7   8    3.80    1.00
   0  -7  -8  118.39    5.60
   0   7   8  121.59    5.80
  -1  -7  -8  114.29    5.00
  -1  -7  -8  115.79    5.40
  -2  -7  -8   41.40    2.70
  -2  -7  -8   48.80    2.60
   2   7   8   47.20    2.60
  -3  -7  -8   32.00    2.10
  -4  -7  -8   46.40    2.90
  -5  -7  -8    7.20    1.30
  -6  -7  -8   25.90    2.30
  -7  -7  -8    2.80    1.10
  -8  -7  -8    5.20    1.50
  -9  -7  -8    0.20    0.90
  -8   8   8    0.00    0.90
  -7   8   8   20.00    2.90
  -6   8   8   12.10    2.10
  -5   8   8   21.20    2.70
   4  -8  -8    6.80    1.20
  -4   8   8    6.00    1.40
   3  -8  -8    8.50    1.20
  -3   8   8   11.60    1.80
   2  -8  -8    5.60    1.00
  -2   8   8    4.40    1.10
   1  -8  -8  123.79    5.80
  -1   8   8  123.39    6.20
   0  -8  -8    9.90    1.30
   0   8   8   14.20    1.50
  -1  -8  -8  353.86   14.70
   1   8   8  365.36   14.60
  -2  -8  -8  531.15   21.70
  -2  -8  -8  562.04   21.30
  -3  -8  -8   91.89    4.50
  -4  -8  -8   15.40    1.60
  -5  -8  -8   37.60    2.80
  -6  -8  -8   29.30    2.60
  -7  -8  -8   21.80    2.70
  -8  -8  -8    0.60    0.90
  -9  -8  -8   10.60    2.40
  -7   9   8   41.00    3.70
  -6   9   8   39.70    3.60
   5  -9  -8   11.40    1.50
  -5   9   8   13.00    2.10
   4  -9  -8    0.10    0.40
  -4   9   8    0.20    0.80
   3  -9  -8   -0.20    0.60
  -3   9   8    1.60    0.90
   2  -9  -8  137.69    6.50
  -2   9   8  138.89    7.00
   1  -9  -8  366.56   15.10
  -1   9   8  364.36   15.30
   0  -9  -8  200.08    8.90
   0   9   8  206.08    9.10
  -1  -9  -8  344.77   14.10
   1   9   8  333.17   13.90
  -2  -9  -8    9.80    1.40
  -3  -9  -8    3.30    0.90
  -3  -9  -8    2.40    0.80
  -4  -9  -8  235.98   10.40
  -5  -9  -8   14.00    2.00
  -6  -9  -8   31.80    2.90
  -7  -9  -8    0.20    0.80
  -8  -9  -8   15.00    2.80
  -9  -9  -8   29.00    4.10
  -7  10   8   44.40    4.00
  -6  10   8   21.50    2.90
   5 -10  -8    1.20    0.80
  -5  10   8    1.50    0.90
   4 -10  -8   -0.50    0.50
  -4  10   8   -0.50    0.60
   3 -10  -8  106.49    5.40
  -3  10   8  101.29    5.90
   2 -10  -8   59.69    3.60
  -2  10   8   58.09    3.90
   1 -10  -8    4.90    1.10
  -1  10   8    5.40    1.20
   0 -10  -8  137.19    6.30
   0  10   8  117.59    6.10
  -1 -10  -8   35.90    2.60
  -2 -10  -8   29.30    2.30
  -3 -10  -8   19.90    2.20
  -4 -10  -8    2.50    1.00
  -4 -10  -8    3.10    1.10
  -5 -10  -8   25.80    2.60
  -5 -10  -8   32.50    2.50
  -6 -10  -8   26.40    3.30
  -7 -10  -8    0.60    1.10
  -8 -10  -8    5.50    2.00
  -6  11   8    5.70    1.60
   5 -11  -8    2.90    1.00
  -5  11   8    0.60    1.00
   4 -11  -8   11.60    1.70
  -4  11   8   12.00    2.10
   3 -11  -8    8.60    1.50
  -3  11   8    9.00    1.80
   2 -11  -8   69.19    4.20
  -2  11   8   78.39    4.70
   1 -11  -8  118.19    6.00
  -1  11   8  111.69    6.00
   0 -11  -8    1.50    0.80
  -1 -11  -8   17.40    2.10
  -2 -11  -8  100.49    5.40
  -3 -11  -8    7.40    1.40
  -4 -11  -8    0.30    0.60
  -5 -11  -8    4.30    1.40
  -5 -11  -8    6.70    1.40
  -6 -11  -8    7.30    1.90
  -6 -11  -8    9.10    1.60
  -7 -11  -8   -0.30    1.00
  -8 -11  -8   14.00    2.70
   5 -12  -8   16.50    2.20
  -5  12   8   16.00    2.60
   4 -12  -8    7.70    1.50
  -4  12   8    6.20    1.70
   3 -12  -8    0.40    0.70
  -3  12   8    0.50    0.80
   2 -12  -8    3.00    1.00
  -2  12   8    2.20    1.00
   1 -12  -8   10.10    1.70
  -1  12   8   11.20    1.80
   0 -12  -8   11.10    1.70
  -1 -12  -8   66.89    4.10
  -2 -12  -8   39.80    3.00
  -3 -12  -8    7.30    1.40
  -4 -12  -8    0.90    0.70
  -5 -12  -8   -0.70    0.60
  -6 -12  -8   30.00    2.80
  -7 -12  -8    7.70    2.20
  -7 -12  -8    9.80    1.90
   5 -13  -8    5.80    1.50
  -5  13   8    2.60    1.30
   4 -13  -8    0.00    0.70
  -4  13   8    0.20    0.90
   3 -13  -8    9.80    1.80
  -3  13   8    7.70    1.70
   2 -13  -8    3.70    1.20
  -2  13   8    3.30    1.20
   1 -13  -8    0.30    0.70
   0 -13  -8    0.60    0.80
  -1 -13  -8   49.99    3.50
  -2 -13  -8   -0.10    0.70
  -3 -13  -8    1.80    0.90
  -4 -13  -8    0.10    0.80
  -5 -13  -8    0.60    0.80
  -6 -13  -8   -0.60    0.60
   3 -14  -8    4.10    1.20
  -3  14   8    4.90    1.60
   2 -14  -8   -0.50    0.80
   1 -14  -8   12.10    2.00
   0 -14  -8    2.70    1.20
  -1 -14  -8   40.90    3.30
  -2 -14  -8    7.40    1.60
  -3 -14  -8    9.30    1.80
  -4 -14  -8   43.40    3.40
  -5 -14  -8    3.90    1.30
   2 -15  -8    9.80    1.90
   1 -15  -8    1.70    1.10
   0 -15  -8    7.10    1.70
  -1 -15  -8    0.10    0.90
  -2 -15  -8    0.40    0.80
  -3 -15  -8   15.40    2.30
  -2 -10   9    0.80    1.10
   1  10  -9   -0.30    0.80
  -1 -10   9   -0.50    1.00
   0  10  -9   -0.80    0.70
  -1  10  -9   -0.60    0.70
  -2  10  -9   -0.70    0.80
  -3  10  -9    0.30    0.90
  -4  10  -9    0.40    1.00
  -4  -9   9    0.10    1.30
  -3  -9   9    0.20    1.00
   2   9  -9   -0.10    0.80
  -2  -9   9    0.30    1.00
   1   9  -9   -0.40    0.70
  -1  -9   9   -0.60    0.90
   0   9  -9    0.80    0.90
  -1   9  -9    0.20    0.80
  -2   9  -9    1.10    0.80
  -3   9  -9    0.30    0.80
  -4   9  -9    0.40    0.90
  -5   9  -9   -1.80    0.70
  -5  -8   9    0.00    1.10
  -4  -8   9   -0.50    1.00
  -3  -8   9    0.00    0.90
   2   8  -9   -0.60    0.60
  -2  -8   9   -0.60    0.90
   1   8  -9    1.20    0.90
  -1  -8   9   -0.60    0.70
   0   8  -9   -0.20    0.80
  -1   8  -9   -0.50    0.70
  -2   8  -9   -0.20    0.70
  -3   8  -9   -0.50    0.60
  -4   8  -9   -0.90    0.60
  -5   8  -9    0.60    0.90
  -6   8  -9   -0.20    0.80
  -6  -7   9    0.60    1.40
  -5  -7   9   -0.80    0.90
  -4  -7   9   -0.70    0.70
   3   7  -9    0.20    0.70
  -3  -7   9    0.60    1.00
   2   7  -9    0.80    0.70
  -2  -7   9    0.10    0.80
   1   7  -9    0.40    0.60
  -1  -7   9   -0.50    0.70
   0   7  -9    0.60    0.70
  -1   7  -9   -0.50    0.60
  -2   7  -9   -0.90    0.50
  -3   7  -9   -0.80    0.60
  -4   7  -9   -0.70    0.70
  -5   7  -9   -0.60    0.80
  -6   7  -9   -0.70    0.80
  -7   7  -9    0.40    1.00
  -6  -6   9    0.50    1.30
  -5  -6   9    0.10    1.00
   4   6  -9    1.50    0.90
  -4  -6   9   -0.10    0.90
   3   6  -9   -0.20    0.60
  -3  -6   9   -0.70    0.80
   2   6  -9   -0.80    0.40
  -2  -6   9   -0.60    0.70
   1   6  -9    0.50    0.60
  -1  -6   9   -0.30    0.70
   0   6  -9   -0.20    0.50
   0  -6   9   -0.40    0.60
  -1   6  -9   -0.20    0.50
  -2   6  -9    0.60    0.70
  -3   6  -9   -0.20    0.60
  -4   6  -9   -0.70    0.40
  -5   6  -9   -0.10    0.70
  -6   6  -9    0.10    0.80
  -7   6  -9    0.70    1.00
  -7   6  -9    0.10    0.80
  -8   6  -9   -0.10    0.80
  -7  -5   9    0.80    1.30
  -6  -5   9    0.50    1.20
  -5  -5   9    0.10    1.00
   4   5  -9   -0.10    0.70
  -4  -5   9   -0.50    1.00
   3   5  -9    0.10    0.60
  -3  -5   9    0.00    0.70
   2   5  -9    0.30    0.60
  -2  -5   9   -0.90    0.60
   1   5  -9    0.20    0.50
  -1  -5   9    0.00    0.60
   0   5  -9   -0.40    0.40
   0  -5   9   -0.50    0.60
  -1   5  -9    0.30    0.60
  -2   5  -9   -0.20    0.50
  -3   5  -9    0.30    0.70
  -4   5  -9    0.10    0.60
  -5   5  -9    0.50    0.80
  -6   5  -9   -0.30    0.70
  -7   5  -9    0.20    0.80
  -7   5  -9   -0.30    0.80
  -8   5  -9    0.80    0.90
  -8   5  -9   -0.20    0.70
  -7  -4   9    0.60    1.20
  -6  -4   9    0.60    1.10
   5   4  -9    0.20    0.80
  -5  -4   9   -0.70    0.70
   4   4  -9    0.10    0.70
  -4  -4   9    0.50    0.80
   3   4  -9    0.50    0.70
  -3  -4   9    0.00    0.70
   2   4  -9   -0.10    0.40
  -2  -4   9   -0.50    0.60
   1   4  -9   -0.40    0.50
  -1  -4   9    0.40    0.60
   0   4  -9   -0.40    0.30
   0  -4   9    0.30    0.60
  -1   4  -9    0.30    0.50
  -2   4  -9   -0.10    0.50
  -3   4  -9    0.00    0.50
  -4   4  -9   -0.40    0.50
  -5   4  -9    0.50    0.60
  -6   4  -9    0.20    0.60
  -7   4  -9    0.40    0.80
  -7   4  -9   -0.50    0.80
  -8   4  -9   -0.40    0.80
  -8   4  -9    0.00    0.90
  -9   4  -9   -1.60    0.60
  -9   4  -9   -0.30    0.90
  -7  -3   9   -0.60    0.80
  -6  -3   9    0.90    0.90
  -6  -3   9   -0.10    0.80
  -5  -3   9    0.50    0.70
  -5  -3   9    0.50    0.90
  -4  -3   9   -0.30    0.60
   3   3  -9    0.40    0.60
  -3  -3   9   -0.20    0.50
   2   3  -9    0.20    0.50
  -2  -3   9   -0.10    0.50
   1   3  -9   -0.30    0.40
  -1  -3   9   -0.20    0.50
   0   3  -9    0.00    0.50
  -1   3  -9   -1.00    0.40
  -2   3  -9   -0.20    0.40
  -3   3  -9    0.10    0.50
  -4   3  -9    0.20    0.50
  -5   3  -9    0.10    0.50
  -6   3  -9    0.30    0.60
  -7   3  -9   -0.40    0.80
  -7   3  -9    0.10    0.60
  -8   3  -9    1.10    0.80
  -8   3  -9    0.00    0.80
  -9   3  -9   -0.20    0.90
  -8  -2   9    0.00    1.00
  -7  -2   9   -0.10    0.80
  -6  -2   9    0.20    0.80
  -6  -2   9    0.40    0.90
  -5  -2   9   -0.10    0.70
  -5  -2   9   -0.50    0.60
  -4  -2   9   -0.70    0.40
  -4  -2   9   -0.20    0.70
  -3  -2   9    0.90    0.70
  -3  -2   9    0.20    0.60
  -2  -2   9   -0.10    0.50
   1   2  -9   -0.20    0.50
  -1  -2   9    0.50    0.60
   0   2  -9    0.00    0.50
  -1   2  -9   -0.20    0.40
  -2   2  -9   -0.20    0.40
  -3   2  -9   -0.20    0.40
  -4   2  -9   -0.70    0.30
  -5   2  -9    0.20    0.50
  -6   2  -9    0.50    0.60
  -7   2  -9    0.00    0.70
  -7   2  -9   -0.30    0.60
  -8   2  -9   -0.70    0.60
  -8   2  -9   -0.40    0.60
  -9   2  -9   -0.50    0.90
  -8  -1   9    0.00    1.10
  -7  -1   9   -0.40    0.80
  -7  -1   9   -0.20    0.80
  -6  -1   9    0.10    0.80
  -6  -1   9   -0.10    0.70
  -5  -1   9   -0.10    0.70
  -5  -1   9   -0.60    0.50
  -4  -1   9    0.00    0.60
  -4  -1   9   -0.40    0.50
  -3  -1   9    0.10    0.50
  -3  -1   9    1.00    0.70
  -2  -1   9    0.10    0.60
  -2  -1   9    0.30    0.60
  -1  -1   9    0.30    0.60
   0   1  -9    0.00    0.40
  -1   1  -9    0.10    0.40
  -2   1  -9    0.10    0.40
  -3   1  -9    0.00    0.40
  -4   1  -9   -0.70    0.30
  -5   1  -9    0.20    0.50
  -6   1  -9   -0.30    0.40
  -6   1  -9   -0.50    0.60
  -7   1  -9    0.10    0.60
  -7   1  -9   -0.60    0.40
  -8   1  -9   -0.50    0.70
  -9   1  -9   -0.80    0.90
  -7   0   9   -0.60    0.70
  -7   0   9    0.20    0.90
  -6   0   9    0.10    0.70
  -6   0   9   -0.10    0.60
  -5   0   9    0.30    0.80
  -5   0   9    0.30    0.70
  -4   0   9   -0.30    0.60
  -4   0   9   -0.40    0.50
  -3   0   9    0.00    0.60
  -3   0   9    0.40    0.50
  -2   0   9   -0.10    0.50
  -2   0   9    0.10    0.60
  -1   0   9    0.00    0.40
  -1   0   9    0.30    0.50
  -1   0  -9    0.20    0.40
  -2   0  -9    0.30    0.40
  -3   0  -9    0.00    0.30
  -4   0  -9   -0.10    0.30
  -5   0  -9    0.00    0.50
  -6   0  -9   -0.50    0.50
  -6   0  -9    0.30    0.50
  -7   0  -9   -0.50    0.60
  -7   0  -9   -0.10    0.40
  -8   0  -9    0.00    0.70
  -9   0  -9   -0.50    0.80
 -10   0  -9   -0.80    0.70
  -8   1   9   -0.30    0.80
  -7   1   9    0.00    0.70
  -6   1   9    0.60    0.70
  -6   1   9    0.30    0.80
  -5   1   9    0.50    0.80
  -5   1   9    0.10    0.60
  -4   1   9   -0.60    0.50
  -4   1   9   -0.30    0.50
  -3   1   9    0.30    0.50
  -3   1   9   -0.50    0.60
  -2   1   9    0.60    0.60
  -2   1   9    0.30    0.50
  -1   1   9    0.00    0.40
  -1   1   9    0.30    0.40
   0   1   9    0.60    0.50
  -1  -1  -9    0.10    0.40
  -2  -1  -9   -0.20    0.30
  -3  -1  -9    0.30    0.40
  -4  -1  -9   -0.10    0.30
  -5  -1  -9   -0.30    0.30
  -6  -1  -9    0.40    0.60
  -6  -1  -9   -0.10    0.40
  -7  -1  -9   -0.10    0.70
  -8  -1  -9    0.00    0.70
  -9  -1  -9    0.10    0.90
 -10  -1  -9    1.70    1.20
  -8   2   9   -0.10    0.90
  -7   2   9   -0.70    0.70
  -6   2   9   -0.30    0.70
  -5   2   9   -0.60    0.50
  -5   2   9   -0.20    0.60
  -4   2   9    0.10    0.60
  -4   2   9   -0.30    0.60
  -3   2   9   -0.20    0.50
  -3   2   9   -0.60    0.40
  -2   2   9   -0.30    0.40
  -2   2   9    0.40    0.40
   1  -2  -9    0.20    0.20
  -1   2   9    0.20    0.50
   0   2   9    0.40    0.40
   1   2   9    0.00    0.40
  -2  -2  -9   -0.20    0.30
  -3  -2  -9   -0.10    0.30
  -4  -2  -9   -0.20    0.30
  -5  -2  -9   -0.40    0.50
  -5  -2  -9    0.20    0.40
  -6  -2  -9   -0.50    0.60
  -7  -2  -9    0.30    0.70
  -8  -2  -9   -0.30    0.70
  -9  -2  -9    1.00    0.90
 -10  -2  -9    0.70    1.10
  -8   3   9   -0.60    0.70
  -7   3   9   -0.40    0.80
  -6   3   9    1.20    1.00
  -5   3   9    0.50    0.80
  -4   3   9   -0.50    0.50
  -4   3   9    0.00    0.50
  -3   3   9   -0.10    0.30
  -3   3   9   -0.60    0.50
  -2   3   9    0.40    0.60
  -2   3   9   -0.10    0.20
   1  -3  -9    0.00    0.20
  -1   3   9   -0.30    0.30
   0   3   9   -0.20    0.40
   1   3   9    0.00    0.40
  -2  -3  -9    0.40    0.50
  -3  -3  -9   -0.20    0.30
  -4  -3  -9   -0.40    0.40
  -4  -3  -9    0.20    0.30
  -5  -3  -9   -0.30    0.30
  -5  -3  -9    0.00    0.50
  -6  -3  -9   -0.30    0.50
  -7  -3  -9    0.10    0.70
  -8  -3  -9   -0.20    0.80
  -9  -3  -9    0.20    0.80
 -10  -3  -9    1.20    1.10
  -8   4   9    0.50    1.00
  -7   4   9   -0.40    0.90
  -6   4   9   -0.10    0.80
  -5   4   9    2.80    1.20
  -4   4   9   -0.40    0.60
  -3   4   9   -0.10    0.40
  -3   4   9   -0.80    0.50
   2  -4  -9    0.20    0.20
  -2   4   9   -0.10    0.50
   1  -4  -9   -0.20    0.20
  -1   4   9    0.30    0.50
   0  -4  -9    0.10    0.30
   0   4   9    0.00    0.40
   1   4   9    0.00    0.40
   2   4   9    0.20    0.40
  -3  -4  -9   -0.20    0.30
  -4  -4  -9   -0.30    0.30
  -4  -4  -9   -0.40    0.50
  -5  -4  -9    0.60    0.70
  -6  -4  -9    0.80    0.80
  -7  -4  -9    0.60    0.80
  -8  -4  -9    1.00    0.90
  -9  -4  -9   -0.80    0.80
 -10  -4  -9   -0.20    1.00
  -8   5   9   -0.20    1.00
  -7   5   9   -1.00    0.70
  -6   5   9    0.30    0.70
  -5   5   9    0.10    0.80
  -4   5   9    0.80    0.90
  -3   5   9   -0.60    0.50
   2  -5  -9    0.20    0.30
  -2   5   9    0.50    0.50
   1  -5  -9    0.10    0.30
  -1   5   9   -0.20    0.30
   0  -5  -9    0.30    0.30
   0   5   9    0.10    0.40
   1   5   9   -0.30    0.30
   2   5   9   -0.10    0.20
  -3  -5  -9   -0.10    0.40
  -3  -5  -9   -0.10    0.30
  -4  -5  -9   -0.40    0.40
  -5  -5  -9    0.20    0.60
  -6  -5  -9    0.30    0.70
  -7  -5  -9   -0.10    0.70
  -8  -5  -9   -0.10    0.70
  -9  -5  -9   -0.50    0.80
 -10  -5  -9   -0.70    0.80
  -8   6   9   -0.30    0.80
  -7   6   9   -0.60    0.60
  -6   6   9    0.20    0.80
  -5   6   9   -0.20    0.50
  -4   6   9   -0.60    0.60
   3  -6  -9   -0.10    0.30
  -3   6   9    0.40    0.70
   2  -6  -9    0.00    0.30
  -2   6   9   -0.10    0.60
   1  -6  -9    0.50    0.30
  -1   6   9    0.30    0.50
   0  -6  -9    0.10    0.30
   0   6   9    0.10    0.40
  -1  -6  -9    0.20    0.40
   1   6   9    0.10    0.40
  -2  -6  -9    0.10    0.40
   2   6   9   -0.20    0.30
  -3  -6  -9   -0.40    0.40
  -4  -6  -9   -0.30    0.60
  -5  -6  -9   -0.30    0.50
  -6  -6  -9    0.30    0.60
  -7  -6  -9    0.10    0.70
  -8  -6  -9    0.70    0.90
  -9  -6  -9    0.20    1.00
  -8   7   9    0.30    0.90
  -7   7   9   -0.60    0.70
  -6   7   9   -0.40    0.80
  -5   7   9    0.40    0.80
  -4   7   9    0.20    0.80
   3  -7  -9    0.20    0.40
  -3   7   9    0.40    0.70
   2  -7  -9    0.10    0.30
  -2   7   9   -0.30    0.60
   1  -7  -9   -0.20    0.30
  -1   7   9   -0.50    0.30
   0  -7  -9    0.00    0.40
   0   7   9    0.30    0.50
  -1  -7  -9   -0.10    0.40
  -1  -7  -9    0.60    0.50
   1   7   9    0.00    0.30
  -2  -7  -9   -0.20    0.40
   2   7   9   -0.30    0.30
  -3  -7  -9    0.30    0.50
  -4  -7  -9   -0.40    0.50
  -5  -7  -9   -0.80    0.50
  -6  -7  -9   -0.40    0.50
  -7  -7  -9   -0.40    0.60
  -8  -7  -9   -0.20    0.70
  -9  -7  -9    0.90    1.30
  -7   8   9   -0.40    0.80
  -6   8   9   -0.30    0.80
  -5   8   9    0.40    0.80
  -4   8   9   -0.30    0.60
   3  -8  -9   -0.60    0.40
  -3   8   9   -0.40    0.50
   2  -8  -9   -0.10    0.40
  -2   8   9    0.30    0.60
   1  -8  -9    0.40    0.50
  -1   8   9    0.20    0.60
   0  -8  -9    0.50    0.50
   0   8   9   -0.30    0.50
  -1  -8  -9    0.40    0.50
   1   8   9    0.10    0.40
  -2  -8  -9    0.20    0.60
  -2  -8  -9    0.00    0.50
  -3  -8  -9   -0.40    0.50
  -4  -8  -9   -0.40    0.50
  -5  -8  -9   -0.10    0.60
  -6  -8  -9   -0.10    0.70
  -7  -8  -9   -1.10    0.60
  -8  -8  -9   -0.50    0.80
  -9  -8  -9   -0.20    1.00
  -7   9   9    0.10    1.00
  -6   9   9    0.60    1.00
  -5   9   9   -0.20    0.90
   4  -9  -9    1.10    0.60
  -4   9   9   -0.10    0.80
   3  -9  -9   -0.10    0.50
  -3   9   9   -0.20    0.70
   2  -9  -9   -1.10    0.50
  -2   9   9    0.90    0.80
   1  -9  -9   -0.40    0.50
  -1   9   9   -0.60    0.50
   0  -9  -9   -0.50    0.40
   0   9   9    0.50    0.60
  -1  -9  -9    0.50    0.60
   1   9   9    0.30    0.50
  -2  -9  -9   -0.20    0.40
  -3  -9  -9   -0.40    0.40
  -3  -9  -9    0.00    0.50
  -4  -9  -9   -0.60    0.50
  -5  -9  -9   -0.20    0.60
  -6  -9  -9   -0.20    0.70
  -7  -9  -9   -0.80    0.80
  -8  -9  -9   -0.70    0.90
  -6  10   9    0.30    1.10
  -5  10   9    0.10    0.90
   4 -10  -9   -0.10    0.50
  -4  10   9   -0.60    0.70
   3 -10  -9   -0.60    0.50
  -3  10   9   -0.20    0.70
   2 -10  -9    0.90    0.60
  -2  10   9   -0.70    0.50
   1 -10  -9    0.50    0.60
  -1  10   9    0.40    0.70
   0 -10  -9   -0.30    0.50
   0  10   9    0.30    0.50
  -1 -10  -9    0.20    0.60
  -2 -10  -9    0.50    0.60
  -3 -10  -9   -0.20    0.50
  -4 -10  -9   -0.20    0.60
  -4 -10  -9   -0.10    0.60
  -5 -10  -9    0.20    0.70
  -6 -10  -9    0.40    0.80
  -7 -10  -9   -0.20    1.00
  -8 -10  -9    0.20    1.10
  -6  11   9   -0.30    1.10
  -5  11   9   -0.20    0.80
   4 -11  -9   -0.10    0.60
  -4  11   9   -0.20    0.80
   3 -11  -9    1.50    0.80
  -3  11   9   -0.50    0.70
   2 -11  -9   -0.10    0.50
  -2  11   9   -0.80    0.50
   1 -11  -9   -0.40    0.60
  -1  11   9   -0.60    0.60
   0 -11  -9    0.40    0.60
  -1 -11  -9    0.20    0.60
  -2 -11  -9   -0.30    0.50
  -3 -11  -9    0.00    0.50
  -4 -11  -9   -0.30    0.60
  -5 -11  -9    0.10    0.70
  -6 -11  -9   -0.20    0.90
  -6 -11  -9   -0.10    0.60
  -7 -11  -9   -0.20    1.00
   5 -12  -9   -0.60    0.60
  -5  12   9   -1.40    0.90
   4 -12  -9    0.30    0.80
  -4  12   9    0.10    0.90
   3 -12  -9    0.10    0.60
  -3  12   9   -0.70    0.70
   2 -12  -9   -0.60    0.50
  -2  12   9    0.20    0.80
   1 -12  -9    0.60    0.70
  -1  12   9   -0.70    0.60
   0 -12  -9   -0.30    0.50
  -1 -12  -9    0.90    0.80
  -2 -12  -9   -0.20    0.60
  -3 -12  -9   -0.80    0.60
  -4 -12  -9    0.10    0.70
  -5 -12  -9    0.90    0.80
  -6 -12  -9    0.20    0.80
  -7 -12  -9    0.00    0.90
   4 -13  -9    1.30    0.90
  -4  13   9   -1.20    0.80
   3 -13  -9    0.00    0.70
  -3  13   9    0.20    0.90
   2 -13  -9   -0.30    0.70
  -2  13   9    0.40    0.80
   1 -13  -9   -0.60    0.60
   0 -13  -9   -0.20    0.70
  -1 -13  -9    0.40    0.60
  -2 -13  -9   -0.30    0.60
  -3 -13  -9    0.30    0.70
  -4 -13  -9   -0.90    0.70
  -5 -13  -9   -0.10    0.70
  -6 -13  -9   -0.10    0.80
   3 -14  -9   -0.30    0.70
  -3  14   9   -0.50    0.70
   2 -14  -9   -0.60    0.60
   1 -14  -9   -0.50    0.70
   0 -14  -9    0.80    0.90
  -1 -14  -9    0.00    0.80
  -2 -14  -9   -0.30    0.70
  -3 -14  -9   -0.10    0.80
  -4 -14  -9   -0.60    0.70
  -5 -14  -9    0.50    0.90
   1 -15  -9    0.90    0.90
   0 -15  -9    0.30    0.90
  -1 -15  -9    0.10    0.80
  -2 -15  -9   -0.60    0.80
  -3 -15  -9    0.40    0.90
   0  10 -10    1.30    1.10
  -1  10 -10    7.30    1.70
   2   9 -10    4.30    1.80
  -2  -9  10    5.50    1.90
   1   9 -10   27.00    2.80
  -1  -9  10   32.50    3.40
   0   9 -10    4.70    1.50
  -1   9 -10    9.00    1.80
  -2   9 -10    0.80    0.90
  -3   9 -10    2.40    1.20
  -4   9 -10    0.10    0.90
  -4  -8  10    8.00    2.30
  -3  -8  10   12.60    2.60
   2   8 -10   30.50    2.80
  -2  -8  10   28.70    3.70
   1   8 -10    8.40    1.70
  -1  -8  10    6.30    1.80
   0   8 -10    1.40    1.00
  -1   8 -10    0.70    1.00
  -2   8 -10   13.10    2.20
  -3   8 -10    3.20    1.20
  -4   8 -10    2.70    1.20
  -5   8 -10    0.10    0.90
  -5  -7  10    1.50    1.40
  -4  -7  10   17.30    2.90
   3   7 -10    5.70    1.30
  -3  -7  10    6.80    1.90
   2   7 -10    0.40    0.70
  -2  -7  10    0.70    0.90
   1   7 -10   16.20    2.10
  -1  -7  10   12.20    2.20
   0   7 -10    2.10    0.90
  -1   7 -10    0.40    0.70
  -2   7 -10    5.00    1.40
  -3   7 -10    0.30    0.90
  -4   7 -10    0.30    0.80
  -5   7 -10    9.90    1.90
  -6   7 -10    4.00    1.50
  -5  -6  10    3.30    1.70
   4   6 -10   -0.20    0.70
  -4  -6  10    0.70    1.00
   3   6 -10   12.70    1.90
  -3  -6  10   14.00    2.50
   2   6 -10   15.30    2.00
  -2  -6  10   16.30    2.60
   1   6 -10    0.20    0.70
  -1  -6  10    0.40    0.80
   0   6 -10    2.20    0.90
  -1   6 -10    7.10    1.40
  -2   6 -10   11.30    1.80
  -3   6 -10   87.89    5.20
  -4   6 -10   63.89    4.20
  -5   6 -10   11.60    2.00
  -6   6 -10    8.60    1.80
  -7   6 -10    2.80    1.20
  -6  -5  10    5.40    2.00
  -5  -5  10    2.80    1.50
   4   5 -10    6.40    1.40
  -4  -5  10    6.80    1.80
   3   5 -10    2.30    1.00
  -3  -5  10    2.90    1.20
   2   5 -10   51.99    3.40
  -2  -5  10   45.70    3.80
   1   5 -10   15.20    1.90
  -1  -5  10   17.40    2.50
   0   5 -10    5.30    1.10
  -1   5 -10   27.60    2.30
  -2   5 -10    2.80    1.10
  -3   5 -10  132.39    6.80
  -4   5 -10    4.80    1.30
  -5   5 -10    9.10    1.70
  -6   5 -10   25.10    2.60
  -7   5 -10   -0.40    0.70
  -8   5 -10   18.40    2.60
  -8   5 -10   20.10    2.70
  -7  -4  10   13.60    2.90
  -6  -4  10    4.90    1.70
   5   4 -10    0.30    0.80
  -5  -4  10    1.10    1.10
   4   4 -10   17.10    2.30
  -4  -4  10   14.20    2.50
   3   4 -10   14.00    1.90
  -3  -4  10   14.90    2.40
   2   4 -10   18.80    1.90
  -2  -4  10   16.60    2.50
   1   4 -10   81.49    4.70
  -1  -4  10   87.59    5.30
   0   4 -10    5.60    1.20
  -1   4 -10    1.20    0.70
  -2   4 -10   -0.30    0.50
  -3   4 -10   68.19    4.10
  -4   4 -10    6.10    1.40
  -5   4 -10   -0.50    0.50
  -6   4 -10   10.00    1.70
  -7   4 -10   12.60    2.10
  -7   4 -10    9.00    1.70
  -8   4 -10   29.40    2.80
  -8   4 -10   31.40    3.00
  -7  -3  10    2.70    1.60
  -6  -3  10    6.70    1.60
  -6  -3  10    9.50    2.20
  -5  -3  10   -0.40    0.70
  -5  -3  10   -0.60    0.70
  -4  -3  10    7.00    1.80
   3   3 -10    2.70    1.10
  -3  -3  10    3.50    1.20
   2   3 -10   24.20    2.20
  -2  -3  10   26.10    2.60
   1   3 -10   48.60    3.20
  -1  -3  10   46.00    3.50
   0   3 -10   10.50    1.60
  -1   3 -10  100.39    5.20
  -2   3 -10    1.40    0.70
  -3   3 -10    2.10    0.90
  -4   3 -10    3.00    0.90
  -5   3 -10    7.00    1.40
  -6   3 -10    1.10    0.80
  -7   3 -10   35.20    2.90
  -7   3 -10   31.40    2.90
  -8   3 -10   42.90    3.50
  -8   3 -10   48.00    3.50
  -9   3 -10    5.90    1.70
  -7  -2  10    0.30    0.90
  -6  -2  10    1.40    1.00
  -6  -2  10    0.20    0.90
  -5  -2  10   39.20    3.50
  -5  -2  10   43.10    3.40
  -4  -2  10    4.10    1.30
  -4  -2  10    3.10    1.10
  -3  -2  10    9.50    1.70
  -3  -2  10    9.10    1.70
   2   2 -10    4.60    1.20
  -2  -2  10    4.20    1.20
   1   2 -10  175.68    8.20
  -1  -2  10  178.78    8.60
   0   2 -10  907.21   35.20
  -1   2 -10  282.87   12.00
  -2   2 -10   10.90    1.50
  -3   2 -10   63.19    3.70
  -4   2 -10   59.89    3.60
  -5   2 -10   43.20    3.00
  -6   2 -10   24.00    2.20
  -7   2 -10   11.00    1.70
  -7   2 -10    9.20    1.80
  -8   2 -10   30.60    2.90
  -8   2 -10   30.80    2.70
  -9   2 -10    4.50    1.50
  -7  -1  10   16.60    2.80
  -7  -1  10   13.30    2.40
  -6  -1  10   42.70    3.60
  -6  -1  10   38.90    3.50
  -5  -1  10   39.00    3.20
  -5  -1  10   28.60    2.90
  -4  -1  10   32.10    2.80
  -4  -1  10   30.90    2.80
  -3  -1  10   88.89    5.30
  -3  -1  10   96.79    5.50
  -2  -1  10  453.45   18.80
  -2  -1  10  447.36   18.70
   1   1 -10  235.58   10.60
  -1  -1  10  242.88   10.90
   0   1 -10  912.01   35.50
  -1   1 -10    7.70    1.20
  -2   1 -10  111.99    5.50
  -3   1 -10  194.68    8.60
  -4   1 -10    3.70    0.90
  -5   1 -10   12.40    1.70
  -6   1 -10    2.70    0.90
  -7   1 -10    0.80    0.70
  -7   1 -10   -0.50    0.70
  -8   1 -10   34.70    3.20
  -9   1 -10   13.30    2.30
  -7   0  10    3.20    1.30
  -7   0  10    4.40    1.40
  -6   0  10    0.00    0.80
  -6   0  10    1.20    1.00
  -5   0  10   72.69    4.70
  -5   0  10   71.59    4.80
  -4   0  10   40.00    3.10
  -4   0  10   35.70    3.10
  -3   0  10    5.80    1.40
  -3   0  10    6.20    1.50
  -2   0  10  147.49    7.50
  -2   0  10  155.28    7.50
  -1   0  10    6.90    1.40
  -1   0  10    8.20    1.40
   0   0 -10  185.98    8.50
  -1   0 -10    3.70    0.90
  -2   0 -10   18.00    1.60
  -3   0 -10    5.90    1.10
  -4   0 -10   78.69    4.20
  -5   0 -10    1.60    0.70
  -6   0 -10   10.10    1.70
  -6   0 -10   11.70    1.50
  -7   0 -10    0.20    0.60
  -7   0 -10    0.10    0.80
  -8   0 -10   34.20    3.20
  -9   0 -10    2.60    1.30
  -8   1  10    1.20    1.30
  -7   1  10    0.10    0.90
  -6   1  10   16.70    2.50
  -6   1  10   20.70    2.70
  -5   1  10   -1.10    0.70
  -5   1  10   -0.40    0.70
  -4   1  10  207.98   10.20
  -4   1  10  220.38   10.00
  -3   1  10  328.37   14.20
  -3   1  10  334.67   14.50
  -2   1  10  186.58    8.70
  -2   1  10  185.98    8.90
  -1   1  10  187.28    8.70
   0   1  10   30.50    2.40
  -1  -1 -10   49.60    3.10
  -2  -1 -10   12.40    1.30
  -3  -1 -10    0.50    0.40
  -4  -1 -10    1.40    0.60
  -5  -1 -10    0.90    0.60
  -6  -1 -10    0.30    0.50
  -6  -1 -10    1.50    0.90
  -7  -1 -10   25.70    2.60
  -8  -1 -10   15.40    2.30
  -9  -1 -10    8.30    1.90
  -8   2  10    9.80    2.10
  -7   2  10    1.90    1.10
  -6   2  10   60.29    4.40
  -5   2  10   17.50    2.50
  -5   2  10   20.80    2.50
  -4   2  10    0.30    0.60
  -4   2  10    0.40    0.70
  -3   2  10  188.98    8.70
  -3   2  10  189.18    9.20
  -2   2  10   13.90    1.80
  -2   2  10   13.80    2.00
  -1   2  10   40.80    3.00
   0   2  10   49.99    3.20
   1   2  10   36.30    2.60
  -2  -2 -10   26.30    2.00
  -3  -2 -10   32.30    2.20
  -4  -2 -10    2.20    0.60
  -5  -2 -10    0.50    0.50
  -5  -2 -10    1.40    0.80
  -6  -2 -10   56.59    3.80
  -7  -2 -10   15.70    2.30
  -8  -2 -10   30.00    2.90
  -9  -2 -10    0.80    1.10
  -8   3  10   10.50    2.20
  -7   3  10    5.20    1.60
  -6   3  10    7.80    1.80
  -5   3  10   14.10    2.30
  -4   3  10    4.60    1.30
  -3   3  10  172.78    8.00
  -2   3  10   80.29    4.80
  -1   3  10    4.30    1.10
   0   3  10   61.89    3.70
   1   3  10   53.59    3.30
  -2  -3 -10   -0.10    0.30
  -3  -3 -10   34.00    2.20
  -4  -3 -10   30.50    2.00
  -5  -3 -10   18.80    2.30
  -5  -3 -10   17.40    1.50
  -6  -3 -10    2.00    1.00
  -7  -3 -10    1.10    0.90
  -8  -3 -10   31.80    3.10
  -9  -3 -10    8.60    1.90
  -8   4  10   -0.20    0.90
  -7   4  10    0.20    1.00
  -6   4  10    0.10    0.80
  -5   4  10   33.40    3.20
  -4   4  10   40.60    3.40
  -3   4  10   37.00    2.80
  -3   4  10   38.80    3.20
  -2   4  10   74.79    4.60
   1  -4 -10    4.60    0.70
  -1   4  10    3.40    1.00
   0  -4 -10   20.20    1.50
   0   4  10   19.70    1.90
   1   4  10   39.00    2.60
   2   4  10   20.30    1.80
  -3  -4 -10    7.30    1.10
  -4  -4 -10  100.79    4.60
  -4  -4 -10   97.49    5.20
  -5  -4 -10   35.00    2.70
  -6  -4 -10   56.29    3.80
  -7  -4 -10    4.30    1.30
  -8  -4 -10   -0.30    0.90
  -9  -4 -10   27.60    3.40
  -8   5  10    0.60    1.00
  -7   5  10    1.90    1.10
  -6   5  10    5.90    1.70
  -5   5  10    8.00    1.80
  -4   5  10   26.40    2.70
  -3   5  10   23.70    2.90
  -2   5  10   25.20    2.40
   1  -5 -10    2.00    0.50
  -1   5  10    2.10    0.90
   0  -5 -10   16.20    1.40
   0   5  10   17.40    1.70
   1   5  10   35.00    2.50
   2   5  10   23.20    1.90
  -3  -5 -10    3.90    1.00
  -3  -5 -10    4.50    0.80
  -4  -5 -10  222.38    9.80
  -5  -5 -10  601.34   24.10
  -6  -5 -10  126.39    6.60
  -7  -5 -10   11.20    1.90
  -8  -5 -10   15.70    2.30
  -9  -5 -10   45.70    3.80
  -7   6  10    3.20    1.40
  -6   6  10   20.90    3.00
  -5   6  10    7.50    1.80
  -4   6  10    2.70    1.10
  -3   6  10  119.49    6.60
   2  -6 -10   22.10    1.60
  -2   6  10   24.50    2.40
   1  -6 -10   36.70    2.20
  -1   6  10   32.20    2.70
   0  -6 -10    0.80    0.50
   0   6  10    1.80    0.80
  -1  -6 -10   60.09    3.30
   1   6  10   62.89    3.60
  -2  -6 -10  344.67   14.00
  -3  -6 -10  417.56   16.90
  -4  -6 -10  201.28    9.00
  -5  -6 -10  558.94   22.50
  -6  -6 -10   -0.50    0.60
  -7  -6 -10   -0.30    0.80
  -8  -6 -10   39.50    3.40
  -9  -6 -10    3.30    1.40
  -7   7  10    3.80    1.50
  -6   7  10   11.00    2.30
  -5   7  10    5.10    1.60
  -4   7  10   32.90    3.20
  -3   7  10  118.59    6.70
   2  -7 -10    0.00    0.40
  -2   7  10    1.00    0.80
   1  -7 -10    0.50    0.40
  -1   7  10    0.50    0.60
   0  -7 -10   22.30    1.80
   0   7  10   17.30    2.10
  -1  -7 -10  208.08    8.90
  -1  -7 -10  221.68    9.30
   1   7  10  212.58    9.40
  -2  -7 -10   12.00    1.30
   2   7  10   12.50    1.50
  -3  -7 -10  279.87   11.70
  -4  -7 -10    1.70    0.70
  -5  -7 -10  335.17   14.20
  -6  -7 -10   34.80    2.80
  -7  -7 -10  107.59    6.00
  -8  -7 -10    8.00    1.90
  -9  -7 -10   10.20    2.30
  -7   8  10   -0.60    0.80
  -6   8  10   -0.20    0.80
  -5   8  10   22.70    3.00
  -4   8  10    3.50    1.40
  -3   8  10    5.00    1.40
   2  -8 -10    1.00    0.60
  -2   8  10   -0.30    0.70
   1  -8 -10  117.99    5.80
  -1   8  10  126.09    6.50
   0  -8 -10  216.08    9.60
   0   8  10  229.08   10.10
  -1  -8 -10  470.45   18.90
  -2  -8 -10  326.77   13.70
  -2  -8 -10  329.47   13.30
  -3  -8 -10  304.87   12.60
  -4  -8 -10   60.59    3.60
  -5  -8 -10    2.10    0.90
  -6  -8 -10  163.18    7.90
  -7  -8 -10   83.69    5.10
  -8  -8 -10   -1.10    0.80
  -9  -8 -10   -0.20    0.90
  -6   9  10   39.00    3.80
  -5   9  10   37.80    3.60
  -4   9  10   15.00    2.50
   3  -9 -10    1.20    0.70
  -3   9  10    2.00    1.00
   2  -9 -10   27.50    2.20
  -2   9  10   29.60    2.80
   1  -9 -10  576.64   23.40
  -1   9  10  601.84   24.10
   0  -9 -10  129.49    6.40
   0   9  10  140.29    6.80
  -1  -9 -10    3.40    0.90
   1   9  10    5.10    1.10
  -2  -9 -10   90.29    4.80
  -3  -9 -10   60.79    4.30
  -3  -9 -10   57.99    3.60
  -4  -9 -10   38.30    2.70
  -5  -9 -10    5.20    1.20
  -6  -9 -10   12.50    1.90
  -7  -9 -10   22.70    2.90
  -8  -9 -10   -0.40    0.80
  -6  10  10   27.70    3.70
  -5  10  10    0.10    0.90
  -4  10  10    6.40    1.70
   3 -10 -10   30.00    2.50
  -3  10  10   35.20    3.20
   2 -10 -10    3.50    1.00
  -2  10  10    3.60    1.20
   1 -10 -10   46.10    3.10
  -1  10  10   42.80    3.30
   0 -10 -10    8.60    1.40
   0  10  10    7.50    1.50
  -1 -10 -10   20.80    2.00
  -2 -10 -10  226.48   10.10
  -3 -10 -10    0.10    0.50
  -4 -10 -10   45.50    3.20
  -5 -10 -10    0.00    0.60
  -6 -10 -10    1.50    1.00
  -7 -10 -10   32.60    3.30
  -8 -10 -10    0.20    0.90
  -5  11  10    2.70    1.30
  -4  11  10    0.40    1.10
   3 -11 -10   25.50    2.30
  -3  11  10   23.80    3.10
   2 -11 -10    2.90    0.90
  -2  11  10    4.90    1.40
   1 -11 -10   57.09    3.80
  -1  11  10   57.99    4.00
   0 -11 -10    2.60    1.00
  -1 -11 -10    7.80    1.50
  -2 -11 -10  135.79    6.90
  -3 -11 -10    3.20    1.00
  -4 -11 -10   17.50    2.10
  -5 -11 -10    0.90    0.70
  -6 -11 -10    8.10    1.90
  -6 -11 -10   11.30    1.90
  -7 -11 -10    1.70    1.30
  -5  12  10   14.00    2.70
   4 -12 -10   12.00    1.90
  -4  12  10   18.50    3.00
   3 -12 -10   14.90    2.10
  -3  12  10   14.00    2.50
   2 -12 -10    1.30    0.80
  -2  12  10   -0.30    0.60
   1 -12 -10   15.30    2.20
  -1  12  10   12.60    2.20
   0 -12 -10    7.10    1.40
  -1 -12 -10    1.20    0.80
  -2 -12 -10   22.40    2.60
  -3 -12 -10    0.10    0.70
  -4 -12 -10    4.40    1.20
  -5 -12 -10    8.80    1.70
  -6 -12 -10    4.80    1.40
   4 -13 -10   49.50    3.70
  -4  13  10   47.60    4.20
   3 -13 -10    7.00    1.50
  -3  13  10    7.30    1.80
   2 -13 -10    2.10    1.00
  -2  13  10    2.50    1.20
   1 -13 -10    0.20    0.70
   0 -13 -10    0.00    0.70
  -1 -13 -10    4.40    1.20
  -2 -13 -10    1.70    1.00
  -3 -13 -10    3.10    1.10
  -4 -13 -10   35.40    3.10
  -5 -13 -10    5.80    1.40
  -6 -13 -10    6.00    1.70
   2 -14 -10    7.10    1.70
   1 -14 -10   -0.10    0.70
   0 -14 -10    1.40    0.90
  -1 -14 -10   18.00    2.40
  -2 -14 -10    3.70    1.30
  -3 -14 -10   21.70    2.70
  -4 -14 -10    8.10    1.80
   0 -15 -10    2.10    1.10
  -1 -15 -10    6.00    1.60
  -2 -15 -10   30.50    2.90
   0   9 -11   -0.80    0.80
  -1   9 -11    0.10    0.90
  -2   9 -11   -0.10    0.90
  -3  -8  11   -0.80    0.90
   2   8 -11   -0.70    0.80
  -2  -8  11   -0.60    0.90
   1   8 -11    0.40    1.00
   0   8 -11    0.00    0.90
  -1   8 -11   -0.40    0.90
  -2   8 -11    0.10    0.90
  -3   8 -11   -1.30    0.70
  -4   8 -11   -0.90    0.80
  -4  -7  11    0.00    1.20
   3   7 -11   -0.30    0.70
  -3  -7  11   -0.70    1.00
   2   7 -11   -0.50    0.70
  -2  -7  11   -0.40    1.00
   1   7 -11   -0.20    0.80
  -1  -7  11   -0.30    0.90
   0   7 -11    0.60    0.90
  -1   7 -11   -0.60    0.60
  -2   7 -11   -0.10    0.70
  -3   7 -11    0.90    1.00
  -4   7 -11    0.40    0.90
  -5   7 -11    0.00    0.80
  -5  -6  11    0.20    1.30
   4   6 -11   -0.60    0.70
  -4  -6  11   -0.50    1.10
   3   6 -11   -0.20    0.80
  -3  -6  11   -0.50    0.90
   2   6 -11   -0.60    0.60
  -2  -6  11   -0.20    0.80
   1   6 -11   -0.20    0.60
  -1  -6  11    0.10    0.70
   0   6 -11   -0.10    0.60
  -1   6 -11   -1.10    0.50
  -2   6 -11    0.00    0.70
  -3   6 -11   -0.30    0.70
  -4   6 -11   -1.10    0.50
  -5   6 -11    0.60    0.90
  -6   6 -11   -0.60    0.90
  -5  -5  11   -0.20    1.20
   4   5 -11   -0.50    0.80
  -4  -5  11   -0.90    0.70
   3   5 -11   -0.90    0.60
  -3  -5  11    0.70    1.20
   2   5 -11    0.00    0.70
  -2  -5  11   -0.80    0.70
   1   5 -11    0.80    0.70
  -1  -5  11    0.40    0.80
   0   5 -11   -0.30    0.60
  -1   5 -11    0.10    0.60
  -2   5 -11    0.40    0.70
  -3   5 -11   -0.60    0.60
  -4   5 -11   -0.40    0.60
  -5   5 -11    0.10    0.80
  -6   5 -11   -1.00    0.70
  -7   5 -11   -0.40    0.90
  -6  -4  11    0.30    1.00
   5   4 -11   -1.10    0.80
  -5  -4  11   -0.70    0.90
   4   4 -11   -0.60    0.80
  -4  -4  11    0.90    1.00
   3   4 -11   -0.20    0.60
  -3  -4  11    0.10    0.80
   2   4 -11    0.90    0.80
  -2  -4  11    0.30    0.80
   1   4 -11    0.20    0.70
  -1  -4  11    0.50    0.80
   0   4 -11    0.40    0.60
  -1   4 -11   -0.50    0.50
  -2   4 -11   -0.30    0.60
  -3   4 -11   -0.10    0.70
  -4   4 -11    0.40    0.70
  -5   4 -11   -0.20    0.60
  -6   4 -11   -0.20    0.80
  -7   4 -11   -0.70    0.70
  -8   4 -11   -0.40    0.90
  -8   4 -11    1.10    1.10
  -6  -3  11   -0.10    0.90
  -5  -3  11   -0.70    0.80
   4   3 -11    0.30    0.90
  -4  -3  11   -0.30    0.80
   3   3 -11    0.40    0.70
  -3  -3  11   -0.10    0.80
   2   3 -11    1.00    0.80
  -2  -3  11   -0.50    0.70
   1   3 -11   -0.50    0.60
  -1  -3  11    1.30    0.90
   0   3 -11   -1.50    0.50
  -1   3 -11   -0.10    0.60
  -2   3 -11    0.50    0.60
  -3   3 -11   -0.40    0.60
  -4   3 -11    0.20    0.60
  -5   3 -11    0.10    0.60
  -6   3 -11    2.60    1.00
  -7   3 -11   -0.10    0.90
  -7   3 -11    1.40    1.00
  -8   3 -11    1.30    1.00
  -8   3 -11   -0.10    0.90
  -7  -2  11   -1.30    1.00
  -6  -2  11   -0.50    0.90
  -6  -2  11    0.90    1.10
  -5  -2  11   -1.10    0.70
  -5  -2  11    0.30    0.90
  -4  -2  11   -0.70    0.70
  -4  -2  11   -0.70    0.70
  -3  -2  11    0.60    0.80
   2   2 -11    0.10    0.70
  -2  -2  11   -0.80    0.60
   1   2 -11   -0.40    0.60
  -1  -2  11    0.30    0.70
   0   2 -11   -0.10    0.60
  -1   2 -11    1.00    0.70
  -2   2 -11   -0.20    0.50
  -3   2 -11   -0.10    0.50
  -4   2 -11   -0.50    0.40
  -5   2 -11    0.10    0.60
  -6   2 -11    0.30    0.60
  -7   2 -11    0.20    0.70
  -7   2 -11   -1.10    0.80
  -8   2 -11    0.20    1.10
  -8   2 -11   -0.40    0.60
  -7  -1  11   -0.90    0.80
  -7  -1  11    0.30    1.10
  -6  -1  11   -0.30    0.80
  -6  -1  11   -0.20    0.80
  -5  -1  11    0.70    0.90
  -5  -1  11    0.20    0.90
  -4  -1  11   -0.30    0.60
  -4  -1  11   -0.30    0.70
  -3  -1  11    0.30    0.70
  -3  -1  11    0.40    0.80
  -2  -1  11    0.20    0.70
   1   1 -11    0.20    0.70
   0   1 -11    0.60    0.70
  -1   1 -11   -0.10    0.50
  -2   1 -11    0.00    0.50
  -3   1 -11   -0.10    0.40
  -4   1 -11    0.50    0.50
  -5   1 -11    0.40    0.60
  -6   1 -11    0.50    0.60
  -7   1 -11   -0.90    0.70
  -7   1 -11    0.50    0.70
  -8   1 -11    0.20    1.00
  -9   1 -11   -0.50    1.00
  -7   0  11    0.50    0.90
  -7   0  11   -0.40    1.00
  -6   0  11    0.90    0.90
  -6   0  11   -0.50    0.90
  -5   0  11    0.10    0.70
  -5   0  11   -0.10    0.70
  -4   0  11   -0.30    0.80
  -4   0  11    0.10    0.80
  -3   0  11    0.20    0.80
  -3   0  11   -0.10    0.70
  -2   0  11    0.00    0.60
  -2   0  11   -0.10    0.70
  -1   0  11    0.30    0.70
   0   0 -11   -0.10    0.50
  -1   0 -11   -0.50    0.40
  -2   0 -11    0.20    0.40
  -3   0 -11    0.50    0.60
  -4   0 -11    0.20    0.50
  -5   0 -11    0.00    0.50
  -6   0 -11    0.00    0.70
  -6   0 -11   -0.10    0.50
  -7   0 -11    0.00    0.70
  -7   0 -11   -0.10    0.80
  -8   0 -11   -0.60    0.80
  -9   0 -11   -0.70    0.90
  -7   1  11    0.90    1.10
  -6   1  11   -0.20    0.80
  -6   1  11   -1.30    0.80
  -5   1  11   -0.20    0.60
  -5   1  11    1.10    1.00
  -4   1  11    0.20    0.70
  -4   1  11   -0.30    0.70
  -3   1  11    0.40    0.70
  -3   1  11   -0.40    0.60
  -2   1  11   -0.80    0.50
  -2   1  11   -0.40    0.60
  -1   1  11    0.50    0.60
   0   1  11    0.40    0.60
  -1  -1 -11   -0.80    0.40
  -2  -1 -11    0.50    0.50
  -3  -1 -11   -0.40    0.40
  -4  -1 -11   -0.10    0.40
  -5  -1 -11   -0.10    0.40
  -6  -1 -11    0.00    0.70
  -6  -1 -11   -0.10    0.50
  -7  -1 -11    0.00    0.80
  -8  -1 -11    0.30    0.90
  -9  -1 -11   -0.40    1.00
  -7   2  11   -0.80    0.90
  -6   2  11    0.10    0.90
  -5   2  11   -0.10    0.70
  -5   2  11    0.50    0.70
  -4   2  11    0.60    0.80
  -4   2  11    0.10    0.70
  -3   2  11   -0.10    0.70
  -3   2  11   -0.10    0.70
  -2   2  11    0.20    0.70
  -1   2  11    0.10    0.60
   0   2  11    0.10    0.50
  -1  -2 -11   -0.50    0.40
  -2  -2 -11   -0.30    0.40
  -3  -2 -11   -0.30    0.40
  -4  -2 -11    0.40    0.40
  -5  -2 -11    0.00    0.40
  -6  -2 -11   -0.50    0.70
  -7  -2 -11    0.90    1.00
  -8  -2 -11    1.20    1.00
  -9  -2 -11    1.30    1.10
  -7   3  11   -0.10    1.00
  -6   3  11    0.40    1.10
  -5   3  11   -0.10    0.70
  -4   3  11    0.00    0.60
  -3   3  11    0.00    0.60
  -3   3  11   -0.60    0.60
  -2   3  11   -0.30    0.60
  -1   3  11    0.00    0.60
   0   3  11   -0.40    0.40
   1   3  11   -0.20    0.40
  -2  -3 -11   -0.40    0.40
  -3  -3 -11   -0.10    0.40
  -4  -3 -11   -0.10    0.40
  -5  -3 -11    0.00    0.60
  -5  -3 -11   -0.60    0.30
  -6  -3 -11    2.60    1.00
  -7  -3 -11    0.60    0.80
  -8  -3 -11    0.70    1.00
  -9  -3 -11   -0.50    0.90
  -7   4  11    0.10    0.90
  -6   4  11   -0.50    0.80
  -5   4  11   -0.40    0.80
  -4   4  11    0.10    0.70
  -3   4  11    1.20    0.90
  -2   4  11   -0.80    0.50
  -1   4  11    0.10    0.60
   0  -4 -11    0.10    0.30
   0   4  11    0.20    0.50
   1   4  11    0.40    0.50
  -3  -4 -11    0.00    0.40
  -4  -4 -11   -0.90    0.60
  -4  -4 -11   -0.30    0.40
  -5  -4 -11   -0.40    0.60
  -6  -4 -11   -0.30    0.70
  -7  -4 -11    1.30    1.00
  -8  -4 -11   -0.80    0.70
  -9  -4 -11   -0.40    0.90
  -7   5  11   -0.10    1.00
  -6   5  11   -0.20    0.90
  -5   5  11   -0.50    0.60
  -4   5  11   -0.70    0.60
  -3   5  11   -1.00    0.60
  -2   5  11   -0.30    0.60
  -1   5  11   -0.30    0.60
   0  -5 -11    0.00    0.40
   0   5  11   -0.60    0.50
   1   5  11   -0.10    0.40
   2   5  11   -0.50    0.30
  -3  -5 -11    0.50    0.50
  -4  -5 -11   -0.80    0.60
  -5  -5 -11   -0.60    0.70
  -6  -5 -11   -0.40    0.70
  -7  -5 -11   -0.30    0.70
  -8  -5 -11   -0.30    0.80
  -9  -5 -11   -0.40    0.90
  -7   6  11   -0.70    0.80
  -6   6  11    1.10    1.10
  -5   6  11   -0.20    0.80
  -4   6  11    0.00    0.70
  -3   6  11   -1.00    0.60
  -2   6  11    0.10    0.70
   1  -6 -11   -0.30    0.30
  -1   6  11    0.10    0.50
   0  -6 -11    0.10    0.40
   0   6  11   -0.20    0.50
  -1  -6 -11   -0.10    0.40
   1   6  11    0.20    0.60
   2   6  11   -0.20    0.50
  -3  -6 -11    0.40    0.50
  -3  -6 -11    0.20    0.50
  -4  -6 -11   -0.20    0.60
  -5  -6 -11   -0.40    0.70
  -6  -6 -11    0.20    0.80
  -7  -6 -11   -0.40    0.70
  -8  -6 -11    0.00    1.00
  -9  -6 -11   -1.30    0.90
  -7   7  11   -1.30    0.90
  -6   7  11    0.10    1.10
  -5   7  11    0.40    0.90
  -4   7  11   -1.00    0.70
  -3   7  11   -0.50    0.60
  -2   7  11   -0.20    0.70
   1  -7 -11   -0.10    0.40
  -1   7  11   -0.10    0.50
   0  -7 -11    0.40    0.50
   0   7  11   -0.30    0.60
  -1  -7 -11   -0.80    0.40
  -1  -7 -11    0.10    0.40
   1   7  11   -0.20    0.50
  -2  -7 -11    0.40    0.60
   2   7  11   -0.40    0.40
  -3  -7 -11   -0.10    0.60
  -4  -7 -11    0.00    0.60
  -5  -7 -11    0.00    0.70
  -6  -7 -11    0.30    0.70
  -7  -7 -11    0.40    0.80
  -8  -7 -11    0.30    1.00
  -9  -7 -11    0.30    1.10
  -6   8  11    0.20    1.00
  -5   8  11    0.20    0.90
  -4   8  11    0.20    0.80
  -3   8  11   -0.60    0.80
  -2   8  11    0.00    0.70
   1  -8 -11    0.40    0.50
  -1   8  11   -0.80    0.60
   0  -8 -11   -0.20    0.60
   0   8  11   -0.80    0.50
  -1  -8 -11   -0.40    0.50
   1   8  11   -0.40    0.50
  -2  -8 -11   -0.30    0.50
  -3  -8 -11    0.00    0.50
  -4  -8 -11    0.70    0.60
  -5  -8 -11    0.40    0.60
  -6  -8 -11    0.00    0.60
  -7  -8 -11    0.00    0.80
  -8  -8 -11   -0.70    0.90
  -6   9  11   -1.30    1.10
  -5   9  11   -0.80    0.90
  -4   9  11    0.00    0.80
  -3   9  11   -0.10    0.70
   2  -9 -11   -0.50    0.40
  -2   9  11   -0.20    0.60
   1  -9 -11   -0.40    0.50
  -1   9  11    0.40    0.80
   0  -9 -11   -0.70    0.50
   0   9  11   -0.40    0.50
  -1  -9 -11    0.20    0.60
   1   9  11    0.00    0.40
  -2  -9 -11    0.40    0.50
  -3  -9 -11    0.10    0.50
  -4  -9 -11    0.70    0.60
  -5  -9 -11    0.00    0.60
  -6  -9 -11   -0.40    0.70
  -7  -9 -11   -0.40    0.70
  -8  -9 -11    0.20    0.90
  -5  10  11    1.70    1.10
  -4  10  11   -0.30    0.80
  -3  10  11   -0.60    0.60
   2 -10 -11    0.10    0.60
  -2  10  11    0.60    0.80
   1 -10 -11    0.10    0.60
  -1  10  11    0.00    0.70
   0 -10 -11   -0.60    0.40
   0  10  11    0.40    0.60
  -1 -10 -11   -0.50    0.40
  -2 -10 -11    0.40    0.60
  -3 -10 -11    0.30    0.60
  -4 -10 -11    0.20    0.60
  -5 -10 -11   -0.10    0.70
  -6 -10 -11    0.60    0.80
  -7 -10 -11    0.00    1.00
  -5  11  11   -0.60    0.90
  -4  11  11   -0.10    0.90
   3 -11 -11    0.40    0.90
  -3  11  11    0.20    0.80
   2 -11 -11    0.00    0.60
  -2  11  11   -0.20    0.70
   1 -11 -11    0.40    0.70
  -1  11  11   -0.10    0.70
   0 -11 -11    0.40    0.70
  -1 -11 -11   -0.60    0.50
  -2 -11 -11    0.60    0.70
  -3 -11 -11   -0.20    0.60
  -4 -11 -11    0.40    0.70
  -5 -11 -11    0.10    0.60
  -6 -11 -11    0.30    0.80
  -7 -11 -11    0.30    1.00
  -4  12  11    0.90    1.20
   3 -12 -11   -0.10    0.70
  -3  12  11    0.60    0.90
   2 -12 -11    0.20    0.70
  -2  12  11    1.20    0.90
   1 -12 -11    0.10    0.70
   0 -12 -11    0.60    0.70
  -1 -12 -11   -0.10    0.60
  -2 -12 -11    0.30    0.70
  -3 -12 -11    0.60    0.70
  -4 -12 -11   -0.20    0.60
  -5 -12 -11    0.10    0.70
  -6 -12 -11   -0.30    0.80
   3 -13 -11   -0.10    0.70
  -3  13  11    1.20    1.10
   2 -13 -11    0.10    0.80
  -2  13  11    0.20    0.80
   1 -13 -11    0.10    0.60
   0 -13 -11   -0.10    0.70
  -1 -13 -11   -0.10    0.70
  -2 -13 -11    1.00    0.80
  -3 -13 -11    0.90    0.80
  -4 -13 -11    0.80    0.90
  -5 -13 -11   -0.40    0.70
   2 -14 -11    1.10    0.90
   1 -14 -11    0.80    0.90
   0 -14 -11   -0.30    0.70
  -1 -14 -11    0.10    0.90
  -2 -14 -11    0.40    0.70
  -3 -14 -11   -0.50    0.70
  -4 -14 -11   -0.30    0.80
   0   8 -12    0.40    1.00
  -1   8 -12   -0.50    0.80
  -2   8 -12    4.20    1.40
   2   7 -12   -0.40    0.80
  -2  -7  12   -0.90    0.90
   1   7 -12    4.20    1.30
   0   7 -12    0.90    1.00
  -1   7 -12    4.40    1.40
  -2   7 -12    2.10    1.30
  -3   7 -12   12.30    2.30
  -4   7 -12   51.79    4.00
  -4  -6  12   14.40    4.30
   3   6 -12    1.90    1.10
  -3  -6  12    2.30    1.40
   2   6 -12    2.70    1.20
  -2  -6  12    3.30    1.40
   1   6 -12    0.90    0.90
   0   6 -12    5.90    1.50
  -1   6 -12   -0.10    0.70
  -2   6 -12    1.40    1.00
  -3   6 -12   -0.20    0.90
  -4   6 -12    8.10    1.80
  -5   6 -12    5.60    1.60
   4   5 -12    6.40    1.60
  -4  -5  12    6.40    1.90
   3   5 -12    1.10    0.90
  -3  -5  12    2.40    1.40
   2   5 -12    3.60    1.30
  -2  -5  12    4.00    1.60
   1   5 -12    2.80    1.10
   0   5 -12    4.30    1.20
  -1   5 -12    1.30    0.90
  -2   5 -12   25.00    2.50
  -3   5 -12    1.10    0.90
  -4   5 -12    8.90    1.80
  -5   5 -12    0.90    1.10
  -6   5 -12    9.00    1.90
   5   4 -12    0.80    1.00
  -5  -4  12    2.10    1.30
   4   4 -12    1.80    1.10
  -4  -4  12    1.50    1.30
   3   4 -12    0.50    0.90
  -3  -4  12    0.30    0.90
   2   4 -12   22.50    2.60
  -2  -4  12   17.80    2.80
   1   4 -12    7.70    1.60
   0   4 -12   13.40    2.00
  -1   4 -12   86.49    4.90
  -2   4 -12   23.80    2.30
  -3   4 -12    4.40    1.20
  -4   4 -12    1.40    1.00
  -5   4 -12    4.00    1.30
  -6   4 -12    4.20    1.30
  -7   4 -12   -0.10    0.90
   5   3 -12   11.00    2.20
  -5  -3  12   10.40    2.40
   4   3 -12    2.80    1.20
  -4  -3  12    2.10    1.20
   3   3 -12    7.00    1.60
  -3  -3  12    5.10    1.60
   2   3 -12   10.80    1.90
  -2  -3  12   14.70    2.50
   1   3 -12   30.00    2.70
   0   3 -12   14.80    2.00
  -1   3 -12    1.90    1.00
  -2   3 -12  147.49    7.20
  -3   3 -12    1.30    0.80
  -4   3 -12    6.40    1.40
  -5   3 -12   40.90    3.20
  -6   3 -12   19.80    2.50
  -7   3 -12   26.50    2.70
  -6  -2  12    5.10    1.80
  -6  -2  12    4.70    1.60
  -5  -2  12    9.10    1.90
  -5  -2  12   13.20    2.50
  -4  -2  12   23.00    3.10
   3   2 -12   24.60    2.90
  -3  -2  12   23.50    3.10
   2   2 -12   15.20    2.20
  -2  -2  12   15.50    2.40
   1   2 -12  174.68    8.40
   0   2 -12  354.66   15.10
  -1   2 -12  209.08    9.60
  -2   2 -12   41.90    3.10
  -3   2 -12    0.40    0.60
  -4   2 -12   55.99    3.70
  -5   2 -12   92.29    5.30
  -6   2 -12    8.90    1.70
  -7   2 -12    8.90    1.70
  -7   2 -12    6.50    1.60
  -8   2 -12   66.09    4.70
  -6  -1  12    1.60    1.20
  -6  -1  12    1.70    1.30
  -5  -1  12   13.40    2.30
  -5  -1  12   12.40    2.30
  -4  -1  12    0.30    0.80
  -4  -1  12    0.70    0.90
  -3  -1  12  127.79    7.10
  -3  -1  12  124.89    7.00
   2   1 -12   52.69    3.80
  -2  -1  12   50.29    3.90
   1   1 -12   29.70    2.70
   0   1 -12    4.20    1.20
  -1   1 -12  148.29    7.20
  -2   1 -12    8.00    1.40
  -3   1 -12    0.80    0.60
  -4   1 -12    0.70    0.70
  -5   1 -12   -0.90    0.40
  -6   1 -12    0.30    0.70
  -7   1 -12   20.80    2.50
  -7   1 -12   16.90    2.50
  -8   1 -12   88.89    5.70
  -6   0  12    7.50    2.00
  -6   0  12    7.60    2.00
  -5   0  12    0.60    0.90
  -5   0  12    0.30    0.90
  -4   0  12    3.80    1.30
  -4   0  12    3.10    1.30
  -3   0  12    1.70    1.00
  -3   0  12    1.10    0.90
  -2   0  12   39.90    3.30
  -2   0  12   42.80    3.40
   0   0 -12  118.49    6.20
  -1   0 -12  175.78    8.20
  -2   0 -12  119.09    6.00
  -3   0 -12   15.50    1.90
  -4   0 -12    4.60    1.10
  -5   0 -12    1.90    0.90
  -6   0 -12    2.60    0.90
  -7   0 -12   18.90    2.60
  -8   0 -12   53.49    4.20
  -7   1  12    4.10    1.60
  -6   1  12    1.60    1.20
  -5   1  12   30.20    3.70
  -5   1  12   29.20    3.00
  -4   1  12   17.10    2.60
  -4   1  12   19.60    2.70
  -3   1  12   22.80    2.90
  -3   1  12   24.30    2.50
  -2   1  12    3.50    1.20
  -1   1  12   76.29    4.70
   0  -1 -12  335.77   14.50
  -1  -1 -12   37.50    2.80
  -2  -1 -12   96.49    5.00
  -3  -1 -12    1.70    0.70
  -4  -1 -12    2.00    0.70
  -5  -1 -12   26.70    2.20
  -6  -1 -12    8.00    1.70
  -6  -1 -12   12.60    1.70
  -7  -1 -12    0.20    0.90
  -8  -1 -12    4.40    1.50
  -9  -1 -12    7.80    2.00
  -7   2  12    8.30    2.10
  -6   2  12    6.60    1.80
  -5   2  12   59.79    4.70
  -4   2  12    8.40    1.70
  -4   2  12   10.00    2.10
  -3   2  12    0.40    0.70
  -3   2  12    0.40    0.80
  -2   2  12  134.79    7.30
  -1   2  12   24.60    2.50
   0   2  12  179.88    8.60
  -1  -2 -12    2.20    0.90
  -2  -2 -12  104.09    5.30
  -3  -2 -12   36.00    2.50
  -4  -2 -12    2.40    0.80
  -5  -2 -12   80.89    4.40
  -6  -2 -12   39.20    3.20
  -7  -2 -12    5.90    1.60
  -8  -2 -12    5.70    1.70
  -9  -2 -12    1.70    1.30
  -7   3  12   11.60    2.40
  -6   3  12   63.39    5.00
  -5   3  12   59.39    4.60
  -4   3  12   -0.20    0.80
  -3   3  12   10.90    2.00
  -2   3  12  354.26   15.70
  -1   3  12    1.00    0.80
   0   3  12   55.79    3.80
   1   3  12    9.00    1.50
  -2  -3 -12   91.19    4.80
  -3  -3 -12   88.79    4.60
  -4  -3 -12    0.10    0.50
  -5  -3 -12  108.39    5.50
  -5  -3 -12  115.99    6.20
  -6  -3 -12  124.59    6.80
  -7  -3 -12    5.50    1.50
  -8  -3 -12    4.60    1.60
  -9  -3 -12    0.30    1.10
  -7   4  12   16.00    2.80
  -6   4  12    8.80    2.10
  -5   4  12   23.20    3.30
  -4   4  12   25.40    3.30
  -3   4  12   90.99    5.80
  -2   4  12  252.87   11.90
  -1   4  12   10.50    1.80
   0   4  12    1.60    0.90
   1   4  12    0.60    0.70
  -2  -4 -12   43.40    3.00
  -3  -4 -12   45.30    2.90
  -4  -4 -12   13.90    1.50
  -5  -4 -12   29.20    2.60
  -6  -4 -12   14.90    2.20
  -7  -4 -12  115.39    6.60
  -8  -4 -12    7.60    1.90
  -9  -4 -12   -0.10    0.90
  -7   5  12   15.10    2.70
  -6   5  12    7.70    2.10
  -5   5  12   23.40    3.30
  -4   5  12   12.40    2.40
  -3   5  12  141.19    7.80
  -2   5  12  108.99    6.30
  -1   5  12   47.90    3.60
   0   5  12   84.69    5.00
   1   5  12   16.10    2.10
   2   5  12   39.80    2.90
  -3  -5 -12   28.70    2.20
  -4  -5 -12  264.27   11.70
  -5  -5 -12  132.19    6.80
  -6  -5 -12    4.20    1.30
  -7  -5 -12   47.40    3.80
  -8  -5 -12    1.30    1.10
  -9  -5 -12   13.90    2.60
  -6   6  12   16.70    2.90
  -5   6  12    3.80    1.50
  -4   6  12    1.70    1.10
  -3   6  12   10.80    2.10
  -2   6  12    0.40    0.80
  -1   6  12   24.60    2.50
   0  -6 -12  100.69    4.90
   0   6  12   98.19    5.60
  -1  -6 -12   -0.10    0.40
   1   6  12   -0.60    0.50
   2   6  12   96.09    5.10
  -3  -6 -12  196.88    8.90
  -3  -6 -12  198.28    8.70
  -4  -6 -12   22.50    2.10
  -5  -6 -12   71.89    4.40
  -6  -6 -12    1.40    0.90
  -7  -6 -12    5.90    1.60
  -8  -6 -12    4.20    1.50
  -6   7  12    1.20    1.20
  -5   7  12    7.00    2.00
  -4   7  12    0.20    0.90
  -3   7  12    5.30    1.50
  -2   7  12   81.99    5.30
  -1   7  12    6.70    1.60
   0  -7 -12   92.49    4.70
   0   7  12   91.39    5.30
  -1  -7 -12   78.89    4.40
   1   7  12   89.19    4.90
  -2  -7 -12  105.69    5.20
   2   7  12   99.59    5.40
  -3  -7 -12   66.69    3.90
  -4  -7 -12   81.89    4.60
  -5  -7 -12    6.30    1.40
  -6  -7 -12    4.00    1.20
  -7  -7 -12   65.79    4.50
  -8  -7 -12   47.70    3.90
  -6   8  12   -0.40    1.00
  -5   8  12    0.60    1.10
  -4   8  12   22.80    3.20
  -3   8  12    9.20    2.00
  -2   8  12   99.69    6.10
  -1   8  12    3.10    1.20
   0  -8 -12   27.10    2.20
   0   8  12   23.20    2.40
  -1  -8 -12  278.27   12.00
   1   8  12  286.07   12.40
  -2  -8 -12   42.50    2.90
  -3  -8 -12   37.70    2.60
  -4  -8 -12   37.70    2.70
  -5  -8 -12    4.40    1.20
  -6  -8 -12   -0.10    0.80
  -7  -8 -12   68.79    4.60
  -8  -8 -12   23.10    3.00
  -5   9  12   -1.00    0.80
  -4   9  12   -0.10    0.90
  -3   9  12   -0.60    0.80
  -2   9  12   19.80    2.90
   1  -9 -12    5.50    1.10
  -1   9  12    5.10    1.40
   0  -9 -12   10.50    1.60
   0   9  12   13.50    2.10
  -1  -9 -12   34.10    2.70
   1   9  12   38.90    3.00
  -2  -9 -12    0.40    0.60
  -3  -9 -12    0.60    0.70
  -4  -9 -12   36.70    2.80
  -5  -9 -12    7.20    1.50
  -6  -9 -12    1.20    0.90
  -7  -9 -12   79.49    5.10
  -8  -9 -12   57.59    4.40
  -5  10  12    0.50    1.30
  -4  10  12    8.10    2.10
  -3  10  12   20.10    3.00
  -2  10  12   -0.90    0.70
   1 -10 -12   18.60    2.20
  -1  10  12   18.70    2.60
   0 -10 -12   40.60    3.00
   0  10  12   44.50    3.40
  -1 -10 -12   38.70    2.90
  -2 -10 -12    5.70    1.20
  -3 -10 -12   43.70    3.20
  -4 -10 -12    4.20    1.10
  -6 -10 -12    5.60    1.50
  -7 -10 -12   75.39    5.10
  -4  11  12   -0.20    1.10
  -3  11  12   16.90    2.90
   2 -11 -12   10.40    2.20
  -2  11  12    9.90    2.00
   1 -11 -12   -1.00    0.50
  -1  11  12    0.90    0.90
   0 -11 -12   14.00    1.90
  -1 -11 -12    2.20    1.00
  -2 -11 -12   15.00    2.00
  -3 -11 -12   13.40    1.90
  -4 -11 -12   -0.20    0.70
  -5 -11 -12    0.50    0.70
  -3  12  12   36.60    3.60
   2 -12 -12   43.20    3.30
  -2  12  12   44.10    3.90
   1 -12 -12    0.70    0.80
   0 -12 -12   20.10    2.50
  -1 -12 -12    0.10    0.70
  -2 -12 -12   27.50    3.00
  -3 -12 -12   14.60    2.10
  -4 -12 -12   24.40    2.70
  -5 -12 -12   36.50    3.10
  -6 -12 -12   16.50    2.40
   2 -13 -12   -0.60    0.70
  -2  13  12    0.20    1.00
   1 -13 -12    7.60    1.60
   0 -13 -12    4.60    1.40
  -1 -13 -12    0.20    0.70
  -2 -13 -12    3.30    1.20
  -3 -13 -12   29.50    2.80
  -4 -13 -12   21.20    2.70
  -5 -13 -12   20.90    2.80
   1 -14 -12    1.20    1.00
   0 -14 -12    5.90    1.50
  -1 -14 -12    4.80    1.40
  -2 -14 -12    1.00    1.00
  -3 -14 -12    9.20    1.80
   0   7 -13   -0.30    0.80
  -1   7 -13   -0.50    0.80
  -2   7 -13   -0.50    0.80
   2   6 -13   -0.60    0.70
  -2  -6  13    1.20    1.40
   1   6 -13   -0.30    0.80
   0   6 -13   -0.20    0.70
  -1   6 -13   -0.70    0.80
  -2   6 -13   -0.90    0.90
  -3   6 -13   -0.80    0.80
  -4   6 -13    0.30    1.00
   3   5 -13   -0.40    0.90
  -3  -5  13   -0.80    1.00
   2   5 -13    0.90    1.00
  -2  -5  13   -0.10    1.20
   1   5 -13   -0.10    0.90
   0   5 -13   -0.80    0.60
  -1   5 -13    0.60    0.90
  -2   5 -13   -0.10    0.80
  -3   5 -13    1.00    0.90
  -4   5 -13    0.10    0.90
  -5   5 -13    0.30    0.90
   4   4 -13   -0.90    0.70
  -4  -4  13    0.70    1.30
   3   4 -13    0.10    0.90
  -3  -4  13   -0.60    0.90
   2   4 -13    0.50    0.80
  -2  -4  13    0.30    0.90
   1   4 -13   -0.10    0.70
   0   4 -13    0.00    0.70
  -1   4 -13    0.70    0.80
  -2   4 -13    0.00    0.70
  -3   4 -13   -0.10    0.80
  -4   4 -13   -0.90    0.70
  -5   4 -13   -0.40    0.70
  -6   4 -13    0.40    0.90
   5   3 -13    0.90    1.10
  -5  -3  13   -0.10    1.00
   4   3 -13   -0.90    0.70
  -4  -3  13    0.40    1.10
   3   3 -13    0.60    1.00
  -3  -3  13    0.30    0.90
   2   3 -13   -0.40    0.60
  -2  -3  13   -0.20    1.00
   1   3 -13    0.30    0.80
   0   3 -13    0.50    0.80
  -1   3 -13    0.60    0.80
  -2   3 -13    0.70    0.80
  -3   3 -13   -0.50    0.60
  -4   3 -13   -0.80    0.50
  -5   3 -13    0.30    0.90
  -6   3 -13    0.30    0.80
  -7   3 -13    0.50    0.80
  -5  -2  13    0.30    1.10
   4   2 -13    0.40    1.00
  -4  -2  13    0.10    0.90
   3   2 -13    0.20    0.80
  -3  -2  13    0.10    0.90
   2   2 -13    0.00    0.70
  -2  -2  13    0.40    0.90
   1   2 -13    0.50    0.70
   0   2 -13    0.90    0.80
  -1   2 -13   -0.20    0.60
  -2   2 -13   -0.40    0.60
  -3   2 -13   -0.40    0.60
  -4   2 -13   -0.40    0.60
  -5   2 -13    0.30    0.80
  -6   2 -13   -1.10    0.70
  -7   2 -13   -0.70    0.80
  -7   2 -13    0.30    0.80
  -5  -1  13    0.30    0.90
  -5  -1  13    0.90    1.10
  -4  -1  13    0.20    0.90
  -4  -1  13   -0.60    0.80
  -3  -1  13    0.30    0.90
   2   1 -13   -0.40    0.70
   1   1 -13    0.80    0.80
   0   1 -13    0.30    0.70
  -1   1 -13   -0.60    0.60
  -2   1 -13    0.50    0.60
  -3   1 -13    0.00    0.50
  -4   1 -13   -0.20    0.60
  -5   1 -13   -0.20    0.70
  -6   1 -13   -0.20    0.70
  -7   1 -13    0.20    0.80
  -7   1 -13   -1.00    0.70
  -8   1 -13   -0.70    0.90
  -6   0  13   -2.30    0.80
  -6   0  13    0.00    1.00
  -5   0  13    0.40    1.00
  -5   0  13   -0.10    0.90
  -4   0  13   -0.30    0.80
  -4   0  13    1.30    1.00
  -3   0  13   -0.50    0.80
  -3   0  13    1.60    1.00
  -2   0  13    0.70    0.90
   1   0 -13   -0.50    0.70
   0   0 -13    0.30    0.70
  -1   0 -13    0.00    0.60
  -2   0 -13    0.10    0.50
  -3   0 -13    0.00    0.60
  -4   0 -13   -0.50    0.40
  -5   0 -13    0.80    0.70
  -6   0 -13    0.20    0.70
  -7   0 -13    0.40    0.90
  -8   0 -13    0.60    1.10
  -6   1  13    0.30    1.20
  -5   1  13   -0.20    1.10
  -5   1  13   -0.20    1.00
  -4   1  13   -0.50    0.80
  -4   1  13   -0.60    0.80
  -3   1  13   -0.50    0.70
  -3   1  13    0.60    0.80
  -2   1  13    0.50    0.80
  -1   1  13   -0.40    0.60
   0  -1 -13    0.00    0.70
  -1  -1 -13   -0.70    0.50
  -2  -1 -13    0.20    0.50
  -3  -1 -13   -0.30    0.50
  -4  -1 -13    0.30    0.60
  -5  -1 -13   -0.80    0.50
  -6  -1 -13    0.30    0.90
  -6  -1 -13   -0.20    0.60
  -7  -1 -13    0.40    0.90
  -8  -1 -13    0.40    1.00
  -6   2  13    0.00    1.00
  -5   2  13   -0.10    1.00
  -4   2  13   -0.20    0.70
  -4   2  13    0.50    1.00
  -3   2  13   -0.40    0.70
  -2   2  13   -0.70    0.60
  -1   2  13    0.40    0.80
   0   2  13    0.30    0.70
  -1  -2 -13    0.50    0.60
  -2  -2 -13   -0.10    0.50
  -3  -2 -13   -0.30    0.40
  -4  -2 -13    0.00    0.50
  -5  -2 -13   -0.60    0.50
  -6  -2 -13    0.50    0.90
  -7  -2 -13    0.30    0.90
  -8  -2 -13    1.50    1.10
  -6   3  13   -0.50    1.00
  -5   3  13    0.90    1.20
  -4   3  13    0.10    1.00
  -3   3  13   -0.60    0.70
  -2   3  13   -0.10    0.80
  -1   3  13   -0.90    0.60
   0   3  13    0.60    0.80
  -2  -3 -13    0.30    0.50
  -3  -3 -13   -0.70    0.40
  -4  -3 -13   -0.30    0.40
  -6  -3 -13    0.00    0.90
  -7  -3 -13    0.30    0.90
  -8  -3 -13    0.10    1.00
  -6   4  13    0.40    1.20
  -5   4  13   -1.00    0.80
  -4   4  13    0.70    1.10
  -3   4  13   -0.30    0.90
  -2   4  13    1.00    0.90
  -1   4  13    0.00    0.70
   0   4  13   -0.20    0.60
   1   4  13    0.10    0.60
  -2  -4 -13    0.60    0.60
  -3  -4 -13    0.00    0.50
  -4  -4 -13    0.60    0.60
  -5  -4 -13   -0.40    0.70
  -6  -4 -13   -0.40    0.80
  -7  -4 -13   -0.40    0.80
  -8  -4 -13   -0.10    1.10
  -6   5  13   -0.10    0.90
  -5   5  13    0.20    1.00
  -4   5  13    0.30    0.90
  -3   5  13   -0.60    0.70
  -2   5  13   -0.10    0.80
  -1   5  13    0.40    0.70
   0   5  13   -0.60    0.50
   1   5  13    0.00    0.50
  -3  -5 -13   -0.20    0.60
  -4  -5 -13   -1.30    0.60
  -5  -5 -13   -0.30    0.80
  -6  -5 -13    0.00    0.90
  -7  -5 -13    1.50    1.10
  -8  -5 -13   -0.10    0.90
  -6   6  13    0.30    1.10
  -5   6  13    1.00    1.20
  -4   6  13   -0.10    0.90
  -3   6  13    0.50    1.00
  -2   6  13   -0.20    0.90
  -1   6  13    0.30    0.70
   0   6  13   -0.30    0.60
  -1  -6 -13   -0.10    0.50
   1   6  13   -0.10    0.70
   2   6  13    0.20    0.60
  -3  -6 -13    0.00    0.70
  -3  -6 -13    0.10    0.90
  -4  -6 -13    0.20    0.70
  -5  -6 -13   -0.20    0.80
  -6  -6 -13    0.20    0.80
  -7  -6 -13    0.50    1.00
  -8  -6 -13    0.20    0.90
  -6   7  13   -0.20    1.30
  -5   7  13    0.20    1.20
  -4   7  13    1.00    1.10
  -3   7  13    1.00    1.00
  -2   7  13    0.20    0.90
  -1   7  13   -0.20    0.70
   0   7  13   -0.60    0.70
  -1  -7 -13    0.60    0.60
   1   7  13    0.30    0.60
  -2  -7 -13   -0.40    0.40
  -2  -7 -13   -0.30    0.50
   2   7  13    0.40    0.60
  -3  -7 -13    0.00    0.60
  -4  -7 -13    0.00    0.70
  -5  -7 -13   -0.20    0.80
  -6  -7 -13    0.30    0.80
  -7  -7 -13   -0.10    0.80
  -8  -7 -13    0.00    0.90
  -5   8  13   -0.20    1.20
  -4   8  13   -0.10    0.90
  -3   8  13    0.70    1.00
  -2   8  13    0.40    0.80
  -1   8  13   -0.20    0.80
   0   8  13   -0.20    0.60
  -1  -8 -13    0.00    0.50
   1   8  13    0.00    0.60
  -2  -8 -13   -0.20    0.50
  -3  -8 -13    0.10    1.00
  -4  -8 -13   -0.50    0.50
  -5  -8 -13   -0.10    0.70
  -6  -8 -13   -0.30    0.70
  -7  -8 -13   -1.00    0.80
  -5   9  13   -0.40    1.10
  -4   9  13   -0.90    0.90
  -3   9  13    0.40    1.10
  -2   9  13    0.50    1.00
  -1   9  13   -0.40    0.80
   0  -9 -13    0.60    0.70
   0   9  13   -0.30    0.70
  -1  -9 -13   -0.40    0.60
  -2  -9 -13    0.50    0.60
  -3  -9 -13    0.60    0.60
  -5  -9 -13    0.40    0.70
  -6  -9 -13    0.30    0.80
  -7  -9 -13   -0.60    0.80
  -4  10  13    1.70    1.30
  -3  10  13    0.60    1.10
  -2  10  13    0.40    1.00
  -1  10  13    0.80    1.00
   0 -10 -13    0.20    0.60
   0  10  13   -1.10    0.50
  -1 -10 -13    0.70    0.70
  -2 -10 -13   -0.30    0.50
  -3 -10 -13    0.40    0.70
  -4 -10 -13   -0.40    0.60
  -6 -10 -13   -0.20    0.90
  -7 -10 -13   -0.30    0.90
  -4  11  13    0.00    1.20
  -3  11  13    0.50    1.20
  -2  11  13    0.20    0.80
   1 -11 -13    0.50    1.10
  -1  11  13   -0.10    0.80
   0 -11 -13    0.00    0.70
  -1 -11 -13    0.10    0.70
  -2 -11 -13    1.00    0.70
  -3 -11 -13    1.70    0.90
  -4 -11 -13   -0.30    0.60
  -5 -11 -13   -0.20    0.70
  -3  12  13   -1.40    0.90
  -2  12  13   -0.30    1.00
   1 -12 -13   -0.40    0.70
   0 -12 -13   -0.40    0.70
  -1 -12 -13    0.30    0.60
  -2 -12 -13   -0.30    0.70
  -3 -12 -13    0.60    0.80
  -4 -12 -13    0.60    0.80
  -5 -12 -13    1.70    1.10
   1 -13 -13   -0.90    0.70
   0 -13 -13   -0.20    0.70
  -1 -13 -13   -0.40    0.60
  -2 -13 -13    0.00    0.70
  -3 -13 -13    0.60    0.90
  -4 -13 -13    0.40    0.90
  -1   6 -14    1.00    1.10
  -2   6 -14    0.90    1.20
   2   5 -14   37.10    3.40
   1   5 -14   17.00    2.50
   0   5 -14   10.10    1.90
  -1   5 -14   41.00    3.40
  -2   5 -14   23.60    2.90
  -3   5 -14   25.70    3.10
  -4   5 -14    5.20    1.70
   3   4 -14   11.60    2.20
  -3  -4  14    7.70    2.30
   2   4 -14   31.30    3.10
   1   4 -14   16.80    2.50
   0   4 -14   26.60    2.70
  -1   4 -14   90.89    5.40
  -2   4 -14   29.10    2.90
  -3   4 -14   10.30    2.00
  -4   4 -14   45.70    3.70
  -5   4 -14    0.20    0.80
   3   3 -14   10.20    2.00
  -3  -3  14   11.10    2.40
   2   3 -14   21.10    2.70
   1   3 -14    1.20    1.00
   0   3 -14    0.40    0.80
  -1   3 -14    0.30    0.80
  -2   3 -14    0.90    0.80
  -3   3 -14   73.49    4.80
  -4   3 -14    3.00    1.20
  -5   3 -14    2.00    1.20
  -6   3 -14    1.70    1.10
   4   2 -14   16.90    2.80
  -4  -2  14   20.00    3.10
   3   2 -14    0.90    1.10
  -3  -2  14    1.70    1.30
   2   2 -14   17.20    2.50
   1   2 -14   16.60    2.40
   0   2 -14   19.10    2.40
  -1   2 -14   52.29    3.70
  -2   2 -14   25.00    2.40
  -3   2 -14   27.90    2.60
  -4   2 -14    0.20    0.80
  -5   2 -14    3.40    1.30
  -6   2 -14    0.50    0.90
  -5  -1  14    0.70    1.20
  -4  -1  14   11.20    2.50
   3   1 -14   11.70    2.30
  -3  -1  14   12.30    2.40
   2   1 -14    2.10    1.10
   1   1 -14    8.30    1.80
   0   1 -14    8.80    1.70
  -1   1 -14  151.28    7.60
  -2   1 -14    1.40    0.90
  -3   1 -14    5.30    1.30
  -4   1 -14    4.50    1.20
  -5   1 -14   -0.10    0.70
  -6   1 -14    8.10    1.70
  -7   1 -14    3.50    1.30
  -7   1 -14    3.10    1.40
  -5   0  14    4.80    1.70
  -5   0  14    5.00    1.70
  -4   0  14   18.40    2.90
  -4   0  14   19.90    3.00
  -3   0  14   23.20    3.20
   2   0 -14    3.40    1.30
   1   0 -14    0.40    0.80
   0   0 -14    7.00    1.50
  -1   0 -14    7.40    1.50
  -2   0 -14    2.20    0.90
  -3   0 -14    1.60    0.90
  -4   0 -14    1.10    0.70
  -5   0 -14    0.80    0.70
  -6   0 -14   11.20    1.90
  -7   0 -14    1.50    1.20
  -5   1  14   61.59    5.10
  -4   1  14    1.80    1.30
  -4   1  14    0.00    0.80
  -3   1  14   39.20    3.70
  -2   1  14    0.20    0.80
   0  -1 -14   56.79    4.00
  -1  -1 -14    7.10    1.50
  -2  -1 -14   -0.20    0.50
  -3  -1 -14   19.80    2.30
  -4  -1 -14    7.60    1.40
  -5  -1 -14   19.30    2.30
  -6  -1 -14   -0.10    0.80
  -7  -1 -14   -0.80    0.80
  -5   2  14    5.40    1.90
  -4   2  14   21.50    3.20
  -3   2  14   52.79    4.40
  -2   2  14   16.50    2.70
  -1   2  14    1.30    0.90
   0  -2 -14   35.70    3.10
  -1  -2 -14   24.00    2.30
  -2  -2 -14   23.20    2.20
  -3  -2 -14   93.69    5.10
  -4  -2 -14   68.59    4.10
  -5  -2 -14   37.40    2.90
  -6  -2 -14   18.10    2.60
  -7  -2 -14   33.00    3.40
  -8  -2 -14   21.70    3.50
  -5   3  14    1.90    1.40
  -4   3  14    0.10    1.00
  -3   3  14    4.70    1.70
  -2   3  14   17.00    2.70
  -1   3  14   29.60    3.00
   0   3  14   17.80    2.50
  -1  -3 -14    0.90    0.80
  -2  -3 -14   46.70    3.30
  -3  -3 -14  101.19    5.40
  -4  -3 -14  114.19    5.80
  -6  -3 -14   99.29    6.00
  -7  -3 -14   27.20    3.40
  -8  -3 -14    2.70    1.60
  -5   4  14    2.30    1.50
  -4   4  14    3.10    1.50
  -3   4  14    4.00    1.50
  -2   4  14   15.30    2.60
  -1   4  14   40.40    3.50
   0   4  14   -0.60    0.70
  -2  -4 -14   11.80    1.80
  -3  -4 -14  131.59    6.50
  -4  -4 -14   66.29    3.90
  -5  -4 -14    3.70    1.30
  -6  -4 -14    6.10    1.60
  -7  -4 -14    3.60    1.40
  -8  -4 -14   36.30    3.60
  -5   5  14   12.90    2.70
  -4   5  14   20.60    3.20
  -3   5  14    2.70    1.60
  -2   5  14   20.60    3.00
  -1   5  14    8.60    1.90
   0   5  14   62.59    4.40
   1   5  14   28.80    2.70
  -2  -5 -14   22.60    2.20
  -3  -5 -14   72.59    4.20
  -4  -5 -14   15.90    2.30
  -5  -5 -14   44.20    3.60
  -6  -5 -14   55.39    4.20
  -7  -5 -14   36.20    3.40
  -8  -5 -14   35.40    3.50
  -5   6  14   19.10    3.20
  -4   6  14    2.30    1.40
  -3   6  14    1.20    1.20
  -2   6  14   15.80    2.70
  -1   6  14   -0.10    0.70
   0   6  14    3.90    1.40
   1   6  14   43.30    3.40
  -4  -6 -14   71.89    4.50
  -5  -6 -14    8.50    1.80
  -6  -6 -14  135.69    7.40
  -7  -6 -14    3.40    1.40
  -5   7  14    0.90    1.30
  -4   7  14    1.70    1.40
  -3   7  14    8.60    2.10
  -2   7  14   40.20    3.70
  -1   7  14   13.50    2.40
   0   7  14    2.40    1.20
   1   7  14   85.09    5.10
  -2  -7 -14   36.30    2.70
   2   7  14   42.50    3.20
  -3  -7 -14  103.09    5.50
  -4  -7 -14    1.50    0.90
  -5  -7 -14    8.30    1.70
  -6  -7 -14   37.00    3.20
  -7  -7 -14    1.40    1.20
  -4   8  14   -0.70    1.00
  -3   8  14    0.80    1.20
  -2   8  14    0.00    0.80
  -1   8  14   11.10    2.10
   0   8  14   94.59    5.80
   1   8  14   63.19    4.30
  -2  -8 -14   11.80    1.70
  -4  -8 -14   15.60    2.10
  -5  -8 -14    0.00    0.80
  -6  -8 -14   11.20    2.00
  -7  -8 -14    3.90    1.40
  -4   9  14    6.50    2.00
  -3   9  14    1.70    1.20
  -2   9  14    0.50    0.90
  -1   9  14   25.10    3.20
   0   9  14   42.00    3.50
  -1  -9 -14    2.00    0.90
  -2  -9 -14   22.30    2.50
  -3  -9 -14    0.10    0.60
  -5  -9 -14    4.30    1.40
  -6  -9 -14    2.60    1.20
  -3  10  14   11.80    2.50
  -2  10  14   13.60    2.60
  -1  10  14    6.90    1.80
   0  10  14   47.70    3.80
  -1 -10 -14   35.20    2.90
  -2 -10 -14    1.30    0.90
  -3 -10 -14    1.90    0.90
  -4 -10 -14    3.20    1.20
  -3  11  14    5.60    1.90
  -2  11  14    2.40    1.40
  -1  11  14   49.50    4.20
  -1 -11 -14    8.40    1.60
  -3 -11 -14    2.60    1.10
  -4 -11 -14   -0.20    0.60
  -5 -11 -14    2.10    1.10
  -2  12  14    1.40    1.30
   0 -12 -14    3.30    1.20
  -1 -12 -14    0.10    0.80
  -2 -12 -14    6.40    1.60
  -3 -12 -14    0.70    0.80
  -4 -12 -14   70.59    4.70
   0 -13 -14    1.40    1.10
  -1 -13 -14   10.60    1.90
  -2 -13 -14    6.50    1.60
   1   4 -15    0.60    0.90
   0   4 -15   -0.20    0.80
  -1   4 -15    0.40    0.90
  -2   4 -15    1.00    1.00
  -3   4 -15    0.30    0.90
   2   3 -15   -0.60    0.90
   1   3 -15   -0.30    0.90
   0   3 -15    0.00    0.80
  -1   3 -15    0.90    1.00
  -2   3 -15   -0.40    0.80
  -3   3 -15    0.60    0.90
  -4   3 -15   -0.20    0.80
  -5   3 -15   -0.50    0.80
   3   2 -15    1.40    1.30
   2   2 -15    0.80    1.00
   1   2 -15   -0.20    0.70
   0   2 -15    0.10    0.80
  -1   2 -15   -0.10    0.70
  -2   2 -15    0.30    0.80
  -3   2 -15    0.40    0.90
  -4   2 -15   -0.40    0.80
  -5   2 -15    1.50    1.10
   3   1 -15    1.30    1.10
   2   1 -15   -0.70    0.90
   1   1 -15   -0.10    0.90
   0   1 -15   -0.30    0.70
  -1   1 -15   -0.20    0.70
  -2   1 -15   -0.20    0.60
  -3   1 -15    0.40    0.70
  -4   1 -15    0.20    0.70
  -5   1 -15    0.20    0.80
  -6   1 -15   -0.20    0.70
  -4   0  15   -0.60    1.00
  -4   0  15    0.00    1.10
   2   0 -15    1.30    1.30
   1   0 -15   -0.20    0.80
   0   0 -15   -0.20    0.80
  -1   0 -15    0.40    0.70
  -2   0 -15    0.20    0.70
  -3   0 -15   -0.50    0.70
  -4   0 -15    0.70    0.70
  -5   0 -15    0.20    0.80
  -6   0 -15   -0.50    0.80
  -4   1  15    0.00    1.00
  -3   1  15    0.30    1.00
   1  -1 -15    0.00    0.70
   0  -1 -15   -0.70    0.70
  -1  -1 -15    0.30    0.70
  -2  -1 -15   -0.10    0.70
  -3  -1 -15   -0.10    0.60
  -4  -1 -15   -0.80    0.40
  -5  -1 -15    0.10    0.70
  -7  -1 -15    0.40    1.20
  -4   2  15    1.00    1.20
  -3   2  15    0.40    1.10
  -2   2  15    1.00    1.10
   0  -2 -15    0.70    0.90
  -1  -2 -15   -0.10    0.60
  -2  -2 -15   -0.30    0.50
  -3  -2 -15    0.00    0.60
  -4  -2 -15    1.30    0.70
  -5  -2 -15   -0.10    0.60
  -6  -2 -15   -0.10    1.00
  -7  -2 -15    0.00    1.00
  -4   3  15    0.40    1.20
  -3   3  15   -0.30    0.90
  -2   3  15   -0.40    0.80
  -1   3  15    0.30    0.80
  -1  -3 -15    0.80    0.70
  -2  -3 -15   -0.50    0.50
  -3  -3 -15   -0.50    0.60
  -4  -3 -15    0.70    0.80
  -6  -3 -15    0.60    1.10
  -7  -3 -15   -0.50    1.10
  -4   4  15    0.20    1.20
  -3   4  15    0.00    1.00
  -2   4  15   -0.50    0.80
  -1   4  15   -0.10    0.70
   0   4  15   -0.30    0.70
  -1  -4 -15    0.30    0.70
  -2  -4 -15    0.40    0.70
  -3  -4 -15   -0.30    0.50
  -4  -4 -15    0.50    0.60
  -5  -4 -15    0.10    0.90
  -6  -4 -15   -0.50    0.80
  -7  -4 -15   -0.30    1.10
  -4   5  15   -0.50    1.20
  -3   5  15    0.50    1.10
  -2   5  15    0.10    0.90
  -1   5  15    0.10    0.90
   0   5  15    0.60    0.90
   1   5  15   -0.10    0.60
  -2  -5 -15    0.60    0.70
  -3  -5 -15   -0.60    0.40
  -5  -5 -15    0.20    1.00
  -6  -5 -15    0.10    0.90
  -7  -5 -15   -0.20    1.10
  -4   6  15    0.00    1.10
  -3   6  15   -1.30    1.00
  -2   6  15   -0.40    0.80
  -1   6  15    1.40    1.20
   0   6  15   -0.40    0.70
   1   6  15   -0.30    0.60
  -2  -6 -15   -0.30    0.60
  -4  -6 -15   -0.60    0.80
  -5  -6 -15   -0.80    0.70
  -6  -6 -15   -0.60    0.80
  -7  -6 -15   -0.20    1.00
  -4   7  15   -0.40    1.00
  -3   7  15    0.20    1.00
  -2   7  15    0.80    1.00
  -1   7  15    0.10    0.80
   0   7  15   -0.50    0.70
   1   7  15   -1.10    0.70
   2   7  15   -0.40    0.70
  -3  -7 -15    0.00    0.70
  -4  -7 -15    0.30    0.70
  -5  -7 -15    0.00    0.90
  -6  -7 -15    0.50    0.90
  -7  -7 -15    0.00    0.90
  -4   8  15   -0.20    1.20
  -3   8  15   -1.60    1.00
  -2   8  15    0.10    1.00
  -1   8  15   -0.50    0.70
   0   8  15    0.60    1.00
   1   8  15   -1.00    0.70
  -3  -8 -15   -0.70    0.50
  -5  -8 -15   -0.60    0.70
  -6  -8 -15   -0.80    0.70
  -3   9  15   -1.00    1.00
  -2   9  15    0.10    1.10
  -1   9  15   -0.60    0.80
   0   9  15    0.20    0.80
  -2  -9 -15   -0.60    0.60
  -3  -9 -15   -0.50    0.70
  -6  -9 -15   -0.20    0.90
  -2  10  15    0.20    1.10
  -1  10  15   -0.20    0.90
  -2 -10 -15    0.20    0.70
  -3 -10 -15    0.70    0.70
  -4 -10 -15   -0.20    0.60
  -1  11  15    0.00    0.90
  -2 -11 -15   -0.30    0.80
  -3 -11 -15   -0.50    0.60
  -4 -11 -15    0.00    0.70
  -1 -12 -15    0.60    0.90
  -2 -12 -15    0.70    0.90
  -3 -12 -15   -0.20    0.70
  -1   3 -16    1.00    1.20
  -2   3 -16   -0.20    0.80
   1   2 -16   51.39    4.10
   0   2 -16    2.00    1.20
  -1   2 -16   10.40    2.00
  -2   2 -16   57.29    4.10
  -3   2 -16    5.30    1.50
  -4   2 -16   19.10    2.60
   2   1 -16    7.80    1.90
   1   1 -16   45.80    3.70
   0   1 -16    5.80    1.70
  -1   1 -16    6.60    1.60
  -2   1 -16   86.99    5.30
  -3   1 -16    2.60    1.20
  -4   1 -16   21.50    2.70
  -5   1 -16   -0.70    0.70
   2   0 -16   26.00    3.40
   1   0 -16   60.69    4.50
   0   0 -16    0.80    0.90
  -1   0 -16   11.60    2.00
  -2   0 -16   72.29    4.70
  -3   0 -16   11.00    1.80
  -4   0 -16   28.00    2.70
  -5   0 -16    2.50    1.20
   2  -1 -16   32.00    3.80
   1  -1 -16   21.90    3.00
   0  -1 -16    5.20    1.50
  -1  -1 -16   10.20    1.90
  -2  -1 -16   23.10    2.40
  -3  -1 -16    9.20    1.80
  -4  -1 -16   11.70    1.90
  -5  -1 -16    0.20    0.90
  -3   2  16   10.00    2.40
  -2   2  16    0.40    1.00
   1  -2 -16   10.10    2.20
   0  -2 -16   10.60    2.10
  -1  -2 -16   10.60    1.90
  -2  -2 -16   23.90    2.40
  -3  -2 -16    8.90    1.70
  -4  -2 -16    6.70    1.40
  -5  -2 -16   10.30    1.80
  -6  -2 -16   30.30    3.70
  -3   3  16   40.30    4.20
  -2   3  16    0.70    1.10
  -1   3  16   13.40    2.40
   0  -3 -16    0.40    1.00
  -1  -3 -16    8.40    1.70
  -2  -3 -16    4.10    1.20
  -3  -3 -16    0.10    0.60
  -4  -3 -16   36.60    2.90
  -6  -3 -16    8.80    2.00
  -3   4  16    0.10    1.20
  -2   4  16    1.90    1.30
  -1   4  16    7.90    2.00
  -1  -4 -16   24.20    2.50
  -2  -4 -16    0.40    0.80
  -3  -4 -16    3.00    1.00
  -5  -4 -16   -0.10    0.80
  -6  -4 -16    5.60    1.80
  -3   5  16   -0.10    1.20
  -2   5  16    1.60    1.20
  -1   5  16   10.10    2.20
   0   5  16   14.40    2.50
  -2  -5 -16   17.00    2.30
  -3  -5 -16    3.40    1.10
  -5  -5 -16   13.20    2.30
  -6  -5 -16   20.80    2.90
  -3   6  16    2.70    1.50
  -2   6  16    6.00    2.00
  -1   6  16    0.00    1.00
   0   6  16   21.60    3.00
   1   6  16   13.30    2.30
  -2  -6 -16    1.10    0.90
  -4  -6 -16   47.00    3.60
  -5  -6 -16   13.90    2.30
  -6  -6 -16    0.80    1.10
  -3   7  16    4.80    1.90
  -2   7  16    6.40    2.00
  -1   7  16    0.20    1.10
   0   7  16   44.40    3.90
   1   7  16    0.50    0.80
  -4  -7 -16   32.50    2.90
  -5  -7 -16    0.00    0.90
  -6  -7 -16   -0.40    0.90
  -2   8  16   33.70    4.30
  -1   8  16    4.60    1.70
   0   8  16   12.60    2.40
   1   8  16    7.50    1.90
  -5  -8 -16    1.00    1.10
  -2   9  16    1.70    1.50
  -1   9  16    6.80    2.00
   0   9  16    0.50    1.10
  -3  -9 -16   11.70    2.40
  -4  -9 -16    3.90    1.30
  -1  10  16    7.30    2.10
  -3 -10 -16    8.40    1.70
  -4 -10 -16    1.20    1.00
  -1   1 -17    1.10    1.00
  -2   1 -17   -0.20    0.80
   0   0 -17    0.20    0.90
  -1   0 -17   -0.30    0.80
  -2   0 -17    0.20    0.90
  -3   0 -17    0.40    0.70
   1  -1 -17   -0.30    0.90
   0  -1 -17    0.30    0.90
  -1  -1 -17   -0.10    0.70
  -2  -1 -17    0.30    0.90
  -3  -1 -17   -0.80    0.80
  -4  -1 -17   -0.30    0.70
   2  -2 -17    0.30    1.40
   1  -2 -17    0.20    0.80
   0  -2 -17   -0.10    0.80
  -1  -2 -17   -0.40    0.60
  -2  -2 -17    0.70    0.90
  -3  -2 -17    0.30    0.80
  -4  -2 -17    1.00    0.80
  -2   3  17    1.20    1.30
   1  -3 -17   -0.60    0.90
   0  -3 -17    0.20    0.80
  -1  -3 -17   -0.10    0.80
  -2  -3 -17   -0.10    0.80
  -3  -3 -17    1.00    0.90
  -4  -3 -17    0.40    0.80
  -2   4  17    0.20    1.20
  -1   4  17   -1.10    0.70
   0  -4 -17   -0.40    0.80
  -1  -4 -17   -0.10    0.80
  -2  -4 -17    0.60    0.90
  -3  -4 -17    0.20    0.80
  -5  -4 -17   -0.50    0.80
  -2   5  17   -1.00    0.90
  -1   5  17   -1.00    1.00
   0   5  17   -0.50    0.80
  -1  -5 -17    0.40    0.80
  -2  -5 -17    0.00    0.70
  -3  -5 -17    0.00    0.70
  -5  -5 -17    0.00    0.90
  -2   6  17   -0.30    1.20
  -1   6  17   -0.20    1.20
   0   6  17   -0.30    0.90
  -2  -6 -17    0.10    0.70
  -5  -6 -17    0.50    1.10
  -1   7  17    0.60    1.20
   0   7  17   -0.60    0.80
   1   7  17   -0.80    0.90
  -4  -7 -17    0.50    1.00
  -1   8  17   -1.40    0.80
   0   8  17   -0.50    0.80
   1   8  17   -0.10    0.90
   0   9  17    0.20    1.00
  -1  -3 -18    4.10    1.40
  -2  -3 -18    8.20    1.70
  -1  -4 -18    4.00    1.50
  -2  -4 -18   14.70    2.20
  -3  -4 -18    1.20    1.00
  -1  -5 -18    0.00    0.90
  -2  -5 -18    3.30    1.20
  -1  -6 -18   -0.10    0.90
  -2  -6 -18    5.00    1.50
   0   0   0    0.00    0.00

_computing_structure_solution     'SHELXT 2014/5 (Sheldrick, 2014)'
;
_shelx_hkl_checksum              65591
loop_
_space_group_symop_operation_xyz
'x, y, z'
'-x, -y, -z'
loop_
_atom_site_label
_atom_site_type_symbol
_atom_site_fract_x
_atom_site_fract_y
_atom_site_fract_z
_atom_site_U_iso_or_equiv
_atom_site_adp_type
_atom_site_occupancy
_atom_site_site_symmetry_order
_atom_site_calc_flag
_atom_site_refinement_flags_posn
_atom_site_refinement_flags_adp
_atom_site_refinement_flags_occupancy
_atom_site_disorder_assembly
_atom_site_disorder_group
O1 O 0.02312(17) 0.28526(16) 0.46273(11) 0.0514(4) Uani 1 1 d . . . . .
O2 O 0.29314(16) 0.35214(14) 0.33028(9) 0.0426(3) Uani 1 1 d . . . . .
N1 N 0.30503(18) 0.00094(15) 0.64789(10) 0.0319(3) Uani 1 1 d . . . . .
C1 C 0.2940(4) 0.5395(3) 0.18096(18) 0.0720(7) Uani 1 1 d . . . . .
H1A H 0.213974 0.622278 0.151057 0.108 Uiso 1 1 calc R U . . .
H1B H 0.354800 0.458629 0.123087 0.108 Uiso 1 1 calc R U . . .
H1C H 0.397681 0.583680 0.202300 0.108 Uiso 1 1 calc R U . . .
C2 C 0.1630(3) 0.4678(2) 0.28415(15) 0.0496(5) Uani 1 1 d . . . . .
H2A H 0.093260 0.549674 0.341189 0.060 Uiso 1 1 calc R U . . .
H2B H 0.063264 0.416255 0.262729 0.060 Uiso 1 1 calc R U . . .
C3 C 0.2016(2) 0.26758(18) 0.42067(12) 0.0331(4) Uani 1 1 d . . . . .
C4 C 0.3522(2) 0.15220(17) 0.46035(12) 0.0301(3) Uani 1 1 d . . . . .
C5 C 0.4799(2) 0.02059(17) 0.36868(12) 0.0301(3) Uani 1 1 d . . . . .
H5 H 0.445168 0.032310 0.295651 0.036 Uiso 1 1 calc R U . . .
C6 C 0.3727(2) -0.10906(17) 0.44699(11) 0.0308(3) Uani 1 1 d . . . . .
H6 H 0.282916 -0.155574 0.412076 0.037 Uiso 1 1 calc R U . . .
C7 C 0.2545(2) 0.01883(17) 0.53912(11) 0.0299(3) Uani 1 1 d . . . . .
H7 H 0.108634 0.029251 0.550152 0.036 Uiso 1 1 calc R U . . .
C8 C 0.4892(2) 0.23705(17) 0.51030(12) 0.0324(4) Uani 1 1 d . . . . .
H8 H 0.574127 0.293154 0.447073 0.039 Uiso 1 1 calc R U . . .
C9 C 0.3729(3) 0.3600(2) 0.60231(15) 0.0441(4) Uani 1 1 d . . . . .
H9A H 0.465995 0.411599 0.628355 0.066 Uiso 1 1 calc R U . . .
H9B H 0.289547 0.307984 0.666011 0.066 Uiso 1 1 calc R U . . .
H9C H 0.289531 0.437944 0.570672 0.066 Uiso 1 1 calc R U . . .
C10 C 0.1737(2) -0.06464(17) 0.74303(11) 0.0317(3) Uani 1 1 d . . . . .
C11 C 0.2414(3) -0.1815(2) 0.81168(14) 0.0447(4) Uani 1 1 d . . . . .
H11 H 0.377096 -0.224097 0.792268 0.054 Uiso 1 1 calc R U . . .
C12 C 0.1075(3) -0.2351(2) 0.90925(15) 0.0525(5) Uani 1 1 d . . . . .
H12 H 0.157013 -0.312215 0.954479 0.063 Uiso 1 1 calc R U . . .
C13 C -0.0947(3) -0.1789(2) 0.94147(14) 0.0496(5) Uani 1 1 d . . . . .
C14 C -0.1624(3) -0.0653(3) 0.87170(15) 0.0527(5) Uani 1 1 d . . . . .
H14 H -0.299115 -0.026280 0.890073 0.063 Uiso 1 1 calc R U . . .
C15 C -0.0313(2) -0.0079(2) 0.77470(14) 0.0438(4) Uani 1 1 d . . . . .
H15 H -0.081587 0.069837 0.730201 0.053 Uiso 1 1 calc R U . . .
C16 C -0.2368(4) -0.2359(3) 1.05037(17) 0.0748(7) Uani 1 1 d . . . . .
H16A H -0.372670 -0.215889 1.045017 0.112 Uiso 1 1 calc R U . . .
H16B H -0.227379 -0.179727 1.115682 0.112 Uiso 1 1 calc R U . . .
H16C H -0.200175 -0.348247 1.059279 0.112 Uiso 1 1 calc R U . . .
loop_
_atom_site_aniso_label
_atom_site_aniso_U_11
_atom_site_aniso_U_22
_atom_site_aniso_U_33
_atom_site_aniso_U_23
_atom_site_aniso_U_13
_atom_site_aniso_U_12
O1 0.0267(6) 0.0608(8) 0.0638(8) 0.0214(6) -0.0102(5) -0.0066(5)
O2 0.0319(6) 0.0508(7) 0.0424(6) 0.0224(5) -0.0105(5) -0.0023(5)
N1 0.0259(6) 0.0429(7) 0.0304(6) 0.0132(5) -0.0111(5) -0.0122(5)
C1 0.0839(17) 0.0777(15) 0.0552(12) 0.0348(11) -0.0262(11) -0.0095(12)
C2 0.0497(11) 0.0531(11) 0.0476(10) 0.0174(8) -0.0224(8) 0.0015(8)
C3 0.0304(8) 0.0369(8) 0.0352(8) 0.0078(6) -0.0133(6) -0.0090(6)
C4 0.0260(7) 0.0353(8) 0.0324(7) 0.0105(6) -0.0123(5) -0.0098(6)
C5 0.0262(7) 0.0382(8) 0.0305(7) 0.0094(6) -0.0134(5) -0.0109(6)
C6 0.0282(7) 0.0363(8) 0.0343(7) 0.0085(6) -0.0151(6) -0.0145(6)
C7 0.0236(7) 0.0380(8) 0.0323(7) 0.0115(6) -0.0124(5) -0.0115(6)
C8 0.0314(8) 0.0342(8) 0.0366(7) 0.0098(6) -0.0147(6) -0.0134(6)
C9 0.0477(10) 0.0407(9) 0.0480(9) 0.0022(7) -0.0183(7) -0.0105(7)
C10 0.0299(8) 0.0382(8) 0.0279(7) 0.0056(6) -0.0072(5) -0.0112(6)
C11 0.0387(9) 0.0524(10) 0.0396(9) 0.0147(7) -0.0081(7) -0.0046(7)
C12 0.0577(12) 0.0594(11) 0.0380(9) 0.0204(8) -0.0101(8) -0.0124(9)
C13 0.0515(11) 0.0632(12) 0.0327(8) 0.0050(7) -0.0020(7) -0.0247(9)
C14 0.0341(9) 0.0762(13) 0.0433(9) 0.0023(9) -0.0020(7) -0.0118(9)
C15 0.0338(9) 0.0555(10) 0.0400(8) 0.0094(7) -0.0086(7) -0.0052(7)
C16 0.0787(16) 0.0929(17) 0.0436(10) 0.0089(10) 0.0082(10) -0.0365(13)
loop_
_atom_type_symbol
_atom_type_description
_atom_type_scat_dispersion_real
_atom_type_scat_dispersion_imag
_atom_type_scat_source
C C 0.0033 0.0016 'International Tables Vol C Tables 4.2.6.8 and 6.1.1.4'
H H 0.0000 0.0000 'International Tables Vol C Tables 4.2.6.8 and 6.1.1.4'
Cl Cl 0.1484 0.1585 'International Tables Vol C Tables 4.2.6.8 and 6.1.1.4'
N N 0.0061 0.0033 'International Tables Vol C Tables 4.2.6.8 and 6.1.1.4'
O O 0.0106 0.0060 'International Tables Vol C Tables 4.2.6.8 and 6.1.1.4'
loop_
_geom_angle_atom_site_label_1
_geom_angle_atom_site_label_2
_geom_angle_atom_site_label_3
_geom_angle
_geom_angle_site_symmetry_1
_geom_angle_site_symmetry_3
C3 O2 C2 116.29(13) . .
C10 N1 C5 121.52(11) . 2_656
C10 N1 C7 119.59(12) . .
C5 N1 C7 112.03(11) 2_656 .
C2 C1 H1A 109.5 . .
C2 C1 H1B 109.5 . .
H1A C1 H1B 109.5 . .
C2 C1 H1C 109.5 . .
H1A C1 H1C 109.5 . .
H1B C1 H1C 109.5 . .
O2 C2 C1 107.11(15) . .
O2 C2 H2A 110.3 . .
C1 C2 H2A 110.3 . .
O2 C2 H2B 110.3 . .
C1 C2 H2B 110.3 . .
H2A C2 H2B 108.5 . .
O1 C3 O2 123.03(14) . .
O1 C3 C4 125.81(14) . .
O2 C3 C4 111.16(13) . .
C3 C4 C8 112.26(13) . .
C3 C4 C7 112.93(12) . .
C8 C4 C7 113.94(11) . .
C3 C4 C5 115.14(12) . .
C8 C4 C5 111.26(12) . .
C7 C4 C5 89.50(12) . .
N1 C5 C6 113.06(11) 2_656 .
N1 C5 C4 115.71(11) 2_656 .
C6 C5 C4 89.23(11) . .
N1 C5 H5 112.3 2_656 .
C6 C5 H5 112.3 . .
C4 C5 H5 112.3 . .
C8 C6 C7 113.83(12) 2_656 .
C8 C6 C5 115.46(12) 2_656 .
C7 C6 C5 90.76(11) . .
C8 C6 H6 111.7 2_656 .
C7 C6 H6 111.7 . .
C5 C6 H6 111.7 . .
N1 C7 C6 114.42(12) . .
N1 C7 C4 114.16(11) . .
C6 C7 C4 90.42(11) . .
N1 C7 H7 112.1 . .
C6 C7 H7 112.1 . .
C4 C7 H7 112.1 . .
C9 C8 C6 112.99(13) . 2_656
C9 C8 C4 113.17(13) . .
C6 C8 C4 107.54(12) 2_656 .
C9 C8 H8 107.6 . .
C6 C8 H8 107.6 2_656 .
C4 C8 H8 107.6 . .
C8 C9 H9A 109.5 . .
C8 C9 H9B 109.5 . .
H9A C9 H9B 109.5 . .
C8 C9 H9C 109.5 . .
H9A C9 H9C 109.5 . .
H9B C9 H9C 109.5 . .
C11 C10 C15 117.32(14) . .
C11 C10 N1 122.50(14) . .
C15 C10 N1 120.12(14) . .
C10 C11 C12 120.37(16) . .
C10 C11 H11 119.8 . .
C12 C11 H11 119.8 . .
C13 C12 C11 122.61(16) . .
C13 C12 H12 118.7 . .
C11 C12 H12 118.7 . .
C12 C13 C14 116.90(15) . .
C12 C13 C16 121.57(18) . .
C14 C13 C16 121.52(18) . .
C13 C14 C15 121.65(17) . .
C13 C14 H14 119.2 . .
C15 C14 H14 119.2 . .
C14 C15 C10 121.12(16) . .
C14 C15 H15 119.4 . .
C10 C15 H15 119.4 . .
C13 C16 H16A 109.5 . .
C13 C16 H16B 109.5 . .
H16A C16 H16B 109.5 . .
C13 C16 H16C 109.5 . .
H16A C16 H16C 109.5 . .
H16B C16 H16C 109.5 . .
loop_
_geom_bond_atom_site_label_1
_geom_bond_atom_site_label_2
_geom_bond_distance
_geom_bond_site_symmetry_2
O1 C3 1.194(2) .
O2 C3 1.3410(18) .
O2 C2 1.4473(19) .
N1 C10 1.4060(18) .
N1 C5 1.443(2) 2_656
N1 C7 1.4557(18) .
C1 C2 1.491(3) .
C1 H1A 0.9600 .
C1 H1B 0.9600 .
C1 H1C 0.9600 .
C2 H2A 0.9700 .
C2 H2B 0.9700 .
C3 C4 1.502(2) .
C4 C8 1.534(2) .
C4 C7 1.5580(19) .
C4 C5 1.584(2) .
C5 C6 1.5570(19) .
C5 H5 0.9800 .
C6 C8 1.523(2) 2_656
C6 C7 1.551(2) .
C6 H6 0.9800 .
C7 H7 0.9800 .
C8 C9 1.520(2) .
C8 H8 0.9800 .
C9 H9A 0.9600 .
C9 H9B 0.9600 .
C9 H9C 0.9600 .
C10 C11 1.389(2) .
C10 C15 1.389(2) .
C11 C12 1.390(2) .
C11 H11 0.9300 .
C12 C13 1.371(3) .
C12 H12 0.9300 .
C13 C14 1.380(3) .
C13 C16 1.518(2) .
C14 C15 1.389(2) .
C14 H14 0.9300 .
C15 H15 0.9300 .
C16 H16A 0.9600 .
C16 H16B 0.9600 .
C16 H16C 0.9600 .
loop_
_geom_torsion_atom_site_label_1
_geom_torsion_atom_site_label_2
_geom_torsion_atom_site_label_3
_geom_torsion_atom_site_label_4
_geom_torsion
_geom_torsion_site_symmetry_1
_geom_torsion_site_symmetry_2
_geom_torsion_site_symmetry_3
_geom_torsion_site_symmetry_4
C3 O2 C2 C1 -176.48(15) . . . .
C2 O2 C3 O1 -0.5(2) . . . .
C2 O2 C3 C4 180.00(13) . . . .
O1 C3 C4 C8 -113.03(18) . . . .
O2 C3 C4 C8 66.48(16) . . . .
O1 C3 C4 C7 17.5(2) . . . .
O2 C3 C4 C7 -163.03(12) . . . .
O1 C3 C4 C5 118.29(17) . . . .
O2 C3 C4 C5 -62.19(16) . . . .
C3 C4 C5 N1 131.66(13) . . . 2_656
C8 C4 C5 N1 2.49(16) . . . 2_656
C7 C4 C5 N1 -113.10(12) . . . 2_656
C3 C4 C5 C6 -112.98(12) . . . .
C8 C4 C5 C6 117.85(12) . . . .
C7 C4 C5 C6 2.26(9) . . . .
N1 C5 C6 C8 -1.50(16) 2_656 . . 2_656
C4 C5 C6 C8 -119.26(12) . . . 2_656
N1 C5 C6 C7 115.50(12) 2_656 . . .
C4 C5 C6 C7 -2.27(9) . . . .
C10 N1 C7 C6 -102.69(15) . . . .
C5 N1 C7 C6 48.77(15) 2_656 . . .
C10 N1 C7 C4 155.05(12) . . . .
C5 N1 C7 C4 -53.49(16) 2_656 . . .
C8 C6 C7 N1 3.81(16) 2_656 . . .
C5 C6 C7 N1 -114.61(12) . . . .
C8 C6 C7 C4 120.73(12) 2_656 . . .
C5 C6 C7 C4 2.31(9) . . . .
C3 C4 C7 N1 -127.89(13) . . . .
C8 C4 C7 N1 1.74(17) . . . .
C5 C4 C7 N1 114.88(13) . . . .
C3 C4 C7 C6 114.96(12) . . . .
C8 C4 C7 C6 -115.40(13) . . . .
C5 C4 C7 C6 -2.27(9) . . . .
C3 C4 C8 C9 51.63(17) . . . .
C7 C4 C8 C9 -78.33(16) . . . .
C5 C4 C8 C9 -177.69(11) . . . .
C3 C4 C8 C6 177.13(11) . . . 2_656
C7 C4 C8 C6 47.17(16) . . . 2_656
C5 C4 C8 C6 -52.19(15) . . . 2_656
C5 N1 C10 C11 -14.8(2) 2_656 . . .
C7 N1 C10 C11 133.87(16) . . . .
C5 N1 C10 C15 162.27(14) 2_656 . . .
C7 N1 C10 C15 -49.0(2) . . . .
C15 C10 C11 C12 -1.4(3) . . . .
N1 C10 C11 C12 175.74(15) . . . .
C10 C11 C12 C13 1.0(3) . . . .
C11 C12 C13 C14 0.4(3) . . . .
C11 C12 C13 C16 -178.19(18) . . . .
C12 C13 C14 C15 -1.4(3) . . . .
C16 C13 C14 C15 177.19(18) . . . .
C13 C14 C15 C10 1.0(3) . . . .
C11 C10 C15 C14 0.5(3) . . . .
N1 C10 C15 C14 -176.78(15) . . . .
