#------------------------------------------------------------------------------
#$Date: 2022-04-01 12:06:29 +0300 (Fri, 01 Apr 2022) $
#$Revision: 274209 $
#$URL: file:///home/coder/svn-repositories/cod/cif/8/10/49/8104996.cif $
#------------------------------------------------------------------------------
#
# This file is available in the Crystallography Open Database (COD),
# http://www.crystallography.net/
#
# All data on this site have been placed in the public domain by the
# contributors.
#
data_8104996
loop_
_publ_author_name
'Chang, Xin-Hong'
_publ_section_title
;
 The crystal structure of poly[(m4-4-bromoisophthalato-\k4O:
 O&#x2032;:O&#x2032;&#x2032;:O&#x2032;&#x2032;&#x2032;)zinc(II)],
 C8H3BrO4Zn
;
_journal_issue                   1
_journal_name_full
'Zeitschrift f\"ur Kristallographie - New Crystal Structures'
_journal_page_first              3
_journal_page_last               4
_journal_paper_doi               10.1515/ncrs-2019-0397
_journal_volume                  235
_journal_year                    2019
_chemical_formula_moiety         'C8 H3 Br O4 Zn'
_chemical_formula_sum            'C8 H3 Br O4 Zn'
_chemical_formula_weight         308.41
_space_group_crystal_system      monoclinic
_space_group_IT_number           14
_space_group_name_Hall           '-P 2ybc'
_space_group_name_H-M_alt        'P 1 21/c 1'
_symmetry_Int_Tables_number      14
_atom_sites_solution_primary     dual
_cell_angle_alpha                90
_cell_angle_beta                 98.942(8)
_cell_angle_gamma                90
_cell_formula_units_Z            4
_cell_length_a                   4.7134(4)
_cell_length_b                   15.4354(13)
_cell_length_c                   12.0064(9)
_cell_measurement_reflns_used    1718
_cell_measurement_temperature    292.67(10)
_cell_measurement_theta_max      27.4140
_cell_measurement_theta_min      4.3110
_cell_volume                     862.89(12)
_computing_cell_refinement       'CrysAlisPro 1.171.39.46 (Rigaku OD, 2018)'
_computing_data_collection       'CrysAlisPro 1.171.39.46 (Rigaku OD, 2018)'
_computing_data_reduction        'CrysAlisPro 1.171.39.46 (Rigaku OD, 2018)'
_computing_molecular_graphics    'Olex2 (Dolomanov et al., 2009)'
_computing_publication_material  'Olex2 (Dolomanov et al., 2009)'
_computing_structure_refinement  'olex2.refine (Bourhis et al., 2015)'
_computing_structure_solution    'ShelXT (Sheldrick, 2015)'
_diffrn_ambient_environment      air
_diffrn_ambient_temperature      292.67(10)
_diffrn_detector                 'CCD plate'
_diffrn_detector_area_resol_mean 8.0584
_diffrn_detector_type            EosS2
_diffrn_measured_fraction_theta_full 0.9983
_diffrn_measured_fraction_theta_max 0.9983
_diffrn_measurement_details
;
List of Runs (angles in degrees, time in seconds):

  # Type    Start    End  Width  t~exp~   \w     \q     \k     \f   Frames
--------------------------------------------------------------------------
  1  \w    -74.00  45.00   1.00    4.58    --  -16.00   0.00-150.00  119
  2  \w    -88.00 -63.00   1.00    4.58    --  -16.00-178.00  30.00   25
  3  \w     -1.00  56.00   1.00    4.58    --   16.93 -99.00-150.00   57
;
_diffrn_measurement_device       'four-circle diffractometer'
_diffrn_measurement_device_type
'SuperNova, Single source at offset/far, EosS2'
_diffrn_measurement_method       '\w scans'
_diffrn_orient_matrix_type
'CrysAlisPro convention (1999,Acta A55,543-557)'
_diffrn_orient_matrix_UB_11      0.0475689000
_diffrn_orient_matrix_UB_12      -0.0429211000
_diffrn_orient_matrix_UB_13      -0.0076039000
_diffrn_orient_matrix_UB_21      0.1374984000
_diffrn_orient_matrix_UB_22      0.0107607000
_diffrn_orient_matrix_UB_23      0.0296976000
_diffrn_orient_matrix_UB_31      -0.0448786000
_diffrn_orient_matrix_UB_32      -0.0125370000
_diffrn_orient_matrix_UB_33      0.0513312000
_diffrn_radiation_monochromator  mirror
_diffrn_radiation_probe          x-ray
_diffrn_radiation_type           'Mo K\a'
_diffrn_radiation_wavelength     0.71073
_diffrn_reflns_av_R_equivalents  0.0321
_diffrn_reflns_av_unetI/netI     0.0545
_diffrn_reflns_limit_h_max       5
_diffrn_reflns_limit_h_min       -5
_diffrn_reflns_limit_k_max       19
_diffrn_reflns_limit_k_min       -8
_diffrn_reflns_limit_l_max       15
_diffrn_reflns_limit_l_min       -10
_diffrn_reflns_number            3504
_diffrn_reflns_theta_full        26.3639
_diffrn_reflns_theta_max         26.36
_diffrn_reflns_theta_min         3.44
_diffrn_source                   'micro-focus sealed X-ray tube'
_diffrn_source_type              'SuperNova (Mo) X-ray Source'
_exptl_absorpt_coefficient_mu    7.456
_exptl_absorpt_correction_T_max  1.00000
_exptl_absorpt_correction_T_min  0.41277
_exptl_absorpt_correction_type   multi-scan
_exptl_absorpt_process_details
;
CrysAlisPro 1.171.39.46 (Rigaku Oxford Diffraction, 2018)
Empirical absorption correction using spherical harmonics,
 implemented in SCALE3 ABSPACK scaling algorithm.
;
_exptl_crystal_colour            'clear light colourless'
_exptl_crystal_colour_lustre     clear
_exptl_crystal_colour_modifier   light
_exptl_crystal_colour_primary    colourless
_exptl_crystal_density_diffrn    2.3738
_exptl_crystal_description       plate
_exptl_crystal_F_000             592.5123
_exptl_crystal_size_max          0.28
_exptl_crystal_size_mid          0.28
_exptl_crystal_size_min          0.012
_refine_diff_density_max         0.9929
_refine_diff_density_min         -1.3800
_refine_diff_density_rms         0.1945
_refine_ls_d_res_high            0.8002
_refine_ls_d_res_low             5.9302
_refine_ls_goodness_of_fit_ref   1.0371
_refine_ls_hydrogen_treatment    constr
_refine_ls_matrix_type           full
_refine_ls_number_constraints    6
_refine_ls_number_parameters     127
_refine_ls_number_reflns         1754
_refine_ls_number_restraints     0
_refine_ls_restrained_S_all      1.0371
_refine_ls_R_factor_all          0.0544
_refine_ls_R_factor_gt           0.0445
_refine_ls_shift/su_max          0.0008
_refine_ls_shift/su_mean         0.0001
_refine_ls_structure_factor_coef Fsqd
_refine_ls_weighting_details
'w=1/[\s^2^(Fo^2^)+(0.0571P)^2^+1.5821P] where P=(Fo^2^+2Fc^2^)/3'
_refine_ls_weighting_scheme      calc
_refine_ls_wR_factor_gt          0.1113
_refine_ls_wR_factor_ref         0.1193
_reflns_Friedel_coverage         0.0
_reflns_limit_h_max              5
_reflns_limit_h_min              -5
_reflns_limit_k_max              19
_reflns_limit_k_min              0
_reflns_limit_l_max              14
_reflns_limit_l_min              0
_reflns_number_gt                1491
_reflns_number_total             1754
_reflns_threshold_expression     I>=2u(I)
_iucr_refine_instructions_details
;
TITL xm-24_a.res in P2(1)/c
REM Old TITL XM-24 in P2(1)/c
REM SHELXT solution in P2(1)/c
REM R1 0.149, Rweak 0.205, Alpha 0.030, Orientation as input
REM Formula found by SHELXT: C8 O4 Zn2
CELL 0.71073 4.7134 15.4354 12.0064 90 98.942 90
ZERR 4 0.0004 0.0013 0.0009 0 0.008 0
LATT 1
SYMM -X,0.5+Y,0.5-Z
SFAC C H Br O Zn
UNIT 32 12 4 16 4

L.S. 10
PLAN  20
SIZE 0.28 0.28 0.012
BOND $H
FMAP 2
list 4
ACTA 
WGHT 0.05711 1.582062
FVAR 0.526647
REM <olex2.extras>
REM <HklSrc "%.\\XM-24.hkl">
REM </olex2.extras>

Br1   3     0.27909  0.69278  0.36560  11.00000  0.06870  0.03865  0.03251 =
 0.00689 -0.01781  0.00354 
Zn1   5     1.20838  0.60376  1.02274  11.00000  0.01284  0.01529  0.02105 =
 0.00124 -0.00208 -0.00103 
O1    4     1.02998  0.57674  0.87251  11.00000  0.01908  0.03575  0.01582 =
 -0.00080 -0.00229 -0.00179 
O2    4     0.66838  0.48229  0.86463  11.00000  0.02683  0.02440  0.02683 =
 0.00737 -0.00543 -0.00380 
O3    4     1.01445  0.79974  0.58487  11.00000  0.00933  0.02566  0.03803 =
 0.01033 -0.00149 -0.00408 
O4    4     0.58669  0.84740  0.50920  11.00000  0.01427  0.02339  0.04302 =
 0.01496  0.00773  0.00969 
C1    1     0.64981  0.58601  0.72022  11.00000  0.01515  0.01769  0.02223 =
 0.00157 -0.00016  0.00099 
C2    1     0.75334  0.66449  0.68486  11.00000  0.01437  0.02037  0.02240 =
 0.00123 -0.00154  0.00108 
AFIX 43
H2    2     0.90631  0.69158  0.72979  11.00000 -1.20000 
AFIX 0
C3    1     0.63305  0.70274  0.58438  11.00000  0.01037  0.01922  0.01918 =
 0.00072  0.00194 -0.00089 
C4    1     0.41809  0.65796  0.51601  11.00000  0.02514  0.01880  0.01790 =
 0.00277 -0.00588  0.00307 
C5    1     0.31113  0.58083  0.55051  11.00000  0.02723  0.02201  0.03014 =
 -0.00202 -0.01709 -0.00748 
AFIX 43
H5    2     0.16333  0.55272  0.50397  11.00000 -1.20000 
AFIX 0
C6    1     0.42212  0.54514  0.65368  11.00000  0.03071  0.02073  0.02489 =
 0.00391 -0.00129 -0.00570 
AFIX 43
H6    2     0.34509  0.49439  0.67813  11.00000 -1.20000 
AFIX 0
C7    1     0.79104  0.54511  0.82761  11.00000  0.01540  0.02295  0.02083 =
 -0.00147  0.00075  0.00286 
C8    1     0.74548  0.78968  0.55621  11.00000  0.02033  0.01907  0.01711 =
 -0.00166  0.00761  0.00134 
HKLF 4

END
Q1 1 0.266667 0.46 0.675 11 0.05 0.99
Q2 1 0.2 0.64 0.4 11 0.05 0.73

  REM The information below was added by Olex2.
  REM
  REM R1 = 0.0445 for 1491 Fo > 4sig(Fo) and 0.0544 for all 1754 data
  REM 127 parameters refined using 0 restraints
  REM Highest difference peak 0.9929, deepest hole -1.3800
  REM Mean Shift 0.0001, Max Shift 0.0008.

  REM +++ Tabular Listing of Refinement Information +++
  REM R1_all = 0.0544
  REM R1_gt = 0.0445
  REM wR_ref = 0.1193
  REM GOOF = 1.0371
  REM Shift_max = 0.0008
  REM Shift_mean = 0.0001
  REM Reflections_all = 1754
  REM Reflections_gt = 1491
  REM Parameters = 127
  REM Hole = -1.3800
  REM Peak = 0.9929
  REM Flack = n/a

  
;
_cod_data_source_file            suppl_ncrs-2019-0397_suppl.cif
_cod_data_source_block           1
_cod_database_code               8104996
_chemical_oxdiff_formula         C1H1N1O1Zn1
_reflns_odcompleteness_completeness 99.73
_reflns_odcompleteness_iscentric 1
_reflns_odcompleteness_theta     26.32
_olex2_refinement_description
;
1. Fixed Uiso
 At 1.2 times of:
  All C(H) groups
2.a Aromatic/amide H refined with riding coordinates:
 C5(H5), C6(H6), C2(H2)
;
_iucr_refine_fcf_details
;
data_XM-24
_computing_structure_refinement   'olex2.refine (Bourhis et al., 2015)'
_shelx_refln_list_code            4
loop_
  _space_group_symop_id
  _space_group_symop_operation_xyz
  1  x,y,z
  2  -x,y+1/2,-z+1/2
  3  -x,-y,-z
  4  x,-y-1/2,z-1/2

_space_group_crystal_system       monoclinic
_space_group_IT_number            14
_space_group_name_H-M_alt         'P 1 21/c 1'
_space_group_name_Hall            '-P 2ybc'
_symmetry_space_group_name_H-M    'P 1 21/c 1'
_symmetry_space_group_name_Hall   '-P 2ybc'
_symmetry_Int_Tables_number       14
_cell_length_a                    4.7134(4)
_cell_length_b                    15.4354(13)
_cell_length_c                    12.0064(9)
_cell_angle_alpha                 90
_cell_angle_beta                  98.942(8)
_cell_angle_gamma                 90
_cell_volume                      862.89(12)
loop_
  _refln_index_h
  _refln_index_k
  _refln_index_l
  _refln_F_squared_calc
  _refln_F_squared_meas
  _refln_F_squared_sigma
  _refln_F_squared_weight
  _refln_observed_status
-5 0 2 1442.820 1395.060 126.227 2.753 o
-5 0 4 2153.440 2219.600 170.142 1.429 o
-5 0 6 1606.940 1503.440 147.716 2.112 o
-5 0 8 36.228 113.428 42.869 35.084 o
-5 1 1 1252.500 1170.130 82.696 5.000 o
-5 1 2 263.385 260.506 31.302 42.205 o
-5 1 3 753.192 684.351 64.067 9.766 o
-5 1 4 563.859 435.187 52.262 15.393 o
-5 1 5 759.136 721.147 71.615 8.411 o
-5 1 6 215.878 172.895 34.079 42.385 o
-5 1 7 633.641 651.356 71.184 9.221 o
-5 1 8 19.650 17.966 17.595 200.477 o
-5 1 9 31.454 17.556 13.369 305.818 o
-5 2 1 41.395 29.904 11.939 330.912 o
-5 2 2 3.871 18.602 9.681 633.713 o
-5 2 3 55.731 41.339 14.142 236.485 o
-5 2 4 28.241 66.914 17.680 178.383 o
-5 2 5 912.819 794.386 75.456 7.148 o
-5 2 6 546.678 532.052 63.673 11.647 o
-5 2 7 458.065 435.264 59.658 13.855 o
-5 2 8 153.385 54.652 64.412 15.582 o
-5 2 9 442.860 445.902 64.418 12.440 o
-5 3 1 1395.170 1347.680 88.519 4.213 o
-5 3 2 94.743 128.796 30.024 61.804 o
-5 3 3 116.959 165.630 34.742 46.324 o
-5 3 4 14.862 26.142 27.401 87.473 o
-5 3 5 57.724 41.246 24.012 102.308 o
-5 3 6 473.209 468.674 83.791 8.048 o
-5 3 7 195.356 229.488 57.219 18.274 o
-5 3 8 441.031 338.084 77.445 9.519 o
-5 3 9 169.235 191.234 60.608 16.860 o
-5 4 1 266.870 216.233 35.703 36.475 o
-5 4 2 1447.260 1415.140 93.817 3.839 o
-5 4 3 8.963 23.397 9.562 600.427 o
-5 4 4 1229.530 1255.970 90.467 4.513 o
-5 4 5 393.560 337.740 47.288 20.790 o
-5 4 6 948.761 993.017 122.297 3.504 o
-5 4 7 13.738 61.726 28.483 79.370 o
-5 4 8 582.125 685.363 108.128 4.915 o
-5 4 9 173.366 308.628 74.705 11.239 o
-5 5 1 710.627 668.757 65.975 9.712 o
-5 5 2 22.213 30.847 12.511 344.750 o
-5 5 3 2327.110 2451.170 126.810 1.793 o
-5 5 4 6.175 29.360 14.793 283.106 o
-5 5 5 1756.380 1748.420 118.800 2.539 o
-5 5 6 51.562 60.247 28.375 75.868 o
-5 5 7 589.587 611.992 101.386 5.519 o
-5 5 8 78.799 133.402 49.467 25.979 o
-5 6 1 0.133 -2.587 12.908 409.930 o
-5 6 2 447.539 443.014 54.927 15.637 o
-5 6 3 233.061 227.829 38.603 33.661 o
-5 6 4 3.856 11.610 27.456 89.454 o
-5 6 5 14.408 68.174 24.935 101.073 o
-5 6 6 491.356 562.993 95.833 6.291 o
-5 6 7 316.681 277.477 71.388 11.630 o
-5 6 8 198.629 269.220 72.939 11.720 o
-5 7 1 59.786 52.817 21.071 125.266 o
-5 7 2 15.553 33.195 16.226 228.849 o
-5 7 3 6.875 16.442 10.265 562.008 o
-5 7 4 3.943 18.647 12.879 379.489 o
-5 7 5 40.670 93.129 43.554 34.178 o
-5 7 6 285.346 378.466 77.085 10.098 o
-5 7 7 15.064 -6.057 15.251 274.723 o
-5 8 1 8.478 14.533 14.774 290.572 o
-5 8 2 423.641 449.539 59.062 14.295 o
-5 8 3 5.428 -1.472 8.657 846.852 o
-5 8 4 255.809 221.144 40.618 30.641 o
-5 8 5 150.667 154.025 55.524 20.115 o
-5 8 6 137.943 178.254 54.947 20.506 o
-5 9 1 487.307 456.026 59.869 13.454 o
-5 9 2 204.441 235.390 50.422 22.540 o
-5 9 3 838.015 831.064 83.022 6.514 o
-5 9 4 108.257 125.629 32.666 52.990 o
-5 9 5 497.044 633.985 109.354 4.961 o
-5 10 1 15.956 -5.516 18.460 190.951 o
-5 10 2 744.744 757.792 78.138 7.494 o
-5 10 3 12.191 24.264 14.706 281.550 o
-4 0 2 164.732 237.030 35.475 40.844 o
-4 0 4 270.056 228.118 49.287 22.425 o
-4 0 6 5.226 31.836 17.595 205.565 o
-4 0 8 1031.670 1148.200 135.421 2.876 o
-4 0 10 1544.450 1565.200 171.007 1.728 o
-4 0 12 728.637 408.932 93.526 6.218 o
-4 1 1 697.717 704.401 47.492 13.779 o
-4 1 2 192.336 197.222 26.651 59.969 o
-4 1 3 26.053 25.706 7.860 650.958 o
-4 1 4 2908.940 3130.740 136.272 1.307 o
-4 1 5 180.800 248.668 42.826 29.838 o
-4 1 6 1346.060 1340.190 96.261 3.955 o
-4 1 7 750.859 729.195 73.604 8.140 o
-4 1 8 37.608 42.064 23.992 106.394 o
-4 1 9 133.215 88.166 31.908 54.653 o
-4 1 10 1.012 29.088 16.360 240.337 o
-4 1 11 337.663 247.205 46.771 22.919 o
-4 1 12 85.427 110.798 33.958 51.378 o
-4 2 1 2630.120 2839.100 117.408 1.634 o
-4 2 2 223.409 254.170 34.533 39.278 o
-4 2 3 3190.930 3200.650 109.563 1.358 o
-4 2 4 270.189 277.638 32.340 39.746 o
-4 2 5 1529.530 1522.710 100.564 3.394 o
-4 2 6 119.528 97.869 20.335 108.101 o
-4 2 7 530.864 663.279 131.762 3.533 o
-4 2 8 8.449 -7.912 23.381 123.005 o
-4 2 9 306.752 360.943 66.413 12.974 o
-4 2 10 69.674 111.242 32.038 57.862 o
-4 2 11 16.611 -21.308 24.100 114.164 o
-4 2 12 5.272 13.995 9.375 676.446 o
-4 3 1 225.525 248.405 53.253 20.211 o
-4 3 2 1254.710 1194.700 77.919 5.259 o
-4 3 3 794.331 865.668 67.078 8.569 o
-4 3 4 1981.600 1977.090 87.947 2.890 o
-4 3 5 306.888 352.934 37.532 30.285 o
-4 3 6 886.395 904.986 83.434 6.230 o
-4 3 7 649.818 701.813 75.764 8.288 o
-4 3 8 1015.900 1127.020 97.383 4.629 o
-4 3 9 47.048 21.926 29.114 74.811 o
-4 3 10 280.357 285.272 53.359 19.240 o
-4 3 11 12.197 -25.176 16.991 226.499 o
-4 3 12 160.227 95.142 27.819 64.751 o
-4 4 1 6.877 30.395 13.648 325.113 o
-4 4 2 4.883 0.539 4.086 3083.880 o
-4 4 3 769.609 745.038 63.229 9.636 o
-4 4 4 133.180 161.054 31.042 54.456 o
-4 4 5 1408.590 1463.700 87.353 4.135 o
-4 4 6 74.983 128.657 50.657 24.936 o
-4 4 7 250.457 258.908 67.206 13.334 o
-4 4 8 240.011 297.595 69.910 12.391 o
-4 4 9 111.251 143.750 55.380 20.659 o
-4 4 10 621.484 721.273 117.033 4.237 o
-4 4 11 515.531 715.540 123.379 3.963 o
-4 4 12 338.791 457.137 101.277 6.037 o
-4 5 1 3.316 9.932 7.914 956.469 o
-4 5 2 143.895 204.329 33.395 46.738 o
-4 5 3 1679.360 1740.510 99.712 3.099 o
-4 5 4 140.916 155.924 32.452 50.505 o
-4 5 5 123.019 127.197 26.478 72.075 o
-4 5 6 1.954 13.748 13.080 378.657 o
-4 5 7 104.432 116.601 46.655 28.640 o
-4 5 8 6.208 12.871 14.710 297.245 o
-4 5 9 516.235 662.756 111.733 4.740 o
-4 5 10 14.915 132.501 62.122 17.286 o
-4 5 11 1256.470 1335.820 170.466 1.875 o
-4 6 1 181.258 165.744 31.265 50.365 o
-4 6 2 444.058 512.391 53.093 16.015 o
-4 6 3 20.240 20.126 41.481 38.972 o
-4 6 4 95.890 123.537 28.980 65.589 o
-4 6 5 630.970 697.712 71.316 9.100 o
-4 6 6 35.080 57.634 18.190 169.123 o
-4 6 7 569.645 504.332 91.723 6.663 o
-4 6 8 15.746 12.295 18.424 188.188 o
-4 6 9 114.350 162.462 57.363 19.243 o
-4 6 10 342.510 280.217 80.582 9.312 o
-4 6 11 291.181 467.773 101.422 6.081 o
-4 7 1 568.165 761.226 185.844 1.855 o
-4 7 2 2619.890 2908.960 132.403 1.489 o
-4 7 3 4.783 34.585 98.718 6.997 o
-4 7 4 1066.800 1052.920 80.599 5.765 o
-4 7 5 24.221 27.382 12.622 339.434 o
-4 7 6 907.939 873.337 69.189 7.745 o
-4 7 7 396.822 422.596 86.675 7.866 o
-4 7 8 1627.730 1967.680 191.594 1.385 o
-4 7 9 94.369 103.297 54.659 21.546 o
-4 7 10 404.996 329.287 82.493 8.679 o
-4 7 11 12.406 44.239 41.643 38.569 o
-4 8 1 4782.100 4714.470 290.907 0.412 o
-4 8 2 580.356 917.843 345.133 0.561 o
-4 8 3 2226.420 2319.200 122.361 1.944 o
-4 8 4 27.968 37.952 49.088 27.760 o
-4 8 5 2276.970 2224.810 118.332 1.997 o
-4 8 6 608.891 683.524 107.010 4.966 o
-4 8 7 2070.030 2216.820 201.185 1.169 o
-4 8 8 88.405 155.756 57.255 19.566 o
-4 8 9 76.660 128.282 57.435 19.665 o
-4 8 10 0.545 7.319 19.001 187.022 o
-4 9 1 612.913 683.209 71.983 9.103 o
-4 9 2 2.935 51.650 99.385 6.898 o
-4 9 3 27.401 14.234 19.415 164.674 o
-4 9 4 1502.110 1639.560 102.507 3.291 o
-4 9 5 86.354 72.991 22.348 105.017 o
-4 9 6 627.742 712.043 117.538 4.205 o
-4 9 7 662.437 638.347 110.291 4.683 o
-4 9 8 102.146 52.568 39.408 39.919 o
-4 9 9 639.305 669.094 89.751 6.537 o
-4 10 1 3.875 18.929 24.121 114.664 o
-4 10 2 393.916 394.053 52.203 17.733 o
-4 10 3 331.272 403.447 73.407 10.743 o
-4 10 4 50.931 70.294 25.269 92.365 o
-4 10 5 241.409 398.796 106.758 5.629 o
-4 10 6 19.710 38.182 33.242 59.534 o
-4 10 7 40.176 47.628 40.742 39.436 o
-4 10 8 27.579 -0.036 24.337 109.811 o
-4 10 9 30.413 68.308 26.283 89.362 o
-4 11 1 136.647 153.304 42.004 33.259 o
-4 11 2 781.225 753.758 95.797 5.538 o
-4 11 3 114.739 182.293 39.898 36.544 o
-4 11 4 2090.080 2109.240 125.686 2.044 o
-4 11 5 37.697 126.119 67.026 14.816 o
-4 11 6 913.849 1072.950 152.042 2.468 o
-4 11 7 276.622 273.943 73.948 11.110 o
-4 11 8 191.687 237.348 76.003 10.948 o
-4 12 1 2723.060 2707.850 188.674 1.068 o
-4 12 2 38.350 50.044 31.367 64.694 o
-4 12 3 1705.350 1580.060 137.332 2.240 o
-4 12 4 26.028 100.122 78.834 10.844 o
-4 12 5 925.511 944.884 136.719 2.972 o
-4 12 6 2.037 -15.035 7.860 1069.180 o
-4 12 7 847.049 1047.640 154.314 2.443 o
-4 13 1 222.409 197.291 50.621 22.408 o
-4 13 2 597.647 635.499 91.398 6.489 o
-4 13 3 279.805 364.224 66.737 13.019 o
-4 13 4 590.873 433.846 71.244 9.945 o
-4 13 5 106.785 158.028 66.088 14.816 o
-4 14 1 145.783 145.228 44.275 30.248 o
-4 14 2 0.904 10.167 22.678 131.281 o
-4 14 3 33.125 103.729 40.958 38.452 o
-3 0 2 204.385 252.903 33.531 41.886 o
-3 0 4 13221.800 14054.900 384.667 0.090 o
-3 0 6 8228.890 8408.590 240.088 0.232 o
-3 0 8 119.179 104.880 19.903 110.277 o
-3 0 10 867.614 889.720 124.425 3.530 o
-3 0 12 1427.630 1450.510 170.430 1.797 o
-3 1 1 4848.460 5275.830 122.985 0.656 o
-3 1 2 265.493 315.928 29.921 42.672 o
-3 1 3 4108.900 4672.760 119.978 0.840 o
-3 1 4 40.060 60.254 14.182 242.129 o
-3 1 5 1334.110 1258.920 57.210 6.252 o
-3 1 6 713.104 723.387 48.880 13.152 o
-3 1 7 1240.340 1233.140 52.396 7.045 o
-3 1 8 3.607 11.762 10.956 525.110 o
-3 1 9 1491.400 1474.460 69.790 4.740 o
-3 1 10 956.527 971.328 93.743 5.130 o
-3 1 11 557.305 445.849 63.925 11.802 o
-3 1 12 253.198 151.489 35.438 38.845 o
-3 1 13 235.812 161.479 38.273 35.163 o
-3 2 1 1387.390 1369.310 52.711 6.110 o
-3 2 2 3962.260 4005.910 149.029 0.854 o
-3 2 3 4298.850 4315.340 113.648 0.853 o
-3 2 4 1.828 3.299 4.741 2612.810 o
-3 2 5 507.551 494.431 39.244 21.618 o
-3 2 6 1.752 14.024 11.370 493.043 o
-3 2 7 83.332 82.457 13.257 207.384 o
-3 2 8 256.975 233.300 29.377 46.837 o
-3 2 9 202.297 151.540 28.503 56.130 o
-3 2 10 374.267 265.011 84.097 8.567 o
-3 2 11 74.979 77.927 22.985 102.436 o
-3 2 12 109.938 57.569 13.226 195.779 o
-3 2 13 320.677 375.032 63.825 13.715 o
-3 3 1 3396.520 3546.700 117.821 1.177 o
-3 3 2 2299.240 2383.010 99.083 2.193 o
-3 3 3 114.723 131.261 20.076 106.734 o
-3 3 4 827.701 843.424 44.061 12.379 o
-3 3 5 107.692 129.541 16.327 139.046 o
-3 3 6 74.072 73.722 15.028 189.519 o
-3 3 7 1574.060 1546.750 71.906 4.372 o
-3 3 8 499.339 450.328 97.816 6.162 o
-3 3 9 1515.930 1531.460 105.997 3.226 o
-3 3 10 144.876 93.061 28.700 63.368 o
-3 3 11 86.907 23.189 39.967 39.850 o
-3 3 12 691.311 752.761 90.116 6.271 o
-3 3 13 17.395 61.113 47.015 30.188 o
-3 4 1 142.025 201.812 28.423 59.458 o
-3 4 2 3904.500 4002.050 108.390 0.997 o
-3 4 3 1414.340 1482.380 67.310 5.049 o
-3 4 4 2177.040 2255.430 78.500 2.683 o
-3 4 5 726.009 717.403 43.054 14.533 o
-3 4 6 1798.940 1963.540 109.812 2.609 o
-3 4 7 224.120 232.398 24.305 61.164 o
-3 4 8 1806.940 1814.070 157.469 1.783 o
-3 4 9 687.152 840.614 62.393 9.995 o
-3 4 10 941.703 1296.890 153.304 2.370 o
-3 4 11 1255.590 1321.400 159.902 2.077 o
-3 4 12 81.366 68.251 38.146 42.822 o
-3 4 13 27.713 57.075 34.540 54.381 o
-3 5 1 560.212 609.781 40.020 18.993 o
-3 5 2 5.119 14.642 9.899 613.913 o
-3 5 3 4870.630 5280.740 126.168 0.647 o
-3 5 4 26.340 17.610 15.972 232.523 o
-3 5 5 9085.370 8542.410 170.659 0.226 o
-3 5 6 26.250 19.545 11.387 403.193 o
-3 5 7 934.285 889.360 115.303 3.905 o
-3 5 8 14.045 -0.685 8.905 724.040 o
-3 5 9 265.159 318.663 46.930 23.479 o
-3 5 10 68.031 99.710 23.911 95.438 o
-3 5 11 351.657 512.769 106.037 5.503 o
-3 5 12 3.265 42.400 44.095 34.680 o
-3 5 13 324.341 416.720 95.978 6.711 o
-3 6 1 1632.040 1716.700 72.774 4.042 o
-3 6 2 5043.330 5508.680 202.555 0.498 o
-3 6 3 135.079 156.314 41.787 33.557 o
-3 6 4 196.127 175.269 39.570 34.491 o
-3 6 5 93.958 105.307 19.612 119.834 o
-3 6 6 1057.790 992.259 54.354 8.446 o
-3 6 7 11.069 13.523 13.232 351.702 o
-3 6 8 1613.210 1971.860 183.013 1.485 o
-3 6 9 387.226 502.941 61.840 13.432 o
-3 6 10 728.255 727.241 74.211 8.150 o
-3 6 11 334.942 431.394 93.093 7.057 o
-3 6 12 266.152 283.858 88.154 8.096 o
-3 6 13 142.019 111.661 53.613 21.770 o
-3 7 1 708.322 681.685 73.155 8.487 o
-3 7 2 588.668 680.784 71.100 9.381 o
-3 7 3 3.929 22.750 17.739 206.417 o
-3 7 4 561.932 665.928 55.880 13.076 o
-3 7 5 422.551 438.957 47.087 19.575 o
-3 7 6 7.700 -5.241 9.530 690.193 o
-3 7 7 16.820 10.854 14.133 305.243 o
-3 7 8 968.251 996.332 86.816 5.603 o
-3 7 9 321.864 338.015 51.631 19.349 o
-3 7 10 63.139 54.478 19.337 142.081 o
-3 7 11 1.531 32.702 31.476 67.675 o
-3 7 12 355.877 370.425 87.036 7.976 o
-3 8 1 344.315 361.051 54.983 17.192 o
-3 8 2 3200.400 3046.650 154.350 1.118 o
-3 8 3 225.806 196.209 37.533 35.930 o
-3 8 4 3.119 29.312 17.847 202.399 o
-3 8 5 0.379 36.744 23.309 121.280 o
-3 8 6 4.154 6.618 18.172 202.139 o
-3 8 7 265.264 254.474 68.792 12.730 o
-3 8 8 1240.130 1364.270 106.522 3.649 o
-3 8 9 477.212 534.618 67.331 11.165 o
-3 8 10 378.309 399.499 59.222 14.856 o
-3 8 11 289.528 329.035 85.738 8.409 o
-3 8 12 3.555 47.520 29.421 76.335 o
-3 9 1 290.808 313.423 53.902 18.637 o
-3 9 2 220.667 223.539 44.383 27.555 o
-3 9 3 1467.470 1510.910 111.193 3.125 o
-3 9 4 11.437 68.324 24.806 102.569 o
-3 9 5 2118.440 2154.810 122.009 2.067 o
-3 9 6 1027.200 1107.860 71.278 6.590 o
-3 9 7 488.527 712.872 118.223 4.298 o
-3 9 8 168.175 166.294 37.812 38.264 o
-3 9 9 907.695 934.127 93.907 5.255 o
-3 9 10 591.151 749.575 84.725 7.158 o
-3 9 11 429.905 588.484 117.250 4.476 o
-3 10 1 385.163 382.360 61.401 14.066 o
-3 10 2 583.924 675.989 79.969 7.949 o
-3 10 3 46.132 73.047 27.798 78.585 o
-3 10 4 3944.340 4168.570 183.843 0.736 o
-3 10 5 96.779 119.197 29.529 63.744 o
-3 10 6 3211.380 2982.080 139.099 1.213 o
-3 10 7 45.730 27.860 37.353 46.713 o
-3 10 8 544.404 498.982 68.580 10.591 o
-3 10 9 17.309 -12.876 28.105 84.539 o
-3 10 10 276.663 343.407 59.093 16.060 o
-3 10 11 205.865 235.004 71.172 12.298 o
-3 11 1 1311.540 1348.590 119.377 3.098 o
-3 11 2 180.608 175.153 45.104 28.228 o
-3 11 3 1240.690 1171.340 104.054 3.886 o
-3 11 4 24.049 25.058 16.441 219.916 o
-3 11 5 407.164 337.399 51.089 18.483 o
-3 11 6 1.800 34.252 20.082 161.296 o
-3 11 7 189.347 207.409 44.535 28.282 o
-3 11 8 55.900 72.273 32.000 60.311 o
-3 11 9 568.624 643.090 84.781 7.369 o
-3 11 10 281.664 440.791 71.157 11.472 o
-3 12 1 349.504 301.669 59.022 15.627 o
-3 12 2 341.719 326.619 60.536 14.967 o
-3 12 3 1230.470 1456.390 123.487 2.988 o
-3 12 4 4.687 20.046 19.181 178.127 o
-3 12 5 113.246 133.402 36.019 44.558 o
-3 12 6 156.889 93.562 39.732 36.877 o
-3 12 7 784.226 739.228 116.384 4.095 o
-3 12 8 4.752 37.586 42.653 37.051 o
-3 12 9 103.414 69.481 44.744 31.422 o
-3 12 10 144.245 134.964 36.708 41.788 o
-3 13 1 1633.310 1918.610 158.604 1.816 o
-3 13 2 333.578 303.616 62.699 14.286 o
-3 13 3 201.980 290.384 61.077 16.003 o
-3 13 4 0.917 52.856 28.339 82.056 o
-3 13 5 7.459 21.525 17.631 206.796 o
-3 13 6 30.209 35.153 27.366 85.169 o
-3 13 7 753.582 648.912 114.149 4.312 o
-3 13 8 83.098 126.197 41.130 36.419 o
-3 13 9 481.627 648.056 88.075 7.159 o
-3 14 1 265.221 336.750 71.532 11.691 o
-3 14 2 745.052 746.908 101.999 5.102 o
-3 14 3 25.590 29.168 21.885 130.530 o
-3 14 4 1344.800 1437.900 129.292 2.727 o
-3 14 5 19.843 24.838 15.643 243.923 o
-3 14 6 1187.030 1057.010 145.048 2.521 o
-3 14 7 98.821 141.010 47.448 27.658 o
-3 14 8 391.217 345.367 99.835 6.201 o
-3 15 1 505.052 518.754 92.156 6.737 o
-3 15 2 6.403 4.831 16.549 241.292 o
-3 15 3 1022.390 1169.720 128.427 3.116 o
-3 15 4 72.461 43.148 62.266 17.135 o
-3 15 5 1532.890 1149.310 148.942 2.216 o
-3 15 6 42.663 30.034 12.799 297.864 o
-3 16 1 846.573 775.968 114.510 4.112 o
-3 16 2 562.269 608.314 99.439 5.749 o
-3 16 3 10.591 35.112 20.831 147.078 o
-3 16 4 13.294 19.923 15.320 262.882 o
-2 0 2 294.624 357.685 24.209 48.464 o
-2 0 4 212.010 147.684 21.009 79.361 o
-2 0 6 1273.090 1253.510 68.305 5.743 o
-2 0 8 234.976 203.473 13.274 98.255 o
-2 0 10 1759.020 1735.530 165.094 1.708 o
-2 0 12 1481.570 1205.740 142.091 2.383 o
-2 0 14 471.040 389.318 85.846 7.844 o
-2 1 1 1941.890 1958.570 64.484 3.486 o
-2 1 2 74.163 55.654 7.855 370.785 o
-2 1 3 2912.950 2860.110 80.985 1.776 o
-2 1 4 5113.030 4902.370 95.035 0.684 o
-2 1 5 448.031 405.856 22.587 37.744 o
-2 1 6 5654.460 5407.800 105.616 0.564 o
-2 1 7 794.940 729.795 21.338 18.838 o
-2 1 8 203.277 168.000 14.408 108.465 o
-2 1 9 325.206 288.459 17.579 60.836 o
-2 1 10 356.683 399.149 24.291 42.057 o
-2 1 11 2.012 16.685 14.177 322.322 o
-2 1 12 1031.980 1226.660 102.974 4.203 o
-2 1 13 611.385 589.851 73.180 9.112 o
-2 1 14 37.292 45.477 23.768 107.907 o
-2 2 1 14926.000 14782.300 202.280 0.087 o
-2 2 2 6991.260 6698.420 108.061 0.385 o
-2 2 3 12255.200 12799.700 162.036 0.124 o
-2 2 4 4018.340 4245.910 107.331 0.941 o
-2 2 5 982.401 1060.160 44.088 9.971 o
-2 2 6 1587.040 1452.450 44.380 5.618 o
-2 2 7 5151.870 5106.880 178.315 0.543 o
-2 2 8 266.201 286.237 28.126 46.637 o
-2 2 9 7818.560 7371.670 161.382 0.297 o
-2 2 10 374.813 379.816 30.082 34.825 o
-2 2 11 1075.800 903.055 94.968 4.879 o
-2 2 12 24.496 18.908 6.274 889.626 o
-2 2 13 0.337 -7.341 14.865 308.834 o
-2 2 14 262.636 265.542 73.263 11.371 o
-2 3 1 539.769 539.124 26.305 27.396 o
-2 3 2 8888.740 8649.020 89.645 0.249 o
-2 3 3 9424.080 9182.460 118.878 0.218 o
-2 3 4 5522.580 5995.730 129.123 0.522 o
-2 3 5 116.102 150.877 14.016 151.340 o
-2 3 6 887.850 859.835 33.715 13.552 o
-2 3 7 1991.000 1879.760 84.789 3.007 o
-2 3 8 4285.540 4402.230 127.319 0.813 o
-2 3 9 233.414 163.325 22.840 68.498 o
-2 3 10 4014.470 3687.720 107.911 1.012 o
-2 3 11 75.516 21.690 46.132 30.652 o
-2 3 12 67.179 54.767 19.217 141.816 o
-2 3 13 216.986 208.612 57.543 17.989 o
-2 3 14 82.954 68.612 39.372 40.357 o
-2 4 1 778.956 540.136 23.380 21.044 o
-2 4 2 1145.450 1130.080 37.924 9.134 o
-2 4 3 604.382 653.623 29.907 21.814 o
-2 4 4 2644.620 2563.170 58.066 2.289 o
-2 4 5 1596.060 1312.540 43.563 5.879 o
-2 4 6 11.416 12.122 3.951 1982.170 o
-2 4 7 66.332 86.622 18.398 144.955 o
-2 4 8 511.533 507.670 48.507 17.049 o
-2 4 9 413.058 449.970 58.733 14.505 o
-2 4 10 298.375 320.508 37.563 31.076 o
-2 4 11 657.747 750.910 113.320 4.416 o
-2 4 12 80.732 56.498 17.811 152.105 o
-2 4 13 664.441 522.756 97.203 5.859 o
-2 4 14 400.822 253.644 67.350 12.437 o
-2 5 1 6121.490 5845.690 107.171 0.490 o
-2 5 2 6.520 7.706 3.605 2836.740 o
-2 5 3 945.833 885.755 46.153 10.697 o
-2 5 4 162.194 238.077 22.596 74.148 o
-2 5 5 287.586 358.393 23.794 49.737 o
-2 5 6 1230.200 1300.550 44.978 7.485 o
-2 5 7 1207.870 1152.990 62.735 6.552 o
-2 5 8 1.601 4.121 7.221 1220.210 o
-2 5 9 103.628 151.026 23.234 88.169 o
-2 5 10 399.911 372.160 38.904 25.997 o
-2 5 11 337.761 401.722 45.820 22.135 o
-2 5 12 230.804 217.662 62.483 15.432 o
-2 5 13 171.002 87.793 44.419 30.156 o
-2 5 14 25.345 33.891 22.246 126.100 o
-2 6 1 9.397 40.634 17.991 191.843 o
-2 6 2 5231.500 5035.960 121.817 0.621 o
-2 6 3 1435.440 1457.120 62.147 5.285 o
-2 6 4 7716.420 7929.950 136.822 0.299 o
-2 6 5 7747.580 7802.050 133.600 0.301 o
-2 6 6 238.463 243.064 21.380 66.709 o
-2 6 7 1540.680 1435.530 43.450 5.860 o
-2 6 8 200.016 220.557 29.005 52.253 o
-2 6 9 8.075 12.098 5.348 1560.950 o
-2 6 10 7.385 -0.452 7.599 1041.750 o
-2 6 11 988.887 993.160 66.874 7.400 o
-2 6 12 6.987 35.225 26.500 93.755 o
-2 6 13 1347.840 1146.900 148.761 2.317 o
-2 7 1 156.902 139.459 29.565 57.559 o
-2 7 2 7872.080 7819.500 211.749 0.264 o
-2 7 3 1788.640 1673.570 57.935 4.241 o
-2 7 4 1061.960 1182.330 47.692 8.566 o
-2 7 5 1555.120 1601.010 53.604 5.100 o
-2 7 6 1739.190 1854.920 61.289 4.050 o
-2 7 7 606.488 582.741 29.773 22.770 o
-2 7 8 5305.250 5482.760 152.760 0.544 o
-2 7 9 184.207 161.565 27.104 61.257 o
-2 7 10 1536.300 1405.340 81.035 4.221 o
-2 7 11 518.523 516.497 50.293 16.185 o
-2 7 12 58.856 37.619 18.795 153.979 o
-2 7 13 0.272 20.769 23.958 116.765 o
-2 8 1 1966.370 1798.770 112.923 2.470 o
-2 8 2 3010.810 2859.710 137.224 1.312 o
-2 8 3 926.339 836.482 48.263 10.734 o
-2 8 4 1098.530 1025.040 46.442 8.972 o
-2 8 5 247.920 289.939 30.556 43.487 o
-2 8 6 838.141 877.009 45.189 11.885 o
-2 8 7 2603.250 2600.860 69.290 2.204 o
-2 8 8 328.506 336.925 38.711 28.712 o
-2 8 9 828.982 807.612 62.313 9.254 o
-2 8 10 81.705 74.495 18.143 143.867 o
-2 8 11 385.520 387.262 45.686 21.466 o
-2 8 12 14.027 24.224 20.154 157.222 o
-2 8 13 13.691 -7.024 6.844 1110.470 o
-2 9 1 4561.350 4530.450 189.647 0.617 o
-2 9 2 908.772 870.655 47.735 10.824 o
-2 9 3 1257.000 1275.100 62.389 6.162 o
-2 9 4 722.958 664.647 47.530 13.708 o
-2 9 5 219.363 230.621 27.886 52.867 o
-2 9 6 2304.970 2201.070 77.510 2.588 o
-2 9 7 71.684 83.143 13.835 207.477 o
-2 9 8 102.009 90.013 21.683 104.111 o
-2 9 9 33.403 37.954 12.464 318.572 o
-2 9 10 54.158 75.721 20.466 129.411 o
-2 9 11 361.614 312.967 40.293 26.711 o
-2 9 12 397.332 449.767 69.933 11.191 o
-2 10 1 272.751 258.981 47.123 23.739 o
-2 10 2 727.051 766.999 46.742 13.288 o
-2 10 3 65.844 74.511 15.231 191.933 o
-2 10 4 15.586 24.288 8.999 613.920 o
-2 10 5 1394.480 1410.570 65.483 5.301 o
-2 10 6 880.070 880.944 52.182 10.289 o
-2 10 7 47.958 69.322 15.057 211.130 o
-2 10 8 693.213 682.104 69.392 9.167 o
-2 10 9 18.052 22.919 14.595 278.527 o
-2 10 10 841.761 928.152 84.829 6.189 o
-2 10 11 29.619 25.565 8.523 569.805 o
-2 10 12 628.482 584.743 80.025 7.944 o
-2 11 1 291.541 293.828 38.236 31.026 o
-2 11 2 16.635 13.299 14.728 282.145 o
-2 11 3 3346.730 3546.780 116.868 1.198 o
-2 11 4 2975.570 2973.250 112.739 1.477 o
-2 11 5 48.330 59.563 12.685 271.109 o
-2 11 6 1996.980 2094.580 84.495 2.874 o
-2 11 7 198.502 257.935 28.224 52.684 o
-2 11 8 227.355 232.184 42.288 29.444 o
-2 11 9 74.992 75.953 23.044 102.224 o
-2 11 10 408.169 401.018 49.880 18.640 o
-2 11 11 8.488 15.973 7.963 842.049 o
-2 12 1 2217.150 2272.380 77.474 2.645 o
-2 12 2 114.045 113.687 19.820 111.075 o
-2 12 3 1679.850 1922.470 104.180 2.878 o
-2 12 4 531.957 473.844 40.654 20.585 o
-2 12 5 104.413 119.328 19.534 115.141 o
-2 12 6 94.703 91.007 23.258 95.291 o
-2 12 7 1313.730 1350.800 101.674 3.762 o
-2 12 8 101.038 78.837 26.000 80.156 o
-2 12 9 2175.410 2339.660 141.946 1.713 o
-2 12 10 14.986 22.556 15.868 243.701 o
-2 12 11 400.942 328.813 46.833 21.014 o
-2 13 1 108.769 106.109 37.533 42.263 o
-2 13 2 797.731 849.718 58.186 9.991 o
-2 13 3 1733.520 2092.040 99.497 2.844 o
-2 13 4 813.319 855.593 63.952 8.957 o
-2 13 5 831.228 807.216 57.387 10.043 o
-2 13 6 937.603 990.204 63.803 7.988 o
-2 13 7 117.340 134.041 33.483 50.084 o
-2 13 8 600.605 595.642 89.632 6.733 o
-2 13 9 67.990 31.839 24.409 98.422 o
-2 13 10 429.521 349.159 48.945 19.191 o
-2 14 1 93.949 98.213 33.639 52.094 o
-2 14 2 520.970 500.171 141.010 3.171 o
-2 14 3 673.608 554.225 62.138 11.071 o
-2 14 4 75.776 71.008 14.142 203.860 o
-2 14 5 929.996 1038.940 89.880 5.402 o
-2 14 6 333.825 363.005 43.886 23.947 o
-2 14 7 20.372 20.825 19.253 168.974 o
-2 14 8 3.643 6.736 21.885 140.524 o
-2 14 9 18.518 19.008 11.231 435.862 o
-2 15 1 1513.280 1348.410 167.366 1.835 o
-2 15 2 167.684 150.529 33.889 45.867 o
-2 15 3 8.307 17.407 6.704 1079.820 o
-2 15 4 359.182 412.138 54.805 16.824 o
-2 15 5 6.452 8.741 6.688 1213.780 o
-2 15 6 337.982 328.566 88.550 7.824 o
-2 15 7 327.032 384.343 92.480 7.202 o
-2 15 8 0.083 19.697 18.207 199.798 o
-2 16 1 34.812 36.103 16.373 208.477 o
-2 16 2 334.600 348.542 53.535 18.093 o
-2 16 3 276.636 241.118 44.681 25.852 o
-2 16 4 407.564 403.258 59.887 14.339 o
-2 16 5 1580.960 1492.960 111.094 3.018 o
-2 16 6 115.040 171.260 63.420 15.926 o
-2 16 7 470.859 486.918 106.505 5.325 o
-2 17 1 1.214 5.265 6.959 1302.000 o
-2 17 2 1456.550 1458.540 122.279 2.826 o
-2 17 3 0.394 1.681 9.844 695.972 o
-2 17 4 472.363 384.541 58.884 14.215 o
-2 17 5 2.350 4.867 11.177 525.793 o
-2 18 1 143.697 113.326 28.554 63.007 o
-2 18 2 380.238 350.529 56.270 16.277 o
-1 0 2 4029.940 3142.510 93.834 1.136 o
-1 0 4 2867.910 2218.700 83.130 2.008 o
-1 0 6 6474.370 6050.470 82.250 0.463 o
-1 0 8 2078.140 2347.290 118.295 2.087 o
-1 0 10 509.891 518.817 33.579 24.440 o
-1 0 12 2703.470 2826.470 190.224 1.050 o
-1 0 14 870.073 803.730 108.236 4.438 o
-1 1 1 19474.000 18578.100 121.603 0.055 o
-1 1 2 1942.820 2384.770 49.138 3.423 o
-1 1 3 229.762 234.474 16.301 84.780 o
-1 1 4 2923.350 2634.220 49.431 2.072 o
-1 1 5 46.897 40.222 5.584 630.771 o
-1 1 6 3739.930 3419.660 64.032 1.292 o
-1 1 7 1836.040 1735.380 50.880 4.262 o
-1 1 8 5806.190 5625.060 93.768 0.544 o
-1 1 9 3100.600 3182.160 73.384 1.618 o
-1 1 10 506.108 617.172 34.223 22.841 o
-1 1 11 776.066 710.906 56.039 11.043 o
-1 1 12 838.750 810.137 71.942 7.830 o
-1 1 13 274.245 254.745 42.318 27.920 o
-1 1 14 53.592 74.525 32.954 57.260 o
-1 2 1 396.799 497.963 17.282 43.145 o
-1 2 2 29913.700 29242.900 172.064 0.023 o
-1 2 3 7122.980 6230.210 49.085 0.414 o
-1 2 4 42.952 100.821 14.100 220.567 o
-1 2 5 963.152 971.189 32.066 12.209 o
-1 2 6 338.062 328.608 38.937 28.342 o
-1 2 7 1317.740 1257.150 47.104 7.001 o
-1 2 8 3985.680 3839.950 83.895 1.071 o
-1 2 9 420.102 429.404 29.066 32.572 o
-1 2 10 1067.220 959.910 44.544 9.646 o
-1 2 11 336.423 339.031 27.795 40.754 o
-1 2 12 170.407 187.696 39.852 34.731 o
-1 2 13 639.356 723.682 76.062 8.241 o
-1 2 14 75.307 65.836 31.115 62.181 o
-1 3 1 12784.100 12188.500 102.014 0.125 o
-1 3 2 34509.200 35879.400 173.788 0.017 o
-1 3 3 1616.600 1647.700 37.505 5.419 o
-1 3 4 5815.340 5583.660 58.370 0.570 o
-1 3 5 4447.260 4144.030 74.541 0.923 o
-1 3 6 9.344 6.174 4.153 2235.210 o
-1 3 7 10.829 20.058 5.926 1183.710 o
-1 3 8 97.892 99.074 13.080 190.886 o
-1 3 9 2235.400 1997.790 111.138 2.210 o
-1 3 10 49.324 54.282 18.844 153.872 o
-1 3 11 223.329 198.790 24.616 62.293 o
-1 3 12 156.996 154.800 33.542 47.078 o
-1 3 13 32.212 18.695 12.565 334.716 o
-1 3 14 513.876 540.924 67.550 10.881 o
-1 4 1 12501.100 12293.500 169.910 0.124 o
-1 4 2 48.797 43.327 12.187 297.166 o
-1 4 3 512.582 812.004 26.421 23.652 o
-1 4 4 2261.520 2338.090 68.876 2.689 o
-1 4 5 14.492 38.394 11.799 387.527 o
-1 4 6 3127.470 3199.400 92.337 1.489 o
-1 4 7 3536.010 3255.540 97.039 1.277 o
-1 4 8 2626.920 2599.250 90.087 1.975 o
-1 4 9 219.494 192.897 24.137 64.454 o
-1 4 10 1049.600 1028.950 57.521 8.037 o
-1 4 11 2328.300 2172.010 85.716 2.455 o
-1 4 12 425.934 385.290 55.847 15.801 o
-1 4 13 0.351 2.453 10.943 563.019 o
-1 4 14 205.977 187.006 42.001 30.930 o
-1 5 1 4101.480 3720.540 90.158 1.037 o
-1 5 2 1283.700 1525.640 81.123 4.615 o
-1 5 3 263.749 394.144 71.262 11.640 o
-1 5 4 197.825 271.241 18.890 78.597 o
-1 5 5 24824.000 24789.500 202.535 0.033 o
-1 5 6 488.730 639.918 67.251 10.809 o
-1 5 7 8723.520 8789.260 166.324 0.235 o
-1 5 8 4.634 11.917 7.968 913.503 o
-1 5 9 231.097 261.173 29.992 46.479 o
-1 5 10 48.971 52.653 12.784 272.242 o
-1 5 11 538.986 560.785 45.979 17.298 o
-1 5 12 68.513 48.714 31.025 63.704 o
-1 5 13 1461.880 1510.510 132.429 2.532 o
-1 5 14 28.716 36.989 19.896 152.286 o
-1 6 1 10676.400 10597.300 167.446 0.165 o
-1 6 2 9579.320 10178.600 193.073 0.187 o
-1 6 3 13.510 101.854 21.849 123.973 o
-1 6 4 613.069 670.416 41.916 16.834 o
-1 6 5 978.385 1086.090 51.549 8.973 o
-1 6 6 2688.210 2984.750 71.587 1.960 o
-1 6 7 2379.630 2244.810 45.570 2.903 o
-1 6 8 7037.580 6824.610 157.890 0.352 o
-1 6 9 435.512 426.932 40.901 23.031 o
-1 6 10 1118.970 1100.420 70.398 6.355 o
-1 6 11 1731.330 1633.020 82.655 3.611 o
-1 6 12 222.024 164.299 26.165 59.983 o
-1 6 13 50.875 39.040 13.503 259.159 o
-1 6 14 119.137 87.239 25.428 79.795 o
-1 7 1 6757.610 6886.270 145.986 0.374 o
-1 7 2 7283.580 7153.850 145.104 0.336 o
-1 7 3 35.605 149.486 97.780 7.051 o
-1 7 4 12349.900 12945.800 205.801 0.119 o
-1 7 5 1321.200 1692.460 293.755 0.717 o
-1 7 6 86.582 136.796 22.047 99.880 o
-1 7 7 19.431 70.736 15.194 233.286 o
-1 7 8 2338.930 2315.140 48.607 2.875 o
-1 7 9 884.318 862.376 60.148 9.097 o
-1 7 10 379.162 406.014 42.204 23.681 o
-1 7 11 95.419 98.172 22.453 99.526 o
-1 7 12 16.827 16.066 8.315 710.181 o
-1 7 13 44.163 14.457 21.651 129.757 o
-1 8 1 2330.860 2376.510 128.030 1.796 o
-1 8 2 8214.160 7821.080 228.514 0.246 o
-1 8 3 4432.430 4816.910 137.221 0.728 o
-1 8 4 222.084 565.759 169.799 2.299 o
-1 8 5 1323.020 1355.190 73.786 5.118 o
-1 8 6 302.764 499.670 131.257 3.745 o
-1 8 7 124.845 172.851 50.819 23.816 o
-1 8 8 1160.590 1157.270 50.103 7.830 o
-1 8 9 487.563 480.082 46.042 18.703 o
-1 8 10 1669.320 1668.580 89.176 3.473 o
-1 8 11 118.186 99.181 22.498 94.422 o
-1 8 12 9.679 34.030 11.861 402.389 o
-1 8 13 4.433 9.314 13.394 361.445 o
-1 9 1 218.043 447.546 63.240 14.396 o
-1 9 2 114.834 208.540 38.182 38.870 o
-1 9 3 3682.700 4197.700 137.067 0.932 o
-1 9 4 999.817 909.852 63.512 7.915 o
-1 9 5 2825.440 3055.560 115.042 1.509 o
-1 9 6 1743.270 1783.430 85.853 3.381 o
-1 9 7 432.238 523.642 44.513 20.035 o
-1 9 8 607.449 597.779 39.760 18.337 o
-1 9 9 2366.920 2119.940 100.008 2.231 o
-1 9 10 251.739 272.105 36.635 34.713 o
-1 9 11 1879.310 1684.360 94.177 3.041 o
-1 9 12 372.406 337.374 41.924 24.832 o
-1 9 13 505.322 478.808 69.057 10.750 o
-1 10 1 1040.390 1164.240 101.061 4.343 o
-1 10 2 49.184 50.806 14.232 236.290 o
-1 10 3 67.942 106.191 49.773 26.027 o
-1 10 4 4400.690 4853.070 155.721 0.690 o
-1 10 5 6.776 19.321 10.852 504.452 o
-1 10 6 7149.080 7397.450 187.388 0.315 o
-1 10 7 1209.480 1272.640 109.282 3.630 o
-1 10 8 1089.730 1039.610 63.939 7.164 o
-1 10 9 3.383 10.796 17.072 227.226 o
-1 10 10 600.144 631.405 58.960 12.081 o
-1 10 11 207.471 222.931 35.038 39.939 o
-1 10 12 2338.120 2168.570 112.120 2.061 o
-1 11 1 3740.740 3659.790 143.156 0.958 o
-1 11 2 36.946 17.241 9.843 462.004 o
-1 11 3 1701.210 1895.770 103.811 2.879 o
-1 11 4 136.519 138.534 28.412 62.960 o
-1 11 5 4.473 0.774 12.078 452.544 o
-1 11 6 1397.200 1410.180 86.919 4.225 o
-1 11 7 233.745 288.522 38.176 33.130 o
-1 11 8 876.467 789.993 106.650 4.539 o
-1 11 9 2894.970 2799.590 143.498 1.318 o
-1 11 10 221.546 237.148 38.241 34.370 o
-1 11 11 295.834 333.458 45.170 24.082 o
-1 11 12 513.289 478.019 53.861 15.140 o
-1 12 1 1845.960 1994.330 128.859 2.182 o
-1 12 2 49.699 72.555 20.803 127.961 o
-1 12 3 5352.170 5534.530 184.530 0.495 o
-1 12 4 44.803 173.950 123.649 4.423 o
-1 12 5 1275.910 1413.600 92.422 4.185 o
-1 12 6 91.519 159.212 82.096 9.817 o
-1 12 7 54.275 50.350 17.968 164.396 o
-1 12 8 59.301 111.084 45.501 30.922 o
-1 12 9 34.928 43.540 19.317 156.197 o
-1 12 10 26.569 38.895 16.671 207.426 o
-1 12 11 55.525 130.680 31.781 58.993 o
-1 13 1 2996.140 3105.770 144.503 1.228 o
-1 13 2 2572.230 2581.960 132.037 1.584 o
-1 13 3 2183.050 2308.670 125.494 1.930 o
-1 13 4 587.603 700.304 69.364 9.661 o
-1 13 5 76.157 86.831 29.042 69.026 o
-1 13 6 224.857 294.107 43.361 27.641 o
-1 13 7 404.610 462.586 53.502 16.593 o
-1 13 8 0.293 -7.427 2.596 9698.390 o
-1 13 9 1607.410 1618.890 114.969 2.821 o
-1 13 10 54.262 72.240 28.969 72.228 o
-1 13 11 439.613 358.550 48.400 19.252 o
-1 14 1 1491.600 1527.360 105.209 3.283 o
-1 14 2 638.389 628.840 67.210 9.996 o
-1 14 3 707.148 679.613 71.686 8.728 o
-1 14 4 2383.120 2378.330 133.902 1.701 o
-1 14 5 9.984 11.897 15.107 278.555 o
-1 14 6 1795.950 1748.990 110.925 2.685 o
-1 14 7 524.946 540.952 60.282 12.682 o
-1 14 8 650.938 594.685 104.847 5.141 o
-1 14 9 5.803 44.167 38.470 45.253 o
-1 14 10 725.390 594.775 73.610 8.530 o
-1 15 1 47.231 100.656 38.254 43.261 o
-1 15 2 0.309 24.762 30.124 74.214 o
-1 15 3 152.405 135.643 36.551 41.716 o
-1 15 4 14.857 42.163 22.119 129.210 o
-1 15 5 3209.560 3162.000 157.504 1.083 o
-1 15 6 77.554 108.805 28.925 68.282 o
-1 15 7 2309.980 2326.890 218.671 0.991 o
-1 15 8 69.071 108.236 51.630 24.260 o
-1 15 9 129.429 86.820 41.427 35.202 o
-1 16 1 1307.340 1420.150 111.510 3.341 o
-1 16 2 620.459 696.755 78.710 7.969 o
-1 16 3 705.142 720.197 82.763 7.107 o
-1 16 4 0.276 22.287 22.967 126.652 o
-1 16 5 627.515 564.993 68.124 10.050 o
-1 16 6 84.453 99.917 38.452 41.514 o
-1 16 7 88.756 105.965 48.746 26.756 o
-1 16 8 511.505 458.615 100.881 5.816 o
-1 17 1 87.637 70.413 23.429 97.600 o
-1 17 2 1527.840 1538.690 119.528 2.806 o
-1 17 3 43.696 39.406 24.319 102.928 o
-1 17 4 2058.100 1975.270 136.192 1.941 o
-1 17 5 225.549 277.233 52.712 20.375 o
-1 17 6 4.637 -18.244 17.703 214.741 o
-1 18 1 97.301 73.299 32.395 56.179 o
-1 18 2 696.620 871.499 99.709 5.260 o
-1 18 3 89.001 77.644 46.511 29.441 o
-1 18 4 116.656 128.400 35.461 45.703 o
-1 18 5 152.127 136.092 37.054 40.797 o
0 0 2 19871.800 22613.300 130.595 0.047 o
0 0 4 2348.880 2090.340 38.578 3.140 o
0 0 6 10813.500 11527.600 106.812 0.160 o
0 0 8 8504.260 8440.030 306.930 0.200 o
0 0 10 542.299 544.178 33.167 23.406 o
0 0 12 975.237 946.390 77.126 6.499 o
0 0 14 237.103 272.898 78.816 10.040 o
0 1 2 688.415 386.088 9.742 31.780 o
0 1 3 7516.510 7501.240 105.209 0.330 o
0 1 4 9637.410 9758.320 80.930 0.209 o
0 1 5 1520.060 1397.680 24.916 6.769 o
0 1 6 22436.700 22706.200 114.396 0.040 o
0 1 7 1341.770 1654.820 32.276 6.734 o
0 1 8 4.414 25.535 3.900 2024.690 o
0 1 9 244.463 235.390 14.438 87.571 o
0 1 10 299.699 309.723 19.368 59.228 o
0 1 11 174.709 205.390 18.951 89.554 o
0 1 12 2224.160 2319.940 102.725 2.225 o
0 1 13 155.042 156.176 32.369 49.805 o
0 1 14 1568.520 1634.390 194.767 1.404 o
0 2 2 449.607 712.119 79.861 8.368 o
0 2 3 8328.240 8297.620 78.452 0.279 o
0 2 4 3457.970 3131.570 45.513 1.555 o
0 2 5 221.408 332.056 13.444 84.705 o
0 2 6 820.137 1159.420 27.337 13.497 o
0 2 7 1050.090 1139.420 28.353 10.823 o
0 2 8 291.282 283.778 15.507 70.516 o
0 2 9 7356.450 7458.930 101.496 0.342 o
0 2 10 33.269 48.937 10.787 375.399 o
0 2 11 1669.180 1724.190 74.655 3.899 o
0 2 12 73.020 110.819 18.648 134.794 o
0 2 13 104.282 125.639 29.073 64.366 o
0 2 14 250.955 351.064 90.209 7.723 o
0 3 1 769.904 584.232 29.519 18.849 o
0 3 2 2956.320 2667.650 67.438 1.912 o
0 3 3 26553.400 25672.200 192.207 0.029 o
0 3 4 319.766 419.398 18.579 52.180 o
0 3 5 3202.460 3464.470 58.447 1.556 o
0 3 6 1533.450 1830.720 49.297 4.987 o
0 3 7 2993.010 2707.610 59.968 1.922 o
0 3 8 5564.200 5549.790 84.523 0.586 o
0 3 9 46.796 88.910 13.989 224.858 o
0 3 10 5844.940 6203.980 136.875 0.474 o
0 3 11 1229.390 1357.330 66.531 5.834 o
0 3 12 400.108 422.316 38.469 25.637 o
0 3 13 1.722 5.998 11.076 535.295 o
0 3 14 359.041 356.184 90.425 7.461 o
0 4 0 6099.020 6619.890 151.790 0.424 o
0 4 1 15719.600 14767.000 177.154 0.082 o
0 4 2 10245.300 11043.500 181.733 0.167 o
0 4 3 5223.450 5523.380 113.815 0.601 o
0 4 4 16116.400 17608.300 173.604 0.071 o
0 4 5 9815.160 9365.640 101.644 0.207 o
0 4 6 3024.020 3405.100 65.835 1.639 o
0 4 7 2734.520 3012.540 67.735 1.946 o
0 4 8 448.764 491.475 30.156 29.198 o
0 4 9 1034.660 995.691 41.921 10.085 o
0 4 10 370.564 400.080 36.040 28.809 o
0 4 11 544.191 569.571 43.997 17.959 o
0 4 12 3.973 7.481 8.384 870.696 o
0 4 13 3084.560 2938.290 147.146 1.210 o
0 4 14 174.667 190.296 64.862 14.869 o
0 5 1 18736.300 18848.500 301.489 0.054 o
0 5 2 194.680 152.084 19.044 90.601 o
0 5 3 14.500 32.683 17.234 206.558 o
0 5 4 5.772 0.775 2.167 6077.490 o
0 5 5 634.739 712.990 32.123 19.521 o
0 5 6 762.169 865.215 38.824 14.132 o
0 5 7 12356.100 12586.400 187.096 0.122 o
0 5 8 11.390 5.762 4.794 1783.340 o
0 5 9 1163.840 1062.820 47.306 8.344 o
0 5 10 1.127 23.046 11.011 506.983 o
0 5 11 710.699 740.199 52.112 12.319 o
0 5 12 984.231 914.202 59.718 8.441 o
0 5 13 164.220 109.698 27.634 64.226 o
0 5 14 49.682 21.993 10.600 376.201 o
0 6 0 72.096 61.329 18.099 151.469 o
0 6 1 1852.650 1800.770 69.564 3.650 o
0 6 2 2324.430 2143.530 80.050 2.559 o
0 6 3 1088.920 1071.650 59.184 7.559 o
0 6 4 6882.350 6822.210 153.921 0.363 o
0 6 5 5358.000 5059.020 132.843 0.589 o
0 6 6 41.889 54.785 12.048 303.559 o
0 6 7 4405.630 4410.020 137.671 0.766 o
0 6 8 203.742 196.706 22.875 70.166 o
0 6 9 15.486 20.896 13.783 313.142 o
0 6 10 61.225 75.206 16.014 182.360 o
0 6 11 387.646 353.633 38.330 27.056 o
0 6 12 26.980 40.262 11.908 351.078 o
0 6 13 2672.050 2580.050 155.089 1.341 o
0 6 14 287.384 309.457 86.351 8.330 o
0 7 1 481.443 531.198 40.746 20.986 o
0 7 2 3402.190 3087.070 148.545 1.089 o
0 7 3 1445.460 1385.650 102.143 3.539 o
0 7 4 357.260 452.882 59.670 14.637 o
0 7 5 353.333 366.712 55.200 16.959 o
0 7 6 234.534 343.874 35.460 35.498 o
0 7 7 794.327 761.409 58.846 10.197 o
0 7 8 4463.210 4613.400 152.783 0.705 o
0 7 9 213.505 210.066 33.964 41.766 o
0 7 10 4527.570 4297.850 182.599 0.651 o
0 7 11 642.068 632.736 51.971 13.553 o
0 7 12 190.013 187.229 33.288 44.857 o
0 7 13 23.313 31.512 33.603 58.294 o
0 8 0 8370.030 8634.470 251.770 0.220 o
0 8 1 501.359 446.750 40.213 21.749 o
0 8 2 1792.480 2050.550 86.832 3.104 o
0 8 3 1550.640 1649.860 119.774 2.731 o
0 8 4 11507.300 11625.000 321.788 0.123 o
0 8 5 648.426 723.040 81.916 7.386 o
0 8 6 52.522 88.803 31.800 60.647 o
0 8 7 2798.110 3133.520 155.197 1.214 o
0 8 8 442.233 430.565 68.360 11.405 o
0 8 9 1464.440 1624.080 99.402 3.453 o
0 8 10 549.346 602.379 61.458 11.944 o
0 8 11 865.225 831.987 61.825 9.050 o
0 8 12 158.982 173.422 29.733 55.543 o
0 8 13 807.246 717.776 131.924 3.317 o
0 9 1 7364.050 7868.820 182.488 0.297 o
0 9 2 3545.540 3451.550 120.576 1.132 o
0 9 3 2300.230 2358.920 100.644 2.180 o
0 9 4 2376.360 2437.980 157.415 1.445 o
0 9 5 1957.250 2052.090 147.391 1.810 o
0 9 6 9314.460 9692.680 327.556 0.166 o
0 9 7 944.600 996.522 68.090 7.449 o
0 9 8 562.091 582.283 84.224 7.554 o
0 9 9 2.186 13.268 16.333 247.506 o
0 9 10 1007.630 998.194 82.241 5.871 o
0 9 11 76.671 72.017 34.540 51.383 o
0 9 12 632.259 659.843 58.830 11.749 o
0 9 13 24.786 110.688 47.304 29.318 o
0 10 0 17481.500 17279.300 408.499 0.058 o
0 10 1 86.380 129.782 25.720 80.020 o
0 10 2 3517.320 4107.590 140.435 0.968 o
0 10 3 68.597 81.811 25.707 86.119 o
0 10 4 291.703 250.578 35.525 34.984 o
0 10 5 1220.130 1227.680 77.612 5.326 o
0 10 6 66.661 61.365 33.495 55.200 o
0 10 7 338.285 385.785 70.054 11.631 o
0 10 8 1958.130 2064.020 164.265 1.586 o
0 10 9 8.423 -7.103 20.227 163.487 o
0 10 10 143.759 239.426 44.956 28.487 o
0 10 11 239.703 255.369 44.627 26.549 o
0 10 12 851.904 839.180 68.349 8.180 o
0 11 1 63.473 75.556 20.370 127.387 o
0 11 2 12.479 7.950 11.033 490.111 o
0 11 3 3878.770 3886.000 145.277 0.895 o
0 11 4 2152.220 2161.400 108.555 2.253 o
0 11 5 552.647 570.799 56.366 13.458 o
0 11 6 1638.930 1670.910 95.410 3.320 o
0 11 7 13.330 5.744 14.242 310.291 o
0 11 8 160.585 202.523 33.022 46.627 o
0 11 9 104.861 103.585 38.867 39.940 o
0 11 10 23.767 9.879 21.416 139.461 o
0 11 11 334.308 521.483 68.060 11.840 o
0 11 12 304.028 294.031 42.301 26.701 o
0 12 0 164.514 207.711 49.539 24.055 o
0 12 1 3349.350 3473.510 144.141 1.074 o
0 12 2 0.059 7.590 8.875 825.022 o
0 12 3 3450.440 3621.710 149.005 1.007 o
0 12 4 1285.810 1275.490 88.930 4.467 o
0 12 5 275.838 258.920 39.705 30.487 o
0 12 6 122.459 141.529 30.784 56.698 o
0 12 7 573.346 565.806 74.074 9.172 o
0 12 8 8.186 12.399 7.481 956.778 o
0 12 9 4509.130 4808.900 279.315 0.442 o
0 12 10 113.188 79.464 34.396 49.594 o
0 12 11 945.020 977.466 162.985 2.201 o
0 13 1 5.064 11.347 10.233 588.236 o
0 13 2 232.446 228.259 38.290 34.078 o
0 13 3 4022.580 4126.150 166.637 0.778 o
0 13 4 24.457 29.116 17.139 202.782 o
0 13 5 2263.550 2520.140 130.841 1.760 o
0 13 6 455.361 452.204 73.101 10.148 o
0 13 7 1142.710 1116.370 86.001 5.107 o
0 13 8 727.124 689.460 103.423 5.066 o
0 13 9 74.180 134.628 44.419 31.773 o
0 13 10 1288.680 1173.800 140.253 2.555 o
0 14 0 1906.360 2104.690 175.262 1.469 o
0 14 1 874.292 931.038 82.320 6.334 o
0 14 2 613.965 659.721 69.588 9.588 o
0 14 3 249.481 280.293 47.347 23.794 o
0 14 4 478.485 524.235 63.376 12.222 o
0 14 5 407.934 446.035 59.797 14.187 o
0 14 6 1787.850 1742.730 113.768 2.629 o
0 14 7 287.159 381.944 67.621 12.639 o
0 14 8 323.303 355.174 82.926 8.799 o
0 14 9 100.182 86.856 34.648 49.465 o
0 14 10 15.907 22.426 17.018 214.094 o
0 15 1 2822.700 3084.380 158.150 1.194 o
0 15 2 796.917 823.809 81.747 6.784 o
0 15 3 401.352 404.436 59.020 14.706 o
0 15 4 90.482 152.214 38.239 40.732 o
0 15 5 197.525 177.956 38.943 35.276 o
0 15 6 118.427 138.709 38.560 39.373 o
0 15 7 1322.130 1388.340 104.862 3.595 o
0 15 8 5.180 58.769 39.804 42.127 o
0 15 9 205.513 192.856 62.014 15.910 o
0 16 0 231.547 199.887 61.545 15.909 o
0 16 1 210.465 260.028 46.615 25.316 o
0 16 2 960.216 950.475 91.819 5.286 o
0 16 3 0.244 -11.699 3.514 5423.360 o
0 16 4 2657.720 2687.490 154.817 1.330 o
0 16 5 1580.430 1696.970 122.985 2.605 o
0 16 6 160.581 157.799 38.330 37.872 o
0 16 7 397.492 421.943 59.278 14.567 o
0 16 8 52.810 98.790 54.767 21.892 o
0 17 1 4.355 -16.081 22.516 133.611 o
0 17 2 1208.570 1271.980 111.149 3.554 o
0 17 3 1.265 20.392 17.161 222.809 o
0 17 4 86.329 132.942 37.476 42.736 o
0 17 5 2.331 13.677 10.377 581.836 o
0 17 6 27.111 37.745 20.390 146.269 o
0 17 7 8.106 20.551 31.944 65.705 o
0 18 0 45.348 44.311 29.421 72.458 o
0 18 1 58.646 104.245 30.975 62.479 o
0 18 2 487.000 460.740 70.159 10.639 o
0 18 3 141.352 138.762 34.546 46.183 o
0 18 4 1689.240 1826.470 137.699 2.168 o
0 18 5 841.775 940.284 98.672 5.021 o
0 19 1 1437.720 1533.540 131.910 2.553 o
0 19 2 133.939 201.839 47.846 26.120 o
1 0 0 1156.960 1052.100 31.911 9.907 o
1 0 2 6034.650 4985.630 148.365 0.501 o
1 0 4 4275.910 4013.540 179.516 0.712 o
1 0 6 17487.400 16642.800 987.591 0.035 o
1 0 8 3239.260 3661.050 207.224 0.799 o
1 0 10 6.874 29.847 14.081 307.978 o
1 0 12 3594.330 4005.850 349.982 0.393 o
1 0 14 3326.810 3584.550 297.234 0.519 o
1 1 0 15759.000 14259.500 197.875 0.083 o
1 1 1 480.381 361.507 15.918 43.145 o
1 1 2 3805.020 4148.140 74.464 1.105 o
1 1 3 2481.970 2617.290 71.016 2.288 o
1 1 4 1653.730 1285.370 25.914 6.366 o
1 1 5 128.320 130.968 13.904 151.165 o
1 1 6 2625.090 2643.890 69.085 2.169 o
1 1 7 419.666 547.584 40.281 22.404 o
1 1 8 7123.880 7393.840 262.747 0.273 o
1 1 9 2675.600 2792.140 83.114 1.940 o
1 1 10 567.640 577.157 33.330 22.217 o
1 1 11 1714.000 1844.340 107.755 2.794 o
1 1 12 1213.010 1338.490 69.475 5.721 o
1 1 13 192.049 176.553 43.752 29.415 o
1 1 14 128.471 145.309 38.737 38.589 o
1 2 0 62.635 90.756 27.275 78.139 o
1 2 1 489.737 677.485 35.229 21.980 o
1 2 2 16199.100 15641.700 132.578 0.078 o
1 2 3 11064.200 10119.300 115.287 0.168 o
1 2 4 98.365 106.228 11.329 212.692 o
1 2 5 14418.300 15126.800 160.053 0.091 o
1 2 6 3238.150 2940.290 52.116 1.717 o
1 2 7 1.347 28.395 8.254 805.433 o
1 2 8 985.114 1040.900 38.012 10.818 o
1 2 9 121.371 147.612 15.695 134.713 o
1 2 10 1008.440 1014.340 43.515 10.020 o
1 2 11 1306.350 1487.880 68.769 5.264 o
1 2 12 65.505 103.993 23.535 97.953 o
1 2 13 53.179 51.261 23.403 106.835 o
1 2 14 123.598 111.325 49.323 25.616 o
1 3 0 4626.460 5172.960 94.498 0.743 o
1 3 1 1498.690 2071.180 694.827 0.138 o
1 3 2 5144.560 5307.220 63.694 0.681 o
1 3 3 2866.660 2528.010 52.745 2.145 o
1 3 4 12449.800 11995.400 177.558 0.126 o
1 3 5 437.541 297.250 17.175 48.434 o
1 3 6 2774.950 2725.580 66.222 2.036 o
1 3 7 37.929 35.260 11.411 353.662 o
1 3 8 1.819 7.989 5.933 1652.080 o
1 3 9 1895.660 1810.200 59.729 3.820 o
1 3 10 18.560 11.674 9.018 633.347 o
1 3 11 459.368 507.665 48.409 17.833 o
1 3 12 452.890 493.813 50.152 17.247 o
1 3 13 193.941 308.159 88.154 8.222 o
1 3 14 43.729 128.102 58.012 19.553 o
1 4 0 202.684 446.217 219.176 1.402 o
1 4 1 11803.200 10582.400 183.374 0.144 o
1 4 2 239.604 264.897 25.991 53.881 o
1 4 3 1788.430 1701.450 55.608 4.280 o
1 4 4 8196.070 9095.510 113.448 0.261 o
1 4 5 105.122 102.243 18.283 127.901 o
1 4 6 1445.310 1483.210 85.882 4.114 o
1 4 7 11137.300 10248.200 138.590 0.163 o
1 4 8 1075.490 1096.630 47.296 8.795 o
1 4 9 3147.620 2958.670 79.917 1.616 o
1 4 10 2256.150 2200.930 80.439 2.595 o
1 4 11 2667.900 2474.000 154.855 1.362 o
1 4 12 1191.660 1198.710 93.286 4.485 o
1 4 13 53.639 68.251 43.266 34.599 o
1 5 0 111.654 139.032 19.476 110.610 o
1 5 1 5795.770 5188.820 117.185 0.548 o
1 5 2 1065.780 1131.100 56.922 7.751 o
1 5 3 2964.950 2851.350 74.453 1.793 o
1 5 4 366.682 569.144 265.344 0.953 o
1 5 5 8943.600 8287.560 305.094 0.192 o
1 5 6 165.168 197.683 28.759 56.652 o
1 5 7 4013.730 3988.210 131.978 0.898 o
1 5 8 117.648 111.952 18.524 119.929 o
1 5 9 110.560 109.352 20.581 107.238 o
1 5 10 26.137 36.501 13.755 286.151 o
1 5 11 1680.020 1583.920 126.299 2.493 o
1 5 12 131.824 148.584 34.656 46.185 o
1 5 13 3858.350 3943.490 177.013 0.788 o
1 6 0 3349.480 3510.730 101.879 1.277 o
1 6 1 11882.500 11136.300 185.340 0.138 o
1 6 2 580.788 459.620 20.636 30.608 o
1 6 3 363.467 303.220 44.131 23.773 o
1 6 4 476.056 501.872 41.008 21.264 o
1 6 5 38.664 116.132 36.163 48.024 o
1 6 6 257.125 257.250 51.666 20.764 o
1 6 7 5034.460 4992.050 211.569 0.507 o
1 6 8 691.774 612.146 51.940 13.161 o
1 6 9 1031.130 1093.690 70.878 6.638 o
1 6 10 1040.200 1141.400 72.853 6.348 o
1 6 11 373.610 433.413 69.081 11.586 o
1 6 12 334.260 343.457 63.168 13.964 o
1 6 13 190.355 210.248 41.787 31.292 o
1 7 0 556.394 949.600 168.375 2.206 o
1 7 1 544.477 951.049 85.053 6.962 o
1 7 2 7027.270 6991.570 222.890 0.309 o
1 7 3 1133.430 1117.500 160.750 2.151 o
1 7 4 15754.600 14380.800 339.743 0.076 o
1 7 5 40.012 16.152 9.014 505.145 o
1 7 6 1592.880 1709.570 123.451 2.579 o
1 7 7 535.668 661.459 81.159 7.959 o
1 7 8 104.383 100.989 33.964 50.572 o
1 7 9 330.728 383.569 44.181 23.580 o
1 7 10 1272.750 1145.340 76.040 5.397 o
1 7 11 561.261 534.114 78.527 8.507 o
1 7 12 909.673 944.271 104.486 4.514 o
1 7 13 12.310 46.798 23.403 116.407 o
1 8 0 24.621 109.426 34.360 53.678 o
1 8 1 3411.620 3840.580 173.423 0.889 o
1 8 2 7085.500 6622.840 232.949 0.308 o
1 8 3 7028.730 7334.380 124.049 0.355 o
1 8 4 60.613 62.646 13.259 239.827 o
1 8 5 7787.250 7608.180 266.191 0.246 o
1 8 6 2229.080 1958.810 139.604 1.809 o
1 8 7 853.719 960.712 101.133 4.809 o
1 8 8 1137.930 1174.840 115.014 3.530 o
1 8 9 183.396 249.895 58.985 17.339 o
1 8 10 3383.350 3381.970 139.469 1.100 o
1 8 11 404.012 493.155 79.969 8.883 o
1 8 12 31.021 38.002 23.363 113.502 o
1 9 0 7222.900 6684.350 232.192 0.301 o
1 9 1 271.982 262.370 47.376 23.527 o
1 9 2 2014.150 2153.080 139.676 1.867 o
1 9 3 7.952 34.793 25.599 100.085 o
1 9 4 688.699 579.696 40.491 16.837 o
1 9 5 974.918 934.052 54.210 9.146 o
1 9 6 1302.590 1198.930 114.257 3.366 o
1 9 7 800.297 800.125 96.374 5.407 o
1 9 8 3320.560 3343.380 202.591 0.829 o
1 9 9 1211.590 1173.400 122.874 3.153 o
1 9 10 128.575 138.809 33.938 48.225 o
1 9 11 1028.500 1045.730 118.584 3.563 o
1 9 12 302.196 310.971 67.062 12.937 o
1 10 0 758.116 880.094 90.064 5.967 o
1 10 1 1708.420 1636.770 123.343 2.519 o
1 10 2 6072.640 5957.670 241.566 0.366 o
1 10 3 41.291 116.457 55.416 21.426 o
1 10 4 144.189 175.480 23.349 78.772 o
1 10 5 264.166 288.004 80.799 9.493 o
1 10 6 3548.530 3333.220 199.274 0.808 o
1 10 7 887.126 878.219 106.614 4.463 o
1 10 8 369.782 392.347 72.830 10.738 o
1 10 9 48.843 72.326 37.857 44.580 o
1 10 10 27.633 48.962 34.757 53.953 o
1 10 11 315.894 426.815 84.151 8.496 o
1 10 12 1237.080 1232.020 135.277 2.709 o
1 11 0 7304.970 7081.240 265.687 0.271 o
1 11 1 410.008 407.345 64.033 12.913 o
1 11 2 2243.320 2206.040 154.855 1.563 o
1 11 3 557.105 545.795 79.284 8.377 o
1 11 4 106.847 112.536 21.002 104.889 o
1 11 5 146.652 135.421 44.383 30.211 o
1 11 6 2453.840 2442.050 177.605 1.243 o
1 11 7 54.268 54.370 27.474 80.386 o
1 11 8 2974.480 2842.120 203.132 0.925 o
1 11 9 1495.490 1586.760 152.078 2.063 o
1 11 10 244.868 226.315 63.276 14.966 o
1 11 11 671.052 847.356 116.565 4.148 o
1 12 0 15.475 19.469 17.198 211.439 o
1 12 1 1585.820 1643.150 135.205 2.339 o
1 12 2 673.002 744.673 97.167 5.636 o
1 12 3 8216.400 8228.030 317.425 0.205 o
1 12 4 2240.120 2097.910 165.094 1.473 o
1 12 5 5317.330 5267.010 268.283 0.397 o
1 12 6 203.996 234.932 55.668 19.052 o
1 12 7 5.896 8.761 25.563 102.875 o
1 12 8 3.758 17.919 17.631 210.652 o
1 12 9 30.811 35.334 27.185 86.135 o
1 12 10 411.644 402.406 81.123 8.795 o
1 13 0 2681.150 2751.760 135.721 1.468 o
1 13 1 299.868 268.047 73.515 11.142 o
1 13 2 2358.830 2218.480 167.979 1.386 o
1 13 3 1938.750 1703.440 152.800 1.819 o
1 13 4 988.641 922.999 111.301 4.029 o
1 13 5 114.755 186.583 59.022 18.152 o
1 13 6 935.483 937.277 119.197 3.686 o
1 13 7 13.192 2.812 12.763 382.708 o
1 13 8 337.525 363.467 81.195 9.076 o
1 13 9 2218.020 2218.230 195.452 1.183 o
1 13 10 21.727 28.411 19.109 168.809 o
1 14 0 124.807 163.570 36.668 42.083 o
1 14 1 1320.900 1333.830 98.041 3.920 o
1 14 2 81.592 76.804 34.955 49.920 o
1 14 3 2002.980 2030.240 174.973 1.454 o
1 14 4 57.209 75.715 40.706 38.611 o
1 14 5 10.178 62.627 41.246 39.115 o
1 14 6 953.196 967.094 128.499 3.252 o
1 14 7 1632.040 1664.680 168.808 1.713 o
1 14 8 467.467 435.504 87.216 7.587 o
1 14 9 279.111 320.093 77.229 10.191 o
1 15 0 1217.560 1205.770 97.659 4.204 o
1 15 1 45.458 67.161 25.700 90.788 o
1 15 2 413.113 431.705 58.679 14.605 o
1 15 3 285.856 341.051 52.315 19.418 o
1 15 4 32.694 55.718 49.377 27.263 o
1 15 5 448.319 426.599 59.562 14.007 o
1 15 6 192.829 174.252 55.524 19.576 o
1 15 7 1361.860 1334.310 156.657 2.094 o
1 15 8 299.200 258.800 67.638 12.913 o
1 16 0 16.076 13.036 18.550 185.406 o
1 16 1 2112.270 1969.230 130.455 1.999 o
1 16 2 885.678 757.039 82.989 6.487 o
1 16 3 1224.960 1044.910 95.925 4.418 o
1 16 4 117.856 134.688 36.118 44.112 o
1 16 5 69.051 68.282 22.084 111.699 o
1 16 6 117.650 138.530 29.280 61.854 o
1 16 7 559.207 490.235 73.281 9.552 o
1 17 0 0.022 4.060 22.570 133.614 o
1 17 1 0.180 25.031 26.212 97.555 o
1 17 2 1315.930 1289.370 110.592 3.440 o
1 17 3 3.853 32.125 29.036 79.055 o
1 17 4 3598.320 3261.460 211.046 0.762 o
1 17 5 2.681 5.321 5.787 1745.410 o
1 17 6 197.920 154.857 36.051 40.209 o
1 18 0 56.357 57.216 47.574 28.922 o
1 18 1 660.676 715.097 85.331 6.934 o
1 18 2 546.903 611.731 79.741 8.223 o
1 18 3 675.117 685.468 101.386 5.318 o
1 18 4 3.969 1.660 43.590 35.878 o
1 19 0 204.006 220.425 51.459 21.891 o
2 0 0 24823.400 26049.000 352.179 0.031 o
2 0 2 4795.290 4626.340 92.642 0.765 o
2 0 4 265.215 441.381 60.031 15.331 o
2 0 6 7344.420 7930.800 281.767 0.247 o
2 0 8 3000.860 3043.770 189.683 0.971 o
2 0 10 12.994 30.615 16.520 224.907 o
2 0 12 448.493 614.660 72.882 9.854 o
2 1 0 398.073 553.375 23.603 35.439 o
2 1 1 374.246 389.482 18.643 48.240 o
2 1 2 8001.750 8237.780 179.305 0.265 o
2 1 3 5888.160 6704.940 234.193 0.363 o
2 1 4 260.223 320.795 36.226 33.966 o
2 1 5 7956.610 8287.640 287.986 0.222 o
2 1 6 8241.910 8625.900 205.871 0.241 o
2 1 7 2902.160 3315.880 133.879 1.293 o
2 1 8 309.531 398.463 47.586 21.521 o
2 1 9 106.546 141.421 42.112 34.077 o
2 1 10 742.344 843.431 63.272 9.500 o
2 1 11 688.634 739.467 55.266 11.797 o
2 1 12 499.441 587.120 50.620 15.858 o
2 1 13 536.954 643.758 89.733 6.817 o
2 2 0 460.893 322.587 18.415 43.916 o
2 2 1 1840.870 2049.400 47.539 3.977 o
2 2 2 391.497 504.194 21.986 38.779 o
2 2 3 228.526 191.724 14.237 98.020 o
2 2 4 4588.060 4939.830 165.545 0.638 o
2 2 5 1509.010 1534.220 82.776 4.078 o
2 2 6 987.124 1158.860 73.707 6.423 o
2 2 7 698.243 699.204 60.158 10.823 o
2 2 8 1138.410 1180.320 79.789 5.459 o
2 2 9 5719.750 5897.070 262.476 0.366 o
2 2 10 333.911 378.616 42.257 24.999 o
2 2 11 2117.830 2200.900 107.890 2.275 o
2 2 12 1639.100 1766.190 89.154 3.447 o
2 2 13 18.950 6.665 11.813 417.373 o
2 3 0 1902.970 1871.980 49.489 3.991 o
2 3 1 2678.170 2491.470 68.279 2.196 o
2 3 2 2213.220 2094.720 165.491 1.478 o
2 3 3 9574.650 9825.770 247.894 0.179 o
2 3 4 27.842 36.954 7.053 672.077 o
2 3 5 5042.320 5436.630 326.186 0.339 o
2 3 6 369.371 429.650 26.899 37.262 o
2 3 7 448.494 431.576 24.000 35.671 o
2 3 8 153.463 161.937 24.956 71.973 o
2 3 9 23.624 32.666 12.790 328.576 o
2 3 10 2979.630 3051.690 146.739 1.227 o
2 3 11 1475.820 1566.380 109.823 3.130 o
2 3 12 827.090 861.765 86.971 6.111 o
2 4 0 1638.860 1638.250 54.635 4.768 o
2 4 1 729.693 643.192 39.354 16.047 o
2 4 2 3878.080 3816.670 153.160 0.875 o
2 4 3 1664.250 1662.730 105.135 3.009 o
2 4 4 3970.170 3861.810 168.231 0.804 o
2 4 5 2827.360 2482.630 92.107 1.859 o
2 4 6 1693.750 1730.480 46.715 4.755 o
2 4 7 1747.680 1848.640 75.500 3.623 o
2 4 8 421.596 436.866 47.810 19.230 o
2 4 9 197.104 259.583 40.873 31.496 o
2 4 10 829.491 832.766 75.169 7.418 o
2 4 11 18.696 24.782 10.384 481.321 o
2 4 12 144.287 105.722 24.765 77.888 o
2 5 0 368.634 412.645 48.097 20.111 o
2 5 1 15448.900 13957.400 286.526 0.082 o
2 5 2 666.437 543.884 58.985 11.897 o
2 5 3 3679.780 3954.900 82.907 1.154 o
2 5 4 198.919 237.680 24.884 62.099 o
2 5 5 221.948 282.085 30.613 45.239 o
2 5 6 74.049 84.329 17.997 146.677 o
2 5 7 6304.600 5916.030 99.385 0.475 o
2 5 8 0.211 2.638 18.839 191.734 o
2 5 9 3835.550 3807.770 152.845 0.886 o
2 5 10 163.626 148.038 30.936 53.006 o
2 5 11 7.758 8.509 18.460 193.284 o
2 5 12 98.904 127.669 40.597 36.786 o
2 6 0 140.754 209.802 36.379 40.931 o
2 6 1 3704.260 3875.800 159.001 0.883 o
2 6 2 4852.320 4559.540 176.560 0.608 o
2 6 3 3115.690 2843.090 145.084 1.228 o
2 6 4 9108.920 8351.880 255.880 0.204 o
2 6 5 1647.370 1454.410 111.842 2.948 o
2 6 6 1008.750 960.496 94.211 5.004 o
2 6 7 1886.330 1619.360 128.318 2.290 o
2 6 8 17.484 45.645 26.500 91.490 o
2 6 9 487.628 434.639 71.064 10.494 o
2 6 10 1145.450 1068.080 115.411 3.564 o
2 6 11 1.976 13.953 20.695 156.112 o
2 6 12 778.261 775.535 105.460 4.773 o
2 7 0 4831.140 4497.960 172.377 0.622 o
2 7 1 1445.510 1278.390 95.437 3.882 o
2 7 2 3327.800 3141.260 154.891 1.069 o
2 7 3 1298.860 1196.910 97.924 4.067 o
2 7 4 358.019 324.059 53.289 18.082 o
2 7 5 1969.850 1766.970 127.669 2.197 o
2 7 6 1223.070 1116.140 105.388 3.887 o
2 7 7 127.435 143.930 40.489 35.838 o
2 7 8 917.098 833.331 97.744 5.049 o
2 7 9 402.720 338.409 66.485 12.434 o
2 7 10 4014.850 3737.320 220.835 0.650 o
2 7 11 272.015 317.425 66.773 13.191 o
2 7 12 328.704 352.578 74.020 10.712 o
2 8 0 184.986 163.291 34.180 44.028 o
2 8 1 4.650 1.154 10.239 619.153 o
2 8 2 244.382 257.430 46.042 25.175 o
2 8 3 343.617 320.814 53.974 17.927 o
2 8 4 4754.590 4445.830 203.889 0.572 o
2 8 5 153.151 148.906 39.768 36.039 o
2 8 6 454.409 411.780 66.196 11.970 o
2 8 7 199.735 211.172 50.945 22.392 o
2 8 8 21.828 15.107 6.850 863.415 o
2 8 9 1352.210 1330.270 131.708 2.694 o
2 8 10 582.805 581.706 87.541 7.053 o
2 8 11 1603.860 1442.730 144.904 2.185 o
2 9 0 204.555 254.510 45.825 26.194 o
2 9 1 2757.000 2554.330 148.581 1.369 o
2 9 2 1462.190 1282.140 107.623 3.382 o
2 9 3 1909.790 1704.380 128.463 2.243 o
2 9 4 71.895 71.713 28.267 73.540 o
2 9 5 2733.750 2737.810 171.981 1.172 o
2 9 6 3747.800 3440.190 198.264 0.773 o
2 9 7 1471.640 1385.150 130.193 2.627 o
2 9 8 116.454 182.112 50.585 24.068 o
2 9 9 357.582 310.755 63.745 13.710 o
2 9 10 293.087 361.989 71.785 11.433 o
2 9 11 39.987 44.744 20.191 142.683 o
2 10 0 8504.020 7956.070 271.636 0.219 o
2 10 1 5.101 7.644 9.338 706.674 o
2 10 2 7007.630 6690.620 259.161 0.293 o
2 10 3 265.110 213.011 48.241 23.415 o
2 10 4 645.132 526.001 76.111 8.602 o
2 10 5 381.904 304.626 60.355 14.796 o
2 10 6 2144.950 1910.250 154.422 1.665 o
2 10 7 830.446 781.520 101.926 4.939 o
2 10 8 4247.150 3978.990 232.769 0.584 o
2 10 9 206.508 216.797 56.534 18.615 o
2 10 10 74.567 115.195 43.806 32.804 o
2 11 0 72.869 94.896 29.601 66.746 o
2 11 1 446.945 415.061 66.268 11.986 o
2 11 2 3030.890 2820.190 177.173 1.057 o
2 11 3 4159.490 4034.730 215.102 0.632 o
2 11 4 13.336 7.535 20.840 150.976 o
2 11 5 2881.530 2562.300 180.706 1.100 o
2 11 6 2373.380 2202.360 172.990 1.338 o
2 11 7 5.179 36.668 32.846 61.891 o
2 11 8 1256.760 1081.710 125.759 3.052 o
2 11 9 72.934 105.171 44.708 31.734 o
2 11 10 8.605 15.359 22.606 129.312 o
2 12 0 138.284 159.902 40.562 35.154 o
2 12 1 200.544 155.720 42.689 30.675 o
2 12 2 398.371 388.669 66.773 12.221 o
2 12 3 470.771 475.741 76.580 9.313 o
2 12 4 5.223 21.272 17.739 206.037 o
2 12 5 237.460 227.721 59.598 16.666 o
2 12 6 0.929 62.699 32.161 63.891 o
2 12 7 124.770 91.471 43.879 31.833 o
2 12 8 438.840 470.405 88.622 7.411 o
2 12 9 2527.710 2305.010 196.967 1.097 o
2 13 0 198.463 211.352 48.854 24.055 o
2 13 1 93.186 97.636 30.178 62.728 o
2 13 2 110.777 80.366 25.671 80.299 o
2 13 3 826.913 746.764 100.448 5.084 o
2 13 4 47.891 64.033 31.476 63.043 o
2 13 5 1972.440 1817.370 165.996 1.604 o
2 13 6 27.401 55.308 29.745 72.163 o
2 13 7 8.241 32.593 29.349 76.969 o
2 13 8 155.359 211.569 65.692 14.576 o
2 14 0 2436.630 2418.370 183.194 1.206 o
2 14 1 559.097 671.662 96.338 6.003 o
2 14 2 1178.500 1191.930 130.518 2.912 o
2 14 3 1071.700 1062.170 124.064 3.285 o
2 14 4 601.436 599.697 95.905 6.035 o
2 14 5 145.965 187.628 53.108 21.654 o
2 14 6 1643.520 1647.120 163.436 1.792 o
2 14 7 195.146 169.385 50.837 22.838 o
2 14 8 1323.840 1134.890 145.192 2.419 o
2 15 0 19.936 28.808 13.953 293.849 o
2 15 1 3797.250 3513.060 229.993 0.661 o
2 15 2 1595.180 1585.580 154.314 1.976 o
2 15 3 827.057 792.121 111.301 4.314 o
2 15 4 37.049 5.769 11.321 396.034 o
2 15 5 42.186 37.893 4.182 782.207 o
2 15 6 455.339 416.179 85.810 7.856 o
2 15 7 1457.490 1409.480 162.498 1.927 o
2 16 0 18.153 14.720 13.192 338.601 o
2 16 1 493.312 503.539 88.694 7.228 o
2 16 2 123.573 154.530 50.260 24.444 o
2 16 3 20.197 25.491 14.638 272.771 o
2 16 4 978.827 1007.080 130.446 3.141 o
2 16 5 454.452 499.934 91.326 6.973 o
2 17 0 410.578 296.884 48.781 19.974 o
2 17 1 224.066 210.741 41.721 30.442 o
2 17 2 25.858 6.849 15.171 260.596 o
2 17 3 2.467 -5.012 13.845 351.810 o
2 17 4 20.911 35.658 34.180 56.431 o
2 18 0 31.108 11.631 6.164 866.200 o
3 0 0 796.057 1000.700 111.589 4.205 o
3 0 2 5541.130 5407.580 308.159 0.338 o
3 0 4 2145.510 2164.320 158.640 1.565 o
3 0 6 728.124 819.955 103.008 4.994 o
3 0 8 342.020 390.039 75.967 10.118 o
3 0 10 114.799 181.968 56.570 19.650 o
3 1 0 3734.690 3757.360 132.234 0.989 o
3 1 1 29.736 48.788 10.595 393.740 o
3 1 2 2146.590 2258.190 76.282 2.753 o
3 1 3 89.566 73.425 10.380 258.864 o
3 1 4 211.202 229.133 36.065 38.014 o
3 1 5 2011.850 2168.900 115.564 2.240 o
3 1 6 149.217 159.947 32.605 49.498 o
3 1 7 498.539 495.504 58.169 13.731 o
3 1 8 6437.240 6747.920 223.136 0.342 o
3 1 9 1550.110 1596.310 111.617 2.981 o
3 1 10 691.573 665.294 72.680 8.671 o
3 1 11 540.358 613.835 61.503 11.957 o
3 2 0 919.452 952.168 46.894 10.526 o
3 2 1 1371.800 1649.790 70.895 4.767 o
3 2 2 830.932 858.005 37.050 13.664 o
3 2 3 7311.110 8051.800 215.438 0.279 o
3 2 4 68.622 69.688 24.543 94.025 o
3 2 5 12138.900 13014.500 510.840 0.087 o
3 2 6 304.310 338.012 47.013 22.528 o
3 2 7 1598.250 1708.530 109.226 2.942 o
3 2 8 236.966 262.617 43.846 27.260 o
3 2 9 690.109 737.024 75.761 8.060 o
3 2 10 574.851 636.306 60.721 11.816 o
3 2 11 2611.600 2762.060 156.973 1.316 o
3 3 0 518.674 465.643 32.081 25.887 o
3 3 1 65.150 62.355 9.462 334.112 o
3 3 2 3634.980 3919.600 106.120 1.093 o
3 3 3 843.923 814.550 35.519 14.092 o
3 3 4 10305.900 10849.800 147.125 0.172 o
3 3 5 324.080 395.257 50.092 19.790 o
3 3 6 991.338 1005.210 82.612 5.875 o
3 3 7 696.597 701.922 70.142 8.976 o
3 3 8 76.746 101.690 26.067 81.600 o
3 3 9 929.275 995.827 130.049 3.199 o
3 3 10 511.836 545.507 97.420 6.097 o
3 3 11 1829.080 1579.410 167.762 1.673 o
3 4 0 2455.900 2473.370 76.528 2.316 o
3 4 1 5688.060 5737.040 215.865 0.423 o
3 4 2 490.873 536.660 32.992 25.087 o
3 4 3 319.949 315.561 23.164 49.848 o
3 4 4 119.979 123.491 13.244 164.735 o
3 4 5 355.097 305.385 27.978 40.395 o
3 4 6 0.222 2.235 21.308 150.079 o
3 4 7 1251.530 1298.510 88.835 4.517 o
3 4 8 74.000 106.795 29.159 67.802 o
3 4 9 1452.580 1642.470 161.345 1.903 o
3 4 10 658.182 677.972 106.722 4.924 o
3 4 11 126.093 219.248 61.545 16.603 o
3 5 0 788.153 895.941 60.825 9.469 o
3 5 1 3684.470 3690.240 196.552 0.770 o
3 5 2 410.697 352.218 33.994 30.064 o
3 5 3 2270.430 2247.010 81.326 2.542 o
3 5 4 156.950 166.252 20.804 88.824 o
3 5 5 467.258 559.602 48.745 17.204 o
3 5 6 395.017 424.784 46.665 20.386 o
3 5 7 1780.170 1861.030 155.612 1.812 o
3 5 8 430.556 382.684 73.299 10.374 o
3 5 9 30.582 33.098 25.851 94.777 o
3 5 10 86.885 105.352 38.975 40.340 o
3 6 0 1292.010 1318.590 103.044 3.757 o
3 6 1 9982.950 9502.600 282.596 0.167 o
3 6 2 139.019 156.841 24.374 76.633 o
3 6 3 1396.670 1258.680 118.043 3.104 o
3 6 4 0.398 7.558 4.206 3090.260 o
3 6 5 1.664 6.995 12.150 446.427 o
3 6 6 326.370 380.124 68.828 12.058 o
3 6 7 1953.670 1975.360 161.417 1.639 o
3 6 8 165.690 177.749 52.099 22.217 o
3 6 9 1911.000 1905.630 170.683 1.552 o
3 6 10 950.719 862.103 118.151 3.759 o
3 7 0 836.498 818.873 80.799 6.773 o
3 7 1 58.812 70.992 27.654 77.933 o
3 7 2 2086.630 1991.770 133.402 1.963 o
3 7 3 169.748 135.373 22.469 81.665 o
3 7 4 6959.410 6506.780 259.810 0.298 o
3 7 5 1240.700 1078.610 108.993 3.725 o
3 7 6 2425.990 2413.390 169.853 1.319 o
3 7 7 488.277 520.665 84.656 7.795 o
3 7 8 7.933 -18.136 17.306 221.957 o
3 7 9 343.210 312.341 69.694 11.897 o
3 7 10 498.958 530.111 94.319 6.480 o
3 8 0 2482.920 2365.440 141.514 1.576 o
3 8 1 279.611 299.398 51.955 19.991 o
3 8 2 223.471 251.734 51.017 21.713 o
3 8 3 1656.150 1566.540 124.064 2.571 o
3 8 4 74.414 60.716 20.876 121.582 o
3 8 5 1519.840 1376.460 125.506 2.718 o
3 8 6 243.864 326.980 62.447 14.958 o
3 8 7 1023.150 921.701 110.760 4.015 o
3 8 8 162.670 139.640 42.869 31.627 o
3 8 9 526.438 524.775 91.326 6.785 o
3 9 0 2105.690 1973.740 134.880 1.935 o
3 9 1 2057.140 1968.440 137.801 1.920 o
3 9 2 610.764 557.188 72.218 9.364 o
3 9 3 796.286 709.916 87.505 6.334 o
3 9 4 759.614 775.608 94.247 5.696 o
3 9 5 13.123 -3.605 9.807 619.909 o
3 9 6 15.040 20.912 26.572 93.137 o
3 9 7 8.630 19.542 22.931 125.257 o
3 9 8 2518.170 2339.330 185.249 1.180 o
3 9 9 26.269 16.910 34.468 55.735 o
3 10 0 27.696 37.893 24.914 101.561 o
3 10 1 17.038 55.849 30.070 71.611 o
3 10 2 2052.560 1963.680 144.759 1.823 o
3 10 3 74.579 101.241 36.668 45.592 o
3 10 4 1035.970 851.683 100.376 4.645 o
3 10 5 19.567 17.991 7.319 805.337 o
3 10 6 472.360 416.792 74.525 9.844 o
3 10 7 443.278 487.531 84.764 7.954 o
3 10 8 153.352 151.321 47.556 26.503 o
3 11 0 1875.390 1895.570 144.002 1.938 o
3 11 1 222.794 214.958 51.017 21.984 o
3 11 2 360.953 422.308 71.929 10.934 o
3 11 3 5.507 33.747 27.041 90.471 o
3 11 4 13.149 19.650 24.842 106.454 o
3 11 5 358.763 378.249 74.669 10.375 o
3 11 6 1374.890 1202.030 129.761 2.781 o
3 11 7 34.828 77.842 35.694 50.271 o
3 11 8 2049.060 1996.200 180.093 1.392 o
3 12 0 0.945 22.138 26.140 98.188 o
3 12 1 4.221 70.307 35.730 51.767 o
3 12 2 8.242 39.876 30.719 70.143 o
3 12 3 1315.680 1374.760 135.962 2.588 o
3 12 4 204.930 278.017 65.403 14.206 o
3 12 5 3163.150 2958.930 206.485 0.868 o
3 12 6 23.787 39.264 23.832 110.876 o
3 12 7 313.027 283.245 64.934 13.683 o
3 13 0 797.880 844.039 107.118 4.582 o
3 13 1 39.429 37.821 19.289 155.869 o
3 13 2 805.459 758.085 103.765 4.865 o
3 13 3 205.449 260.098 65.295 14.299 o
3 13 4 1145.930 1016.700 123.956 3.243 o
3 13 5 255.285 326.835 74.201 11.022 o
3 13 6 1003.370 820.568 114.834 3.889 o
3 14 0 1452.000 1432.630 145.120 2.266 o
3 14 1 1929.020 2053.560 175.009 1.473 o
3 14 2 884.331 842.128 112.599 4.136 o
3 14 3 42.978 40.165 30.466 68.323 o
3 14 4 1.341 40.814 30.971 69.549 o
3 14 5 30.317 102.035 47.268 29.342 o
3 15 0 186.919 308.087 73.732 11.460 o
3 15 1 292.039 347.531 77.842 9.957 o
3 15 2 364.815 440.299 84.151 8.342 o
3 15 3 402.629 470.477 90.245 7.267 o
3 15 4 2.497 -12.511 5.084 2399.550 o
3 16 0 281.399 377.059 80.979 9.271 o
3 16 1 1148.020 1182.340 144.832 2.513 o
3 16 2 2.359 79.356 48.457 28.540 o
4 0 0 3033.670 3251.920 126.896 1.302 o
4 0 2 3433.520 3616.460 218.347 0.735 o
4 0 4 59.609 56.317 30.466 66.240 o
4 0 6 814.691 750.766 107.659 4.588 o
4 0 8 2812.740 3095.470 235.076 0.782 o
4 1 0 9.173 6.246 5.324 1645.910 o
4 1 1 437.084 462.004 39.649 23.379 o
4 1 2 1443.240 1578.600 71.426 4.656 o
4 1 3 1085.730 1220.390 93.304 4.662 o
4 1 4 788.276 804.499 76.576 7.451 o
4 1 5 1964.290 1868.220 119.977 2.307 o
4 1 6 648.080 747.965 78.617 7.792 o
4 1 7 762.317 713.851 78.311 7.488 o
4 1 8 57.338 79.463 30.543 65.167 o
4 1 9 278.161 225.217 46.791 24.214 o
4 2 0 289.645 299.363 38.289 30.941 o
4 2 1 539.256 565.088 49.769 15.813 o
4 2 2 2.525 0.437 5.941 1789.510 o
4 2 3 64.018 70.968 20.482 126.864 o
4 2 4 614.128 665.350 70.140 9.470 o
4 2 5 12.745 22.001 10.626 492.535 o
4 2 6 482.686 473.741 62.858 12.518 o
4 2 7 157.983 191.913 39.525 35.537 o
4 2 8 32.756 22.027 17.631 189.988 o
4 2 9 518.630 488.241 67.436 11.033 o
4 3 0 1887.420 1920.940 121.270 2.320 o
4 3 1 19.259 55.385 41.337 38.806 o
4 3 2 955.835 1006.690 63.511 7.894 o
4 3 3 667.458 814.691 109.931 4.590 o
4 3 4 276.698 211.172 58.156 17.101 o
4 3 5 243.053 314.397 68.648 12.736 o
4 3 6 337.522 349.730 72.794 10.989 o
4 3 7 65.510 90.137 26.572 81.332 o
4 3 8 10.881 -6.886 21.561 143.448 o
4 3 9 2.002 -23.652 32.413 64.931 o
4 4 0 297.435 310.369 39.231 29.547 o
4 4 1 1202.180 1154.400 79.897 5.319 o
4 4 2 640.539 615.269 51.272 13.859 o
4 4 3 7898.190 7972.940 336.534 0.207 o
4 4 4 707.165 729.710 104.991 4.946 o
4 4 5 9.041 11.573 19.001 181.318 o
4 4 6 1139.300 1150.400 139.495 2.678 o
4 4 7 1250.520 1211.580 148.112 2.366 o
4 4 8 661.903 648.299 110.435 4.667 o
4 5 0 62.299 42.350 38.596 43.049 o
4 5 1 2804.720 3048.890 123.914 1.452 o
4 5 2 2.928 -3.399 5.278 2207.710 o
4 5 3 1340.230 1214.500 129.508 2.810 o
4 5 4 100.581 90.858 34.072 50.792 o
4 5 5 611.938 492.903 91.723 6.581 o
4 5 6 3.204 -2.235 7.608 1115.660 o
4 5 7 3334.540 3315.870 246.253 0.670 o
4 5 8 0.016 36.235 30.502 71.953 o
4 6 0 95.284 101.525 31.043 59.510 o
4 6 1 1620.050 1579.630 91.022 3.552 o
4 6 2 1429.780 1305.730 80.037 4.591 o
4 6 3 1676.240 1682.200 149.447 2.000 o
4 6 4 867.222 896.931 115.483 3.966 o
4 6 5 110.308 49.611 11.862 220.730 o
4 6 6 587.467 585.095 95.329 6.137 o
4 6 7 255.646 211.569 55.813 18.546 o
4 6 8 318.648 238.285 65.583 13.560 o
4 7 0 3325.020 3592.240 143.408 1.068 o
4 7 1 297.060 312.620 43.882 25.300 o
4 7 2 141.719 104.916 27.041 68.998 o
4 7 3 84.158 81.447 29.096 68.293 o
4 7 4 70.095 114.942 44.744 31.644 o
4 7 5 206.115 168.159 50.873 22.662 o
4 7 6 933.877 848.582 118.548 3.764 o
4 7 7 0.370 2.596 21.236 150.981 o
4 8 0 253.552 457.612 187.773 1.893 o
4 8 1 1073.080 1066.840 142.470 2.656 o
4 8 2 71.549 356.908 245.262 1.130 o
4 8 3 273.503 302.859 67.675 12.922 o
4 8 4 2481.810 2439.170 188.169 1.155 o
4 8 5 178.018 133.186 47.484 26.296 o
4 8 6 786.229 766.269 112.779 4.290 o
4 8 7 230.291 256.529 69.766 12.584 o
4 9 0 2.617 49.215 31.728 65.950 o
4 9 1 669.617 705.806 94.824 5.900 o
4 9 2 451.370 449.890 77.770 9.207 o
4 9 3 794.832 637.302 92.408 5.938 o
4 9 4 198.970 211.244 56.894 18.511 o
4 9 5 1255.160 1016.090 127.597 3.018 o
4 9 6 243.324 351.785 77.950 10.092 o
4 10 0 1276.990 1340.940 129.148 2.821 o
4 10 1 55.256 53.325 28.087 77.238 o
4 10 2 1936.580 1760.370 153.304 1.800 o
4 10 3 147.122 108.561 40.237 36.162 o
4 10 4 492.495 383.838 77.445 9.239 o
4 10 5 4.849 16.513 29.529 77.148 o
4 10 6 653.576 536.746 99.114 5.683 o
4 11 0 360.367 267.958 60.211 15.186 o
4 11 1 4.857 11.465 17.018 227.140 o
4 11 2 951.390 916.329 113.031 3.987 o
4 11 3 996.201 906.270 116.601 3.762 o
4 11 4 211.965 209.189 54.118 20.058 o
4 11 5 1010.660 1002.610 128.895 3.176 o
4 12 0 31.983 59.057 28.483 77.530 o
4 12 1 671.740 602.581 92.047 6.288 o
4 12 2 119.924 126.227 44.816 30.379 o
4 12 3 60.010 49.467 31.944 61.018 o
4 12 4 0.844 11.862 23.796 119.196 o
4 13 0 558.748 576.838 90.353 6.769 o
4 13 1 9.592 0.505 16.657 237.353 o
4 13 2 306.726 289.230 68.396 12.544 o
4 14 0 442.156 380.485 77.229 9.479 o
5 0 0 2583.620 2431.850 193.758 1.094 o
5 0 2 3085.070 3126.690 226.784 0.780 o
5 0 4 996.279 1120.360 143.461 2.656 o
5 1 0 292.688 296.477 68.756 12.486 o
5 1 1 1992.140 2005.540 179.480 1.413 o
5 1 2 809.714 710.606 76.712 7.527 o
5 1 3 539.039 462.026 63.067 12.100 o
5 1 4 55.018 47.984 23.276 107.790 o
5 1 5 223.942 189.686 41.896 30.532 o
5 2 0 164.180 270.085 67.026 13.843 o
5 2 1 2.107 -8.653 11.105 544.459 o
5 2 2 11.932 5.552 5.985 1323.470 o
5 2 3 457.748 442.174 89.488 7.278 o
5 2 4 17.748 100.052 48.602 28.011 o
5 2 5 1897.460 1844.120 187.628 1.375 o
5 3 0 128.015 117.646 44.672 30.472 o
5 3 1 200.636 167.510 52.315 21.672 o
5 3 2 5.669 54.875 33.495 59.008 o
5 3 3 3.377 8.833 18.352 198.074 o
5 3 4 778.451 807.336 124.316 3.650 o
5 3 5 278.176 324.888 83.178 8.918 o
5 4 0 1476.080 1427.080 151.970 2.113 o
5 4 1 426.754 480.825 90.894 7.112 o
5 4 2 1118.300 1112.830 138.522 2.732 o
5 4 3 435.572 423.462 88.694 7.465 o
5 4 4 503.030 402.190 86.784 7.601 o
5 4 5 9.759 35.658 29.168 77.589 o
5 5 0 13.071 -21.128 29.349 78.087 o
5 5 1 1669.120 1646.580 169.457 1.694 o
5 5 2 247.586 220.690 60.428 16.218 o
5 5 3 1093.920 1065.410 140.938 2.690 o
5 5 4 5.166 0.180 1.514 8677.940 o
5 6 0 577.816 478.121 90.713 6.796 o
5 6 1 1000.240 1000.590 130.734 3.116 o
5 6 2 19.765 11.826 12.871 352.865 o
5 6 3 132.110 80.294 33.423 50.944 o
5 6 4 152.506 145.661 54.479 20.845 o
5 7 0 87.339 47.160 26.140 83.553 o
5 7 1 326.522 325.429 75.282 10.467 o
5 7 2 8.427 -0.685 25.274 105.521 o
5 7 3 64.521 51.414 31.151 63.446 o
5 8 0 220.884 277.080 68.648 12.949 o
5 8 1 316.099 211.352 58.373 16.631 o
5 8 2 116.688 104.558 38.398 40.351 o
5 9 0 478.593 443.833 88.586 7.352 o
5 9 1 1031.100 1095.630 137.548 2.825 o
;
loop_
_space_group_symop_id
_space_group_symop_operation_xyz
1 x,y,z
2 -x,y+1/2,-z+1/2
3 -x,-y,-z
4 x,-y-1/2,z-1/2
loop_
_atom_site_label
_atom_site_type_symbol
_atom_site_fract_x
_atom_site_fract_y
_atom_site_fract_z
_atom_site_U_iso_or_equiv
_atom_site_adp_type
_atom_site_occupancy
_atom_site_refinement_flags_posn
Br1 Br 0.27909(18) 0.69278(5) 0.36560(6) 0.0493(3) Uani 1.000000 .
Zn1 Zn 1.20838(12) 0.60376(4) 1.02274(5) 0.0169(2) Uani 1.000000 .
O1 O 1.0300(8) 0.5767(3) 0.8725(3) 0.0241(9) Uani 1.000000 .
O2 O 0.6684(8) 0.4823(3) 0.8646(3) 0.0270(9) Uani 1.000000 .
O3 O 1.0145(7) 0.7997(3) 0.5849(3) 0.0249(9) Uani 1.000000 .
O4 O 0.5867(7) 0.8474(3) 0.5092(3) 0.0265(9) Uani 1.000000 .
C1 C 0.6498(11) 0.5860(4) 0.7202(4) 0.0187(11) Uani 1.000000 .
C2 C 0.7533(11) 0.6645(4) 0.6849(4) 0.0195(11) Uani 1.000000 .
C3 C 0.6330(10) 0.7027(3) 0.5844(4) 0.0163(11) Uani 1.000000 .
C4 C 0.4181(11) 0.6580(4) 0.5160(4) 0.0216(11) Uani 1.000000 .
C5 C 0.3111(13) 0.5808(4) 0.5505(5) 0.0287(13) Uani 1.000000 .
C6 C 0.4221(12) 0.5451(4) 0.6537(4) 0.0260(12) Uani 1.000000 .
C7 C 0.7910(11) 0.5451(4) 0.8276(4) 0.0199(11) Uani 1.000000 .
C8 C 0.7455(11) 0.7897(3) 0.5562(4) 0.0183(11) Uani 1.000000 .
H5 H 0.1633(13) 0.5527(4) 0.5040(5) 0.0345(16) Uiso 1.000000 R
H6 H 0.3451(12) 0.4944(4) 0.6781(4) 0.0312(15) Uiso 1.000000 R
H2 H 0.9063(11) 0.6916(4) 0.7298(4) 0.0234(13) Uiso 1.000000 R
loop_
_atom_site_aniso_label
_atom_site_aniso_U_11
_atom_site_aniso_U_22
_atom_site_aniso_U_33
_atom_site_aniso_U_12
_atom_site_aniso_U_13
_atom_site_aniso_U_23
Br1 0.0687(6) 0.0387(4) 0.0325(4) 0.0035(4) -0.0178(3) 0.0069(3)
Zn1 0.0128(3) 0.0153(3) 0.0210(3) -0.0010(2) -0.0021(2) 0.0012(2)
O1 0.0191(19) 0.036(2) 0.0158(17) -0.0018(18) -0.0023(15) -0.0008(17)
O2 0.027(2) 0.024(2) 0.0268(19) -0.0038(18) -0.0054(16) 0.0074(17)
O3 0.0093(18) 0.026(2) 0.038(2) -0.0041(16) -0.0015(16) 0.0103(18)
O4 0.0143(18) 0.023(2) 0.043(2) 0.0097(17) 0.0077(17) 0.0150(18)
C1 0.015(3) 0.018(3) 0.022(2) 0.001(2) -0.000(2) 0.002(2)
C2 0.014(2) 0.020(3) 0.022(3) 0.001(2) -0.002(2) 0.001(2)
C3 0.010(2) 0.019(3) 0.019(2) -0.001(2) 0.002(2) 0.001(2)
C4 0.025(3) 0.019(3) 0.018(2) 0.003(2) -0.006(2) 0.003(2)
C5 0.027(3) 0.022(3) 0.030(3) -0.007(3) -0.017(2) -0.002(2)
C6 0.031(3) 0.021(3) 0.025(3) -0.006(3) -0.001(2) 0.004(2)
C7 0.015(2) 0.023(3) 0.021(2) 0.003(2) 0.001(2) -0.001(2)
C8 0.020(3) 0.019(3) 0.017(2) 0.001(2) 0.008(2) -0.002(2)
loop_
_atom_type_symbol
_atom_type_scat_dispersion_real
_atom_type_scat_dispersion_imag
_atom_type_scat_Cromer_Mann_a1
_atom_type_scat_Cromer_Mann_a2
_atom_type_scat_Cromer_Mann_a3
_atom_type_scat_Cromer_Mann_a4
_atom_type_scat_Cromer_Mann_b1
_atom_type_scat_Cromer_Mann_b2
_atom_type_scat_Cromer_Mann_b3
_atom_type_scat_Cromer_Mann_b4
_atom_type_scat_Cromer_Mann_c
_atom_type_scat_source
_atom_type_scat_dispersion_source
H 0.00000 0.00000 0.49300 0.32291 0.14019 0.04081 10.51090 26.12570 3.14236
57.79970 0.0030380000826
'International Tables Volume C Table 6.1.1.4 (pp. 500-502)'
'Henke, Gullikson and Davis, At. Data and Nucl. Data Tables, 1993, 54, 2'
C 0.00347 0.00161 2.31000 1.02000 1.58860 0.86500 20.84390 10.20750 0.56870
51.65120 0.215599998832
'International Tables Volume C Table 6.1.1.4 (pp. 500-502)'
'Henke, Gullikson and Davis, At. Data and Nucl. Data Tables, 1993, 54, 2'
Br -0.28346 2.55990 17.17890 5.23580 5.63770 3.98510 2.17230 16.57960 0.26090
41.43280 2.95569992065
'International Tables Volume C Table 6.1.1.4 (pp. 500-502)'
'Henke, Gullikson and Davis, At. Data and Nucl. Data Tables, 1993, 54, 2'
Zn 0.31207 1.46666 14.07430 7.03180 5.16520 2.41000 3.26550 0.23330 10.31630
58.70970 1.30410003662
'International Tables Volume C Table 6.1.1.4 (pp. 500-502)'
'Henke, Gullikson and Davis, At. Data and Nucl. Data Tables, 1993, 54, 2'
O 0.01158 0.00611 3.04850 2.28680 1.54630 0.86700 13.27710 5.70110 0.32390
32.90890 0.250800013542
'International Tables Volume C Table 6.1.1.4 (pp. 500-502)'
'Henke, Gullikson and Davis, At. Data and Nucl. Data Tables, 1993, 54, 2'
loop_
_geom_angle_atom_site_label_1
_geom_angle_atom_site_label_2
_geom_angle_atom_site_label_3
_geom_angle
_geom_angle_site_symmetry_1
_geom_angle_site_symmetry_3
O2 Zn1 O1 123.61(17) 3_767 .
O3 Zn1 O1 111.27(17) 4_576 .
O3 Zn1 O2 111.50(17) 4_576 3_767
O4 Zn1 O1 106.08(16) 4_676 .
O4 Zn1 O2 98.31(17) 4_676 3_767
O4 Zn1 O3 102.91(16) 4_676 4_576
C7 O1 Zn1 135.7(3) . .
C7 O2 Zn1 133.1(4) . 3_767
C8 O3 Zn1 119.7(3) . 4_575
C8 O4 Zn1 136.7(3) . 4_475
C6 C1 C2 119.7(5) . .
C7 C1 C2 119.9(5) . .
C7 C1 C6 120.4(5) . .
C3 C2 C1 121.4(5) . .
H2 C2 C1 119.3(3) . .
H2 C2 C3 119.3(3) . .
C4 C3 C2 117.8(5) . .
C8 C3 C2 117.9(5) . .
C8 C3 C4 124.3(5) . .
C3 C4 Br1 122.3(4) . .
C5 C4 Br1 116.2(4) . .
C5 C4 C3 121.3(5) . .
C6 C5 C4 120.5(5) . .
H5 C5 C4 119.8(3) . .
H5 C5 C6 119.8(3) . .
C5 C6 C1 119.1(5) . .
H6 C6 C1 120.4(3) . .
H6 C6 C5 120.4(3) . .
O2 C7 O1 125.4(5) . .
C1 C7 O1 116.8(5) . .
C1 C7 O2 117.8(5) . .
O4 C8 O3 122.8(5) . .
C3 C8 O3 114.9(5) . .
C3 C8 O4 122.4(5) . .
loop_
_geom_bond_atom_site_label_1
_geom_bond_atom_site_label_2
_geom_bond_distance
_geom_bond_site_symmetry_2
Br1 C4 1.900(5) .
Zn1 O1 1.914(3) .
Zn1 O2 1.920(4) 3_767
Zn1 O3 1.955(4) 4_576
Zn1 O4 1.966(3) 4_676
O1 C7 1.268(6) .
O2 C7 1.246(7) .
O3 C8 1.271(6) .
O4 C8 1.241(6) .
C1 C2 1.396(7) .
C1 C6 1.386(7) .
C1 C7 1.496(7) .
C2 C3 1.383(7) .
C2 H2 0.9300 .
C3 C4 1.386(7) .
C3 C8 1.501(7) .
C4 C5 1.381(8) .
C5 C6 1.382(8) .
C5 H5 0.9300 .
C6 H6 0.9300 .
loop_
_refln_index_h
_refln_index_k
_refln_index_l
_refln_F_squared_meas
_refln_F_squared_sigma
0 0 2 6276.27 63.74
0 0 -2 6269.89 44.02
0 0 3 -0.35 1.47
0 0 3 1.56 1.63
0 0 3 1.62 1.26
0 0 -3 -0.33 0.84
0 0 -3 1 0.67
0 0 4 574.16 18.18
0 0 4 586.02 28.15
0 0 -4 588.75 19.37
0 0 4 570.96 23.69
0 0 -5 9.19 3.24
0 0 5 0.87 1.74
0 0 -5 4.69 2.95
0 0 5 2.59 2.11
0 0 5 7.65 4.64
0 0 -6 3163.27 90.67
0 0 6 3124.58 81.18
0 0 -6 3168.42 56.55
0 0 6 3209.41 67.22
0 0 6 3259.62 54.88
0 0 -7 19.7 5.64
0 0 7 6.33 3.32
0 0 -7 4.25 5.35
0 0 7 6.82 3.86
0 0 8 2293.73 64.49
0 0 8 2189.02 79.71
0 0 -8 2617.88 91.44
0 0 -8 2142.04 55.46
0 0 8 2517.3 58.42
0 0 9 0.13 2.22
0 0 -9 1.19 1.82
0 0 9 0.51 2.03
0 0 9 -1.82 3.84
0 0 -10 138.7 15.82
0 0 10 148.39 23.71
0 0 10 149.14 18.03
0 0 10 167.57 18.36
0 0 11 4.32 3.3
0 0 11 -0.31 2.7
0 0 11 2.18 3.77
0 0 12 260.69 26.58
0 0 12 265.73 36.04
0 0 13 6.71 6.53
0 0 14 75.69 21.86
0 1 -2 105.44 8.26
0 1 -2 90.53 6.37
0 1 -2 110.6 7.51
0 -1 2 116.52 6.3
0 -1 2 114.97 8.65
0 -1 -2 101.86 6.84
0 1 2 108.98 7.07
0 1 3 2065.4 35.76
0 1 3 1867.76 45.8
0 1 -3 2189.07 42.87
0 1 -3 2100.49 28.81
0 -1 3 2080.59 45.37
0 -1 -3 2138.64 35.82
0 -1 3 2197.9 38.6
0 1 -3 2120.33 45.18
0 -1 3 1909.49 34.31
0 1 4 2581.27 59.07
0 -1 4 2662.67 45.79
0 1 4 2734.43 44.96
0 -1 4 2765.77 60.65
0 -1 -4 2660.78 45.69
0 1 -4 2690.71 36.73
0 1 -4 2772.03 59.23
0 -1 4 2798.3 49.63
0 -1 5 366.99 24.8
0 1 5 368.9 25.69
0 1 -5 422.06 16.73
0 1 5 370.5 23.13
0 -1 5 401.65 19.71
0 1 -5 380.89 25.84
0 1 5 376.86 18.09
0 -1 -5 364.27 18.49
0 -1 5 398.07 20.83
0 1 -6 6381.97 74.46
0 1 6 6356.72 117.08
0 -1 -6 6324.34 84.04
0 -1 6 6269.1 90.83
0 -1 6 6269.04 86.06
0 -1 6 6238.94 112.36
0 1 6 6287.8 78.13
0 1 6 6195.4 100.41
0 -1 7 471.75 25.04
0 1 7 452.93 33.91
0 1 7 442.69 28.2
0 -1 -7 468.97 24.68
0 -1 7 420.94 31.82
0 1 7 447.49 22.44
0 1 -7 406.14 34.19
0 1 -7 498.99 23.11
0 -1 7 460.71 26.6
0 1 -8 10.99 5.87
0 -1 8 10.32 4.73
0 -1 -8 12.85 4.69
0 -1 8 6.86 4.8
0 1 -8 6.84 2.97
0 -1 8 6.77 3.71
0 1 8 6.35 2.88
0 1 8 2.87 1.94
0 1 8 7.25 2.89
0 1 -9 63.46 9.61
0 -1 -9 66 10.72
0 1 9 62.86 15.03
0 -1 9 61.88 11.73
0 -1 9 68.5 10.5
0 -1 9 56.27 13.56
0 1 9 74.97 10.69
0 1 9 59.91 11.27
0 -1 10 77.51 11.79
0 -1 -10 82.54 12.89
0 -1 10 81.83 17.87
0 -1 10 82.85 14.27
0 1 10 74.4 17.41
0 1 10 97.85 15.1
0 1 10 97.3 13.23
0 1 11 51.29 9.31
0 -1 11 59.12 16.23
0 1 11 60.05 11.67
0 1 11 66.82 17.42
0 -1 11 55.82 9.89
0 -1 12 628.39 55.16
0 1 12 615.44 55.75
0 1 12 665.81 41.47
0 1 13 55.25 18.43
0 1 13 37.9 10.28
0 1 14 453.31 54.02
0 -2 -2 219.35 12.23
0 2 2 175.05 11.08
0 -2 -3 2298.31 43.63
0 2 3 2264.55 42.97
0 2 -3 2387.19 48.8
0 2 -3 2276.38 39.2
0 2 4 880.65 28.72
0 -2 4 846.88 33.57
0 2 4 941.94 38.18
0 2 -4 845.49 33.43
0 2 -4 851.17 24.72
0 -2 -4 835.5 28.51
0 2 -4 904.33 31.97
0 -2 5 86.66 11.79
0 -2 -5 92.5 10.19
0 2 5 90.9 9.67
0 2 5 82.83 12.04
0 -2 5 92.92 8.36
0 2 -5 91.02 7.68
0 2 -5 107.15 12.66
0 -2 6 302.27 16.34
0 -2 -6 355.06 21.85
0 2 -6 339.92 26.16
0 -2 6 282.84 23.86
0 2 6 331.05 19.68
0 2 -6 323.38 15.41
0 2 6 314.39 25.45
0 2 7 325.96 20.55
0 -2 7 302.73 18.03
0 2 7 318.71 25.29
0 2 7 331.48 29.65
0 -2 -7 344.59 22.97
0 -2 7 292.83 26.13
0 2 -7 295.85 27.72
0 2 -7 312.81 17.24
0 -2 8 87.45 15.61
0 -2 -8 88.73 12.62
0 -2 8 73.2 9.24
0 2 8 77.82 10.35
0 2 8 67.19 11.66
0 2 8 86.65 16.59
0 2 -8 78.53 9.27
0 -2 -9 2041.3 63.81
0 2 9 2127.5 69.32
0 -2 9 1942.91 79.72
0 2 9 2015.32 55.31
0 2 9 2118.79 86.52
0 2 -9 2130.92 52.89
0 2 10 16.43 5.56
0 2 10 10.32 4.49
0 2 10 13.39 7.83
0 -2 10 15.59 8.62
0 2 11 451.99 33.85
0 2 11 465.31 46.21
0 2 11 504.52 31.76
0 2 12 28.19 6.95
0 2 12 33.1 13.42
0 2 12 33.32 9.48
0 2 13 33.41 15.69
0 2 13 35.53 9.4
0 2 14 97.37 25.02
0 3 0 2.59 1.13
0 3 1 159.2 11.48
0 -3 -1 164.88 11.68
0 -3 -2 733.76 26.22
0 3 2 746.14 26.69
0 3 3 7147.9 85.82
0 3 -3 7005.73 86.69
0 -3 -3 7204.35 86.92
0 3 -4 106.3 11.96
0 3 4 129.37 12.36
0 3 -4 105.53 9.89
0 3 -4 121.59 12
0 -3 -4 120.61 11.99
0 3 5 939.2 34.96
0 -3 -5 933.33 35.41
0 3 -5 991.16 38.79
0 3 -5 964.82 32.97
0 3 -5 984.01 40.65
0 3 -6 515.65 21.07
0 3 -6 567.41 33.38
0 3 6 486.66 26.07
0 3 -6 532.86 32.7
0 -3 -6 476.9 26.96
0 3 6 468.92 33.04
0 3 7 772.55 33.83
0 3 -7 732.81 25.28
0 3 -7 796.98 44.46
0 3 7 692.03 40.79
0 -3 -7 772.61 36.97
0 -3 -8 1566.8 55.7
0 3 8 1493.9 61.83
0 3 8 1532.31 49.82
0 3 -8 1559.18 39.88
0 3 8 1502.09 70.01
0 3 -9 19.58 5.12
0 3 9 18.56 6.34
0 3 9 32.16 10.43
0 3 9 32.86 7.77
0 3 10 1704.41 66.76
0 3 10 1751.04 85.48
0 3 10 1718.91 54.83
0 3 11 400.57 44
0 3 11 374.6 26.8
0 3 11 365.79 31.19
0 3 12 124.79 25.51
0 3 12 125.35 16.44
0 3 12 102.63 16.79
0 3 13 0.27 4.31
0 3 13 3.08 4.38
0 3 14 98.79 25.08
0 4 0 1836.07 42.1
0 -4 -1 4143.97 65.98
0 4 1 4045.7 66.38
0 4 2 3011.95 60.23
0 -4 -2 3112.76 60.47
0 -4 -3 1513.91 44.41
0 4 3 1549.94 44.88
0 4 4 4813.15 82.77
0 -4 -4 4949.1 84.03
0 4 -4 4889.24 83.41
0 4 -5 2611.02 67.21
0 4 -5 2626.96 63.35
0 4 -5 2571 57.71
0 4 5 2639.11 64.37
0 -4 -5 2545.22 63.75
0 4 -6 904.28 36.87
0 4 -6 1006.2 44.2
0 4 -6 966.55 44.52
0 4 6 938.17 39.55
0 -4 -6 922.78 40.56
0 4 7 808.49 46.45
0 4 -7 843.45 30.37
0 4 7 850.04 38.41
0 -4 -7 824.71 40.56
0 4 -8 139.38 11.83
0 4 8 123.76 17.85
0 4 8 139.57 15.79
0 4 9 279.14 23.16
0 4 9 255.15 27.04
0 4 9 300.25 33.69
0 4 -9 275.51 17.45
0 4 10 117.11 15.1
0 4 10 103.85 16.8
0 4 10 108.58 21.93
0 4 11 144.57 19.83
0 4 11 165.6 28.57
0 4 11 164.93 18.42
0 4 12 1.75 3.46
0 4 12 2.37 3.14
0 4 13 849.44 72.88
0 4 13 798.19 49.26
0 4 14 52.78 17.99
0 5 0 1.73 1.23
0 5 1 5227.76 83.62
0 5 2 41.7 7.48
0 -5 -2 42.65 7.46
0 5 3 6.16 3.4
0 -5 -3 15.72 7.79
0 5 4 0.4 0.85
0 -5 -4 0.03 0.85
0 -5 -5 172.94 17.8
0 5 -5 204.1 19.16
0 5 5 205.03 19.35
0 5 -5 205.02 15.72
0 5 -6 225.45 20.43
0 5 6 246.68 21.8
0 5 -6 241 21.4
0 5 -6 247.92 22.7
0 5 7 3442.95 83.85
0 5 -7 3447.48 78.38
0 5 7 3619.67 98.67
0 5 8 2.72 3.3
0 5 -8 3.55 2.64
0 5 8 -0.28 1.74
0 5 9 291.25 29.57
0 5 9 314.34 25.99
0 5 -9 286.08 17.72
0 5 10 8.32 7.06
0 5 10 2.93 4.2
0 5 10 9.55 5.73
0 5 11 227.27 34.02
0 5 11 205.82 21.53
0 5 11 191.88 23.8
0 5 12 268.84 38.72
0 5 12 249.27 24.47
0 5 12 250.65 27.65
0 5 13 26.89 8.49
0 5 13 38.26 17.82
0 5 14 6.1 2.94
0 6 0 17.01 5.02
0 6 1 501.39 28.11
0 6 -1 497.72 26.53
0 -6 -2 603.59 31.26
0 6 2 585 31.54
0 6 3 291.4 23.32
0 -6 -3 302.74 23.11
0 -6 -4 1895.32 60.18
0 6 4 1889 60.57
0 6 5 1442.59 54.8
0 6 -5 1368.9 49.75
0 6 6 17.58 6.74
0 6 -6 12.8 4.77
0 6 -6 16.16 6.51
0 6 7 1250.09 54.6
0 6 -7 1196.2 53.42
0 6 -8 50.56 9.14
0 6 8 51.19 10.92
0 6 8 67.35 14.93
0 6 9 8.2 5.85
0 6 9 3.72 5.05
0 6 10 17.58 6.33
0 6 10 24.63 9.78
0 6 10 21.93 8.09
0 6 11 94.8 17.75
0 6 11 98 21.95
0 6 11 100.85 16.67
0 6 12 10.72 8.97
0 6 12 8.29 3.92
0 6 12 17.75 8.4
0 6 13 686.1 47.08
0 6 13 772.13 69.15
0 6 14 85.83 23.95
0 7 0 13.3 5.52
0 7 -1 144.59 15.35
0 7 1 150.45 16.7
0 7 2 856.22 41.2
0 7 3 384.32 28.33
0 7 4 125.61 16.55
0 7 5 101.71 15.31
0 7 -6 90.58 12.32
0 7 6 102.8 16.33
0 7 7 211.74 23.63
0 7 -7 210.67 22.57
0 7 8 1305.11 59.63
0 7 -8 1252.39 60.23
0 7 9 50.87 11.59
0 7 9 68.89 16.17
0 7 10 1134.96 64.09
0 7 10 1236.25 58.87
0 7 11 195.05 23.78
0 7 11 149.9 22.76
0 7 11 178.81 29.96
0 7 12 70.36 20.35
0 7 12 56.44 13.23
0 7 12 35.7 11.24
0 7 13 8.74 9.32
0 8 0 2394.83 69.83
0 8 1 115.84 15.51
0 8 -1 131.52 16.05
0 8 -2 567.99 32.71
0 8 2 569.61 35.59
0 8 3 457.6 33.22
0 8 4 3224.26 89.25
0 8 5 200.54 22.72
0 8 6 24.63 8.82
0 8 7 818.96 49.21
0 8 -7 905.05 43.8
0 8 8 119.42 18.96
0 8 9 431.79 36.32
0 8 9 473.58 42.35
0 8 10 160.72 25.27
0 8 10 172.03 23.09
0 8 11 203.87 27.81
0 8 11 236.73 27.21
0 8 11 257.33 36.34
0 8 12 43.98 17.35
0 8 12 56.22 13.93
0 8 12 41.8 12.67
0 8 13 199.08 36.59
0 9 0 0.85 1.75
0 9 1 2161.08 72.82
0 9 -1 2202.09 70.4
0 9 2 964.77 49.02
0 9 -2 950.72 45.74
0 9 -3 671.49 38
0 9 3 632.84 41.14
0 9 4 676.19 43.66
0 9 5 569.16 40.88
0 9 6 2688.33 90.85
0 9 -7 273.81 24.3
0 9 7 280.24 30.01
0 9 8 161.5 23.36
0 9 9 3.68 4.53
0 9 10 274.63 30.55
0 9 10 279.61 34.29
0 9 11 32.17 11.26
0 9 11 13.01 6.43
0 9 12 188.97 28.43
0 9 12 161.39 30.67
0 9 12 191.33 26.21
0 9 13 30.7 13.12
0 10 0 4792.53 113.3
0 10 -1 39.3 10.38
0 10 1 32.41 9.82
0 10 2 1137.8 57
0 10 -2 1140.55 53.35
0 10 -3 16.8 6.11
0 10 3 31.06 9.48
0 10 -4 62.16 12.64
0 10 4 78.5 15.73
0 10 -5 345.37 28.76
0 10 5 334.1 32.46
0 10 6 17.02 9.29
0 10 7 107 19.43
0 10 8 572.47 45.56
0 10 9 -1.97 5.61
0 10 10 56.67 17.77
0 10 10 73.67 17.5
0 10 11 72.15 19.39
0 10 11 69.89 16.08
0 10 12 243.18 30.88
0 10 12 216.69 31.95
0 10 12 236.95 36.41
0 11 0 8.58 7.79
0 11 1 20.2 8
0 11 -1 21.71 7.98
0 11 2 -0.43 3.44
0 11 -2 5.69 4.55
0 11 3 1091.17 59.67
0 11 -3 1066.35 54.63
0 11 -4 608.85 40.66
0 11 4 587.69 44.8
0 11 -5 162.29 21.22
0 11 5 153.32 23.12
0 11 -6 465.77 34.7
0 11 6 460.16 40.91
0 11 -7 -1.11 3.74
0 11 7 6.79 7.19
0 11 -8 51.71 10.95
0 11 8 64.5 16.71
0 11 9 28.73 10.78
0 11 10 2.74 5.94
0 11 11 144.39 28.9
0 11 11 144.82 24.93
0 11 12 81.01 21.77
0 11 12 81.28 17.73
0 11 12 82.55 22.51
0 12 0 57.61 13.74
0 12 1 973.17 57.35
0 12 -1 953.98 55.76
0 12 -2 2.34 3.29
0 12 2 1.84 3.71
0 12 3 1021.38 61.01
0 12 -3 989.74 56.18
0 12 4 355.18 36.66
0 12 -4 352.59 33.34
0 12 5 67.1 16.12
0 12 -5 75.48 15.08
0 12 -6 42.47 12.05
0 12 6 35.46 12.1
0 12 7 181.92 27.98
0 12 -7 140.83 19.76
0 12 -8 4.76 2.05
0 12 8 0.61 4.39
0 12 9 1333.78 77.47
0 12 10 22.04 9.54
0 12 11 323.39 44.08
0 12 11 232.98 31.95
0 13 0 17.7 9.64
0 13 1 1.94 3.41
0 13 -1 4.96 5.12
0 13 2 66.3 15.97
0 13 -2 60.72 14.22
0 13 3 1135.77 67.01
0 13 -3 1152.15 63.83
0 13 -4 11.97 7.88
0 13 4 5.13 5.96
0 13 -5 703.85 48.85
0 13 5 692.88 54.21
0 13 6 148.22 25.17
0 13 -6 107.67 18.93
0 13 -7 303.43 30.7
0 13 7 318.63 37.89
0 13 -8 169.63 21.99
0 13 8 227 32.74
0 13 9 37.34 12.32
0 13 10 325.56 38.9
0 14 0 583.75 48.61
0 14 1 247.83 31.82
0 14 -1 268.42 32.78
0 14 2 196.59 28.93
0 14 -2 170.38 25.91
0 14 3 83.22 20.14
0 14 -3 73.13 17.32
0 14 -4 150.75 24.54
0 14 4 139.3 25.19
0 14 5 105.41 21.78
0 14 -5 138.58 22.51
0 14 6 464.91 47.31
0 14 -6 497.18 42.35
0 14 7 128.63 25.97
0 14 -7 91.12 17.66
0 14 8 98.51 23
0 14 9 24.09 9.61
0 14 10 6.22 4.72
0 15 0 -8.61 8.53
0 15 1 840.77 62.58
0 15 -1 869.21 61.5
0 15 2 223.57 31.97
0 15 -2 233.26 32.16
0 15 -3 107.99 22.18
0 15 3 116.8 24.26
0 15 -4 38.54 13.67
0 15 4 46.74 16.81
0 15 -5 47.8 14.09
0 15 5 51.42 16.82
0 15 -6 49.62 14.68
0 15 6 28.23 11.97
0 15 7 390.83 46
0 15 -7 381.13 37.54
0 15 8 16.3 11.04
0 15 9 53.49 17.2
0 16 0 55.44 17.07
0 16 -1 77.51 19.36
0 16 1 67.11 17.37
0 16 -2 256.03 35.27
0 16 2 271.42 36.81
0 16 -3 -3.21 0.99
0 16 3 -3.44 5.54
0 16 4 747.17 63.29
0 16 -4 743.87 58.45
0 16 -5 464.9 45.62
0 16 5 477.78 51.37
0 16 -6 42.52 13.66
0 16 6 45.37 16.93
0 16 -7 108.91 20.35
0 16 7 129.83 27.9
0 16 8 27.4 15.19
0 17 0 0.12 2.06
0 17 -1 -12.35 11.56
0 17 1 0.14 6.74
0 17 -2 335.6 41.7
0 17 2 371.51 45.78
0 17 3 6.27 7.67
0 17 -3 5.17 6.07
0 17 4 38.77 15.94
0 17 -4 35.24 13.71
0 17 -5 3.23 4.84
0 17 5 4.21 3.58
0 17 6 10.95 10.47
0 17 -6 10.16 6.72
0 17 7 5.7 8.86
0 18 0 12.29 8.16
0 18 1 29.3 12.21
0 18 -1 28.53 12.09
0 18 2 126.68 27.85
0 18 -2 128.83 27.2
0 18 -3 34.52 13.15
0 18 3 42.64 13.99
0 18 4 522.12 57.19
0 18 -4 493.35 51.31
0 18 5 259.14 41.16
0 18 -5 262.09 36.64
0 19 0 -9.81 6.8
0 19 -1 439.81 52.32
0 19 1 410.5 51.18
0 19 -2 53.47 17.53
0 19 2 58.94 20.31
-1 0 15 4.18 5.19
-1 0 14 222.92 30.02
-1 0 13 7.75 7.17
-1 0 12 783.94 52.76
-1 0 11 5.27 5.6
-1 0 10 142.05 10.32
-1 0 10 151.5 21.62
-1 0 9 -0.64 1.04
-1 0 9 8.46 5.53
-1 0 8 661.83 18.96
-1 0 8 596.21 40.56
-1 0 7 4.45 2.47
-1 0 7 21.81 9.86
-1 0 6 1631.14 61.09
-1 0 6 1686.1 25.99
1 0 -6 1680.44 75.99
-1 0 5 0.12 0.42
-1 0 5 4.69 4.27
-1 0 4 590.14 32.33
1 0 -4 660.23 33.17
1 0 -4 587.64 35.86
-1 0 3 1.07 1.18
1 0 -3 0.48 1.16
-1 0 3 2.32 1.56
1 0 -2 850.98 34.33
-1 0 2 817.55 32.16
-1 0 2 907.35 23.73
-1 0 1 -0.11 1.35
1 0 -1 2.51 2.65
1 0 -1 -0.34 0.25
-1 0 1 0.51 1.4
1 0 0 270.87 14.34
-1 0 0 307.04 14.59
1 0 0 307.08 17.84
-1 0 0 281.93 17.46
1 0 1 0.59 5.86
-1 0 -1 0.93 0.63
-1 0 -1 -0.23 0.76
1 0 2 1422.56 40.09
-1 0 -2 1340.26 40.25
1 0 3 12.21 5.84
-1 0 -3 4.64 3.51
-1 0 -4 1063.89 38.4
1 0 4 1163.47 40.56
-1 0 -5 4.87 3.78
1 0 5 51.18 11.43
-1 0 -6 4347.51 87.21
1 0 6 4895.34 94.4
1 0 7 13.22 6.77
1 0 8 948.89 55.36
1 0 8 1063.84 50.01
1 0 9 4.97 6.59
1 0 9 1.51 0.68
1 0 10 8.62 5.83
1 0 10 7.97 5.26
1 0 11 10.28 7.17
1 0 11 13.08 9.01
1 0 12 991.34 73.55
1 0 12 1185.48 63.42
1 0 13 -1.13 5.86
1 0 14 994.2 82.44
-1 1 14 20.67 9.14
-1 1 13 63.53 15.73
-1 -1 13 77.95 17.63
-1 1 12 234 29.45
-1 -1 12 216.15 27.13
-1 1 11 222.02 27.88
-1 1 11 185.04 28.28
-1 -1 11 182.51 24.98
-1 1 10 173 13.05
-1 1 10 160.81 24.55
-1 -1 10 185.92 24.06
-1 1 10 158.04 23.31
-1 1 9 892.44 53.24
-1 1 9 874.48 27.24
-1 -1 9 883.98 50.49
-1 1 9 903.22 55.8
-1 1 8 1575.71 35.49
-1 -1 8 1494.4 62.6
-1 1 8 1568.89 67.82
-1 1 8 1568.04 68.69
-1 -1 7 470.24 33.85
-1 1 7 478.36 19.53
-1 1 7 502.18 36.45
-1 1 7 482.32 35.94
-1 -1 6 973.09 45.93
1 1 -6 989.36 54.12
-1 1 6 902.65 46.72
-1 1 6 988.64 47.37
-1 1 6 948.33 26.73
1 -1 -6 861.84 56.07
1 1 -5 13.71 6.7
-1 -1 5 12.23 6.29
-1 1 5 13.01 2.96
1 1 -5 8.65 3.8
-1 1 5 12.49 5.2
1 -1 -5 9.4 4.31
1 -1 -5 13.69 9.95
-1 1 5 8.02 3.43
1 1 -4 707.81 34.61
1 -1 -4 768.49 35.21
-1 -1 4 740.29 35.71
1 -1 -4 683.57 42.22
-1 1 4 701.91 37.69
-1 1 4 731.82 33.5
1 1 -4 758.87 36.8
-1 -1 3 69.2 4.79
1 -1 -3 51.14 8.14
-1 1 3 52.12 9.81
1 1 -3 61.93 9.42
-1 -1 3 76.17 10.77
-1 -1 2 677.34 28.39
-1 -1 2 644.78 17.79
1 1 -2 650.3 25.92
1 -1 -2 717.48 27.12
1 1 -2 677.75 21.11
-1 1 2 594.64 28.72
-1 1 1 5064.66 58.73
1 1 -1 5126.47 62.67
-1 1 1 5077.87 73.48
1 1 -1 5282.55 57.7
-1 -1 1 5170.95 57.68
1 -1 0 4104.09 65.51
-1 -1 0 3998.34 49.14
-1 -1 0 3768.86 54.54
1 1 0 4147.61 53.59
-1 1 0 3894.24 60.75
1 1 0 3850.62 45.65
-1 -1 -1 96.47 9.52
1 1 1 92.13 5.52
-1 1 -1 98.91 11.35
1 1 1 128.34 10.64
1 -1 1 97.48 11.26
-1 -1 -2 1149.58 34.94
1 -1 2 1166.92 41.39
1 1 2 1140.93 32.59
-1 -1 -3 676.95 28.97
-1 1 -3 739.93 15.51
1 1 3 739.06 28.5
1 -1 3 773.64 35.51
-1 1 -3 652.79 32.64
1 1 4 356.04 11.64
1 1 4 367.12 21.62
-1 1 -4 312.03 22.4
1 -1 4 374.7 25.5
-1 1 -4 367.71 15.32
-1 -1 -4 345.92 22.11
-1 1 -5 30.25 7.47
1 -1 5 48.34 11.01
-1 -1 -5 24.06 6.66
1 1 5 42.11 5.69
-1 1 -5 33.9 5.89
-1 1 -6 659.32 33.74
1 1 6 765.89 35.86
1 -1 6 772.97 40.09
1 1 6 736.47 23.09
-1 1 -6 776.55 30.72
-1 -1 -6 668.88 34.79
1 -1 7 171.56 20.32
1 1 7 191.03 20.08
1 1 7 166.75 13.05
-1 1 -7 110.27 14.6
1 -1 7 139.12 19.35
-1 1 -7 130.06 13.74
1 -1 8 1908.28 76.56
1 1 8 2148.32 66.76
1 -1 8 2238.58 75.64
1 1 8 1973.73 45.27
1 1 9 728.71 30.08
1 -1 9 729.33 50.86
1 1 9 806.24 55.53
1 1 9 800.8 44.19
1 -1 9 855.94 47.92
1 1 10 144.83 25.17
1 -1 10 134.52 23.69
1 1 10 161.41 15.22
1 1 10 168.13 21.46
1 -1 10 177.54 23.23
1 -1 11 584.75 41.52
1 1 11 464.59 47.57
1 -1 11 430.49 45.22
1 1 11 517.39 40.24
1 1 12 336.66 43.1
1 -1 12 341.35 42.71
1 -1 12 386.99 34.57
1 1 12 393.55 36.04
1 -1 13 44.77 16.09
1 1 13 53.79 18.48
1 -1 14 50.69 17.86
1 1 14 32.48 13.45
-1 2 14 18.26 8.63
-1 2 13 200.63 32.87
-1 2 13 200.78 27.51
-1 2 12 49.85 14.34
-1 2 12 54.99 17.35
-1 2 11 95.24 20.48
-1 -2 11 86.27 17.48
-1 2 11 96 18.32
-1 2 11 95.76 11.05
-1 2 10 266.2 32.47
-1 2 10 264.31 17.32
-1 2 10 274.3 30.67
-1 -2 10 264.22 28.79
-1 -2 9 119.36 18.43
-1 2 9 119.87 11.74
-1 2 9 113.3 19.05
-1 2 9 122.61 20.28
-1 2 8 1127.43 58.51
-1 -2 8 1044.28 51.7
-1 2 8 1061.47 33.94
-1 2 8 1036.8 56.56
-1 2 7 327.46 31
-1 2 7 347.72 19.79
-1 -2 7 361.85 28.88
-1 2 7 354.94 30.63
-1 2 6 77.83 9.11
-1 2 6 110.53 18.75
-1 -2 6 119.91 16.75
-1 2 6 77.79 13.26
-1 -2 5 266.77 22.18
1 2 -5 284.28 23.38
-1 2 5 254.02 24.69
1 2 -5 271.45 24.58
-1 2 5 275.82 17.07
-1 2 5 256.05 22.07
1 2 -4 32.15 8.03
-1 2 4 23.91 10.62
-1 -2 4 36.57 9.59
-1 2 4 21.1 5.76
1 2 -3 1760.31 47.63
-1 2 3 1642.46 54.31
-1 -2 3 1730.51 25.2
1 2 -3 1729.34 24.35
-1 -2 3 1694.86 48.29
1 -2 -3 1741.36 46.85
-1 2 3 1758.51 46.13
1 2 -2 7905.19 89.4
1 -2 -2 8193.63 87.11
-1 -2 2 8015.86 97.64
-1 -2 2 8161.08 65.5
1 2 -2 8154.28 60.31
1 2 -1 135.34 10.33
1 -2 -1 139.8 9.4
1 2 -1 146.33 9.25
-1 -2 1 128.93 9.47
-1 -2 0 17.54 3.77
1 2 0 32.67 5.1
-1 -2 -1 190.8 13.95
-1 2 -1 185.03 13.69
1 2 2 4364.89 66.13
-1 -2 -2 4356.97 71.78
-1 2 -2 4295.1 79.11
1 -2 2 4319.77 79.8
-1 -2 -3 2746.59 61.33
-1 2 -3 2836.98 72.44
1 -2 3 2810.66 68.23
1 2 3 2835.49 57.09
-1 2 -4 29.69 4.95
1 -2 4 34.83 8.35
1 2 4 31.87 6.98
-1 2 -4 21.06 6.25
-1 2 -5 4073.03 66.73
1 2 5 4297.98 62.96
1 -2 5 4050.87 81.32
1 2 5 4201.76 78.08
-1 -2 -5 4170.46 85.33
1 -2 5 4390.2 92.61
1 2 6 821.04 36.34
-1 2 -6 747.98 38.04
1 2 6 819.83 27.51
1 -2 6 792.35 40.22
-1 2 -6 833.33 34.41
1 -2 6 868.72 42.5
1 -2 7 8.44 5.26
1 2 7 1.65 4.01
-1 2 -7 16.51 5.56
-1 2 -7 7.44 4.04
1 2 8 283.74 18.43
1 -2 8 298.19 26.89
-1 2 -8 276.48 23.58
1 2 8 318.12 25.15
1 -2 8 263.76 27.84
1 -2 9 41.7 10.12
1 2 9 43.44 8.02
1 -2 9 32 12.2
-1 2 -9 36.22 9.12
1 2 9 46.51 10.71
1 -2 10 283.5 28.03
1 -2 10 271.04 32.53
1 2 10 263.96 34.36
1 2 10 314.24 28.06
1 2 10 270.53 19.88
1 -2 11 450.28 35.44
1 -2 11 382.7 41.77
1 2 11 418.71 34.08
1 2 11 364.62 43.92
1 2 12 31.66 10.36
1 2 12 30.75 13.69
1 -2 12 24.41 10.65
1 -2 13 16.55 8.65
1 2 13 11.57 9.82
1 -2 14 21.29 9.79
1 2 14 48.65 18.15
-1 3 14 148.36 24.3
-1 3 14 152.41 29.42
-1 3 13 4.06 1.54
-1 3 13 11.03 8
-1 3 12 40.91 11.84
-1 3 12 45.85 15.04
-1 3 11 56.45 9.31
-1 3 11 56.41 13.76
-1 3 11 49.78 14.69
-1 3 10 20.99 5.76
-1 3 10 8.45 3.12
-1 3 10 24.69 11.13
-1 3 9 510.45 41.85
-1 3 9 572.1 28.45
-1 3 8 18.55 5.5
-1 3 8 29.94 6.42
-1 -3 8 31.93 9.78
-1 3 8 35.12 11.04
-1 3 7 6.95 3.59
-1 3 7 3.34 2.18
-1 3 7 8.6 4.43
-1 -3 7 5.27 5.66
-1 -3 6 2 4.35
-1 3 6 0.02 1.67
-1 3 6 7.32 4.69
-1 3 6 1.32 1.58
1 3 -5 1164.85 46.99
-1 3 5 1126.18 54.75
-1 3 5 1138.44 39.05
-1 3 5 1172.22 47.53
-1 -3 5 1143.33 46.9
1 3 -4 1558.21 49.31
1 3 -4 1557.58 20.23
-1 3 4 1543.11 48.79
-1 3 4 1503.83 43.01
1 3 -3 434.55 24.21
1 3 -3 475.43 14.9
-1 -3 3 458.13 16.02
-1 3 3 426.94 22.73
-1 -3 2 9999 83.31
1 3 -2 9959.18 76.47
-1 3 2 9879.57 93.12
-1 -3 1 3361.15 54.69
-1 3 1 3417.5 44
1 3 -1 3348.01 50.11
-1 -3 0 1425.08 38.82
1 3 0 1442.76 35.53
-1 -3 -1 368.21 21.32
1 3 1 753.64 28.43
-1 -3 -2 1514.72 46.23
1 3 2 1450.11 40.67
1 -3 2 1469.39 25.4
-1 3 -2 1465.93 41.46
-1 -3 -3 701.88 33.35
1 -3 3 687.57 23.39
1 3 3 714.49 31
-1 3 -3 711.59 33.24
1 3 4 3374.67 69.01
-1 -3 -4 3424.35 77.75
-1 3 -4 3387.61 85.59
1 -3 4 3191.44 60.82
-1 3 -5 59.32 11.77
1 3 5 97.36 12.56
1 -3 5 84.8 11.64
1 -3 5 75.92 11.51
-1 -3 -5 89.42 13.36
-1 3 -5 81.79 10.01
-1 3 -6 680 39.95
1 3 6 789.96 36.61
1 3 6 794.85 33.61
-1 3 -6 786.34 35.76
1 -3 6 750.9 38.66
1 -3 6 693.83 37.18
-1 3 -7 4.91 1.19
1 3 7 24.93 7.29
-1 3 -7 8.17 5.16
1 3 7 15.88 4.89
1 -3 7 13.53 4.81
1 -3 7 20.76 7.62
1 -3 8 11.29 6.39
1 3 8 2.66 2.67
-1 3 -8 -1.35 2.14
1 -3 8 1.45 3.04
1 3 8 4.82 7.85
1 3 9 490.36 26.81
1 -3 9 472.85 39.81
-1 3 -9 532.39 36.47
1 3 9 512.33 33.91
1 -3 10 -0.16 2.22
1 3 10 5.68 3.72
1 3 10 8.01 5.46
1 3 11 128.39 25.71
1 3 11 144.97 19.99
1 -3 11 144.86 25.55
1 3 12 136.07 20.4
1 3 12 165.55 31.67
1 -3 12 115.24 23.78
1 3 13 85.47 24.45
1 3 14 35.53 16.09
-1 4 14 55.97 19.74
-1 4 14 49.23 14.43
-1 4 13 -4.62 7.37
-1 4 13 1.45 1.07
-1 4 12 101.2 20.16
-1 4 12 114.1 24.2
-1 4 11 610.03 32.17
-1 4 11 621.16 53.71
-1 4 11 569.65 46.81
-1 4 10 248.37 30.19
-1 4 10 294.74 22.33
-1 4 10 303.56 34.79
-1 4 9 55.28 14.6
-1 4 9 56.84 9.9
-1 4 9 46.56 11.61
-1 4 8 729.46 35.95
-1 4 8 704.68 50.59
-1 4 8 719.81 47.82
-1 4 7 907.41 39.72
-1 4 7 892.69 49.14
-1 4 7 907.01 54.84
-1 4 6 872.69 38.42
-1 4 6 910.7 46.17
-1 4 6 883.54 51.43
-1 4 5 10.52 4.19
-1 4 5 10.81 5.24
1 4 -4 624.82 31.87
1 4 -4 626.72 18.05
-1 4 4 679.43 32.95
-1 4 4 704.46 32.62
-1 -4 3 222.69 13.4
1 4 -3 231.87 18.68
-1 4 3 221.86 16.62
1 4 -3 226.16 12.34
-1 -4 2 8.81 2.83
-1 4 2 15.57 3.96
-1 -4 1 3382.33 60.27
1 4 -1 3311.19 55.6
-1 4 1 3483.78 44.4
1 4 0 182.3 14.71
-1 -4 0 60.72 8.81
1 4 1 2889.66 56.77
-1 -4 -1 2991.38 64.29
1 4 2 66.97 9.39
-1 -4 -2 81.17 11.25
1 4 3 453.32 25.55
-1 -4 -3 478.16 28.97
-1 4 -3 484.93 25.99
1 4 4 2477.01 62.41
-1 -4 -4 2625.37 71.78
1 -4 4 2491.44 53.94
-1 4 -4 2529.14 68.12
-1 4 -5 22.87 6.89
1 -4 5 32.87 7.49
1 4 6 437.15 28.97
-1 4 -6 454.57 27.98
-1 4 -6 343.69 30.84
1 -4 6 383 27.82
1 4 7 2833.14 75.16
-1 4 -7 2967.94 81.58
1 -4 7 2749.87 80.72
1 4 7 2820.18 71.42
1 4 8 312.8 23.52
1 4 8 311.59 26.04
-1 4 -8 296.76 27.66
1 -4 8 288.76 28.61
-1 4 -9 858.22 49.22
1 4 9 840.79 44.3
1 4 9 806.28 37.16
1 -4 9 775.49 50.71
1 4 10 599.59 32.52
1 4 10 641.23 40.14
1 -4 10 586.98 47.52
1 4 11 686.18 42.95
1 4 12 338.78 32
1 4 12 319.85 43.97
1 4 13 18.93 12
-1 5 14 10.62 7.28
-1 5 14 9.84 8.46
-1 5 13 462.1 52.34
-1 5 13 388.64 40.23
-1 5 12 10.32 3.05
-1 5 12 27.53 11.88
-1 5 11 158.55 18.04
-1 5 11 140.03 23.38
-1 5 11 167.53 28.32
-1 5 10 11.99 6.86
-1 5 10 14.94 4.96
-1 5 10 16.96 7.53
-1 5 9 70.82 16.13
-1 5 9 70.33 11.93
-1 5 9 77.76 16.71
-1 5 8 1.81 3.46
-1 5 8 2.67 2.99
-1 5 8 9.97 10.34
-1 5 7 2364.89 90.15
-1 5 7 2419.98 81.85
-1 5 7 2493.83 71.14
-1 5 6 136.66 16.55
1 5 -6 191.59 9.4
-1 5 6 153.28 19.06
1 5 -5 6816.31 65.75
-1 5 5 6909.51 118
-1 5 5 7020.67 115.38
1 5 -4 76.89 8.49
-1 5 4 79.71 11.63
-1 5 4 75.97 11.55
1 5 -4 65.63 11.42
1 5 -3 127.67 10.8
-1 -5 3 88.14 9.64
1 5 -2 444.27 21.69
-1 -5 2 399.27 21.86
1 5 -1 1011.53 33.79
-1 -5 1 1055.57 37.18
1 5 0 40.85 8.23
-1 -5 0 36.63 7.16
1 5 1 1462.19 44.52
-1 -5 -1 1411.93 47.56
-1 -5 -2 316.15 23.67
1 5 2 311.74 21.19
-1 5 -3 824.66 34.14
-1 -5 -3 782.18 39.14
1 5 3 760.08 34.62
1 5 4 247.2 25.42
-1 5 -4 100.01 13.01
1 5 5 2221.61 64.77
-1 5 -5 2390.85 73.54
-1 5 -6 49.37 12.38
-1 5 -6 58.12 10.43
-1 5 -7 1068.48 49.83
1 5 7 1141.69 50.02
-1 5 -8 26.59 9.69
1 5 8 30.28 7.75
1 5 8 35.73 9.72
1 5 9 32.75 7.96
1 5 9 27.25 8.19
1 5 10 7.36 5.97
1 5 10 12.42 4.96
1 5 11 439.31 35.03
1 5 12 38.52 15.78
1 5 12 42.96 12.12
1 5 13 1114.03 60.25
1 5 13 1051.29 84.7
-1 6 14 27.31 13.02
-1 6 14 22.19 8.39
-1 6 13 9.96 4.47
-1 6 13 12.16 6.86
-1 6 12 50.27 11.24
-1 6 12 35.44 11.69
-1 6 12 49.63 16.32
-1 6 11 429.56 42.88
-1 6 11 456.76 33.06
-1 6 11 471.37 47.46
-1 6 10 257.96 32.43
-1 6 10 300.79 35.55
-1 6 10 336.38 28.8
-1 6 9 107.06 21.17
-1 6 9 125.89 17.7
-1 6 9 117.35 20.64
-1 6 8 1882.82 79.06
-1 6 8 1898.39 67.03
-1 6 8 1895.44 84.85
-1 6 7 634.34 38.65
1 6 -7 624.38 18.73
-1 6 7 590.48 45.68
-1 6 7 624.73 42.52
1 6 -7 622.84 24.2
-1 6 6 824.91 44.81
1 6 -6 820.95 25.65
-1 6 6 850.07 43.91
1 6 -5 303.37 17.27
-1 6 5 296.47 25.49
1 6 -4 188.26 14.44
-1 6 4 181.52 19.6
1 6 -3 28.25 6.06
1 6 -2 2873.92 61.32
-1 -6 2 2766.82 63.31
-1 -6 1 2969.72 68.05
1 6 -1 2912.13 63.54
-1 -6 0 953.37 40.29
1 6 0 992.65 39.64
-1 -6 -1 3091.49 75.76
1 6 1 3086.37 69.98
-1 -6 -2 118.66 15.49
1 6 2 128.83 14.84
-1 6 -2 128.75 6.77
1 6 3 84.1 12.24
-1 6 -4 148.84 16.12
1 6 4 128.09 16.05
1 6 5 32.21 10.03
1 6 6 71.35 14.33
1 6 7 1384.58 58.68
1 6 8 159.17 19.27
1 6 8 181.57 21.69
1 6 9 289.51 26.46
1 6 9 318.82 29.37
1 6 10 304.88 26.9
1 6 10 330.54 30.61
1 6 11 120.21 19.16
1 6 12 95.26 17.52
1 6 13 50.42 12.96
1 6 13 73.6 21.79
-1 7 13 1.11 3.1
-1 7 13 13.12 9.74
-1 7 12 1.9 2.06
-1 7 12 7.59 5.97
-1 7 12 8.55 5.72
-1 7 11 26.93 11.04
-1 7 11 29.37 13.35
-1 7 11 26.01 9.14
-1 7 10 121.7 18.98
-1 7 10 96.14 20.28
-1 7 10 115.83 21.87
-1 7 9 244.08 25.9
-1 7 9 242.41 32.09
-1 7 9 229.4 29.73
-1 7 8 659.18 42.03
1 7 -8 643.77 19.95
-1 7 8 613.62 49.33
-1 7 8 639.64 46.38
1 7 -8 641 25.42
-1 7 7 11.45 5.21
1 7 -7 26.18 5.34
-1 7 7 16.47 7.16
-1 7 6 29.56 8.75
1 7 -6 41.79 7.05
1 7 -5 526.58 27.06
-1 7 5 363.63 30.59
1 7 -4 3611.04 72
-1 7 4 3555.46 93.65
-1 7 3 17.54 5.73
1 7 -3 71.78 13.05
1 7 -2 1984.65 55.81
-1 -7 2 1983.65 58.09
1 7 -1 1884.47 55.66
-1 -7 1 1937.81 59.01
1 7 0 308.19 23.64
-1 -7 0 214.79 20.55
1 7 1 263.78 23.59
1 7 2 1939.16 61.82
1 7 3 379.5 29.71
-1 7 -3 290.33 13.8
1 7 4 3988.6 94.23
1 7 5 4.48 2.5
1 7 6 474.16 34.24
1 7 7 183.46 22.51
1 7 8 28.01 9.42
1 7 9 112.64 18.51
1 7 9 100.94 16.35
1 7 10 304.5 28.43
1 7 10 332.43 31.45
1 7 11 148.14 21.78
1 7 12 261.9 28.98
1 7 13 9.34 9.23
1 7 13 16.58 9.13
-1 8 13 0.24 3.75
-1 8 13 7.67 8.14
-1 8 12 9.13 4.73
-1 8 12 10.04 6.48
-1 8 12 9.26 6.47
-1 8 11 27.81 12.02
-1 8 11 27.45 9.08
-1 8 11 27.28 12.28
-1 8 10 481.68 38.9
-1 8 10 423.34 45.11
-1 8 10 472.42 45.53
-1 8 9 141.28 25.32
-1 8 9 130.79 19.69
-1 8 9 129.3 22.4
1 8 -8 323.02 17.71
-1 8 8 325.82 31.19
-1 8 8 308.41 32.24
1 8 -7 56.73 8.73
-1 8 7 28.54 9.2
1 8 -6 165.32 16.74
-1 8 6 92.51 16.44
1 8 -5 360.8 24.52
-1 8 5 401.73 33.89
-1 8 4 100.45 17.06
1 8 -4 194.64 19.41
1 8 -3 1351.2 49.49
-1 8 3 1313.37 59.54
1 8 -2 2169.23 63.38
1 8 -1 659.14 35.51
1 8 0 30.35 9.53
1 8 1 1065.21 48.1
1 8 2 1836.89 64.61
1 8 3 2017.05 68.7
-1 8 -3 2039.93 39.75
1 8 4 21.35 8.08
-1 8 -4 15.78 4.13
1 8 5 2110.18 73.83
1 8 6 543.29 38.72
1 8 7 266.46 28.05
1 8 8 325.85 31.9
1 8 9 69.31 16.36
1 8 10 932.17 55.57
1 8 10 943.44 53.88
1 8 11 136.78 22.18
1 8 12 10.54 6.48
-1 9 13 127.32 25.69
-1 9 13 139.08 28.74
-1 9 12 95.57 22.01
-1 9 12 83.14 20.52
-1 9 12 99.25 18.39
-1 9 11 432.8 46.96
-1 9 11 487.09 41.39
-1 9 11 472.51 48.31
-1 9 10 74.62 19.71
-1 9 10 70.46 15.83
-1 9 10 81.64 17.9
-1 9 9 571.58 43.86
-1 9 9 597.85 53.29
-1 9 9 598.89 48.35
-1 9 8 168.73 23.54
-1 9 8 166.44 24.2
1 9 -8 164.41 14.57
-1 9 7 130.84 20.09
1 9 -7 152.72 15.65
-1 9 6 470.72 38.95
1 9 -6 507.88 30.09
1 9 -5 827.84 39.69
-1 9 5 881.19 53.65
1 9 -4 245.39 22.28
-1 9 4 263.18 28.77
1 9 -3 1137.89 48.76
-1 9 3 1202.93 60.71
1 9 -2 57.84 10.59
1 9 -1 124.13 17.54
1 9 0 1853.95 64.4
1 9 1 72.77 13.14
1 9 2 597.17 38.74
1 9 3 9.65 7.1
1 9 4 174.51 23.53
-1 9 -4 156.26 12.78
1 9 5 259.18 28.13
-1 9 -5 259.02 17.79
1 9 6 332.53 31.69
1 9 7 221.92 26.73
1 9 8 927.31 56.19
1 9 9 325.45 34.08
1 9 10 39.88 15.3
1 9 10 37.47 11.94
1 9 11 290.04 32.89
1 9 12 86.25 18.6
-1 10 12 630.07 49.61
-1 10 12 557.32 55.39
-1 10 12 605.28 57.56
-1 10 11 71.77 19.42
-1 10 11 46.58 15.37
-1 10 11 66.37 16.43
-1 10 10 173.21 31.64
-1 10 10 161.87 26.94
-1 10 10 187.96 27.09
-1 10 9 -0.23 3.81
-1 10 9 9.24 7.38
1 10 -8 285.92 21.14
-1 10 8 293.94 32.58
-1 10 7 312.85 33.72
1 10 -7 373.47 26.33
-1 10 6 2039.37 86.59
1 10 -6 2058.63 64.98
-1 10 5 9.62 6.59
1 10 -5 3.6 2.72
-1 10 4 1350.1 69.1
1 10 -4 1343.41 55.33
1 10 -3 46.99 14.89
-1 10 3 19.38 8.13
-1 10 2 12.22 4.64
1 10 -2 17.12 7.51
1 10 -1 322.91 28.03
1 10 0 244.1 24.98
1 10 1 453.97 34.21
1 10 2 1652.4 67
1 10 3 32.3 15.37
1 10 4 48.45 13.21
-1 10 -4 48.74 7.43
1 10 5 113.87 21.59
-1 10 -5 69.05 9.49
1 10 6 924.49 55.27
1 10 7 243.58 29.57
1 10 8 108.82 20.2
1 10 9 20.06 10.5
1 10 10 13.58 9.64
1 10 11 118.38 23.34
1 10 12 341.71 37.52
-1 11 12 127.49 27.2
-1 11 12 125.86 26.08
-1 11 12 141.61 24.55
-1 11 11 102.29 21.36
-1 11 11 100.64 24.55
-1 11 11 73.19 19.92
-1 11 10 77.46 22.85
-1 11 10 57.95 16.38
-1 11 10 65.57 17.55
-1 11 9 765.15 55.46
-1 11 9 788.17 57.15
-1 11 8 219.11 29.58
1 11 -7 83.52 13.72
-1 11 7 74.23 16.65
-1 11 6 408.55 40.48
1 11 -6 380.85 30.01
1 11 -5 -2.78 3.33
-1 11 5 3.92 4.12
-1 11 4 45.31 13.95
1 11 -4 34.14 9.55
1 11 -3 537.51 37.88
-1 11 3 508.89 44.31
-1 11 2 3.2 2.46
1 11 -2 8.66 6.03
1 11 -1 1008.35 52.71
-1 11 1 1023.75 60.37
1 11 0 1964.03 73.69
1 11 1 112.98 17.76
1 11 2 611.86 42.95
1 11 3 151.38 21.99
1 11 4 40.29 12.61
-1 11 -4 28.64 5.66
1 11 5 37.56 12.31
1 11 6 677.32 49.26
1 11 7 15.08 7.62
1 11 8 788.28 56.34
1 11 9 440.1 42.18
1 11 10 62.77 17.55
1 11 11 235.02 32.33
-1 12 11 37.09 17.71
-1 12 11 42.4 15.41
-1 12 11 30.2 13.52
-1 12 10 10.69 5.32
-1 12 10 10.96 9.35
-1 12 9 7.99 6.66
-1 12 9 17.61 9.02
-1 12 8 30.81 12.62
-1 12 7 12.42 7.35
1 12 -7 15.39 6.78
-1 12 6 21.74 9.47
1 12 -6 67.28 14.8
1 12 -5 388.91 32.6
-1 12 5 397.09 41.49
1 12 -4 88.44 18.43
-1 12 4 19.85 8.14
1 12 -3 1500.9 65.62
-1 12 3 1585.24 81.78
-1 12 2 14.93 7.39
1 12 -2 26.47 9.03
1 12 -1 522.78 39.09
-1 12 1 594.26 48.5
-1 12 0 2.63 3.31
1 12 0 12.17 8.09
1 12 1 455.74 37.5
1 12 2 206.54 26.95
1 12 3 2282.1 88.04
1 12 4 581.87 45.79
1 12 5 1460.84 74.41
1 12 6 65.16 15.44
1 12 7 2.43 7.09
1 12 8 4.97 4.89
1 12 9 9.8 7.54
1 12 10 111.61 22.5
-1 13 11 92.35 24.11
-1 13 11 109.78 24.23
-1 13 11 95.48 21.69
-1 13 10 18 12.08
-1 13 10 21.85 10.76
-1 13 9 451.93 46.43
-1 13 9 446.37 43.87
-1 13 8 -2.06 0.72
1 13 -7 132.15 18.55
-1 13 7 120.82 24.73
-1 13 6 90.63 20.8
1 13 -6 76.16 14.74
-1 13 5 16.64 9.21
1 13 -5 32.75 10.82
1 13 -4 192.36 24.59
-1 13 4 197.12 30.89
1 13 -3 637.34 45.12
-1 13 3 644.66 54.7
1 13 -2 706.95 47.44
-1 13 2 729.24 57.61
1 13 -1 846.36 52.53
-1 13 1 881.53 62
1 13 0 768.54 50.5
-1 13 0 756.46 56.47
-1 13 -1 54.22 14.31
1 13 1 95 19.19
1 13 2 615.31 46.59
1 13 3 472.46 42.38
1 13 4 256 30.87
1 13 5 51.75 16.37
1 13 6 259.96 33.06
1 13 7 0.78 3.54
1 13 8 100.81 22.52
1 13 9 615.24 54.21
1 13 10 7.88 5.3
-1 14 10 169.32 30.3
-1 14 10 161.16 27.63
-1 14 9 12.25 10.67
-1 14 8 164.94 29.08
1 14 -7 144.76 20.37
-1 14 7 159.9 29.27
-1 14 6 513.98 52.03
1 14 -6 468.04 38.15
-1 14 5 -0.93 5.87
1 14 -5 7.45 5.76
1 14 -4 659.17 47.78
-1 14 4 660.37 59.03
1 14 -3 185.76 25.08
-1 14 3 192.95 32.62
1 14 -2 164.1 23.95
-1 14 2 188.23 29.69
1 14 -1 424.57 38.69
-1 14 1 422.37 44.44
-1 14 0 56.07 15.9
1 14 0 35.73 12.18
1 14 1 368.35 36.76
-1 14 -1 371.86 40.41
-1 14 -2 14.16 7.12
1 14 2 33.55 12.21
1 14 3 563.1 48.53
1 14 4 21 11.29
1 14 5 17.37 11.44
1 14 6 268.23 35.64
1 14 7 461.71 46.82
1 14 8 120.79 24.19
1 14 9 88.78 21.42
-1 15 9 24.08 11.49
-1 15 8 30.02 14.32
-1 15 7 645.38 60.65
-1 15 6 30.01 12.97
1 15 -6 30.31 10.21
-1 15 5 926.79 72.87
1 15 -5 846.42 54.58
1 15 -4 8.57 7.2
-1 15 4 16.78 11.72
-1 15 3 32.09 14.83
1 15 -3 42.68 13.89
1 15 -2 2.11 4.14
-1 15 2 18.82 10.4
-1 15 1 18.67 10.86
1 15 -1 39.89 14.06
1 15 0 325.86 35.49
-1 15 0 345.7 41.92
-1 15 -1 20.29 11.22
1 15 1 17.26 9.23
-1 15 -2 125.14 24.65
1 15 2 115.2 21.67
-1 15 -3 89.16 19.96
1 15 3 100.02 21.13
-1 15 -4 7.26 7.41
1 15 4 34.65 17.36
-1 15 -5 113.36 22.1
1 15 5 124.06 24.87
1 15 6 48.33 15.4
1 15 7 370.08 43.45
1 15 8 71.78 18.76
-1 16 8 127.2 27.98
-1 16 7 29.39 13.52
-1 16 6 18.33 8.64
1 16 -6 39.66 12.06
1 16 -5 151.56 23.64
-1 16 5 165.06 31.44
-1 16 4 1.15 6.07
1 16 -4 13.89 9.3
1 16 -3 180.9 27.35
-1 16 3 226.81 36.69
1 16 -2 197.38 29.07
-1 16 2 187.63 33.06
1 16 -1 382.71 40.26
-1 16 1 408.95 48.31
-1 16 0 0.82 3.07
1 16 0 11.11 8.23
1 16 1 527.68 47.61
-1 16 -1 569.61 55.67
1 16 2 208.91 32.03
-1 16 -2 211.09 33.1
1 16 3 289.68 36.8
-1 16 -3 289.96 38.51
-1 16 -4 37.38 13.34
1 16 4 37.33 15.17
-1 16 -5 14.59 6.78
1 16 5 26.84 12.32
-1 16 -6 35.77 11.95
1 16 6 40.44 11.07
-1 16 -7 117.78 22.58
1 16 7 158.43 29.1
-1 17 6 -5.06 4.91
-1 17 5 67.49 21.64
1 17 -5 83.29 19.83
-1 17 4 567.16 61.43
1 17 -4 535.42 47.9
1 17 -3 21.74 11.74
-1 17 3 8.25 2.91
1 17 -2 413.39 42.93
-1 17 2 445.12 52.18
-1 17 1 20.65 10.31
1 17 -1 18.62 8.37
-1 17 0 -2.43 2.9
1 17 0 10.09 7.31
-1 17 -1 1.64 6.63
1 17 1 16.18 11.55
1 17 2 349.11 41.16
-1 17 -2 367.7 46
-1 17 -3 11.38 10.97
1 17 3 6.24 11.86
1 17 4 962.5 71.1
-1 17 -4 845.43 67.35
-1 17 -5 1.17 0.63
1 17 5 4.38 5.98
-1 17 -6 39.48 12.57
1 17 6 47.72 16.5
-1 18 5 28.79 14.44
1 18 -5 46.34 14.63
-1 18 4 42.88 16.02
1 18 -4 29.96 12.46
-1 18 3 13.16 6.58
1 18 -3 38.96 13.69
1 18 -2 217.73 33.32
-1 18 2 273.04 42.64
-1 18 1 12.65 9.68
1 18 -1 30.62 12.97
1 18 0 7.49 6.29
-1 18 0 33.88 13.52
-1 18 -1 189.72 34.79
1 18 1 205.2 32.29
1 18 2 180.49 31.06
-1 18 -2 156.86 31.5
1 18 3 217.16 34.89
-1 18 -3 160.92 31.21
-1 18 -4 -6.36 5.63
1 18 4 17.82 14.33
1 19 0 70.23 20.09
-1 19 0 50.44 20.28
-2 0 14 107.98 23.81
-2 0 13 -2.79 4.2
-2 0 12 334.42 39.41
-2 0 11 1.84 3.71
-2 0 10 481.36 45.79
-2 0 9 -2.46 5.96
-2 0 8 55.89 5.14
-2 0 8 49.53 12.92
-2 0 8 58.27 5.78
-2 0 7 1.07 1.55
-2 0 7 -3.29 5.26
-2 0 7 -0.26 0.59
-2 0 6 318.89 30.8
-2 0 6 356.78 18.33
-2 0 5 -0.88 1.89
-2 0 5 4.25 2.78
-2 0 4 39.96 7.17
-2 0 4 42.78 10
-2 0 3 1.36 1.78
-2 0 3 1 2.62
2 0 -3 -2.38 3.41
2 0 -2 104.11 13.19
-2 0 2 102.73 14.24
-2 0 2 100.35 12.87
2 0 -2 87.94 13.53
-2 0 1 4.18 3.53
2 0 -1 -1.14 2.36
2 0 -1 2.66 2.55
-2 0 1 -1.19 2.06
2 0 0 7014.32 102.75
-2 0 0 7403.37 102.31
2 0 0 7250.24 116.12
-2 0 -1 -1.15 2.81
-2 0 -1 -0.42 1.46
2 0 1 -0.17 0.37
-2 0 -2 1270.58 29.06
2 0 2 1321.97 52.1
2 0 3 7 4.47
2 0 4 122.42 16.65
2 0 5 4.17 3.95
2 0 6 2199.66 78.15
2 0 7 1.23 1.87
2 0 8 844.21 52.61
2 0 9 -2.09 6.53
2 0 10 10.19 7.2
2 0 10 7.09 5.94
2 0 11 6.25 6.72
2 0 11 0.66 7.44
2 0 12 168.38 31.31
2 0 12 171.95 26.47
2 0 13 7.05 7.32
-2 -1 14 11.5 11.06
-2 1 14 13.44 8.21
-2 -1 13 174.7 29.5
-2 1 13 152.14 27.97
-2 -1 12 335.95 39.9
-2 1 12 344.6 40.9
-2 -1 11 3.23 7.49
-2 1 11 5.49 4.62
-2 1 10 111.78 7.55
-2 -1 10 113.13 21.65
-2 1 10 99.19 20.61
-2 -1 9 89.2 18.35
-2 1 9 81.31 7.79
-2 1 9 76.54 18.09
-2 1 9 77.79 7.15
-2 1 8 44.32 6.28
-2 -1 8 51.5 13.87
-2 1 8 46.78 12.85
-2 1 8 47.56 6.2
-2 -1 7 173.58 24.42
-2 1 7 220.69 27.59
-2 -1 7 207.43 8.69
-2 1 7 189.59 14.05
-2 -1 7 207.47 9.04
-2 1 7 193.02 12.72
-2 -1 6 1447.88 67.02
-2 -1 6 1495.98 31.93
-2 1 6 1568.25 69.02
-2 -1 5 115.15 17.76
-2 1 5 133.65 18.53
-2 -1 5 112.56 10.24
-2 1 5 103.62 10.07
-2 -1 4 1377.22 59.36
-2 -1 4 1297.27 39.03
-2 1 4 1468.59 58
-2 1 4 1336.52 38.47
2 -1 -4 1411.27 60.74
-2 -1 3 814.56 43.08
2 1 -3 748.06 39.34
2 -1 -3 808.99 47.24
-2 1 3 884.89 42.78
-2 -1 3 717.79 31.31
-2 1 3 743.72 30.88
2 1 -3 879.54 36.67
2 1 -2 8.8 3.26
-2 -1 2 22.65 6.8
-2 1 2 23.3 6.48
2 1 -2 11.88 4.78
-2 -1 2 13.55 4.49
-2 1 2 17.51 4.61
2 -1 -1 601.95 34.5
-2 1 1 631.79 31.55
-2 -1 1 551.33 31.09
2 1 -1 514.01 27.44
-2 -1 1 458.51 28.44
-2 1 1 532.86 30.9
2 1 -1 516.25 28.8
-2 -1 0 134.5 13.74
-2 1 0 157.67 14.31
-2 -1 0 121.06 15.26
2 1 0 151.94 13.59
-2 1 0 162.54 18.45
2 1 0 166.89 16.62
2 -1 0 186.13 19.49
-2 1 -1 123.82 11.3
2 1 1 105.55 10.12
-2 -1 -1 89.77 13.8
-2 1 -1 118.5 16.63
2 1 1 90.35 12.22
2 -1 1 112.32 15.35
2 1 2 2158.31 40.81
-2 1 -2 2454.77 42.24
-2 1 -2 2273.42 75.49
2 1 2 2132.86 63.01
2 -1 2 2322.33 73.23
2 1 3 1800.61 59.73
2 -1 3 1930.52 67.75
2 1 4 83.31 13.31
2 -1 4 95.52 15.32
2 1 5 2223.22 72.76
2 -1 5 2382.97 79.66
2 -1 6 2429.22 82.89
2 1 6 2358.25 78.77
2 1 7 896.78 51.1
2 -1 7 944.02 54.05
2 1 8 108.09 18.25
2 -1 8 113.06 19.11
2 -1 9 27.53 10.5
2 1 9 50.89 13.33
2 -1 10 211.27 32.03
2 1 10 221.43 28.37
2 -1 10 263.77 31.16
2 1 11 194.93 33.81
2 -1 11 208.43 33.44
2 1 11 223.38 29.77
2 -1 11 191.67 27.13
2 1 12 156.66 24.79
2 1 12 164.05 32.01
2 -1 12 151.64 29.93
2 -1 12 176.56 27.18
2 1 13 169.85 34.77
2 -1 13 186.86 35.64
-2 2 14 73.65 20.32
-2 -2 13 0.98 5.44
-2 2 13 -5.54 6.32
-2 -2 12 2.08 7.03
-2 2 12 5.56 1.14
-2 2 11 223.28 32.56
-2 -2 11 275.96 35.05
-2 2 10 103.81 10.16
-2 -2 10 121.09 22.59
-2 2 10 97.03 19.18
-2 2 9 2013.53 48.59
-2 -2 9 2020.31 88.16
-2 2 9 2179.16 94.57
-2 -2 8 63.12 16
-2 2 8 92.2 18.29
-2 2 8 80.02 10.24
-2 2 7 1370.22 43.66
-2 2 7 1553.59 71.9
-2 -2 7 1389.97 67.78
-2 -2 6 380.64 34.18
-2 -2 6 402.2 14.16
-2 2 6 429.13 36.35
-2 -2 5 284.39 28.28
-2 2 5 300.5 29.36
-2 -2 5 294.98 15.29
-2 2 4 1108.31 35.4
-2 -2 4 1129.26 53.31
-2 -2 4 1140.59 33.35
-2 2 4 1280.93 56.76
2 -2 -4 1150.74 52.08
2 2 -4 1292.1 40.8
-2 2 3 3415.45 64.91
-2 -2 3 3533.26 90.18
2 2 -3 3369.06 77.34
-2 2 3 3786.08 89.9
-2 -2 3 3536.87 64.9
2 -2 -3 3628.03 87.84
2 2 -3 3661.03 70.24
-2 -2 2 1895.72 62.05
2 2 -2 1770.23 52.17
-2 2 2 1979.08 60.98
-2 -2 2 1843.27 50.8
2 2 -2 1918.35 50.57
-2 2 2 1777.54 48.32
-2 2 1 4297.6 83.12
2 2 -1 3995.68 72.23
-2 -2 1 4241.85 86.65
-2 -2 1 3985.11 80.01
2 2 -1 4153.24 75.08
-2 2 1 3959.19 78.29
-2 2 0 92.33 11.54
-2 -2 0 85.52 12.35
2 2 0 88.01 9.76
2 2 0 92.5 11.5
-2 2 0 88.5 12.69
2 -2 1 622.25 38.46
2 2 1 541.45 21.55
-2 2 -1 581.7 25.09
-2 -2 -1 519.35 32.31
2 2 1 600.18 30.89
-2 2 -1 570.4 34.64
2 -2 2 153.96 19.33
2 2 2 129.65 9.11
-2 2 -2 141.2 10.88
2 2 2 154.6 16.4
2 -2 3 63.53 12.28
2 2 3 50.75 4.59
2 2 3 55.82 9.98
2 2 4 1329.97 52.62
2 -2 4 1421.8 61.76
2 2 5 406.39 30.43
2 -2 5 448.44 34.98
2 2 6 314.23 27.51
2 -2 6 329.86 30.55
2 2 7 191.7 22.73
2 -2 7 196.47 24.57
2 -2 8 303.94 32.56
2 2 8 304.74 29.94
2 -2 8 375.2 35.29
2 -2 9 1517.92 78.17
2 2 9 1592.85 73.36
2 -2 9 1784.04 79.52
2 2 10 88.85 17.84
2 -2 10 117.51 21.61
2 -2 10 111.17 22.38
2 -2 11 628.12 50.85
2 -2 11 599.38 56.74
2 2 11 601.56 48.83
2 -2 12 521.69 46.68
2 2 12 466.64 54.69
2 -2 12 482.96 53.56
2 2 12 477.85 45.01
2 2 13 1.58 4.7
2 -2 13 2.11 4.57
-2 3 14 19.03 10.92
-2 3 13 57.86 15.96
-2 3 12 15.19 5.33
-2 -3 11 28.09 12.62
-2 3 11 2.5 2.01
-2 3 10 1022.4 38.78
-2 -3 10 1021.69 65.88
-2 3 10 1025.23 67.27
-2 -3 9 46.61 13.39
-2 3 9 46.32 8.58
-2 3 9 41.15 13.18
-2 -3 8 1154.44 65.37
-2 3 8 1299.47 69.79
-2 3 8 1216.2 44.36
-2 -3 7 491.52 40.27
-2 3 7 579.62 45.6
-2 3 7 509.69 28.76
-2 -3 6 233.39 10.55
-2 -3 6 247.53 27.84
-2 3 6 263.88 29.34
-2 -3 5 36.34 5.48
-2 3 5 41.09 10.4
2 3 -5 52.34 7.43
-2 -3 5 31.67 10.37
-2 -3 4 1720 67.65
-2 -3 4 1616.37 40.75
-2 3 4 1793.77 67.64
2 -3 -4 1723.05 61.27
2 3 -4 1599.36 43.02
-2 -3 3 2604.49 79.75
2 3 -3 2505.82 66.51
-2 -3 3 2501.37 55.51
-2 3 3 2684.49 78.78
2 3 -3 2471.46 52.33
2 -3 -3 2632.03 70.63
-2 3 2 2429.89 57.72
-2 -3 2 2324.4 57.12
-2 3 2 2392.91 68.47
2 3 -2 2304.94 60.36
2 3 -2 2464.66 54.43
2 -3 -2 2461.28 63.46
-2 3 1 147.62 14.85
2 3 -1 158.85 14.66
-2 -3 1 137.98 14.9
2 3 -1 151.56 14.01
2 3 0 524.88 24.31
-2 -3 0 511.96 30.32
2 3 0 534.62 27.67
-2 3 0 499.94 28.61
2 3 1 732.91 33.49
2 3 1 677.11 24.96
-2 -3 -1 666.48 36.55
2 3 2 552.41 20.5
2 3 2 644.21 32.93
2 -3 3 2807.68 87.53
2 3 3 2670.17 69.77
2 3 4 12.54 2.29
2 -3 4 8.48 3.42
2 3 4 6.01 3.24
2 -3 5 1611.85 69.69
2 3 5 1430.91 56.5
2 -3 6 119.7 18.26
-2 3 -6 124.23 9.59
2 3 6 102.39 15.63
2 -3 7 116.78 19.12
-2 3 -7 122.12 8.6
2 3 7 119.13 18.17
2 -3 7 111.93 17.45
2 -3 8 46.55 12.65
2 -3 8 48.72 12.84
2 3 8 40.27 10.81
2 -3 9 17.21 7.57
2 -3 9 11.08 6.69
2 3 9 4.18 3.54
2 -3 10 857.37 61.97
2 3 10 837.9 53.97
2 -3 11 462.98 48.64
2 3 11 413.85 39.07
2 -3 12 216.16 35.78
2 3 12 255.15 32.66
-2 4 14 70.35 18.68
-2 4 13 144.99 26.96
-2 4 12 15.67 4.94
-2 4 11 208.27 31.43
-2 4 10 84.81 12.29
-2 4 10 97.93 19.64
-2 4 9 114.58 14.97
-2 4 9 147.16 25.09
-2 4 8 150.53 24.6
-2 4 8 136.22 16.07
-2 4 7 27.41 6.76
-2 4 7 18.76 7.78
-2 -4 6 3.69 1.76
-2 4 6 2.22 2.21
2 4 -6 3.96 1.81
-2 -4 5 353.21 17.72
-2 4 5 399.32 35.44
2 4 -5 364.97 18.67
-2 -4 4 704.58 28.27
-2 4 4 756.56 45.27
2 -4 -4 714.21 38.4
2 4 -4 698.1 26.37
-2 -4 3 178.81 15.83
2 4 -3 179.09 13.93
2 -4 -3 168.18 17.24
-2 4 3 207.91 22.22
2 4 -2 302.43 22.28
-2 -4 2 311.98 21.79
2 4 -2 329.58 19.69
2 -4 -2 304.93 20.68
-2 4 1 141.5 14.96
2 4 -1 147.5 14.7
-2 -4 1 146.12 15.72
2 4 -1 160.86 14.58
2 -4 -1 150.54 12.98
2 4 0 447.75 24.37
-2 -4 0 442.11 28.83
2 4 0 471.05 26.1
2 4 1 178.28 14.34
2 4 1 178.55 16.83
2 4 2 1058.58 42.48
2 4 3 461.17 29.16
2 4 4 1071.1 46.66
2 4 5 695.48 39.17
2 -4 5 683.37 33.7
2 4 6 493.4 19.62
2 4 6 499.96 34.72
-2 4 -6 463.88 25.94
2 -4 6 449.16 30.96
2 4 7 483.72 17.36
-2 4 -7 586.29 27.57
2 4 7 520.81 36.96
2 -4 7 478.3 35.26
2 4 8 129.77 18.91
2 -4 8 111.48 18.6
2 4 9 68.77 15.47
2 -4 9 75.41 16.66
2 4 10 229.07 27.71
2 -4 10 233.41 31.65
2 4 11 9.9 6.44
2 -4 11 5.36 3.22
2 4 12 26.68 8.23
2 -4 12 33.65 12.47
-2 5 14 9.4 6.17
-2 5 13 24.35 12.32
-2 5 12 60.37 17.33
-2 5 11 115.98 15.84
-2 5 11 102.06 21.29
-2 5 10 105.02 15.58
-2 5 10 112.22 23.25
-2 5 10 92.27 19.54
-2 5 9 45.85 9.93
-2 5 9 44.42 14.23
-2 5 9 34.07 10.54
-2 5 8 3.78 3.29
-2 5 8 -1.52 3.37
-2 5 8 1.1 3.81
-2 5 7 334.34 36.35
-2 5 7 305.34 29.4
-2 5 7 322.96 26.83
-2 5 6 408.25 38.33
2 5 -6 365.6 16.85
-2 5 6 332.39 28.17
-2 -5 6 355.03 16.26
-2 5 5 107.6 19.29
2 5 -5 90.95 9.16
-2 -5 5 107 10.94
-2 -5 4 62.88 9.07
2 5 -4 68.67 8.67
-2 -5 3 232 18.7
2 5 -3 256.57 17.56
2 5 -2 3.62 2.15
-2 -5 2 1.62 0.75
2 5 -1 1664.28 53.12
2 5 -1 1608.65 47.34
-2 -5 1 1590.56 54.95
2 5 0 114.45 13.34
2 5 1 3871.17 79.47
2 5 2 150.85 16.36
2 5 3 1109.72 46.21
2 -5 3 1092.64 26.51
2 5 4 69.52 12.02
2 -5 4 64 8.43
2 5 5 80.5 13.54
2 -5 5 76.7 10.9
2 5 6 21.13 7.13
2 -5 6 25.23 6.99
2 5 7 1660 43.08
-2 5 -7 1600.22 57.21
2 5 7 1639.69 65.8
2 -5 7 1648.86 64.45
2 5 8 9.84 6.11
2 -5 8 -0.61 0.9
2 5 9 1040.52 57.46
2 -5 9 1074.15 62.8
2 5 10 34.15 10.64
2 -5 10 49.86 14.51
2 5 11 2.36 5.12
2 5 12 35.41 11.26
-2 6 13 318.1 41.26
-2 6 12 9.77 7.35
-2 6 11 273.16 26.41
-2 6 11 280.09 37.77
-2 6 11 275.42 35.99
-2 6 10 -0.95 2.76
-2 6 10 -1.94 5.17
-2 6 10 2.61 4.21
-2 6 9 0.24 2.35
-2 6 9 3.79 5
-2 6 9 5.92 2.07
-2 6 8 61.35 12.67
-2 6 8 57.02 14.91
-2 6 8 64.45 14.55
-2 6 7 408.78 40.86
-2 6 7 379.81 33.05
2 6 -7 400.26 15.09
-2 6 7 398.34 31.95
2 6 -6 66.74 7.36
-2 6 6 72.29 16.23
-2 6 6 66.18 12.72
2 6 -5 2196.14 46.65
-2 -6 5 2122.03 52.33
-2 -6 4 2181.22 57.68
2 6 -4 2213.12 50.39
-2 -6 3 406.22 26.57
2 6 -3 402.62 22.65
-2 -6 2 1404.4 51.36
2 6 -2 1390.87 44.86
2 6 -1 11.27 4.99
2 6 0 58.19 10.09
2 6 1 1074.98 44.1
2 6 2 1264.62 48.97
2 6 3 788.55 40.24
2 6 4 2316.45 70.97
2 6 5 403.39 31.02
2 6 6 266.4 26.13
2 6 7 449.14 35.59
2 6 8 12.66 7.35
2 6 9 120.55 19.71
2 6 10 296.24 32.01
2 6 11 3.87 5.74
2 6 12 215.1 29.25
-2 7 13 14.38 10.76
-2 7 13 1.09 5.83
-2 7 12 10.5 9.45
-2 7 12 10.39 6.25
-2 7 11 143.47 21.1
-2 7 11 149.13 27.54
-2 7 11 137.6 25.2
-2 7 10 403.65 34.56
-2 7 10 383.4 43.45
-2 7 10 375.02 40.4
-2 7 9 43.55 11.59
-2 7 9 40.69 13.45
-2 7 9 50.42 14.55
-2 7 8 1592.09 86.36
-2 7 8 1512.71 71.7
-2 7 8 1482.6 66.16
-2 7 7 163.12 27.17
2 7 -7 161.74 10.54
-2 7 7 160.95 21.59
-2 7 7 160.88 21.5
2 7 -6 525.34 22.47
-2 7 6 492.31 35.56
-2 7 6 506.82 38.09
2 7 -5 464.66 23.12
-2 7 5 426.42 30.31
-2 -7 5 429.57 25.28
2 7 -4 347.09 21.67
-2 7 4 318.7 23.82
-2 -7 4 312.15 23.42
-2 -7 3 497.03 31.21
2 7 -3 470.12 26.36
-2 7 3 434.8 24.79
2 7 -2 2168.79 58.73
2 7 -1 38.68 8.2
2 7 0 1247.54 47.81
2 7 1 354.57 26.47
2 7 2 871.25 42.96
2 7 3 331.97 27.16
2 7 4 89.88 14.78
2 7 5 490.08 35.41
2 7 6 309.57 29.23
2 7 7 39.92 11.23
2 7 8 231.13 27.11
2 7 9 93.86 18.44
2 7 10 1036.57 61.25
2 7 11 88.04 18.52
2 7 12 97.79 20.53
-2 8 13 -2.03 2.07
-2 8 13 -1.76 4.76
-2 8 12 13.25 4.22
-2 8 12 2.07 2.87
-2 8 11 97.02 23.19
-2 8 11 108.44 19.36
-2 8 11 115.44 24.25
-2 8 10 24.28 8.62
-2 8 10 20.15 9.08
-2 8 10 17.58 8.48
-2 8 9 218.09 27.18
-2 8 9 252.73 36.41
-2 8 9 209.63 28.4
-2 8 8 92.15 17.11
-2 8 8 105.31 22.7
-2 8 8 86.42 17.36
-2 8 7 736.55 57.23
2 8 -7 735.36 25.81
-2 8 7 655.71 45.33
-2 8 7 728.29 49.12
2 8 -6 252.35 17.25
-2 8 6 237.95 25.03
-2 8 6 225.25 26.64
2 8 -5 74.87 10.43
-2 8 5 89.44 14.54
2 8 -4 266.39 20.26
-2 8 4 283.74 22.59
-2 -8 4 308.06 24.76
2 8 -3 244.29 20.12
-2 8 3 221.23 17.93
2 8 -2 793.16 38.06
2 8 -1 498.9 31.32
2 8 0 45.29 9.48
2 8 1 0.32 2.84
2 8 2 71.4 12.77
2 8 3 88.98 14.97
2 8 4 1233.08 56.55
2 8 5 41.3 11.03
2 8 6 114.21 18.36
2 8 7 58.57 14.13
2 8 8 4.19 1.9
2 8 9 368.96 36.53
2 8 10 161.34 24.28
2 8 11 400.15 40.19
-2 9 12 133.14 28.76
-2 9 12 116.76 26.27
-2 9 11 74.52 19.73
-2 9 11 95.05 18.23
-2 9 11 86.77 20.29
-2 9 10 21.19 9.23
-2 9 10 22.43 10.81
-2 9 10 19.53 9.65
-2 9 9 8.56 4.07
-2 9 9 13.24 9.66
-2 9 9 12.33 8.91
-2 9 8 27.63 11.07
-2 9 8 35.52 14.44
-2 9 8 16.95 8.25
2 9 -7 27.51 5.74
-2 9 7 13.92 6.52
-2 9 7 24.44 8.44
2 9 -6 596.05 29.55
-2 9 6 630.74 41.89
-2 9 6 619.72 47.21
-2 9 5 70.66 12.39
2 9 -5 58.83 9.9
2 9 -4 184.62 18.36
-2 9 4 184.05 18.94
2 9 -3 362.83 26.48
-2 9 3 346.5 22.86
2 9 -2 248.4 22.89
-2 9 2 237.85 16.23
2 9 -1 1256.55 52.6
2 9 0 70.59 12.71
2 9 1 708.46 41.21
2 9 2 355.61 29.85
2 9 3 472.72 35.63
2 9 4 19.89 7.84
2 9 5 759.35 47.7
2 9 6 954.16 54.99
2 9 7 384.18 36.11
2 9 8 50.51 14.03
2 9 9 86.19 17.68
2 9 10 100.4 19.91
2 9 11 12.41 5.6
-2 10 12 167.68 32.68
-2 10 12 157.16 30.24
-2 10 11 6.71 2.8
-2 10 11 7.69 4.41
-2 10 10 260.54 32.31
-2 10 10 310.72 43.56
-2 10 10 214.01 31.27
-2 10 9 8.23 11.06
-2 10 9 5.62 4.35
-2 10 8 179.14 25.96
-2 10 8 200.16 28.68
2 10 -7 22.43 5.88
-2 10 7 16.43 9.22
-2 10 7 16.21 7.75
2 10 -6 247.22 20.12
-2 10 6 216.12 25.32
-2 10 6 274.64 32.77
2 10 -5 392.17 27.72
-2 10 5 412.56 32.08
-2 10 5 357.97 36.31
-2 10 4 6.89 3.31
2 10 -4 6.56 3.8
-2 10 3 20.12 5.54
2 10 -3 21.38 6.53
2 10 -2 219.37 22.8
-2 10 2 209.41 15.76
2 10 -1 71.83 13.07
2 10 0 2206.67 75.34
2 10 1 2.12 2.59
2 10 2 1855.69 71.88
2 10 3 59.08 13.38
2 10 4 145.89 21.11
2 10 5 84.49 16.74
2 10 6 529.82 42.83
2 10 7 216.76 28.27
2 10 8 1103.6 64.56
2 10 9 60.13 15.68
2 10 10 31.95 12.15
-2 11 11 9.6 8.41
-2 11 11 2.49 2.47
-2 11 11 5.47 6.09
-2 11 10 114.53 22.89
-2 11 10 108.12 25.99
-2 11 10 110.11 23.34
-2 11 9 18.55 9.57
-2 11 9 18.16 12.22
-2 11 9 27.11 12.07
-2 11 8 68.6 17.91
-2 11 8 60.84 15.52
-2 11 7 57.59 15.4
2 11 -7 72.6 10.67
-2 11 7 81.56 17.36
2 11 -6 547.86 32.9
-2 11 6 639.19 45.02
-2 11 6 573.94 49.78
-2 11 5 22.81 10.75
-2 11 5 14.36 4.95
2 11 -5 15.68 5.65
2 11 -4 811.48 45.09
-2 11 4 836.49 43.4
2 11 -3 1004.23 51.43
-2 11 3 969.73 41.75
-2 11 2 7.07 2.98
2 11 -2 -1.1 4.22
-2 11 1 76.52 7.95
2 11 -1 97.73 16.23
2 11 0 26.32 8.21
2 11 1 115.12 18.38
2 11 2 782.2 49.14
2 11 3 1119.06 59.66
2 11 4 2.09 5.78
2 11 5 710.67 50.12
2 11 6 610.84 47.98
2 11 7 10.17 9.11
2 11 8 300.02 34.88
2 11 9 29.17 12.4
2 11 10 4.26 6.27
-2 12 11 103.28 22.51
-2 12 11 96.64 27.03
-2 12 11 74.72 19.67
-2 12 10 9.62 7.25
-2 12 10 9.22 11.88
-2 12 10 1.79 6.26
-2 12 9 638.43 56.23
-2 12 9 658.7 55.14
-2 12 8 20.33 10.49
-2 12 8 23.32 9.93
-2 12 7 356.83 36.56
-2 12 7 398.12 44.31
-2 12 6 15.21 5.46
-2 12 6 39.18 12.04
2 12 -6 28.64 7.47
-2 12 5 24.51 10.1
-2 12 5 38.98 10.4
2 12 -5 33.94 8.16
-2 12 4 122.37 22.2
2 12 -4 143.87 19.78
-2 12 4 125.78 17.46
2 12 -3 568.16 41.32
-2 12 3 510.37 31.66
-2 12 2 31.62 6.92
2 12 -2 31.38 9.05
-2 12 1 625.45 24.37
2 12 -1 646.52 45.55
2 12 0 44.35 11.25
2 12 1 43.19 11.84
2 12 2 107.8 18.52
2 12 3 131.95 21.24
2 12 4 5.9 4.92
2 12 5 63.16 16.53
2 12 6 17.39 8.92
2 12 7 25.37 12.17
2 12 8 130.47 24.58
2 12 9 639.31 54.63
-2 13 10 100.81 23.86
-2 13 10 93.81 25.09
-2 13 10 95.58 21.92
-2 13 9 3.86 5.47
-2 13 9 17.4 9.43
-2 13 8 138.83 26.66
-2 13 8 188.55 29.23
-2 13 7 45.47 15.45
-2 13 7 30.94 11.62
2 13 -6 269.74 25.95
-2 13 6 292.99 32.32
-2 13 6 258.22 36.49
2 13 -5 226.35 25.22
-2 13 5 244.68 27.95
-2 13 5 187.99 30.22
2 13 -4 231.92 27.09
-2 13 4 265.76 26.87
-2 13 4 195.89 30.41
2 13 -3 567.87 43.25
-2 13 3 588.44 35.84
2 13 -2 227.98 27.8
-2 13 2 239.4 19.82
2 13 -1 29.43 10.41
2 13 0 58.62 13.55
2 13 1 27.08 8.37
2 13 2 22.29 7.12
2 13 3 207.12 27.86
2 13 4 17.76 8.73
2 13 5 504.06 46.04
2 13 6 15.34 8.25
2 13 7 9.04 8.14
2 13 8 58.68 18.22
-2 14 9 4.35 3.58
-2 14 9 6.9 6.32
-2 14 8 -2.88 5.73
-2 14 8 9.26 8.92
-2 14 7 15.16 9.1
-2 14 7 4.48 1.37
-2 14 6 94.26 22.92
-2 14 6 130 22.17
2 14 -6 84.78 14.29
2 14 -5 291.56 30.41
-2 14 5 326.43 33.34
-2 14 5 224.07 34.15
-2 14 4 23.82 9.8
2 14 -4 18.44 4.28
-2 14 3 145.97 25.69
2 14 -3 159.52 23.24
-2 14 2 97.35 19.98
2 14 -2 175.57 25.32
2 14 -1 27.24 9.33
2 14 0 670.75 50.81
2 14 1 186.29 26.72
2 14 2 330.59 36.2
2 14 3 294.6 34.41
2 14 4 166.33 26.6
2 14 5 52.04 14.73
2 14 6 456.84 45.33
2 14 7 46.98 14.1
2 14 8 314.77 40.27
-2 15 8 0.76 7.35
-2 15 8 9.91 6.95
-2 15 7 106.6 25.65
-2 15 6 91.13 24.56
-2 15 5 -0.69 9.41
2 15 -5 3.02 1.8
-2 15 4 97.9 21.71
2 15 -4 126.52 21.29
-2 15 3 6.91 6.17
2 15 -3 4.17 1.95
-2 15 2 37.3 12.79
2 15 -2 46.1 13.86
2 15 -1 417.79 41.15
-2 15 1 324.95 38.4
2 15 0 7.99 3.87
2 15 1 974.37 63.79
2 15 2 439.77 42.8
2 15 3 219.7 30.87
2 15 4 1.6 3.14
2 15 5 10.51 1.16
2 15 6 115.43 23.8
2 15 7 390.93 45.07
-2 16 7 135.05 29.54
-2 16 6 47.5 17.59
2 16 -5 418.29 39.36
-2 16 5 407.24 49.52
-2 16 4 101.01 26
2 16 -4 118.23 21.59
-2 16 3 59.25 17.75
2 16 -3 72.78 17.31
-2 16 2 105.24 23.26
2 16 -2 89.76 19.29
-2 16 1 15.54 8.43
2 16 -1 6.48 5.39
-2 16 0 6.81 4.54
2 16 0 0.37 6.18
2 16 1 139.66 24.6
2 16 2 42.86 13.94
2 16 3 7.07 4.06
2 16 4 279.32 36.18
2 16 5 138.66 25.33
-2 17 5 1.35 3.1
-2 17 4 112.64 27.4
2 17 -4 103.05 20.34
-2 17 3 3.05 6.59
2 17 -3 -0.71 3
2 17 -2 435.25 45
-2 17 2 367.42 45.45
-2 17 1 2.49 1.99
2 17 -1 -1.37 5.47
-2 17 0 74.24 18.12
2 17 0 90.7 20.34
-2 17 -1 57.7 16.32
2 17 1 59.19 16.41
-2 17 -2 0.43 7.99
2 17 2 2.81 4.95
2 17 3 -1.39 3.84
2 17 4 9.89 9.48
-2 18 2 83.93 21.84
2 18 -2 108 22.31
-2 18 1 33.32 14.14
2 18 -1 30.22 9.56
-2 18 0 3.79 1.78
2 18 0 1.28 6.14
-3 0 13 -1.46 9.3
-3 0 12 402.31 47.27
-3 0 11 -6.42 10.45
-3 0 10 246.77 34.51
-3 0 9 -10.31 7.73
-3 0 8 29.99 11.17
-3 0 8 28.75 6.35
-3 0 7 3.76 5.99
-3 0 7 0.26 2.3
-3 0 6 2421.8 92.13
-3 0 6 2288.62 62.44
-3 0 5 0.87 3.87
-3 0 5 2.79 4.73
-3 0 4 3898.23 106.69
-3 0 3 -1.94 3.03
-3 0 2 65.5 12.9
3 0 -2 74.56 13.42
3 0 -1 -2.76 3.21
-3 0 1 3.76 3
-3 0 0 303.9 24.39
3 0 0 242 25.28
3 0 1 18.74 6.83
-3 0 -1 -1.79 3.2
-3 0 -2 1442.79 45.26
3 0 2 1613.73 67.64
3 0 3 -0.19 2.98
3 0 4 600.29 44
3 0 5 -11.69 8.72
3 0 6 227.42 28.57
3 0 7 -0.44 3.51
3 0 8 108.18 21.07
3 0 9 6.1 6.76
3 0 10 50.47 15.69
3 0 11 4.07 5.26
3 0 11 9.18 7.84
-3 -1 13 54.51 17.96
-3 1 13 37.58 13.16
-3 -1 12 39.96 12.33
-3 1 12 44.95 16.28
-3 -1 11 116.74 23.72
-3 1 11 131.44 26.69
-3 1 10 276.79 38.1
-3 -1 10 262.62 35.57
-3 -1 9 403.48 42.55
-3 1 9 405.06 42.57
-3 1 9 412.19 25.28
-3 1 8 3.24 2.91
-3 -1 8 -3.08 6.65
-3 1 8 9.79 6.79
-3 -1 7 364.1 37.74
-3 1 7 383.59 38.05
-3 -1 7 312.2 20.94
-3 1 7 349.23 23.47
-3 -1 6 209.73 27.02
-3 -1 6 165.68 16.29
-3 1 6 234.09 28.16
-3 1 6 217.06 19.54
-3 -1 5 353.93 34.68
-3 -1 5 329.7 24.38
-3 1 5 366.75 26.19
-3 -1 4 13.89 6.88
-3 1 4 20.15 8.52
-3 -1 4 16.75 5.8
3 1 -3 1289.28 55.15
-3 -1 3 1302.79 61.61
-3 1 3 1297.35 56.72
-3 1 2 94.54 14.77
-3 -1 2 81.24 14.67
3 1 -2 86.34 13.75
3 -1 -1 1505.51 65.12
-3 -1 1 1446.38 59.18
-3 1 1 1584.67 56.63
3 1 -1 1344.83 56.23
3 1 -1 1421.15 58.33
3 -1 0 1092.12 56.01
-3 -1 0 933.34 44.98
3 1 0 1018.01 45.21
-3 1 0 1165.82 45.77
3 1 0 981.96 49.58
3 -1 1 18.03 6.82
-3 1 -1 15.14 5.75
3 1 1 17.99 6.9
3 1 1 5.89 4.82
-3 1 -2 653.97 28.75
3 1 2 589.27 40.57
3 -1 2 601.26 41.84
-3 1 -3 21.12 3.4
3 1 3 13.83 6.35
3 -1 3 25.29 8.65
3 -1 4 66.9 14.52
3 1 4 60.19 13.8
3 1 5 594.97 45.15
3 -1 5 608.11 45.51
3 -1 6 48.78 13.38
3 1 6 39.81 12.27
3 -1 7 145.25 23.06
3 1 7 128.99 22.58
3 1 8 1873.35 88.15
3 -1 8 1869.86 86.91
3 1 9 416.25 42.69
3 -1 9 468.84 44.96
3 1 10 176.33 27.76
3 -1 10 192.88 29.32
3 1 11 162 28.39
3 -1 11 168.7 28.49
3 -1 11 181.57 32.21
-3 -2 13 93.1 24.21
-3 2 13 114.24 25.95
-3 -2 12 15.01 4.46
-3 2 12 17.52 6.45
-3 -2 11 20.63 8.28
-3 2 11 22.8 9.99
-3 -2 10 52.41 14.24
-3 2 10 99.06 21.55
-3 2 9 40.89 8.93
-3 -2 9 29.54 10.57
-3 2 9 61.94 17.28
-3 -2 8 59.5 14.11
-3 2 8 67.02 9.98
-3 -2 7 26.95 6.11
-3 2 7 27.32 11.2
-3 2 7 16.46 5.05
-3 -2 6 3.45 2.14
-3 -2 6 -1.24 7.41
-3 2 6 11.7 8.7
-3 -2 5 127.76 21.37
-3 2 5 146.7 21.08
-3 -2 5 136.15 15.81
3 2 -4 1.19 0.26
-3 -2 4 -4.05 7.44
-3 2 4 0.92 1.22
-3 -2 4 -2.95 4.07
-3 -2 3 1132.15 59.58
-3 2 3 1233.28 54.33
3 2 -3 1208.56 50.9
-3 -2 2 1065.65 55.23
-3 2 2 1192.25 50.85
3 2 -2 1062.3 49.01
-3 -2 1 369.29 31.46
-3 2 1 407.72 28.37
3 2 -1 364.64 27.86
3 2 -1 372.43 29.65
-3 2 0 277.41 21.57
3 2 0 251.19 21.28
3 2 0 262.16 25.37
3 -2 1 489.67 39.29
-3 2 -1 495.63 26.46
3 2 1 411.3 25.36
3 2 1 437.77 33.97
3 -2 2 235.55 27.4
3 2 2 227.93 17.53
-3 2 -2 259.22 17.8
3 2 2 213.05 24.06
3 -2 3 2151.61 84.32
-3 2 -3 2291.12 45.7
3 2 3 2119.22 78.89
3 2 4 18.9 8.88
3 -2 4 19.84 10.6
3 2 5 3471.06 108.51
3 -2 5 3754.43 115.33
3 2 6 95.65 18.68
3 -2 6 91.87 18.21
3 -2 7 478.95 43.09
3 2 7 468.8 42.6
3 2 8 77.21 18.18
3 -2 8 68.87 16.36
3 -2 9 219.99 31.13
3 2 9 189.27 28.48
3 -2 10 187.81 29.24
3 -2 10 184.48 31.16
3 2 10 157.27 27.46
3 -2 11 800.71 63.32
3 2 11 732.11 59.96
-3 3 13 16.95 13.04
-3 3 12 214.16 35.09
-3 -3 12 202.94 35.61
-3 -3 11 -1.57 6.41
-3 3 11 20.6 11.35
-3 -3 10 20.63 10.15
-3 3 10 32.36 12.83
-3 -3 9 357.52 42.35
-3 3 9 480.1 46.16
-3 3 9 426.91 31.34
-3 3 8 151.26 24.93
-3 -3 8 97 20.54
-3 -3 7 419.89 42.94
-3 -3 7 431.44 22.52
-3 -3 6 18.84 7.58
-3 3 6 23.39 9.84
-3 -3 6 20.01 5.79
-3 -3 5 41.33 8.49
3 3 -5 35.31 8.98
-3 -3 5 21.97 8.43
-3 3 5 41.99 10.9
-3 -3 4 208.16 28.06
-3 3 4 263.85 27.69
-3 -3 4 231.04 22.46
3 3 -4 229.53 21.62
-3 -3 3 33.9 10.03
-3 3 3 33.75 9.69
3 3 -3 40.24 9.26
-3 3 2 684.97 40.12
3 3 -2 638.15 37.72
-3 3 1 1006.16 45.8
3 3 -1 959.27 46.64
3 3 0 125.02 14.2
-3 3 0 137.83 15.58
3 3 0 123.76 16.78
3 3 1 16.13 4.34
3 3 1 13.22 4.04
-3 3 -1 23.19 5.64
3 3 2 1031.21 36.36
-3 3 -2 1135.21 39.17
3 3 2 1108 53.64
-3 3 -3 238.57 16.13
3 3 3 215.97 14.39
3 3 3 222.56 24.76
3 -3 4 3091.71 105.45
-3 3 -4 3013.34 44.9
3 3 4 2922.67 93.36
3 3 5 101.82 18.44
3 -3 5 118.44 21.13
3 -3 6 273.47 33.01
3 3 6 283.58 31.83
3 -3 7 203.37 28.99
3 3 7 186.94 26.24
3 3 8 22.21 7.93
3 -3 8 36.67 11.7
3 -3 9 312.11 37.73
3 3 9 239.97 33.23
3 3 10 151.3 27.02
3 3 11 438.06 46.53
-3 4 13 15.83 9.58
-3 4 12 18.93 10.58
-3 4 11 366.5 44.35
-3 4 10 359.7 42.52
-3 -4 9 231.6 35.11
-3 4 9 241.82 33.54
-3 4 9 228.96 24.7
-3 -4 8 454.98 48
-3 4 8 542.33 47.27
-3 -4 7 64.59 8.31
-3 -4 7 56.17 15.64
-3 4 7 71.68 17.06
3 4 -6 591.05 32.81
-3 -4 6 492.53 27.56
-3 4 6 575.3 46.23
-3 -4 5 198.93 19.11
-3 4 5 202.39 25.61
3 4 -5 197.08 19.07
-3 -4 4 625.73 36.83
-3 4 4 638.44 43.37
3 4 -4 616.98 34.49
-3 4 3 411.94 33.63
3 -4 -3 435.53 37.12
3 4 -3 395.08 28.18
-3 4 2 1153.46 54.36
3 4 -2 1092.1 47.59
3 -4 -2 1086.5 55.34
3 4 -1 51.49 10.58
-3 4 1 60.72 11.82
3 4 0 656.65 33.43
-3 4 0 700.23 37.92
3 4 0 709.13 39.86
3 4 1 1487.33 47.05
-3 4 -1 1646.79 54.62
3 4 1 1685.76 63.84
3 4 2 141.86 13.41
-3 4 -2 156.25 16.05
3 4 2 151.54 20
3 4 3 80.86 8.96
-3 4 -3 94.93 11.33
3 4 3 90.93 15.85
3 4 4 31.5 4.93
-3 4 -4 36.92 6.38
3 4 4 37.85 10.91
-3 4 -5 82.21 7.23
3 4 5 97.73 18.03
3 4 6 0.62 5.91
3 -4 7 381.21 34.83
3 4 7 336.23 34.86
3 4 8 24.31 10.35
3 -4 8 36.27 12.96
3 4 9 455.55 44.75
3 4 10 188.04 29.6
3 4 11 60.81 17.07
-3 5 13 115.58 26.62
-3 5 12 11.76 12.23
-3 5 11 142.22 29.41
-3 5 10 29.12 8.09
-3 5 10 25.14 11.58
-3 5 9 84.12 15.94
-3 5 9 95.87 22.55
-3 5 8 -0.19 2.47
-3 5 7 246.67 31.98
3 5 -6 8.61 4.28
-3 5 6 -2.44 5.58
-3 -5 6 7.77 3.54
-3 -5 5 2361.69 67.78
3 5 -5 2376.49 66.13
3 5 -4 3.38 1.45
-3 5 4 12.24 7.09
-3 5 3 1494.03 66.91
3 -5 -3 1476.43 64.83
3 5 -3 1437.35 53.05
-3 5 2 5.56 3.63
3 -5 -2 9.96 5.71
3 5 -2 -0.19 2.94
-3 5 1 178.45 21.12
3 5 -1 177.47 19.59
3 -5 -1 154.06 17.49
-3 5 0 250.78 23.69
3 5 0 246.1 24.03
3 5 1 979.45 39.64
3 5 1 1088.48 50.74
3 5 2 93.03 11.37
3 5 2 106.64 16.87
3 5 3 611.15 26.84
3 5 3 650.5 41.62
3 5 4 44.2 6.42
3 5 4 52.83 13.16
3 -5 5 160.59 17.42
3 5 5 146.26 21.44
3 -5 6 113.35 16.6
3 5 6 124.14 20.67
3 5 7 516.17 43.16
3 5 8 106.14 20.33
3 5 9 9.18 7.17
3 5 10 29.22 10.81
-3 6 13 30.97 14.87
-3 6 12 78.73 24.45
-3 6 11 119.65 25.82
-3 6 10 197.89 32.35
-3 6 10 204.22 26.68
-3 6 9 140.99 26.82
-3 6 9 138.44 22.31
-3 6 8 546.91 50.76
3 6 -7 7.48 4.08
-3 6 7 0.14 3.95
-3 -6 6 289.22 21.8
3 6 -6 260.98 20.87
3 6 -5 24.24 6.11
-3 -6 5 40.32 8.84
-3 6 5 22.21 8.37
-3 6 4 63.42 15.67
3 6 -4 41.47 8.8
-3 6 3 58.9 15.19
3 6 -3 35.72 8.29
3 6 -2 1527.87 56.18
3 6 -1 481.88 32.23
3 -6 -1 472.36 25.89
3 6 0 365.72 28.58
3 6 1 2635.61 78.38
3 6 2 41.4 8.4
3 6 2 46.91 11.39
3 6 3 327.62 20.7
3 6 3 393.1 32.45
3 6 4 2.25 2.95
3 -6 4 2.03 1.27
3 6 5 1.94 3.37
3 6 6 105.43 19.09
3 6 7 547.88 44.77
3 6 8 49.3 14.45
3 6 9 528.54 47.34
3 6 10 239.11 32.77
-3 7 12 102.74 24.14
-3 7 11 9.07 8.73
-3 7 10 21.43 10.31
-3 7 10 11.26 6.28
-3 7 9 87.38 18.44
-3 7 9 102.04 22.73
-3 7 8 275.31 36.21
-3 7 8 277.15 32.24
-3 7 7 -2.96 6.61
3 7 -7 4.88 2.07
3 7 -6 0.44 3.08
-3 7 6 -4.62 5.15
-3 7 5 139.61 23.49
3 7 -5 113.49 14.4
-3 7 4 181.69 26.31
3 7 -4 186.26 19.18
3 7 -3 6.31 4.92
3 7 -2 188.82 19.72
3 7 -1 189.07 20.29
3 7 0 227.12 22.41
3 7 1 19.69 7.67
3 7 2 552.43 37
3 7 3 35.31 7.62
3 7 3 41.4 10.83
3 7 4 1804.7 72.06
3 7 5 299.16 30.23
3 7 6 669.37 47.11
3 7 7 144.41 23.48
3 7 8 -5.03 4.8
3 7 9 86.63 19.33
3 7 10 147.03 26.16
-3 8 12 13.18 8.16
-3 8 11 91.26 23.78
-3 8 10 107.85 21.45
-3 8 10 114.74 25.54
-3 8 9 134.6 26.43
-3 8 9 159.77 26.39
-3 8 8 396.92 45.53
-3 8 8 363.68 38.83
-3 8 7 70.58 19.08
-3 8 6 10.43 9.72
3 8 -6 0.35 1.68
-3 8 5 19.16 11.14
3 8 -5 6.23 4.92
3 8 -4 8.13 4.95
3 8 -3 54.42 10.41
3 8 -2 845.01 42.81
3 8 -1 100.14 15.25
3 8 0 656.07 39.25
3 8 1 83.04 14.41
3 8 2 69.82 14.15
3 8 3 434.49 34.41
3 8 4 16.84 5.79
3 8 5 381.77 34.81
3 8 6 90.69 17.32
3 8 7 255.64 30.72
3 8 8 38.73 11.89
3 8 9 145.55 25.33
-3 9 11 163.22 32.52
-3 9 10 197.34 33.87
-3 9 10 216.82 32.63
-3 9 9 260.39 39.13
-3 9 9 258.04 34.9
-3 9 8 45.5 13.44
-3 9 8 47 16.77
-3 9 7 197.72 32.79
-3 9 6 314.64 39.27
3 9 -6 304.69 22.88
3 9 -5 597.65 33.84
3 9 -4 18.95 6.88
3 9 -3 419.06 30.84
3 9 -2 62 12.31
3 9 -1 86.93 14.95
3 9 0 547.43 37.41
3 9 1 545.96 38.22
3 9 2 154.54 20.03
3 9 3 196.9 24.27
3 9 4 215.12 26.14
3 9 5 -1 2.72
3 9 6 5.8 7.37
3 9 7 5.42 6.36
3 9 8 648.83 51.38
3 9 9 4.69 9.56
-3 10 11 65.18 19.74
-3 10 10 94.63 22.77
-3 10 10 95.9 23.61
-3 10 9 1.72 6.52
-3 10 9 -13.87 12.69
-3 10 8 126.43 24.57
-3 10 8 153.17 30.05
-3 10 7 2.38 4.32
-3 10 7 23.1 12.42
3 10 -6 827.1 38.58
3 10 -5 33.06 8.19
3 10 -4 1156.18 50.99
3 10 -3 20.26 7.71
3 10 -2 187.49 22.18
3 10 -1 106.05 17.03
3 10 0 10.51 6.91
3 10 1 15.49 8.34
3 10 2 544.64 40.15
3 10 3 28.08 10.17
3 10 4 236.22 27.84
3 10 5 4.99 2.03
3 10 6 115.6 20.67
3 10 7 135.22 23.51
3 10 8 41.97 13.19
-3 11 10 124.17 27.64
-3 11 10 120.2 28.19
-3 11 9 175.29 31.6
-3 11 9 182.04 35.2
-3 11 8 21.13 10.99
-3 11 8 18.56 15.05
-3 11 7 52.38 15.05
-3 11 7 65.96 21.62
3 11 -6 9.5 5.57
3 11 -5 93.58 14.17
3 11 -4 6.95 4.56
3 11 -3 324.88 28.86
3 11 -2 48.58 12.51
3 11 -1 374.04 33.11
3 11 0 525.75 39.94
3 11 1 59.62 14.15
3 11 2 117.13 19.95
3 11 3 9.36 7.5
3 11 4 5.45 6.89
3 11 5 104.91 20.71
3 11 6 333.39 35.99
3 11 7 21.59 9.9
3 11 8 553.66 49.95
-3 12 10 38.68 16.05
-3 12 10 36.41 13.17
-3 12 9 12.62 6.71
-3 12 9 37.44 18.33
-3 12 8 6.36 3.35
-3 12 8 30.02 16.15
-3 12 7 205.03 32.28
-3 12 6 25.95 11.02
3 12 -5 37 9.99
3 12 -4 5.56 5.32
3 12 -3 403.94 34.25
3 12 -2 90.59 16.79
3 12 -1 83.67 16.37
3 12 0 6.14 7.25
3 12 1 19.5 9.91
3 12 2 11.06 8.52
3 12 3 381.3 37.71
3 12 4 77.11 18.14
3 12 5 820.68 57.27
3 12 6 10.89 6.61
3 12 7 78.56 18.01
-3 13 9 188.61 34.82
-3 13 9 170.22 34.28
-3 13 8 32.08 14.42
-3 13 8 38.78 18.65
-3 13 7 179.98 31.66
-3 13 6 9.75 7.59
3 13 -5 5.97 4.89
3 13 -4 14.66 7.86
3 13 -3 80.54 16.94
3 13 -2 84.21 17.39
3 13 -1 532.14 43.99
3 13 0 234.1 29.71
3 13 1 10.49 5.35
3 13 2 210.26 28.78
3 13 3 72.14 18.11
3 13 4 281.99 34.38
3 13 5 90.65 20.58
3 13 6 227.59 31.85
-3 14 8 95.79 27.69
-3 14 7 39.11 13.16
-3 14 6 293.17 40.23
-3 14 5 6.25 5.95
3 14 -5 7.57 6.34
3 14 -4 398.81 35.86
3 14 -3 8.09 6.07
3 14 -2 207.16 28.29
3 14 -1 93.4 19.84
3 14 0 397.35 40.25
3 14 1 569.57 48.54
3 14 2 233.57 31.23
3 14 3 11.14 8.45
3 14 4 11.32 8.59
3 14 5 28.3 13.11
-3 15 6 8.33 3.55
-3 15 5 318.77 41.31
-3 15 4 8.04 1.93
3 15 -4 42.58 12.4
3 15 -3 324.43 35.62
3 15 -2 1.34 4.59
3 15 -1 143.88 25.56
3 15 0 85.45 20.45
3 15 1 96.39 21.59
3 15 2 122.12 23.34
3 15 3 130.49 25.03
3 15 4 -3.47 1.41
3 16 -4 8.11 7.98
-3 16 4 3.9 5.02
-3 16 3 14.11 8.56
3 16 -3 5.74 7.83
3 16 -2 168.72 27.58
3 16 -1 215.22 31.76
3 16 0 104.58 22.46
3 16 1 327.93 40.17
3 16 2 22.01 13.44
-4 0 12 113.42 25.94
-4 0 11 32.97 16.88
-4 0 10 434.12 47.43
-4 0 9 -9.25 10.18
-4 0 8 318.46 37.56
-4 0 7 3.06 2.24
-4 0 6 8.83 4.88
-4 0 5 28.71 13.33
-4 0 4 63.27 13.67
-4 0 3 14.33 10.91
-4 0 2 69.74 13.62
4 0 -2 60.73 14.23
-4 0 1 -5.55 4.43
4 0 -1 -0.04 1.87
4 0 0 881.24 54.33
-4 0 0 916.34 46.2
4 0 1 11.5 7.38
-4 0 -1 -1.02 3.18
4 0 2 1003.05 60.56
4 0 3 7.31 7.64
4 0 4 15.62 8.45
4 0 5 -3.62 1.51
4 0 6 208.23 29.86
4 0 7 19.85 10.48
4 0 8 858.55 65.2
4 0 9 12.66 8.78
-4 -1 12 36.71 14.48
-4 1 12 25.61 12.4
-4 -1 11 68.98 19.34
-4 1 11 68.22 17.49
-4 -1 10 6.44 5.1
-4 1 10 11.24 9.94
-4 -1 9 18.47 6.93
-4 1 9 36.17 13.57
-4 -1 8 17.05 11.11
-4 1 8 7.64 8.31
-4 -1 7 192.01 28.58
-4 1 7 211.91 29.17
-4 -1 6 370.73 38.01
-4 1 6 372.66 37.51
-4 -1 5 59.48 16.12
-4 1 5 77.61 17.57
-4 -1 4 856.9 54.66
-4 1 4 878.55 52.32
-4 -1 3 8.33 2.36
-4 1 3 3.97 5.28
-4 -1 2 53.48 12.47
-4 1 2 54.82 12.58
4 1 -2 55.92 13.42
-4 -1 1 178.82 21.47
-4 1 1 219.85 22.98
4 1 -1 183.27 24.25
4 -1 0 -0.78 5.11
-4 -1 0 -1.97 6.57
-4 1 0 2.08 1.03
4 1 0 5.4 5.11
4 -1 1 133.48 22.3
-4 1 -1 126.32 15.69
4 1 1 126.34 21.34
4 -1 2 474.39 42.16
-4 1 -2 421.32 26.96
4 1 2 437.15 40.5
4 -1 3 342.19 37.03
4 1 3 334.87 36.18
4 1 4 224.23 30.57
4 -1 4 222.1 29.53
4 1 5 513.49 47.02
4 -1 5 522.77 47.1
4 1 6 185.23 29.32
4 -1 6 228.84 31.97
4 -1 7 184.11 29.22
4 1 7 212.82 32.47
4 1 8 23.9 13.5
4 -1 8 20.54 10.88
4 1 9 59.88 17.27
4 -1 9 65.53 19.67
-4 -2 12 2.74 2.78
-4 2 12 6.9 7.35
-4 -2 11 -3.72 10.23
-4 2 11 -7.8 8.83
-4 -2 10 26.12 10.96
-4 2 10 37.41 15.18
-4 -2 9 81.46 20.09
-4 2 9 118.3 23.91
-4 -2 8 -12.23 12.62
-4 2 8 0.74 3.69
-4 2 7 218.01 29.48
-4 -2 7 144.92 25.74
-4 -2 6 24.03 6.05
-4 2 6 35.31 11.98
-4 -2 5 402.13 40.64
-4 2 5 438.82 38.35
4 2 -4 75.27 14.66
-4 -2 4 79.49 16.8
-4 2 4 76.72 15.37
-4 -2 3 884.54 58.21
-4 2 3 934.11 51.09
4 2 -3 841.41 49.71
-4 2 2 89.07 16.48
-4 -2 2 58.94 15.99
4 2 -2 59.99 13.56
-4 2 1 785.53 42.9
4 2 -1 790.03 50.02
4 2 0 72.67 15.14
-4 2 0 91.04 14.9
-4 2 -1 154.26 16.92
4 2 1 161.43 23.87
-4 2 -2 2.9 2.88
4 -2 2 -0.79 2.45
4 2 2 -1.96 3.51
4 2 3 22.95 8.29
4 -2 3 16.61 7.8
4 -2 4 185 27.28
4 2 4 184.06 27.75
4 -2 5 8.3 3.45
4 2 5 2.49 5.67
4 -2 6 127.23 23.89
4 2 6 135.84 25.5
4 -2 7 59.51 16.89
4 2 7 47.5 14.41
4 2 8 4.52 2.02
4 -2 8 14.3 10.41
4 2 9 133.2 26.19
4 -2 9 137.65 26.72
-4 -3 12 20.56 9.42
-4 3 12 34.71 13.45
-4 -3 11 -4.89 5.3
-4 3 11 -11.05 10.3
-4 -3 10 67.38 20.66
-4 3 10 88.54 21.21
-4 -3 9 -0.46 7.89
-4 3 9 15.69 11.59
-4 -3 8 286.77 38.77
-4 3 8 333.52 37.65
-4 -3 7 208.85 31.93
-4 3 7 182.22 27.91
-4 -3 6 252.94 35.2
-4 3 6 249.51 30.71
4 3 -5 90.49 15.61
-4 -3 5 97.29 20.66
-4 3 5 107.53 18.96
-4 -3 4 561.02 49.27
-4 3 4 532.4 40.72
4 3 -4 554.32 38.76
-4 3 3 255.49 27.12
4 3 -3 224.53 25.57
-4 3 2 339.56 29.63
4 3 -2 321.51 31.59
-4 3 1 82.17 14.47
4 3 -1 52.63 12.82
-4 3 0 558.78 34.49
4 3 0 491.51 40.76
-4 3 -1 29.45 8.62
4 3 1 6.52 4.75
-4 3 -2 284.74 21.12
4 3 2 265.67 31.93
4 3 3 225.96 30.49
4 3 4 58.57 16.13
4 3 5 87.2 19.04
4 3 6 97 20.19
4 3 7 25 7.37
4 3 8 -1.91 5.98
4 3 9 -6.56 8.99
-4 4 12 126.79 28.09
-4 4 11 198.46 34.22
-4 4 10 200.05 32.46
-4 4 9 39.87 15.36
-4 4 8 82.54 19.39
-4 4 7 71.81 18.64
4 4 -6 27.7 8.64
-4 4 6 55.8 20.37
-4 4 5 403.41 37.04
4 4 -5 407.86 32.03
4 4 -4 42.44 11.09
-4 4 4 47.68 13.66
-4 4 3 216.77 25.75
4 4 -3 197 23.95
-4 4 2 -0.01 2.51
4 4 -2 0.23 1.27
-4 4 1 9.73 4.66
4 4 -1 6.62 6.49
4 4 0 88.04 17.33
-4 4 0 84.76 13.98
-4 4 -1 304.69 24.17
4 4 1 349.01 35.29
-4 4 -2 174.1 17.2
4 4 2 162.67 25.28
4 4 3 2211.35 93.34
4 4 4 202.39 29.12
4 4 5 3.21 5.27
4 4 6 319.07 38.69
4 4 7 336.04 41.08
4 4 8 179.81 30.63
-4 5 11 370.5 47.28
-4 5 10 36.75 17.23
-4 5 9 183.82 30.99
-4 5 8 3.57 4.08
-4 5 7 32.34 12.94
4 5 -6 3.98 4.61
-4 5 6 3.6 5.88
4 5 -5 32.56 8.82
-4 5 5 40.25 13.26
-4 5 4 49.78 16.39
4 5 -4 39.71 10.77
-4 5 3 494.62 40.35
4 5 -3 471.71 37.98
4 5 -2 52.38 12.54
-4 5 2 61.09 13.74
4 5 -1 1.71 1.83
-4 5 1 6.1 5.86
4 5 0 5.23 4.27
-4 5 0 26.64 9.76
-4 5 -1 862.6 44.23
4 5 1 818.37 54.6
4 5 2 -1.93 1.7
-4 5 -2 0.73 2.88
4 5 3 336.85 35.92
4 5 4 25.2 9.45
4 5 5 136.71 25.44
4 5 6 -0.62 2.11
4 5 7 919.68 68.3
4 5 8 10.05 8.46
-4 6 11 129.74 28.13
-4 6 10 77.72 22.35
-4 6 9 45.06 15.91
-4 6 8 3.41 5.11
-4 6 7 139.88 25.44
4 6 -6 12.46 5.08
-4 6 6 22.55 9.46
-4 6 5 217.71 29.7
4 6 -5 178.15 21.41
4 6 -4 28.68 10.05
-4 6 4 41.47 13.39
4 6 -3 18.62 7.91
-4 6 3 -4.39 6.05
-4 6 2 128.32 19.94
4 6 -2 155.75 21.84
4 6 -1 42.7 11.72
-4 6 1 49.39 12.89
4 6 0 19.92 7.38
-4 6 0 37.14 9.98
-4 6 -1 454.11 33.77
4 6 1 416.01 38.01
-4 6 -2 357.44 28.32
4 6 2 369.42 35.75
4 6 3 466.57 41.45
4 6 4 248.77 32.03
4 6 5 13.76 3.29
4 6 6 162.28 26.44
4 6 7 58.68 15.48
4 6 8 66.09 18.19
-4 7 11 12.27 11.55
-4 7 10 91.33 22.88
-4 7 9 28.65 15.16
-4 7 8 545.75 53.14
-4 7 7 117.21 24.04
-4 7 6 261.07 34.54
4 7 -6 232.79 23.08
4 7 -5 9.97 4.48
-4 7 5 4.62 5.61
-4 7 4 306.94 35.2
4 7 -4 281.03 28.94
4 7 -3 -2.46 5.17
-4 7 3 52.3 18.32
-4 7 2 822.32 53.96
4 7 -2 792.95 50.12
-4 7 1 266.03 30.74
4 7 -1 162.94 22.54
-4 7 0 1033.19 56.66
4 7 0 957.7 55.85
-4 7 -1 97.39 18.67
4 7 1 76.68 16.05
-4 7 -2 36.41 10.27
4 7 2 21.41 9.14
4 7 3 22.59 8.07
4 7 4 31.88 12.41
4 7 5 46.64 14.11
4 7 6 235.36 32.88
4 7 7 0.72 5.89
-4 8 10 2.03 5.27
-4 8 9 35.58 15.93
-4 8 8 43.2 15.88
-4 8 7 614.85 55.8
-4 8 6 189.58 29.68
-4 8 5 591.48 51.41
4 8 -5 633.5 42.64
4 8 -4 5.75 2.91
-4 8 4 32.98 13.68
-4 8 3 634.39 51.62
4 8 -3 649.83 45.04
-4 8 2 366.14 40.67
4 8 -2 174.69 23.77
-4 8 1 1391.48 70.12
4 8 -1 1230.11 63.36
-4 8 0 183.72 28.34
4 8 0 79.56 17.03
-4 8 -1 333.51 31.9
4 8 1 254.48 29.24
-4 8 -2 166.42 24.95
4 8 2 30.37 11.42
4 8 3 84 18.77
4 8 4 676.52 52.19
4 8 5 36.94 13.17
4 8 6 212.53 31.28
4 8 7 71.15 19.35
-4 9 9 179.56 35.83
-4 9 9 190.86 34.61
-4 9 8 14.58 10.93
-4 9 7 177.05 30.59
-4 9 6 197.49 32.6
4 9 -5 15.6 7.25
-4 9 5 27.9 11.95
-4 9 4 461.88 46.39
4 9 -4 450.34 35.98
-4 9 3 12.37 9.04
4 9 -3 1.6 2.52
-4 9 2 59.09 19.28
4 9 -2 3.96 4.37
-4 9 1 210.41 28.06
4 9 -1 170.48 24.08
4 9 0 13.65 8.8
4 9 1 195.76 26.3
4 9 2 124.78 21.57
4 9 3 176.76 25.63
4 9 4 58.59 15.78
4 9 5 281.82 35.39
4 9 6 97.57 21.62
-4 10 9 14.68 9.47
-4 10 9 24.09 11.42
-4 10 8 -0.01 6.75
-4 10 7 13.21 11.3
-4 10 6 10.59 9.22
-4 10 5 151.63 31.79
4 10 -5 92.41 16.53
-4 10 4 22.83 12.82
4 10 -4 17.32 8.37
-4 10 3 138.56 28.81
4 10 -3 97.84 17.58
-4 10 2 121.81 23.34
4 10 -2 99.73 18.46
4 10 -1 5.25 6.69
4 10 0 371.92 35.82
4 10 1 14.79 7.79
4 10 2 488.25 42.52
4 10 3 30.11 11.16
4 10 4 106.46 21.48
4 10 5 4.58 8.19
4 10 6 148.87 27.49
-4 11 8 65.83 21.08
-4 11 7 75.98 20.51
-4 11 6 297.59 42.17
-4 11 5 34.98 18.59
-4 11 4 627.81 56.22
4 11 -4 558.09 42.04
-4 11 3 61.97 21.77
4 11 -3 44.76 12.85
4 11 -2 209.06 26.57
4 11 -1 42.52 11.65
4 11 0 74.32 16.7
4 11 1 3.18 4.72
4 11 2 254.15 31.35
4 11 3 251.36 32.34
4 11 4 58.02 15.01
4 11 5 278.08 35.75
-4 12 7 290.57 42.8
-4 12 6 -4.17 2.18
-4 12 5 262.07 37.92
-4 12 4 59.78 21.96
4 12 -4 16.05 8.04
4 12 -3 438.24 38.09
4 12 -2 13.88 8.7
4 12 -1 751.04 52.33
4 12 0 16.38 7.9
4 12 1 167.13 25.53
4 12 2 35.01 12.43
4 12 3 13.72 8.86
4 12 4 3.29 6.6
-4 13 5 43.83 18.33
4 13 -4 120.33 19.76
4 13 -3 101.02 18.51
4 13 -2 176.26 25.35
4 13 -1 54.72 14.04
4 13 0 159.99 25.06
4 13 1 0.14 4.62
4 13 2 80.22 18.97
4 14 -3 28.77 11.36
4 14 -2 2.82 6.29
4 14 -1 40.28 12.28
4 14 0 105.53 21.42
-5 0 9 -4.22 5.24
-5 0 8 31.46 11.89
-5 0 7 -0.84 4.78
-5 0 6 416.99 40.97
-5 0 5 -3.75 5.47
-5 0 4 615.62 47.19
-5 0 3 -2.34 2.98
-5 0 2 386.93 35.01
-5 0 1 -5.12 4.93
5 0 0 674.49 53.74
5 0 1 8.19 7.14
5 0 2 867.21 62.9
5 0 3 -3.28 1.63
5 0 4 310.74 39.79
5 0 5 12.99 10.26
-5 -1 9 1.82 8.18
-5 1 9 6.42 4.16
-5 -1 8 -1.47 8.43
-5 1 8 8.29 4.32
-5 1 7 181.25 27.67
-5 -1 7 180.04 28.18
-5 -1 6 43.41 12.76
-5 1 6 52.52 14.07
-5 -1 5 201.6 28.93
-5 1 5 198.58 27.32
-5 -1 4 120.28 21.05
-5 1 4 121.08 19.99
-5 -1 3 200.51 26.64
-5 1 3 180.27 23.85
5 1 -2 62.32 15.85
-5 -1 2 69.06 14.9
-5 1 2 81.16 14.46
5 1 -1 329.9 36.84
-5 1 1 321.06 29.31
5 1 0 82.23 19.07
5 1 1 556.25 49.78
5 -1 2 201.58 30.03
5 1 2 192.35 30.15
5 -1 3 137.08 26.18
5 1 3 119.91 23.51
5 1 4 13.42 8.84
5 -1 4 13.19 9.45
5 1 5 59.31 18.11
5 -1 5 46.65 15.15
-5 -2 9 129.03 26.49
-5 2 9 118.82 24.2
-5 -2 8 13.28 1.73
-5 2 8 49.01 14.11
-5 -2 7 121.95 23.89
-5 2 7 119.57 22.94
-5 -2 6 145.28 25.83
-5 2 6 149.52 24.2
-5 -2 5 210.74 30.12
-5 2 5 228.58 29.1
-5 -2 4 15.28 6.73
-5 2 4 21.97 7.16
5 2 -3 14.33 8.06
-5 2 3 9.87 4.49
-5 2 2 6.17 3.99
5 2 -2 4.24 3.63
-5 2 1 9.07 4.89
5 2 -1 7.58 4.5
5 2 0 74.91 18.59
5 2 1 -2.4 3.08
5 2 2 1.54 1.66
5 2 3 122.64 24.82
5 2 4 27.75 13.48
5 2 5 511.48 52.04
-5 3 9 53.04 16.81
-5 3 8 93.77 21.48
-5 3 7 63.65 15.87
-5 3 6 129.99 23.24
-5 3 5 11.44 6.66
5 3 -4 16.94 8.51
-5 3 4 1.74 4.84
-5 3 3 46.47 13.37
5 3 -3 45.35 13.9
5 3 -2 45.22 14.42
-5 3 2 28.7 10.2
-5 3 1 356.81 30.96
5 3 -1 399.48 40.3
5 3 0 32.63 12.39
5 3 1 46.46 14.51
5 3 2 15.22 9.29
5 3 3 2.45 5.09
5 3 4 223.92 34.48
5 3 5 90.11 23.07
-5 4 9 85.6 20.72
-5 4 8 190.09 29.99
-5 4 7 17.12 7.9
-5 4 6 275.42 33.92
-5 4 5 83.7 18.94
5 4 -5 101.27 18.18
5 4 -4 350.21 35.51
-5 4 4 346.48 35.46
-5 4 3 10.22 7.6
5 4 -3 5.1 2.83
-5 4 2 382.25 34.04
5 4 -2 406.06 40.36
5 4 -1 63.28 17.26
-5 4 1 58.21 12.09
5 4 0 395.81 42.15
5 4 1 133.36 25.21
5 4 2 308.65 38.42
5 4 3 117.45 24.6
5 4 4 111.55 24.07
5 4 5 9.89 8.09
-5 5 8 37 13.72
-5 5 7 169.74 28.12
-5 5 6 16.71 7.87
5 5 -5 455.14 38.98
-5 5 5 521.04 45.91
-5 5 4 9.45 7.01
5 5 -4 7.2 5.06
-5 5 3 673.38 47.94
5 5 -3 687.24 51.76
5 5 -2 6.76 2.81
-5 5 2 13.7 8.05
-5 5 1 193.24 24
5 5 -1 173.49 28.28
5 5 0 -5.86 8.14
5 5 1 456.69 47
5 5 2 61.21 16.76
5 5 3 295.5 39.09
5 5 4 0.05 0.42
-5 6 8 74.67 20.23
-5 6 7 76.96 19.8
-5 6 6 156.15 26.58
-5 6 5 23.1 11.61
5 6 -5 15.8 8.61
5 6 -4 0.43 1.57
-5 6 4 15.66 7
5 6 -3 63.19 14.96
-5 6 3 63.19 15.33
-5 6 2 121.59 20.16
5 6 -2 124.54 23.26
-5 6 1 2.44 4.56
5 6 -1 -4.72 5.78
5 6 0 132.61 25.16
5 6 1 277.52 36.26
5 6 2 3.28 3.57
5 6 3 22.27 9.27
5 6 4 40.4 15.11
-5 7 7 -1.68 4.23
-5 7 6 104.97 21.38
-5 7 5 25.83 12.08
5 7 -4 5.84 4.52
-5 7 4 4.31 5.83
-5 7 3 3.09 4.55
5 7 -3 5.74 3.65
-5 7 2 14.27 7.8
5 7 -2 5.63 5.51
-5 7 1 15.96 8.27
5 7 -1 13.34 8.26
5 7 0 13.08 7.25
5 7 1 90.26 20.88
5 7 2 -0.19 7.01
5 7 3 14.26 8.64
-5 8 6 49.44 15.24
-5 8 5 42.72 15.4
-5 8 4 64.34 17.26
5 8 -4 58.9 14.87
-5 8 3 -0.12 4.19
5 8 -3 -0.61 2.93
5 8 -2 119.87 22.81
-5 8 2 129.43 23.54
5 8 -1 3.12 7.37
-5 8 1 4.64 4.93
5 8 0 76.85 19.04
5 8 1 58.62 16.19
5 8 2 29 10.65
-5 9 5 175.84 30.33
-5 9 4 35.84 13.32
5 9 -4 33.92 12.36
-5 9 3 225.69 32.51
5 9 -3 235.15 32.62
5 9 -2 79.35 18.92
-5 9 2 51.38 15.14
5 9 -1 127.24 24.7
-5 9 1 125.85 22.43
5 9 0 123.1 24.57
5 9 1 303.88 38.15
5 10 -3 6.74 5.85
-5 10 3 6.72 5.69
5 10 -2 192.85 28.92
-5 10 2 228.88 32.73
5 10 -1 -1.53 5.12
