#------------------------------------------------------------------------------
#$Date: 2022-03-29 11:36:17 +0300 (Tue, 29 Mar 2022) $
#$Revision: 274079 $
#$URL: file:///home/coder/svn-repositories/cod/cif/8/10/49/8104925.cif $
#------------------------------------------------------------------------------
#
# This file is available in the Crystallography Open Database (COD),
# http://www.crystallography.net/
#
# All data on this site have been placed in the public domain by the
# contributors.
#
data_8104925
loop_
_publ_author_name
'Wang, Haifang'
_publ_section_title
;
 The crystal structure of
 3,5-dichloro-6-diazo-2,4-dinitrocyclohexa-2,4-dien-1-one, C6Cl2N4O5
;
_journal_issue                   1
_journal_name_full
'Zeitschrift f\"ur Kristallographie - New Crystal Structures'
_journal_page_first              213
_journal_page_last               214
_journal_paper_doi               10.1515/ncrs-2020-0491
_journal_volume                  236
_journal_year                    2021
_chemical_formula_moiety         'C6 Cl2 N4 O5'
_chemical_formula_sum            'C6 Cl2 N4 O5'
_chemical_formula_weight         279.00
_chemical_name_systematic
;
6-diazo-3,5-dichloro-2,4-dinitrocyclohexadiene-1-one
;
_space_group_crystal_system      orthorhombic
_space_group_IT_number           19
_space_group_name_Hall           'P 2ac 2ab'
_space_group_name_H-M_alt        'P 21 21 21'
_atom_sites_solution_hydrogens   .
_atom_sites_solution_primary     dual
_cell_angle_alpha                90
_cell_angle_beta                 90
_cell_angle_gamma                90
_cell_formula_units_Z            4
_cell_length_a                   6.0044(6)
_cell_length_b                   8.9660(11)
_cell_length_c                   18.0544(18)
_cell_measurement_reflns_used    1215
_cell_measurement_temperature    170
_cell_measurement_theta_max      23.382
_cell_measurement_theta_min      2.537
_cell_volume                     971.97(18)
_computing_cell_refinement       'SAINT V8.40A (?, 2016)'
_computing_data_reduction        'SAINT V8.40A (?, 2016)'
_computing_molecular_graphics    'Olex2 (Dolomanov et al., 2009)'
_computing_publication_material  'Olex2 (Dolomanov et al., 2009)'
_computing_structure_refinement  'ShelXL (Sheldrick, 2015)'
_computing_structure_solution    'ShelXT (Sheldrick, 2015)'
_diffrn_ambient_temperature      170.0
_diffrn_measured_fraction_theta_full 0.998
_diffrn_measured_fraction_theta_max 0.996
_diffrn_measurement_device_type  'D8 VENTURE'
_diffrn_measurement_method       '\f and \w scans'
_diffrn_radiation_type           MoK\a
_diffrn_radiation_wavelength     0.71073
_diffrn_reflns_av_R_equivalents  0.0579
_diffrn_reflns_av_unetI/netI     0.0806
_diffrn_reflns_Laue_measured_fraction_full 0.998
_diffrn_reflns_Laue_measured_fraction_max 0.996
_diffrn_reflns_limit_h_max       7
_diffrn_reflns_limit_h_min       -6
_diffrn_reflns_limit_k_max       11
_diffrn_reflns_limit_k_min       -7
_diffrn_reflns_limit_l_max       20
_diffrn_reflns_limit_l_min       -22
_diffrn_reflns_number            4699
_diffrn_reflns_point_group_measured_fraction_full 0.995
_diffrn_reflns_point_group_measured_fraction_max 0.988
_diffrn_reflns_theta_full        25.242
_diffrn_reflns_theta_max         26.411
_diffrn_reflns_theta_min         2.256
_diffrn_standards_number         0
_exptl_absorpt_coefficient_mu    0.686
_exptl_absorpt_correction_T_max  0.7454
_exptl_absorpt_correction_T_min  0.6395
_exptl_absorpt_correction_type   multi-scan
_exptl_absorpt_process_details
;
 'SADABS-2016/2 (Bruker,2016/2) was used for absorption correction.
 wR2(int) was 0.1002 before and 0.0436 after correction. 
The Ratio of minimum to maximum transmission is 0.8579. 
The \l/2 correction factor is Not present.'
;
_exptl_crystal_colour            colourless
_exptl_crystal_colour_primary    colourless
_exptl_crystal_density_diffrn    1.907
_exptl_crystal_description       block
_exptl_crystal_F_000             552
_exptl_crystal_size_max          0.15
_exptl_crystal_size_mid          0.1
_exptl_crystal_size_min          0.08
_refine_diff_density_max         0.314
_refine_diff_density_min         -0.312
_refine_diff_density_rms         0.079
_refine_ls_abs_structure_details
;
 Flack x determined using 389 quotients [(I+)-(I-)]/[(I+)+(I-)]
 (Parsons, Flack and Wagner, Acta Cryst. B69 (2013) 249-259).
;
_refine_ls_abs_structure_Flack   0.16(6)
_refine_ls_extinction_coef       .
_refine_ls_extinction_method     none
_refine_ls_goodness_of_fit_ref   1.115
_refine_ls_hydrogen_treatment    undef
_refine_ls_matrix_type           full
_refine_ls_number_parameters     154
_refine_ls_number_reflns         1986
_refine_ls_number_restraints     0
_refine_ls_restrained_S_all      1.115
_refine_ls_R_factor_all          0.0911
_refine_ls_R_factor_gt           0.0501
_refine_ls_shift/su_max          0.003
_refine_ls_shift/su_mean         0.001
_refine_ls_structure_factor_coef Fsqd
_refine_ls_weighting_details
'w=1/[\s^2^(Fo^2^)+(0.0219P)^2^+0.3742P] where P=(Fo^2^+2Fc^2^)/3'
_refine_ls_weighting_scheme      calc
_refine_ls_wR_factor_gt          0.0826
_refine_ls_wR_factor_ref         0.0987
_reflns_Friedel_coverage         0.669
_reflns_Friedel_fraction_full    0.991
_reflns_Friedel_fraction_max     0.977
_reflns_number_gt                1388
_reflns_number_total             1986
_reflns_threshold_expression     'I > 2\s(I)'
_iucr_refine_instructions_details
;
TITL 0702zbdx2_0m_a.res in P2(1)2(1)2(1)
    0702zbdx4_0m.res
    created by SHELXL-2018/3 at 13:25:19 on 05-Jul-2020
REM Old TITL 0702ZBDX2_0m in P2(1)2(1)2(1)
REM SHELXT solution in P2(1)2(1)2(1)
REM R1 0.126, Rweak 0.026, Alpha 0.001, Orientation as input
REM Flack x = 0.157 ( 0.061 ) from Parsons' quotients
REM Formula found by SHELXT: C10 N O4 Cl2
CELL 0.71073 6.0044 8.966 18.0544 90 90 90
ZERR 4 0.0006 0.0011 0.0018 0 0 0
LATT -1
SYMM 0.5-X,-Y,0.5+Z
SYMM -X,0.5+Y,0.5-Z
SYMM 0.5+X,0.5-Y,-Z
SFAC C Cl N O
UNIT 24 8 16 20

L.S. 4
PLAN  20
SIZE 0.15 0.1 0.08
TEMP -103.15
list 4
fmap 2
acta
REM <olex2.extras>
REM <HklSrc "%.\\0702ZBDX4_0m%20.hkl">
REM </olex2.extras>

WGHT    0.021900    0.374200
FVAR       0.51282
CL2   2    0.251335    0.059800    0.325854    11.00000    0.03588    0.04269 =
         0.04324   -0.00074   -0.00567   -0.00893
CL1   2    0.380316    0.658261    0.330054    11.00000    0.04449    0.03875 =
         0.05079    0.00430    0.00198    0.00823
O3    4    0.891917    0.300944    0.461290    11.00000    0.04030    0.05148 =
         0.03757   -0.00155   -0.01525    0.00282
O4    4   -0.019306    0.326857    0.284874    11.00000    0.02070    0.06462 =
         0.04219   -0.00082   -0.00074   -0.00539
O5    4    0.219887    0.443631    0.216222    11.00000    0.03870    0.06839 =
         0.03140    0.01853   -0.00151    0.01002
N2    3    0.168474    0.377632    0.272692    11.00000    0.02531    0.04217 =
         0.03322   -0.00544    0.00062    0.00547
N3    3    0.645774    0.061335    0.423173    11.00000    0.03487    0.04211 =
         0.02514    0.00071    0.00342   -0.00404
N1    3    0.764425    0.591914    0.428519    11.00000    0.04378    0.04093 =
         0.04280   -0.00504   -0.00403    0.00004
O2    4    0.739416    0.617305    0.494585    11.00000    0.07938    0.05443 =
         0.04494   -0.01220   -0.01000   -0.00417
O1    4    0.883311    0.661739    0.386473    11.00000    0.06126    0.06397 =
         0.07762   -0.01786    0.02258   -0.02645
C1    1    0.343922    0.356443    0.328350    11.00000    0.02149    0.04132 =
         0.02276    0.00281   -0.00783   -0.00073
N4    3    0.709935   -0.039493    0.449452    11.00000    0.06099    0.04860 =
         0.04094    0.00881    0.00894    0.01140
C5    1    0.587695    0.198916    0.396001    11.00000    0.02933    0.02954 =
         0.02363    0.00390   -0.00077    0.00317
C4    1    0.727092    0.319313    0.422941    11.00000    0.02990    0.03621 =
         0.02504   -0.00215    0.00090   -0.00369
C6    1    0.395907    0.215054    0.351758    11.00000    0.01936    0.04332 =
         0.01959    0.00434    0.00178   -0.00680
C3    1    0.642458    0.460951    0.399489    11.00000    0.02892    0.03371 =
         0.02813   -0.00259    0.00114   -0.00902
C2    1    0.465866    0.482392    0.352927    11.00000    0.02705    0.02897 =
         0.03116    0.00146    0.00776    0.00210
HKLF 4




REM  0702zbdx2_0m_a.res in P2(1)2(1)2(1)
REM wR2 = 0.0987, GooF = S = 1.115, Restrained GooF = 1.115 for all data
REM R1 = 0.0501 for 1388 Fo > 4sig(Fo) and 0.0911 for all 1986 data
REM 154 parameters refined using 0 restraints

END  
     
WGHT      0.0204      0.3934 

REM Highest difference peak  0.314,  deepest hole -0.312,  1-sigma level  0.079
Q1    1   0.4220 -0.0061  0.3598  11.00000  0.05    0.31
Q2    1   0.2831 -0.1436  0.3220  11.00000  0.05    0.30
Q3    1   0.9868  0.1575  0.4452  11.00000  0.05    0.30
Q4    1   0.6010  0.1421  0.3840  11.00000  0.05    0.28
Q5    1   0.7424  0.0612  0.3853  11.00000  0.05    0.28
Q6    1   0.9058  0.5353  0.5026  11.00000  0.05    0.28
Q7    1   0.4844  0.2233  0.3783  11.00000  0.05    0.27
Q8    1   0.5726  0.4435  0.4258  11.00000  0.05    0.27
Q9    1   0.4906 -0.0630  0.4142  11.00000  0.05    0.26
Q10   1   0.3912  0.2025  0.3186  11.00000  0.05    0.26
Q11   1   0.3462  0.4511  0.3318  11.00000  0.05    0.26
Q12   1   0.0852  0.1481  0.3596  11.00000  0.05    0.25
Q13   1   0.5713  0.4560  0.2761  11.00000  0.05    0.25
Q14   1   0.1742  0.1300  0.4015  11.00000  0.05    0.25
Q15   1  -0.1236  0.2488  0.3027  11.00000  0.05    0.25
Q16   1   0.6063  0.3616  0.5010  11.00000  0.05    0.25
Q17   1   0.9006  0.2454  0.5429  11.00000  0.05    0.25
Q18   1   0.8687  0.0173  0.4865  11.00000  0.05    0.25
Q19   1   0.6059  0.3794  0.3162  11.00000  0.05    0.25
Q20   1   0.7358  0.2493  0.3398  11.00000  0.05    0.24

  REM The information below was added by Olex2.
  REM
  REM R1 = 0.0501 for 1388 Fo > 4sig(Fo) and 0.0911 for all 4731 data
  REM n/a parameters refined using n/a restraints
  REM Highest difference peak 0.31, deepest hole -0.31
  REM Mean Shift 0.001, Max Shift -0.003.

  REM +++ Tabular Listing of Refinement Information +++
  REM R1_all = 0.0911
  REM R1_gt = 0.0501
  REM wR_ref = 0.0987
  REM GOOF = 1.115
  REM Shift_max = -0.003
  REM Shift_mean = 0.001
  REM Reflections_all = 4731
  REM Reflections_gt = 1388
  REM Parameters = n/a
  REM Hole = -0.31
  REM Peak = 0.31
  REM Flack = 0.16(7)

  
;
_cod_data_source_file            suppl_j_ncrs-2020-0491_suppl.cif
_cod_data_source_block           0702zbdx4_0m
_cod_database_code               8104925
_shelx_space_group_comment
;
The symmetry employed for this shelxl refinement is uniquely defined
by the following loop, which should always be used as a source of
symmetry information in preference to the above space-group names.
They are only intended as comments.
;
_shelx_estimated_absorpt_t_max   0.947
_shelx_estimated_absorpt_t_min   0.904
_olex2_refinement_description
;
;
loop_
_space_group_symop_operation_xyz
'x, y, z'
'-x+1/2, -y, z+1/2'
'-x, y+1/2, -z+1/2'
'x+1/2, -y+1/2, -z'
loop_
_atom_site_label
_atom_site_type_symbol
_atom_site_fract_x
_atom_site_fract_y
_atom_site_fract_z
_atom_site_U_iso_or_equiv
_atom_site_adp_type
_atom_site_occupancy
_atom_site_site_symmetry_order
_atom_site_calc_flag
_atom_site_refinement_flags_posn
_atom_site_refinement_flags_adp
_atom_site_refinement_flags_occupancy
_atom_site_disorder_assembly
_atom_site_disorder_group
C1 C 0.3439(10) 0.3564(7) 0.3284(3) 0.0285(14) Uani 1 1 d . . . . .
C2 C 0.4659(10) 0.4824(7) 0.3529(3) 0.0291(16) Uani 1 1 d . . . . .
C3 C 0.6425(11) 0.4610(7) 0.3995(3) 0.0303(15) Uani 1 1 d . . . . .
C4 C 0.7271(11) 0.3193(7) 0.4229(3) 0.0304(15) Uani 1 1 d . . . . .
C5 C 0.5877(11) 0.1989(7) 0.3960(3) 0.0275(15) Uani 1 1 d . . . . .
C6 C 0.3959(10) 0.2151(7) 0.3518(3) 0.0274(15) Uani 1 1 d . . . . .
Cl1 Cl 0.3803(3) 0.65826(19) 0.33005(10) 0.0447(5) Uani 1 1 d . . . . .
Cl2 Cl 0.2513(3) 0.05980(18) 0.32585(9) 0.0406(4) Uani 1 1 d . . . . .
N1 N 0.7644(11) 0.5919(6) 0.4285(3) 0.0425(15) Uani 1 1 d . . . . .
N2 N 0.1685(9) 0.3776(6) 0.2727(3) 0.0336(14) Uani 1 1 d . . . . .
N3 N 0.6458(9) 0.0613(7) 0.4232(3) 0.0340(13) Uani 1 1 d . . . . .
N4 N 0.7099(11) -0.0395(7) 0.4495(3) 0.0502(18) Uani 1 1 d . . . . .
O1 O 0.8833(10) 0.6617(7) 0.3865(3) 0.0676(17) Uani 1 1 d . . . . .
O2 O 0.7394(11) 0.6173(5) 0.4946(3) 0.0596(16) Uani 1 1 d . . . . .
O3 O 0.8919(9) 0.3009(5) 0.4613(2) 0.0431(13) Uani 1 1 d . . . . .
O4 O -0.0193(7) 0.3269(6) 0.2849(2) 0.0425(13) Uani 1 1 d . . . . .
O5 O 0.2199(7) 0.4436(5) 0.2162(2) 0.0462(13) Uani 1 1 d . . . . .
loop_
_atom_site_aniso_label
_atom_site_aniso_U_11
_atom_site_aniso_U_22
_atom_site_aniso_U_33
_atom_site_aniso_U_23
_atom_site_aniso_U_13
_atom_site_aniso_U_12
Cl2 0.0359(9) 0.0427(10) 0.0432(9) -0.0007(8) -0.0057(10) -0.0089(9)
Cl1 0.0445(11) 0.0388(11) 0.0508(10) 0.0043(9) 0.0020(10) 0.0082(9)
O3 0.040(3) 0.051(3) 0.038(3) -0.002(2) -0.015(3) 0.003(3)
O4 0.021(2) 0.065(4) 0.042(3) -0.001(2) -0.001(2) -0.005(2)
O5 0.039(3) 0.068(3) 0.031(2) 0.019(2) -0.002(2) 0.010(3)
N2 0.025(3) 0.042(4) 0.033(3) -0.005(3) 0.001(3) 0.005(3)
N3 0.035(3) 0.042(4) 0.025(3) 0.001(3) 0.003(3) -0.004(3)
N1 0.044(4) 0.041(4) 0.043(4) -0.005(3) -0.004(4) 0.000(4)
O2 0.079(4) 0.054(3) 0.045(3) -0.012(2) -0.010(3) -0.004(3)
O1 0.061(4) 0.064(4) 0.078(4) -0.018(3) 0.023(3) -0.026(4)
C1 0.021(3) 0.041(4) 0.023(3) 0.003(3) -0.008(3) -0.001(3)
N4 0.061(5) 0.049(4) 0.041(3) 0.009(3) 0.009(3) 0.011(4)
C5 0.029(4) 0.030(4) 0.024(3) 0.004(3) -0.001(3) 0.003(3)
C4 0.030(4) 0.036(4) 0.025(3) -0.002(3) 0.001(3) -0.004(4)
C6 0.019(3) 0.043(4) 0.020(3) 0.004(3) 0.002(3) -0.007(3)
C3 0.029(3) 0.034(4) 0.028(3) -0.003(3) 0.001(3) -0.009(3)
C2 0.027(3) 0.029(4) 0.031(4) 0.001(3) 0.008(3) 0.002(3)
loop_
_atom_type_symbol
_atom_type_description
_atom_type_scat_dispersion_real
_atom_type_scat_dispersion_imag
_atom_type_scat_source
C C 0.0033 0.0016 'International Tables Vol C Tables 4.2.6.8 and 6.1.1.4'
Cl Cl 0.1484 0.1585 'International Tables Vol C Tables 4.2.6.8 and 6.1.1.4'
N N 0.0061 0.0033 'International Tables Vol C Tables 4.2.6.8 and 6.1.1.4'
O O 0.0106 0.0060 'International Tables Vol C Tables 4.2.6.8 and 6.1.1.4'
loop_
_geom_angle_atom_site_label_1
_geom_angle_atom_site_label_2
_geom_angle_atom_site_label_3
_geom_angle
_geom_angle_site_symmetry_1
_geom_angle_site_symmetry_3
O4 N2 C1 119.0(5) . .
O5 N2 O4 124.0(5) . .
O5 N2 C1 117.0(5) . .
N4 N3 C5 171.7(7) . .
O2 N1 C3 115.6(6) . .
O1 N1 O2 125.8(6) . .
O1 N1 C3 118.6(5) . .
C6 C1 N2 119.6(6) . .
C6 C1 C2 121.5(5) . .
C2 C1 N2 118.8(5) . .
N3 C5 C4 113.7(5) . .
N3 C5 C6 120.2(6) . .
C6 C5 C4 125.8(6) . .
O3 C4 C5 124.0(6) . .
O3 C4 C3 125.2(6) . .
C3 C4 C5 110.9(5) . .
C1 C6 Cl2 123.6(5) . .
C1 C6 C5 117.1(6) . .
C5 C6 Cl2 119.2(5) . .
C4 C3 N1 115.0(5) . .
C2 C3 N1 119.4(6) . .
C2 C3 C4 125.6(6) . .
C1 C2 Cl1 120.3(5) . .
C3 C2 Cl1 120.8(5) . .
C3 C2 C1 118.8(6) . .
loop_
_geom_bond_atom_site_label_1
_geom_bond_atom_site_label_2
_geom_bond_distance
_geom_bond_site_symmetry_2
Cl2 C6 1.706(6) .
Cl1 C2 1.709(6) .
O3 C4 1.219(7) .
O4 N2 1.236(7) .
O5 N2 1.219(6) .
N2 C1 1.468(7) .
N3 N4 1.091(7) .
N3 C5 1.373(8) .
N1 O2 1.224(6) .
N1 O1 1.216(7) .
N1 C3 1.480(8) .
C1 C6 1.372(8) .
C1 C2 1.417(8) .
C5 C4 1.450(8) .
C5 C6 1.409(8) .
C4 C3 1.432(8) .
C3 C2 1.367(8) .
loop_
_refln_index_h
_refln_index_k
_refln_index_l
_refln_F_squared_meas
_refln_F_squared_sigma
1 0 0 0.9 1.2
2 0 0 2783.52 51.39
3 0 0 2.9 2.5
3 0 0 -2.5 1.3
4 0 0 7 3.1
4 0 0 5.4 3.8
5 0 0 8.3 4.5
5 0 0 -5.3 2.2
6 0 0 102.19 10.6
6 0 0 69.49 14.2
7 0 0 7.4 7
7 -1 0 44.2 12.5
6 -1 0 4.6 7
5 -1 0 243.28 20.4
4 -1 0 40.4 9.3
4 -1 0 44.9 5.5
3 -1 0 494.25 15.3
-2 1 0 490.95 12.9
0 -1 0 0.6 0.7
0 1 0 -0.8 0.5
-1 -1 0 90.69 5.8
1 1 0 83.09 5.4
-2 -1 0 459.55 18
2 1 0 457.45 16.9
3 1 0 518.65 21.8
4 1 0 52.59 9.5
5 1 0 238.98 17
5 1 0 258.57 19.7
6 1 0 12.4 6.8
6 1 0 14 6.1
7 1 0 65.39 14.4
7 1 0 59.29 10.4
7 -2 0 10 8
6 -2 0 3.3 5.7
-3 2 0 35.8 4.1
1 -2 0 977.9 23.5
0 -2 0 193.38 8.3
0 2 0 192.48 8.6
-1 -2 0 1069.29 24
1 2 0 1066.29 23
-2 -2 0 1414.76 34.6
2 2 0 1466.05 33.3
-3 -2 0 47 8.6
3 2 0 37.2 7
-4 -2 0 526.95 26.7
4 2 0 529.15 25
5 2 0 40.6 9.6
6 2 0 8.8 5.3
7 2 0 -4.6 6.8
7 2 0 9.2 7
7 -3 0 14.4 8.6
6 -3 0 10.4 7.7
-3 3 0 40.4 4.4
2 -3 0 521.35 21
1 -3 0 30.8 5.2
-1 3 0 29.1 5.7
0 -3 0 -0.5 1.4
0 3 0 -1.5 1.8
-1 -3 0 37.9 5.2
1 3 0 22 4.3
2 3 0 505.45 18.9
-3 -3 0 55.19 9.7
3 3 0 40 7.3
-4 -3 0 16.8 5.9
4 3 0 26 6.5
5 3 0 116.99 13
7 3 0 15.3 7.2
7 3 0 12.1 8.2
7 -4 0 -1.9 7.6
4 -4 0 35.7 8.4
-4 4 0 40.8 5.4
3 -4 0 20.5 6.1
2 -4 0 116.69 10.2
1 -4 0 674.43 23.1
-1 4 0 767.42 26.7
0 -4 0 611.44 20.8
0 4 0 591.94 21.3
-1 -4 0 747.53 24.2
1 4 0 776.52 24
-2 -4 0 157.68 12.3
2 4 0 137.19 10.4
-3 -4 0 19.5 6.3
3 4 0 16.3 5.1
-4 -4 0 13.2 7.1
4 4 0 31 7.5
-5 -4 0 79.79 15.5
5 4 0 80.69 11
6 4 0 8.2 6.4
7 4 0 6.7 6.5
7 4 0 1.3 6.7
4 -5 0 9.2 5.9
-4 5 0 11.3 3.9
3 -5 0 71.09 9.3
2 -5 0 132.39 11.3
1 -5 0 9.5 4.2
-1 5 0 6 3.8
0 -5 0 -0.7 2.7
0 5 0 -0.9 2
-1 -5 0 6.7 3.5
1 5 0 7.7 3.3
-2 -5 0 133.39 12.1
2 5 0 141.19 11.5
-3 -5 0 72.39 11.9
3 5 0 80.59 9.3
-4 -5 0 -0.7 5
4 5 0 4.6 3.8
5 5 0 67.89 12.3
6 5 0 11.4 6.9
-5 6 0 7.4 4.5
3 -6 0 4.7 5.4
2 -6 0 320.37 19.1
1 -6 0 18.4 5.3
-1 6 0 21.9 7.2
0 -6 0 161.88 12.6
0 6 0 153.58 13.6
-1 -6 0 17 5.2
1 6 0 20.2 6.3
-2 -6 0 335.07 20.7
2 6 0 334.67 19.2
-3 -6 0 4.8 5.2
3 6 0 0 4.1
4 6 0 175.28 15.2
5 6 0 12.8 6.3
6 6 0 18.5 7.7
2 -7 0 53.39 9.7
1 -7 0 271.37 17.9
-1 7 0 240.68 19.5
0 -7 0 -3.1 2.6
0 7 0 0.4 3.7
-1 -7 0 220.18 16.5
1 7 0 279.37 19.1
-2 -7 0 45.9 9.4
2 7 0 28.1 7.4
3 7 0 2.7 4.1
4 7 0 3.9 4.9
5 7 0 4.4 4.9
-5 8 0 -2.9 6.3
0 8 0 261.27 21.6
1 8 0 -8.9 4.2
2 8 0 38.4 9.7
3 8 0 -1.3 3.8
4 8 0 16 7.9
5 8 0 9 6.6
-1 9 0 5.2 5.7
0 9 0 2.5 4.9
1 9 0 3.4 6.9
2 9 0 1.7 4.7
3 9 0 60.19 12.3
4 9 0 -6.9 5.3
-1 10 0 6.2 7.2
0 10 0 82.39 16.3
1 10 0 17.1 9.1
2 10 0 21.5 9.1
3 10 0 8.1 6.2
0 11 0 7.7 7.6
1 11 0 -1.5 9.7
1 11 -1 -2.2 7.4
0 11 -1 3.5 6.9
-1 11 -1 -9.4 6
2 10 -1 6.3 6.2
1 10 -1 5.5 6.5
0 10 -1 61.69 13.8
-1 10 -1 7.7 6.8
4 9 -1 9.7 6.1
3 9 -1 4.1 5.4
2 9 -1 60.29 12.8
1 9 -1 8.6 5.9
0 9 -1 24.6 9
-1 9 -1 3 6.2
5 8 -1 1.1 5.8
4 8 -1 18.7 7.9
3 8 -1 25.7 7.8
2 8 -1 -0.2 4.8
0 8 -1 1.8 4.3
-5 8 -1 7.4 7.1
5 7 -1 39.8 9.7
4 7 -1 19.1 6.6
3 7 -1 102.29 16.4
2 7 -1 89.89 11.1
-2 -7 1 93.59 12.5
1 7 -1 93.29 11.3
-1 -7 1 99.39 11.4
0 7 -1 105.99 13
0 -7 1 107.89 10.9
-1 7 -1 96.79 12.9
1 -7 1 80.99 10.4
2 -7 1 66.49 11
-5 7 -1 18.2 7
6 6 -1 16.9 7.9
5 6 -1 16.5 7.4
4 6 -1 -0.9 3.9
3 6 -1 98.99 11.1
-3 -6 1 120.19 14.5
2 6 -1 150.18 13.2
-2 -6 1 145.09 13.9
1 6 -1 304.07 18.3
-1 -6 1 332.37 19.2
0 6 -1 15.8 5.4
0 -6 1 26 5.8
-1 6 -1 272.67 18.7
1 -6 1 328.87 18.1
2 -6 1 143.59 13
3 -6 1 119.59 12.3
6 5 -1 2.7 5.9
5 5 -1 157.28 16
4 5 -1 52.89 10.4
-4 -5 1 62.09 11.4
3 5 -1 61.19 8.4
-3 -5 1 54.29 10.9
2 5 -1 58.99 7.5
-2 -5 1 33.3 7.4
1 5 -1 406.86 18.9
-1 -5 1 397.56 19.4
0 5 -1 356.86 18.2
0 -5 1 366.86 17.6
-1 5 -1 462.85 22.3
1 -5 1 442.26 19.7
2 -5 1 33.8 6.8
3 -5 1 68.79 11.2
-4 5 -1 33.8 6.8
4 -5 1 62.39 11.3
-5 5 -1 109.39 9.7
7 4 -1 -4.1 5.9
7 4 -1 -11.9 6.6
6 4 -1 -2 5.7
5 4 -1 30.1 8.5
-5 -4 1 31.8 9.6
4 4 -1 430.46 23.1
-4 -4 1 380.46 24.9
3 4 -1 94.79 9.9
-3 -4 1 106.49 11.7
2 4 -1 173.38 11.9
-2 -4 1 174.98 13
1 4 -1 50.99 6.1
-1 -4 1 56.89 6.8
0 4 -1 8.7 3.6
0 -4 1 10.6 3.6
-1 4 -1 47.3 7.9
1 -4 1 39.3 6.5
2 -4 1 172.98 12.3
3 -4 1 80.59 9.6
-4 4 -1 416.96 17.1
4 -4 1 412.46 23.3
5 -4 1 25.2 9.3
7 -4 1 -0.9 7.1
7 3 -1 6.1 7.1
7 3 -1 -3.2 5.5
6 3 -1 39.6 10.5
5 3 -1 148.39 14.9
-5 -3 1 141.59 15.7
4 3 -1 10.4 4.9
-4 -3 1 8.3 4.8
3 3 -1 484.45 21.9
-3 -3 1 487.25 24.3
2 3 -1 668.13 22.8
-2 -3 1 658.83 24.7
1 3 -1 1261.27 28.8
-1 -3 1 1177.18 29.4
0 3 -1 371.16 14.2
0 -3 1 368.86 13.9
-1 3 -1 1193.08 30.1
1 -3 1 1135.19 27.8
-3 3 -1 489.35 16.8
-4 3 -1 7.4 3
7 -3 1 19.2 9.2
7 2 -1 27.3 8.8
7 2 -1 14.9 7.5
6 2 -1 199.98 17.6
5 2 -1 44.9 10.4
4 2 -1 70.59 11.7
-4 -2 1 53.69 11
-3 -2 1 84.19 10.2
2 2 -1 629.34 21.3
-2 -2 1 652.73 23.1
1 2 -1 36.2 4.4
-1 -2 1 39.3 4.7
0 2 -1 190.48 8.4
0 -2 1 177.08 8
-1 2 -1 32.7 5.1
1 -2 1 40.1 4.5
-3 2 -1 78.89 6.6
6 -2 1 168.68 19.1
7 -2 1 22.3 9.1
7 1 -1 -1.1 6.9
7 1 -1 3.9 5.8
6 1 -1 6.3 5.2
6 1 -1 14.2 8.1
5 1 -1 4.2 3.6
5 1 -1 -2 4
4 1 -1 100.89 11.5
3 1 -1 310.47 17.4
2 1 -1 278.67 13.7
-2 -1 1 290.47 14.9
1 1 -1 192.38 8.8
-1 -1 1 186.28 8.9
0 1 -1 243.38 6.9
0 -1 1 254.77 7
-2 1 -1 312.07 11.4
3 -1 1 322.37 13.2
4 -1 1 90.59 10.6
4 -1 1 87.09 8
5 -1 1 -4.7 3.6
6 -1 1 26.5 9
7 -1 1 7 8.2
7 0 -1 -4.8 5.6
7 0 -1 3.6 5
6 0 -1 13.2 8
6 0 -1 17.8 5.6
5 0 -1 183.18 17.5
5 0 -1 178.78 12.2
4 0 -1 120.49 9.4
4 0 -1 125.19 13.1
3 0 -1 213.38 15
2 0 -1 237.68 13.2
1 0 -1 434.86 13.5
-1 0 -1 464.45 12.1
1 0 1 473.35 12.2
2 0 1 248.28 10.8
2 0 1 234.08 11.7
3 0 1 202.48 13.5
3 0 1 207.48 11.7
4 0 1 123.29 10.2
4 0 1 104.69 11.3
5 0 1 194.18 17
5 0 1 210.38 14.7
6 0 1 6.8 5.7
6 0 1 14.3 5.6
7 0 1 4.5 6.3
7 -1 -1 0.9 6.3
6 -1 -1 19.6 10.3
5 -1 -1 1.6 4
4 -1 -1 88.39 6.8
4 -1 -1 89.29 11
3 -1 -1 310.67 10.6
0 -1 -1 251.47 7.2
0 1 1 252.57 7.3
-1 -1 -1 205.18 7.9
1 1 1 200.78 7.4
-2 -1 -1 289.17 13.4
2 1 1 294.97 12.6
3 1 1 326.67 16.3
4 1 1 91.39 10
5 1 1 3.8 4.2
5 1 1 2.5 3.9
6 1 1 9.3 5.3
6 1 1 10.8 6.4
7 1 1 10.4 6.8
7 1 1 2.4 6.3
7 -2 -1 13.1 9.7
6 -2 -1 230.68 25
1 -2 -1 40.2 5
0 -2 -1 198.08 8.5
0 2 1 188.88 8.7
-1 -2 -1 41.9 4.4
1 2 1 44.3 4.3
-2 -2 -1 648.44 21.2
2 2 1 619.64 19.2
-3 -2 -1 101.39 10.4
3 2 1 101.79 9
-4 -2 -1 73.49 9.4
4 2 1 77.69 9
5 2 1 24.6 7.5
5 2 1 23.2 7.6
6 2 1 230.68 19.9
6 2 1 193.38 18.4
7 2 1 9.8 7.2
7 2 1 -0.3 6.7
7 -3 -1 -5.8 7.2
6 -3 -1 41.9 12.7
-3 3 1 477.65 13.3
2 -3 -1 663.93 24.7
1 -3 -1 1158.48 29.1
0 -3 -1 315.57 12.9
0 3 1 359.26 14.2
-1 -3 -1 1255.37 28.5
1 3 1 1193.38 27.3
-2 -3 -1 654.93 23.2
2 3 1 682.73 21.3
-3 -3 -1 484.75 22.8
3 3 1 488.35 20.8
-4 -3 -1 6.1 4.5
4 3 1 10.5 4
5 3 1 148.19 14.3
6 3 1 33.1 8.8
6 3 1 28.4 8.9
7 3 1 1.3 6.9
7 3 1 2.7 8.5
7 -4 -1 14.1 9.7
-4 4 1 385.86 12.5
3 -4 -1 82.49 10.4
2 -4 -1 143.89 11.7
1 -4 -1 52.29 6.6
-1 4 1 65.59 8.6
0 -4 -1 9 3.6
0 4 1 3.9 2.9
-1 -4 -1 59.89 6.7
1 4 1 64.19 6.8
-2 -4 -1 164.48 12.2
2 4 1 177.48 11.7
-3 -4 -1 101.69 11
3 4 1 89.09 9
-4 -4 -1 420.46 25.2
4 4 1 411.26 21.3
-5 -4 -1 26.1 8.8
5 4 1 32.2 8.5
6 4 1 3.3 5.3
7 4 1 5.9 6.6
7 4 1 13.3 8.8
4 -5 -1 46.7 10.7
-4 5 1 61.69 5.8
3 -5 -1 57.09 10.5
2 -5 -1 40.5 8
1 -5 -1 420.86 19.8
-1 5 1 431.66 22.3
0 -5 -1 403.26 18.6
0 5 1 400.16 19.9
-1 -5 -1 423.66 19.6
1 5 1 436.26 19.7
-2 -5 -1 30.4 7.5
2 5 1 42.8 7.7
-3 -5 -1 64.79 11
3 5 1 58.19 9.3
-4 -5 -1 54.89 12.3
4 5 1 62.69 10.4
5 5 1 172.68 15.6
6 5 1 1.7 4.7
3 -6 -1 110.69 12.6
2 -6 -1 173.08 15.7
1 -6 -1 323.07 18.3
-1 6 1 335.07 21.4
0 -6 -1 30.3 6.7
-1 -6 -1 322.97 18.6
1 6 1 374.06 20.1
-2 -6 -1 136.59 12.8
2 6 1 130.09 11.8
-3 -6 -1 118.89 12.8
3 6 1 112.99 11.6
-4 -6 -1 13.1 6.4
4 6 1 -0.7 3.4
5 6 1 19.9 6.6
6 6 1 3.4 6.2
-5 7 1 1.5 3.7
2 -7 -1 83.79 10.9
1 -7 -1 88.69 10.3
-1 7 1 97.39 15.8
0 -7 -1 92.39 10.7
0 7 1 100.49 12.5
-1 -7 -1 95.49 11.4
1 7 1 119.49 12.6
-2 -7 -1 91.59 11.7
2 7 1 63.69 11.2
3 7 1 112.29 12
4 7 1 33.5 9.3
5 7 1 20.5 8
-5 8 1 2.5 8.5
-1 8 1 36.1 15.3
0 8 1 1.9 5.5
1 8 1 50.29 11.4
2 8 1 10.8 5.2
3 8 1 2.1 4.8
4 8 1 36 8.9
5 8 1 -11 5
-1 9 1 -1 6.9
0 9 1 33.9 10.3
1 9 1 11.9 6
2 9 1 65.79 12.3
3 9 1 -4.6 5.1
4 9 1 1.1 5.4
0 10 1 61.79 13.2
1 10 1 6.6 6.4
2 10 1 6.3 5.9
3 10 1 24.8 9
0 11 1 11.3 9
1 11 1 -2.8 5.5
1 11 -2 24.4 9.7
0 11 -2 15.3 9.3
-1 11 -2 44.6 12
2 10 -2 22.7 9.1
1 10 -2 32.6 9.7
0 10 -2 38.4 11.1
-1 10 -2 40.3 11.9
4 9 -2 118.99 14.8
3 9 -2 45.7 9.9
2 9 -2 63.09 13.3
1 9 -2 13.2 7.3
0 9 -2 6.2 5.3
-1 9 -2 15.5 7.1
5 8 -2 22.6 8.7
4 8 -2 42.1 10.4
3 8 -2 32 9
2 8 -2 71.89 12.7
1 8 -2 33 9.4
0 8 -2 -2.8 7.2
-5 8 -2 26.6 9.5
5 7 -2 9.7 5.5
4 7 -2 12.7 6.4
3 7 -2 6.3 6.6
2 7 -2 19.1 6.3
-2 -7 2 28.2 8.2
1 7 -2 125.49 12.9
-1 -7 2 101.09 11.6
0 7 -2 696.63 30.7
0 -7 2 638.04 28.6
-1 7 -2 98.79 12.7
1 -7 2 112.19 11.6
2 -7 2 17 6
-5 7 -2 -0.9 6.3
6 6 -2 4.6 6.2
5 6 -2 69.99 13.2
3 6 -2 64.29 11.1
-3 -6 2 71.69 13.1
2 6 -2 73.29 9.4
-2 -6 2 65.59 12.3
1 6 -2 19.1 5.5
-1 -6 2 20.7 6
0 6 -2 39.8 7.9
0 -6 2 41 7.7
-1 6 -2 14.2 5.7
1 -6 2 23.1 6
2 -6 2 69.49 9.1
3 -6 2 54.79 9.5
-5 6 -2 33.1 7.3
6 5 -2 29 8.3
5 5 -2 16.9 6.4
4 5 -2 0.4 3.9
-4 -5 2 10.3 5.3
3 5 -2 64.89 8.9
-3 -5 2 72.19 12.3
2 5 -2 52.09 8.8
-2 -5 2 56.49 9.6
1 5 -2 181.78 12.9
-1 -5 2 185.88 13.5
0 5 -2 79.19 8.5
0 -5 2 96.59 9.1
-1 5 -2 198.98 14.4
1 -5 2 200.18 12.9
2 -5 2 61.29 9.4
3 -5 2 63.19 8.5
-4 5 -2 3.5 3.6
4 -5 2 8.7 5.7
-5 5 -2 14 5.4
6 4 -2 30.3 10.7
5 4 -2 104.09 12.6
4 4 -2 101.39 11.8
3 4 -2 55.99 9.7
-3 -4 2 73.09 12.1
2 4 -2 139.99 11
-2 -4 2 147.19 12.6
-1 -4 2 84.29 8.4
0 4 -2 77.89 7.7
0 -4 2 83.79 7.6
-1 4 -2 65.49 7.7
1 -4 2 75.99 7.4
2 -4 2 118.79 9.7
3 -4 2 52.49 8.5
-4 4 -2 89.99 11.9
4 -4 2 108.29 11.9
5 -4 2 86.69 13.8
7 3 -2 9.6 8.4
7 3 -2 2.1 8.5
6 3 -2 5.2 6.1
5 3 -2 30.2 9.3
4 3 -2 37.5 9
-4 -3 2 40 9.7
3 3 -2 11.1 4.6
-3 -3 2 12.9 5.3
2 3 -2 397.56 17.8
-2 -3 2 389.06 19.3
1 3 -2 1145.19 28.3
-1 -3 2 1156.38 29.9
0 3 -2 2208.18 40.5
0 -3 2 2141.09 40
-1 3 -2 1129.79 29.1
1 -3 2 1231.18 28.2
2 -3 2 386.96 16.3
-3 3 -2 10.9 3.4
3 -3 2 15.4 5
-4 3 -2 47.5 6.2
6 -3 2 15.6 6.4
7 -3 2 28.9 10.7
7 2 -2 -1.4 6.1
7 2 -2 11.4 6.6
6 2 -2 52.69 12.3
6 2 -2 50.69 10.6
5 2 -2 209.08 18.6
4 2 -2 40.1 9.3
-4 -2 2 21 7.2
3 2 -2 79.49 9.3
-3 -2 2 74.99 9.7
2 2 -2 367.76 16.9
-2 -2 2 405.06 18.6
1 2 -2 273.87 11.7
-1 -2 2 275.87 12.6
0 2 -2 16.2 3.5
0 -2 2 12.4 3.2
-1 2 -2 282.97 11.4
1 -2 2 269.97 10.5
2 -2 2 373.56 15
-3 2 -2 80.59 7.2
6 -2 2 77.19 15.1
7 -2 2 12.1 7.3
7 1 -2 20.2 6.6
7 1 -2 -2.6 6.5
6 1 -2 76.59 10.2
6 1 -2 77.59 17.2
5 1 -2 21.5 7.5
4 1 -2 208.28 16.7
2 1 -2 757.82 24.7
-2 -1 2 771.52 26
1 1 -2 445.66 14.8
-1 -1 2 453.95 15.3
0 1 -2 267.77 7.7
0 -1 2 265.27 7.9
1 -1 2 442.76 11.3
-2 1 -2 778.42 20.6
3 -1 2 56.69 6.1
4 -1 2 233.98 13.7
4 -1 2 226.78 16.2
5 -1 2 27.3 7.9
6 -1 2 68.49 13.6
7 -1 2 9.2 7.5
7 0 -2 18 5.7
7 0 -2 13.3 8.9
6 0 -2 8.2 10.8
5 0 -2 5.8 3.5
5 0 -2 4.6 5
4 0 -2 22.1 7
4 0 -2 22.5 4.7
3 0 -2 1.3 2.5
2 0 -2 72.49 7.9
1 0 -2 34 4.3
0 0 -2 356.96 8
-1 0 -2 29 3.8
1 0 2 40 4.2
1 0 2 31.7 2.7
2 0 2 73.99 6.2
2 0 2 58.39 5.8
3 0 2 -0.2 1.8
3 0 2 3.2 2.5
4 0 2 22.4 5.4
5 0 2 7.1 4.3
5 0 2 1.2 4
6 0 2 9.4 5.8
6 0 2 4.5 4.4
7 0 2 -3.2 5.2
7 -1 -2 -1.6 6.7
6 -1 -2 75.59 16
5 -1 -2 14.9 7.4
4 -1 -2 224.48 18.1
4 -1 -2 207.18 9.3
3 -1 -2 49.9 3.7
0 -1 -2 270.37 8.2
-1 -1 -2 459.75 11.2
1 1 2 469.45 10.6
-2 -1 -2 756.62 21.3
2 1 2 776.72 20.1
3 1 2 59.19 7.4
3 1 2 48 6
4 1 2 236.68 16
4 1 2 240.98 16
5 1 2 39.9 8.9
5 1 2 31.4 7.7
6 1 2 76.89 13.3
6 1 2 61.89 11.3
7 1 2 11 7.4
7 1 2 10.2 6.5
7 -2 -2 -2.5 7
6 -2 -2 58.49 14.2
5 -2 -2 179.48 18.6
0 -2 -2 16.9 3.4
0 2 2 17.4 3.7
-1 -2 -2 286.47 10.3
1 2 2 283.97 9.9
-2 -2 -2 418.36 16
2 2 2 411.66 14.5
-3 -2 -2 89.59 9
3 2 2 82.69 7.8
-4 -2 -2 48.1 9.2
4 2 2 45.4 8.4
5 2 2 175.08 15.1
5 2 2 197.58 17.5
6 2 2 53.29 11.7
6 2 2 43.2 10.1
7 2 2 -2.4 5.2
7 2 2 -13.3 6
7 -3 -2 9.2 8.6
6 -3 -2 10.4 7.6
1 -3 -2 1217.58 31.2
0 -3 -2 2211.08 40.8
0 3 2 2160.48 41.5
-1 -3 -2 1256.47 28
1 3 2 1183.18 27
-2 -3 -2 407.26 17.1
2 3 2 375.16 15
-3 -3 -2 3.2 3.3
3 3 2 12.6 3.9
-4 -3 -2 29 8
4 3 2 53.59 8.8
5 3 2 26.3 7.5
6 3 2 19.8 6.7
6 3 2 -0.8 5.3
7 3 2 27.1 10.4
7 3 2 24.5 8.2
3 -4 -2 62.09 11
2 -4 -2 117.59 11.1
1 -4 -2 90.39 8.6
0 -4 -2 90.39 8
0 4 2 100.59 8.9
-1 -4 -2 83.99 7.5
1 4 2 85.99 7.9
-2 -4 -2 139.79 11.2
2 4 2 121.49 11.4
-3 -4 -2 66.89 8.9
3 4 2 58.29 7
-4 -4 -2 93.39 11.8
4 4 2 103.29 10.5
-5 -4 -2 101.69 16.5
5 4 2 91.59 11
6 4 2 23.9 8.7
4 -5 -2 4 5.4
-4 5 2 5.5 2.3
3 -5 -2 59.79 11.1
2 -5 -2 48 9
1 -5 -2 211.28 14.2
-1 5 2 218.18 16.3
0 -5 -2 91.99 9
0 5 2 81.19 9.3
-1 -5 -2 195.18 12.9
1 5 2 207.28 13.4
-2 -5 -2 56.69 9.1
2 5 2 63.19 7.7
-3 -5 -2 67.49 12
3 5 2 62.49 7.8
-4 -5 -2 -4.9 4.1
4 5 2 6.2 4.3
-5 -5 -2 3.3 8.6
5 5 2 8.3 5
6 5 2 16.9 7.4
3 -6 -2 56.59 11
1 -6 -2 26.2 6.3
-1 6 2 17.1 7
0 -6 -2 42.2 8
0 6 2 53.19 9.6
-1 -6 -2 18.6 5.7
1 6 2 26.4 7
-2 -6 -2 69.29 9.5
2 6 2 69.79 9.1
3 6 2 73.09 9.8
-4 -6 -2 43.8 9.5
4 6 2 43.2 9.3
5 6 2 51.39 10.3
6 6 2 24.6 8.1
2 -7 -2 15.2 7
1 -7 -2 108.39 11.9
-1 7 2 98.99 15.9
0 -7 -2 654.63 28.4
0 7 2 678.53 31.8
-1 -7 -2 95.59 11.2
1 7 2 106.19 12.1
-2 -7 -2 17.4 6.8
2 7 2 18.3 6.4
-3 -7 -2 18.6 6.6
3 7 2 10.6 5.1
4 7 2 5.4 5.2
5 7 2 -6.3 5.6
-1 8 2 43.2 12.8
0 8 2 6.6 5.8
1 8 2 32.6 9.7
2 8 2 74.09 13.4
3 8 2 39.1 9.9
4 8 2 26.1 8.5
5 8 2 9.6 7.2
0 9 2 -9.1 4.2
1 9 2 4.3 6.3
2 9 2 36.2 9
3 9 2 22.9 9.3
4 9 2 83.89 14.6
0 10 2 79.89 16.3
1 10 2 54.49 11.7
2 10 2 13.9 8.3
3 10 2 4.8 5.9
0 11 2 3.1 7.8
1 11 2 9.8 8.5
1 11 -3 -0.8 8.7
0 11 -3 -1.4 6.1
-1 11 -3 -6.3 6.7
3 10 -3 5.8 7.4
2 10 -3 31.8 9.8
1 10 -3 9.3 7.4
0 10 -3 -2.5 5.7
-1 10 -3 40.7 11.9
4 9 -3 -1.6 5.1
3 9 -3 25.3 8.6
2 9 -3 0.3 3.9
1 9 -3 18.8 7.6
-1 9 -3 20.2 8.9
5 8 -3 0.2 6.5
4 8 -3 -0.8 4.9
3 8 -3 17.6 7.7
2 8 -3 9 5.4
1 8 -3 20.1 7.9
-1 8 -3 12.2 8.1
-5 8 -3 24.1 10.8
5 7 -3 18.3 7.3
4 7 -3 68.69 12
3 7 -3 14.1 6.6
2 7 -3 24.8 7.6
-2 -7 3 1.5 7.8
1 7 -3 70.19 11.7
-1 -7 3 71.29 11.5
0 7 -3 35.2 9.1
0 -7 3 20.5 7.1
-1 7 -3 79.59 13
1 -7 3 103.19 10.8
-2 7 -3 5.1 6.2
2 -7 3 11.3 4.8
-5 7 -3 19.9 7.6
6 6 -3 15.5 6.5
5 6 -3 18.9 6.7
4 6 -3 4 4.2
3 6 -3 86.79 11.2
-3 -6 3 112.99 14.1
2 6 -3 211.88 15.8
-2 -6 3 226.98 19.7
1 6 -3 18 5.5
-1 -6 3 24 6.4
0 6 -3 76.09 9.4
0 -6 3 68.19 8.7
-1 6 -3 28.6 7.4
1 -6 3 30.6 6.6
-2 6 -3 211.28 18.1
2 -6 3 219.88 15.3
3 -6 3 76.39 9.7
4 -6 3 3 5.2
-5 6 -3 6.6 5.9
6 5 -3 79.79 14.9
5 5 -3 7 4.7
4 5 -3 35.6 8.6
-4 -5 3 39.1 10.1
3 5 -3 19 6.2
-3 -5 3 20.5 9.6
2 5 -3 59.89 9.7
-2 -5 3 59.09 10.4
1 5 -3 51.79 8.3
-1 -5 3 50.79 8.5
0 5 -3 671.63 25.2
0 -5 3 718.53 25.7
-1 5 -3 54.89 9
1 -5 3 42.6 7.4
2 -5 3 58.69 7.5
3 -5 3 18.1 4.8
-4 5 -3 27.1 6.2
4 -5 3 41.1 9.9
-5 5 -3 -1.3 4.6
6 4 -3 38.4 11.3
4 4 -3 1.8 3.9
-4 -4 3 3.9 5.1
3 4 -3 470.55 23.3
-3 -4 3 434.26 25.1
2 4 -3 330.47 17.3
-2 -4 3 325.97 19.1
1 4 -3 471.45 19.2
-1 -4 3 460.25 20
0 4 -3 -2.2 1.5
0 -4 3 0.1 1.8
-1 4 -3 445.96 19
1 -4 3 431.86 17.2
2 -4 3 317.77 15.6
3 -4 3 430.26 20.1
-4 4 -3 0.3 2.7
4 -4 3 -1.2 4.2
-5 4 -3 73.39 9.4
5 -4 3 63.09 11.3
7 3 -3 -6.4 6.5
7 3 -3 9.8 7.3
6 3 -3 58.89 13.1
5 3 -3 119.59 14.5
4 3 -3 178.88 15.9
-4 -3 3 184.48 17.4
3 3 -3 172.28 13.7
-3 -3 3 180.38 15.5
2 3 -3 575.24 26.7
-2 -3 3 626.14 25.3
1 3 -3 39.6 5.2
-1 -3 3 29.6 5.7
0 3 -3 861.01 23
0 -3 3 883.61 23.4
-1 3 -3 34.5 5.8
1 -3 3 36 4.6
2 -3 3 633.44 21
-3 3 -3 190.68 12
3 -3 3 178.88 12.1
-4 3 -3 174.28 12.6
4 -3 3 171.08 13.7
6 -3 3 58.79 12.9
7 -3 3 29.6 10.5
7 2 -3 49.99 12
7 2 -3 69.99 15.2
6 2 -3 54.09 12.9
5 2 -3 80.49 15
4 2 -3 0.9 2.7
-4 -2 3 4.3 4.3
3 2 -3 305.87 18.4
-3 -2 3 308.17 19.9
2 2 -3 33.9 6.7
-2 -2 3 33.7 10.4
1 2 -3 1133.99 27.2
-1 -2 3 1103.89 28.3
0 2 -3 1142.59 23.6
0 -2 3 1173.18 24.3
-1 2 -3 1097.89 23.8
1 -2 3 1083.59 22.5
2 -2 3 29.3 4.9
-3 2 -3 303.27 14.9
6 -2 3 62.99 13.7
7 -2 3 89.19 17.2
7 1 -3 -10.1 6.1
7 1 -3 12.5 5.8
6 1 -3 14.6 7.7
5 1 -3 1.9 5
4 1 -3 389.66 23.6
3 1 -3 83.69 9.9
2 1 -3 472.35 20
-2 -1 3 491.35 21.1
1 1 -3 591.54 18.2
-1 -1 3 572.54 18.6
0 1 -3 124.09 5.7
0 -1 3 132.29 6.1
-1 1 -3 592.14 13.4
1 -1 3 579.34 12.3
-2 1 -3 479.45 17.2
-3 1 -3 109.69 9.1
4 -1 3 370.56 20.7
5 -1 3 19.4 6.6
6 -1 3 3.8 4.9
7 -1 3 3.4 6.8
7 0 -3 -14.7 5.7
6 0 -3 -0.8 4.8
6 0 -3 0 3.4
5 0 -3 91.79 16
5 0 -3 88.89 8.1
4 0 -3 -0.8 2.5
3 0 -3 94.39 11.1
2 0 -3 1356.06 36.9
1 0 -3 851.81 23
0 0 -3 0.2 1
0 0 -3 -0.8 1.1
-1 0 -3 920.71 22.2
1 0 3 919.01 22.1
1 0 3 902.91 13.5
-2 0 -3 1408.66 33.1
2 0 3 1423.46 28.5
2 0 3 1443.46 33.1
3 0 3 95.79 8.3
3 0 3 97.99 8.8
4 0 3 0.3 2.7
4 0 3 -3.4 1.8
5 0 3 85.09 10.5
5 0 3 72.99 11.9
6 0 3 3.1 4.5
6 0 3 3.8 5.1
7 0 3 -7.1 6.9
7 -1 -3 -1.1 6.6
6 -1 -3 19 8.5
5 -1 -3 13.7 6.9
4 -1 -3 382.86 24.4
4 -1 -3 368.06 11.2
3 -1 -3 94.99 4.3
0 1 3 125.09 6.7
-1 -1 -3 599.64 12
1 1 3 596.24 11.4
1 1 3 607.24 18.7
-2 -1 -3 519.15 16.1
2 1 3 487.45 14.1
2 1 3 481.25 19
3 1 3 89.49 7.7
3 1 3 101.39 9.8
4 1 3 396.36 19.2
4 1 3 384.06 21
5 1 3 8.6 4.3
5 1 3 7.3 5.5
6 1 3 0.9 5.4
6 1 3 5.2 5.4
7 1 3 -4 6.9
7 1 3 6.5 6.5
7 -2 -3 79.79 16.7
6 -2 -3 26.7 10.2
5 -2 -3 60.89 13.6
0 -2 -3 1151.08 24.3
0 2 3 1152.08 25.3
-1 -2 -3 1179.48 22.9
1 2 3 1130.99 22.6
-2 -2 -3 35.8 4.9
2 2 3 36.5 4.1
-3 -2 -3 311.57 16.3
3 2 3 306.47 14.1
4 2 3 2.1 3
4 2 3 3.2 3.4
5 2 3 91.19 12.5
5 2 3 86.79 10.4
6 2 3 49.7 9.6
6 2 3 51.09 10.5
7 2 3 81.39 14.2
7 2 3 93.39 14.9
7 -3 -3 -0.8 8.5
6 -3 -3 42.6 12.1
1 -3 -3 23.7 5.3
0 -3 -3 872.41 23.1
0 3 3 838.42 24
-1 -3 -3 32.5 4.3
1 3 3 32.9 5.1
-2 -3 -3 622.44 21
2 3 3 659.23 19.5
-3 -3 -3 201.68 13.6
3 3 3 185.18 11.2
-4 -3 -3 199.28 16.2
4 3 3 200.28 13.5
5 3 3 89.09 15.7
5 3 3 118.69 11.7
6 3 3 67.99 11.9
7 3 3 4.7 6.6
7 3 3 2.8 7.9
2 -4 -3 333.87 18.9
1 -4 -3 448.36 19.6
0 -4 -3 7 3
0 4 3 5.2 3.2
-1 -4 -3 435.36 17.4
1 4 3 460.45 18
-2 -4 -3 341.17 16.5
2 4 3 332.17 15.5
-3 -4 -3 469.15 22.7
3 4 3 478.15 19.5
-4 -4 -3 0.6 4
4 4 3 12.8 4.5
-5 -4 -3 88.09 18.1
5 4 3 94.59 10.3
6 4 3 25.6 10.6
6 4 3 26.7 8.3
3 -5 -3 23.8 9.5
2 -5 -3 56.89 10
1 -5 -3 59.69 7.7
0 -5 -3 620.14 23.4
0 5 3 615.04 25.4
-1 -5 -3 59.39 7.3
1 5 3 40.3 7.3
-2 -5 -3 53.49 8.9
2 5 3 61.99 7.5
-3 -5 -3 13.5 4.8
3 5 3 19.6 5.2
-4 -5 -3 46 9.4
4 5 3 44.6 8.9
-5 -5 -3 -0.7 6.9
5 5 3 3.7 4.5
6 5 3 66.49 11.5
3 -6 -3 72.29 12.4
2 -6 -3 212.98 16.5
1 -6 -3 25.8 6.3
0 -6 -3 64.59 8.4
0 6 3 73.09 11.8
1 6 3 25.3 6.8
-2 -6 -3 208.68 15.4
2 6 3 208.78 15
-3 -6 -3 71.89 11.5
3 6 3 84.39 9.7
-4 -6 -3 -3.6 4.9
4 6 3 7 4.4
6 6 3 19 6.1
1 -7 -3 78.69 10.2
0 -7 -3 19.3 6.7
0 7 3 37.8 9.5
-1 -7 -3 89.09 10.5
1 7 3 89.49 11.4
-2 -7 -3 4.9 3.6
2 7 3 17.9 6.6
-3 -7 -3 14.5 6.8
3 7 3 15.3 6.1
4 7 3 77.09 16.9
5 7 3 33.4 8.1
0 8 3 28.6 9.7
1 8 3 15.5 7.1
3 8 3 12.2 6.5
4 8 3 4.5 5
5 8 3 -3 5.9
0 9 3 1.2 5.5
1 9 3 30.9 9.1
3 9 3 35.9 9.5
4 9 3 -5.5 6
0 10 3 10.2 7
1 10 3 15.7 8.6
2 10 3 59.59 12.7
3 10 3 15.1 8
0 11 3 13.7 9.4
1 11 3 -10.3 5.4
0 11 -4 15.7 7.2
2 10 -4 6.3 6.2
1 10 -4 24.8 9.4
0 10 -4 12.9 7.5
-1 10 -4 58.89 13
3 9 -4 21.2 8.8
2 9 -4 42 10.8
1 9 -4 9.3 6.7
0 9 -4 8.5 6
-1 9 -4 15.2 7.2
-2 9 -4 74.39 15.4
5 8 -4 5.9 8.4
4 8 -4 0 4.8
3 8 -4 13.1 6.8
2 8 -4 36.4 8.7
1 8 -4 119.79 14.2
0 8 -4 45.9 10.4
-1 8 -4 134.09 24.3
-2 8 -4 42.3 11.5
-5 8 -4 8.7 10
5 7 -4 13.9 6.4
4 7 -4 15.2 6.5
3 7 -4 9.8 5.2
2 7 -4 162.78 15.5
1 7 -4 39.6 9.2
-1 -7 4 58.19 10.6
0 7 -4 528.05 27
0 -7 4 522.85 25.9
-1 7 -4 29.8 8.3
1 -7 4 41.3 8.6
-2 7 -4 177.98 17.5
2 -7 4 166.58 14.1
-5 7 -4 10.9 7.9
6 6 -4 9.6 7.4
5 6 -4 28.8 9.4
4 6 -4 39 9.7
3 6 -4 162.98 14.8
-3 -6 4 146.09 17.5
2 6 -4 2.4 3.4
-2 -6 4 -1.4 3
1 6 -4 7.8 4
-1 -6 4 7.9 4.2
0 6 -4 55.69 9.6
0 -6 4 65.19 8.6
-1 6 -4 6.3 4.1
1 -6 4 -3 2.5
-2 6 -4 6 4.8
2 -6 4 1.2 3.4
3 -6 4 148.59 13.6
4 -6 4 47.3 9.2
-5 6 -4 25.6 7.8
6 5 -4 29.3 9.4
5 5 -4 -1.2 4.5
4 5 -4 102.59 12
3 5 -4 49.5 9.5
-3 -5 4 40.5 10.1
2 5 -4 27.6 6.5
-2 -5 4 35.5 7.9
1 5 -4 122.99 10.7
-1 -5 4 132.59 11.8
0 5 -4 40.6 7.5
0 -5 4 46.9 7.9
-1 5 -4 140.09 12
1 -5 4 140.69 10.8
-2 5 -4 33.4 7.8
2 -5 4 31 6.4
3 -5 4 31.4 7.4
-4 5 -4 87.59 10.5
4 -5 4 98.39 12.5
-5 5 -4 7.7 5.2
5 -5 4 16.8 7.9
6 4 -4 19.7 7.6
5 4 -4 33.4 9.2
4 4 -4 27.5 7.7
-4 -4 4 23.9 8.6
3 4 -4 11 4.9
-3 -4 4 14.6 6.1
2 4 -4 211.88 14.3
-2 -4 4 226.68 16.3
1 4 -4 140.89 10.6
-1 -4 4 138.69 11.4
0 4 -4 94.99 8.3
0 -4 4 99.79 8.6
-1 4 -4 150.68 11.1
1 -4 4 133.49 9.4
2 -4 4 236.98 13.2
3 -4 4 19.6 5.1
-4 4 -4 26.7 6
4 -4 4 13.7 5.8
-5 4 -4 44.5 8.3
5 -4 4 35.3 8.9
7 3 -4 0 7.7
6 3 -4 22.9 8.3
5 3 -4 24 8.8
4 3 -4 25.1 8.1
3 3 -4 55.19 9.8
-3 -3 4 46 9.3
2 3 -4 -1.4 2.4
-2 -3 4 3.3 2.8
1 3 -4 258.47 13.2
0 3 -4 429.06 15.5
0 -3 4 432.46 16.2
-1 3 -4 240.38 12
1 -3 4 247.58 11.4
2 -3 4 5.2 2.8
-3 3 -4 48 6.5
3 -3 4 52.59 7.9
-4 3 -4 27.7 6.4
4 -3 4 23.8 6.5
5 -3 4 6.2 6.1
6 -3 4 3.8 5.4
6 -3 4 -6 6.7
7 -3 4 24.3 9.3
7 2 -4 12 6.1
7 2 -4 16.8 8.7
6 2 -4 116.19 18.8
5 2 -4 128.39 15.9
4 2 -4 59.19 11.8
3 2 -4 353.96 20.5
-3 -2 4 369.06 22.5
2 2 -4 252.77 15
-2 -2 4 244.78 15.6
1 2 -4 231.48 11.9
-1 -2 4 259.47 13.5
0 2 -4 14.1 3.1
0 -2 4 18.1 3.6
-1 2 -4 251.77 10.3
1 -2 4 243.68 9.5
-2 2 -4 267.97 13.9
2 -2 4 258.87 11
3 -2 4 354.66 15.5
-4 2 -4 65.89 8.2
5 -2 4 108.49 12.5
6 -2 4 122.29 15.6
7 -2 4 1.2 7.2
7 1 -4 0.4 5.1
7 1 -4 3.9 6.8
6 1 -4 164.68 18.9
5 1 -4 1.3 4.1
4 1 -4 475.15 27
3 1 -4 141.19 13
2 1 -4 1189.58 34.3
-2 -1 4 1242.38 36.9
1 1 -4 518.15 17.8
-1 -1 4 526.75 18.7
0 1 -4 28.7 3.5
0 -1 4 27.9 3.6
-1 1 -4 559.14 12.3
1 -1 4 569.54 11.6
-2 1 -4 1252.47 31.7
4 -1 4 461.35 22.1
5 -1 4 -3.8 2.7
6 -1 4 158.38 15.8
7 -1 4 -11.7 5.1
7 0 -4 100.69 19.4
6 0 -4 32.1 5.8
6 0 -4 11.7 8.7
5 0 -4 -5.4 3.1
5 0 -4 6.6 3.4
4 0 -4 214.88 18.9
3 0 -4 6.5 4.2
2 0 -4 103.29 9.9
1 0 -4 9999 134.09
0 0 -4 850.61 18.1
0 0 -4 883.71 20.5
-2 0 -4 107.49 8.7
2 0 4 101.99 8.7
2 0 4 99.49 5.9
3 0 4 7.7 2.9
3 0 4 4.6 3.1
4 0 4 211.78 15.1
4 0 4 223.18 14.4
5 0 4 -1 3.4
5 0 4 2.4 3.8
6 0 4 44.4 9.6
6 0 4 18.7 7.1
7 0 4 111.19 15.1
7 -1 -4 -11.8 7.1
6 -1 -4 132.49 22.4
5 -1 -4 3.1 5.5
4 -1 -4 472.15 28.1
4 -1 -4 440.76 10.9
1 -1 -4 521.25 12.4
0 -1 -4 29.4 4.6
0 1 4 29 4.5
-1 -1 -4 562.74 10.7
1 1 4 558.34 18.9
1 1 4 537.25 10.6
-2 -1 -4 1267.77 25.8
2 1 4 1258.87 22.8
2 1 4 1248.98 33.8
3 1 4 134.99 8.7
4 1 4 476.35 20.4
4 1 4 474.65 24.2
5 1 4 3.2 3.9
5 1 4 0.2 3
6 1 4 155.08 16.4
6 1 4 160.88 14.8
7 1 4 10 6.7
7 1 4 -9.2 7.2
7 -2 -4 -8.9 5.9
6 -2 -4 103.69 18.8
5 -2 -4 118.79 19.1
-1 2 4 243.78 9
0 -2 -4 21.6 3.9
-1 -2 -4 249.08 9
1 2 4 248.08 9.3
-2 -2 -4 266.77 11.6
2 2 4 266.97 10.1
-3 -2 -4 375.06 17.3
3 2 4 383.66 21.5
3 2 4 378.56 14.7
4 2 4 63.59 7.5
4 2 4 70.79 12.2
5 2 4 108.99 10.8
5 2 4 100.99 16.7
6 2 4 118.99 12.4
6 2 4 130.99 15.6
7 2 4 19.6 8.4
7 -3 -4 7.2 9.1
6 -3 -4 5.7 6.4
0 -3 -4 433.36 15.9
0 3 4 452.75 17.5
-1 -3 -4 260.37 11.3
1 3 4 266.07 11.9
-2 -3 -4 5.6 2.6
2 3 4 7.5 2.7
3 3 4 53.69 5.8
-4 -3 -4 19.3 6.7
4 3 4 28.5 6.4
5 3 4 33.5 7.2
6 3 4 -2.1 4.3
6 3 4 12.7 6.8
7 3 4 11.4 7.5
7 3 4 9.5 7.8
2 -4 -4 210.68 15.4
1 -4 -4 147.99 11.6
0 -4 -4 100.49 8.7
0 4 4 83.29 8.6
-1 -4 -4 155.58 10.3
1 4 4 163.68 10.8
-2 -4 -4 234.68 13.3
2 4 4 240.88 12.8
-3 -4 -4 7.2 4.3
3 4 4 15.6 4.3
-4 -4 -4 26.2 7.2
4 4 4 27.2 6.5
-5 -4 -4 41.7 10.2
5 4 4 32.2 11.4
5 4 4 30.8 7.2
6 4 4 18.4 6.5
6 4 4 12.7 9.8
3 -5 -4 48.5 10.7
2 -5 -4 30.5 7.9
1 -5 -4 120.69 11
0 -5 -4 41.2 7.2
0 5 4 53.39 9.1
-1 -5 -4 154.18 11.3
1 5 4 139.59 11.5
-2 -5 -4 38.5 7.1
2 5 4 43.6 7.6
-3 -5 -4 32.6 7.8
3 5 4 41.1 7.4
-4 -5 -4 98.59 11.8
4 5 4 97.09 10.4
-5 -5 -4 3.5 7
5 5 4 -1 3.2
6 5 4 4.7 6.8
6 5 4 11.1 5.3
3 -6 -4 192.88 25.5
1 -6 -4 9.5 4.6
0 -6 -4 73.69 8.7
0 6 4 66.89 11.4
-1 -6 -4 -1.9 3
1 6 4 7.3 4.3
-2 -6 -4 7.2 4.4
2 6 4 5.7 3.8
-3 -6 -4 171.38 14.9
3 6 4 167.98 13.7
-4 -6 -4 50.89 9.8
4 6 4 43.1 9
5 6 4 27.1 7.3
6 6 4 15.4 6.2
1 -7 -4 56.19 10.2
0 -7 -4 504.75 25.4
0 7 4 533.55 28.7
-1 -7 -4 59.49 10.1
1 7 4 49.99 10.5
-2 -7 -4 155.68 14.3
2 7 4 167.58 15.1
-3 -7 -4 17.3 6.1
3 7 4 8.7 4.6
4 7 4 3.4 4.8
5 7 4 31.2 8.9
0 8 4 28.5 11.8
1 8 4 124.09 14.7
3 8 4 16.5 7.3
4 8 4 -2.9 5.5
5 8 4 6.1 6.7
0 9 4 1 6.4
1 9 4 9.5 6.7
2 9 4 40.5 10.6
3 9 4 31.4 8.8
4 9 4 40.1 11.2
0 10 4 3.9 6.6
1 10 4 48.9 12.2
2 10 4 7.9 8.3
3 10 4 0.3 6
2 10 -5 7.1 7.9
1 10 -5 20 8.8
0 10 -5 27.9 8
-1 10 -5 19.8 9
4 9 -5 4.7 6.6
3 9 -5 22.9 7.6
2 9 -5 14.3 7.4
1 9 -5 30.6 9.8
0 9 -5 4.5 5.8
-1 9 -5 24 9.3
-2 9 -5 46.6 12
5 8 -5 8.9 6.2
4 8 -5 -5.5 4.7
3 8 -5 9 5.6
2 8 -5 36.4 9.2
1 8 -5 6.8 5.5
0 8 -5 37.2 9.3
-1 8 -5 7 5.4
-2 8 -5 51.99 12.6
5 7 -5 41.1 9.6
4 7 -5 20.7 8.8
3 7 -5 26.3 7.7
2 7 -5 197.58 18.1
1 7 -5 8.7 5.6
-1 -7 5 27.1 7.4
0 7 -5 19.4 6.6
0 -7 5 15 6.2
-1 7 -5 16.6 6.4
1 -7 5 20.9 6.8
-2 7 -5 178.58 17.5
2 -7 5 213.58 15.9
-5 7 -5 17.7 9.6
6 6 -5 19.7 14.7
5 6 -5 31.8 9.7
4 6 -5 20 8
3 6 -5 35.1 9
2 6 -5 126.39 12.7
-2 -6 5 128.19 13.6
1 6 -5 314.57 19.3
-1 -6 5 301.77 19.6
0 6 -5 218.58 15.7
0 -6 5 191.78 14.4
-1 6 -5 284.27 19
1 -6 5 293.77 17.3
-2 6 -5 142.89 14.1
2 -6 5 121.39 11.4
3 -6 5 50.89 12.4
-4 6 -5 30.2 6.8
4 -6 5 27.2 7.7
-5 6 -5 25.7 7.8
-6 6 -5 47.5 15.4
6 5 -5 34.1 10.2
5 5 -5 28 9.2
4 5 -5 48.5 11.4
3 5 -5 9.8 5.3
-3 -5 5 24.2 7.4
2 5 -5 90.69 10.2
-2 -5 5 81.39 10.5
1 5 -5 119.49 10.8
-1 -5 5 117.19 11.3
0 5 -5 1.7 2.6
0 -5 5 -0.2 2.7
-1 5 -5 117.79 10.8
1 -5 5 120.39 10.2
-2 5 -5 74.29 9.5
2 -5 5 86.59 8.4
3 -5 5 24.3 6.2
-4 5 -5 47.8 8.9
4 -5 5 27.1 7.3
-5 5 -5 18.5 7.8
5 -5 5 43.7 9.1
6 4 -5 -2.1 5.1
5 4 -5 77.69 14.7
4 4 -5 243.48 19.3
-4 -4 5 256.87 22.5
3 4 -5 726.53 30.1
-3 -4 5 649.83 32.4
2 4 -5 359.76 19
-2 -4 5 287.57 18.9
1 4 -5 111.79 9.5
-1 -4 5 112.59 10.6
0 4 -5 274.57 22.7
0 -4 5 299.87 15.2
-1 4 -5 124.79 9.8
1 -4 5 104.19 8.5
2 -4 5 301.97 14.5
3 -4 5 729.33 25.1
-4 4 -5 244.08 16.7
4 -4 5 253.27 16.1
-5 4 -5 61.89 11
5 -4 5 91.19 12
7 3 -5 12.8 7.6
6 3 -5 43.8 11.6
5 3 -5 109.29 25.2
4 3 -5 147.29 15.4
-4 -3 5 137.99 16
3 3 -5 132.09 12.8
-3 -3 5 143.19 14.5
2 3 -5 240.08 15.1
-2 -3 5 231.28 16
1 3 -5 202.88 12
-1 -3 5 183.38 12.7
0 3 -5 27.2 5
0 -3 5 23 4.5
-1 3 -5 168.08 9.9
1 -3 5 182.68 9.8
2 -3 5 252.97 11.8
-3 3 -5 148.89 11.9
3 -3 5 155.38 10.6
-4 3 -5 135.09 12.1
4 -3 5 129.49 10.7
-5 3 -5 100.69 11.7
5 -3 5 105.69 11.9
6 -3 5 71.39 12.2
6 -3 5 45.7 11.2
7 -3 5 -2.4 7.3
7 2 -5 28.7 8.7
7 2 -5 33.9 12.2
6 2 -5 36.4 11.5
5 2 -5 89.89 16.3
4 2 -5 63.39 12.7
3 2 -5 178.48 14.9
-3 -2 5 133.19 13.9
-2 -2 5 43.6 8.7
1 2 -5 528.75 19.2
-1 -2 5 525.45 20.3
0 2 -5 1945.21 35.5
0 -2 5 2003.3 37.5
-1 2 -5 517.95 14.9
1 -2 5 520.65 14.3
-2 2 -5 28.2 7.7
2 -2 5 33.4 4
-3 2 -5 144.39 11.7
3 -2 5 165.08 9.8
-4 2 -5 67.49 8.6
5 -2 5 85.09 13.1
6 -2 5 28 8.6
7 -2 5 28.6 9.6
7 1 -5 1.6 4.9
7 1 -5 14.5 8.7
6 1 -5 -2.9 6.7
5 1 -5 24.8 9
4 1 -5 32.3 9.1
3 1 -5 105.79 11.6
2 1 -5 110.89 10.5
-2 -1 5 97.39 10.1
1 1 -5 94.19 8
-1 -1 5 93.39 8.3
0 1 -5 4.6 2
0 -1 5 3.3 2.1
-1 1 -5 86.89 4.4
1 -1 5 90.99 4.3
-2 1 -5 123.79 9.8
2 -1 5 122.49 5.8
-3 1 -5 84.29 9.4
4 -1 5 34.8 7.3
5 -1 5 14.8 6
6 -1 5 1.9 4.7
7 -1 5 8.9 6.8
7 0 -5 11.6 9.3
6 0 -5 3.8 7
6 0 -5 8.6 3.7
5 0 -5 40.8 11.1
4 0 -5 -5.1 3
3 0 -5 41.8 9.4
2 0 -5 842.52 30.3
1 0 -5 1824.22 40.1
0 0 -5 1.5 1.8
0 0 -5 1.4 1.8
1 0 5 1877.91 39.2
-2 0 -5 904.51 28.3
2 0 5 893.01 16.8
2 0 5 922.31 28.2
3 0 5 49.5 5.2
4 0 5 -0.8 1.9
4 0 5 3.3 3.1
5 0 5 43 9.7
5 0 5 58.09 9.7
6 0 5 -5.3 4.1
6 0 5 15.7 5.1
7 0 5 5.4 6.3
7 -1 -5 -5.6 6.7
6 -1 -5 12.4 9.2
5 -1 -5 14.8 7.4
4 -1 -5 33.5 10.1
2 -1 -5 117.89 5.1
1 -1 -5 77.79 5.4
0 -1 -5 1.2 2
0 1 5 3.3 2.3
-1 -1 -5 90.79 8.2
-1 -1 -5 91.09 3.7
1 1 5 84.19 7.8
-2 -1 -5 115.39 6.2
2 1 5 117.19 5.1
2 1 5 128.89 10.8
3 1 5 98.29 10.6
3 1 5 100.09 6.8
4 1 5 30.8 5.9
4 1 5 42.5 9.3
5 1 5 32.3 8.5
5 1 5 31.6 7
6 1 5 25.2 8.5
6 1 5 13.4 6
7 1 5 3.9 5.5
7 1 5 1.1 5.6
7 -2 -5 42.5 13.9
6 -2 -5 54.59 14.6
5 -2 -5 67.19 15
-1 2 5 488.75 14.4
0 -2 -5 1946.21 36.3
0 2 5 1890.41 38.2
-1 -2 -5 530.15 13.6
1 2 5 530.35 14.6
1 2 5 533.25 20.8
-2 -2 -5 39 4.4
2 2 5 35.5 3.6
2 2 5 34.1 8.1
-3 -2 -5 160.88 10.7
3 2 5 175.58 9.2
3 2 5 178.88 14.8
4 2 5 53.59 10.5
4 2 5 60.99 6.8
5 2 5 77.79 9
5 2 5 80.99 14.3
6 2 5 24.9 7.2
7 2 5 34.3 8.2
7 2 5 24.2 11.3
7 -3 -5 -23.2 8.9
6 -3 -5 41.1 13.3
-2 3 5 237.28 8.2
1 -3 -5 181.78 12.6
0 -3 -5 29.9 5.4
-1 -3 -5 182.38 9.3
1 3 5 179.08 9.8
-2 -3 -5 239.18 11.8
2 3 5 244.68 11.1
-3 -3 -5 159.38 11.5
3 3 5 138.09 9
-4 -3 -5 125.09 12.3
4 3 5 171.88 17.3
4 3 5 170.08 12.8
5 3 5 127.29 15.7
5 3 5 103.99 10.2
6 3 5 54.59 9.6
6 3 5 46.8 12.6
7 3 5 1.6 8.3
2 -4 -5 300.57 18.9
1 -4 -5 113.19 10.2
0 -4 -5 303.67 15
0 4 5 286.97 16.1
-1 -4 -5 133.99 10.9
1 4 5 115.09 9.3
-2 -4 -5 356.86 16.2
2 4 5 314.07 14.7
-3 -4 -5 747.63 27.7
3 4 5 767.02 28.7
-4 -4 -5 281.47 18.7
4 4 5 262.97 14.9
-5 -4 -5 63.09 11.9
5 4 5 75.09 8.9
5 4 5 58.79 13.6
6 4 5 -4 4.1
6 4 5 -5.9 4.9
3 -5 -5 11.3 5.9
2 -5 -5 84.29 10.3
1 -5 -5 131.09 11.9
0 -5 -5 -0.2 2.1
0 5 5 -0.5 2.5
-1 -5 -5 108.09 9.5
1 5 5 122.99 10.8
-2 -5 -5 95.79 9.6
2 5 5 104.69 9.5
-3 -5 -5 21.9 5.7
3 5 5 22 5.6
-4 -5 -5 37.5 9.3
4 5 5 38.8 7.8
-5 -5 -5 26.3 10.6
5 5 5 17.7 6.3
6 5 5 45.3 8.6
6 5 5 22 10
2 -6 -5 138.69 14.2
1 -6 -5 291.17 18.4
0 -6 -5 200.98 14.3
0 6 5 205.38 16.5
-1 -6 -5 308.17 17.3
1 6 5 317.47 18.9
-2 -6 -5 111.29 11.2
2 6 5 131.59 12
-3 -6 -5 52.69 9.8
3 6 5 39 8
-4 -6 -5 31.4 7.4
4 6 5 40 8.4
5 6 5 25 7
6 6 5 41.6 8.7
6 6 5 4.9 8.1
1 -7 -5 22.7 7.4
0 -7 -5 15.9 5.7
0 7 5 19.7 7.4
-1 -7 -5 3.8 4
1 7 5 24.5 7.5
-2 -7 -5 166.98 14.4
2 7 5 178.78 15.6
-3 -7 -5 12.9 6.6
3 7 5 27.2 7.3
4 7 5 41.4 8.4
5 7 5 5.1 5.9
1 8 5 0.8 4.5
3 8 5 9 5.8
4 8 5 -0.5 4.5
5 8 5 5.2 6.4
0 9 5 9.1 7.2
1 9 5 16.8 8.5
2 9 5 15.6 7.7
3 9 5 32.2 9.3
4 9 5 -10.7 5.2
1 10 5 42.5 11.7
2 10 5 10.1 7.9
2 10 -6 27.9 15.9
1 10 -6 4.5 6
0 10 -6 55.79 13.8
-1 10 -6 7.8 6.7
-2 10 -6 20.8 12.8
4 9 -6 -13.4 6.6
3 9 -6 65.29 12.9
2 9 -6 21.2 7.5
1 9 -6 -8.8 4.4
0 9 -6 38.2 9.5
-1 9 -6 -4.3 4.5
-2 9 -6 28.9 10.8
4 8 -6 19.4 8
3 8 -6 11.2 7.1
2 8 -6 14.6 6.1
1 8 -6 27.8 8
0 8 -6 -1.2 3.8
-1 8 -6 22.4 8.1
-2 8 -6 -1.9 5.3
5 7 -6 -3.8 6.3
4 7 -6 13.8 5.8
3 7 -6 9.8 6.5
2 7 -6 50.39 14.6
1 7 -6 265.67 19.1
-1 -7 6 313.87 22.4
0 7 -6 1.6 3.3
0 -7 6 1.7 3.9
-1 7 -6 298.67 20.7
1 -7 6 286.87 19
-2 7 -6 30.7 9.5
2 -7 6 46.8 9.4
-5 7 -6 0.1 8.8
6 6 -6 20.5 8.1
5 6 -6 9.1 7.1
4 6 -6 157.38 16.6
3 6 -6 1 7.4
2 6 -6 69.49 9.5
-2 -6 6 65.89 12.5
1 6 -6 17.6 5.9
0 6 -6 34.3 7.9
0 -6 6 35.4 7.5
-1 6 -6 7.7 4.9
1 -6 6 14.7 4.8
-2 6 -6 62.09 11.4
2 -6 6 56.99 9.3
4 -6 6 132.49 12.8
-5 6 -6 21.6 7.7
-6 6 -6 39.1 11.2
6 5 -6 22 8.3
5 5 -6 -2.3 5
4 5 -6 6 5.1
3 5 -6 18 6.4
-3 -5 6 8.5 6
2 5 -6 199.88 15.3
-2 -5 6 179.98 16
1 5 -6 119.99 10.9
-1 -5 6 113.29 11.6
0 5 -6 37.5 7.1
0 -5 6 19.1 5.4
-1 5 -6 113.59 10.8
1 -5 6 132.19 10.5
-2 5 -6 170.78 14
2 -5 6 177.18 12.2
3 -5 6 12.9 4.4
-4 5 -6 18.2 5.5
4 -5 6 12.2 5.1
-5 5 -6 6.7 5.6
5 -5 6 -4.5 4.7
-6 5 -6 18.6 9.4
6 4 -6 1.1 5.4
5 4 -6 29.2 9.8
4 4 -6 60.99 11.6
-4 -4 6 47.5 15.5
3 4 -6 70.99 12
-3 -4 6 104.99 23.4
2 4 -6 61.79 8.4
-2 -4 6 64.79 11
1 4 -6 167.48 12
-1 -4 6 163.88 13.1
0 4 -6 73.79 7.7
0 -4 6 73.49 7.9
-1 4 -6 152.78 10.8
1 -4 6 151.48 10.2
-2 4 -6 54.79 10.5
2 -4 6 70.59 7.1
3 -4 6 71.39 7.8
-4 4 -6 62.09 10.5
4 -4 6 62.99 7.6
-5 4 -6 20.5 7.4
5 -4 6 27.6 7.4
6 -4 6 -1.6 6.4
6 3 -6 42.5 13
5 3 -6 16.7 7.4
4 3 -6 41.8 10.3
-4 -3 6 51.19 11.7
3 3 -6 3.4 3.6
-3 -3 6 9.5 4.3
2 3 -6 39.6 7.7
-2 -3 6 23.9 6.4
1 3 -6 515.35 20.4
-1 -3 6 508.45 22.1
0 3 -6 1659.53 35.6
0 -3 6 1694.73 37.9
-1 3 -6 494.75 17.2
1 -3 6 499.15 16.8
2 -3 6 40.9 4.8
-3 3 -6 9.1 3.9
3 -3 6 10.2 4.9
-4 3 -6 38.9 8.7
4 -3 6 45.7 6.1
-5 3 -6 3 5.2
5 -3 6 6.1 4.9
6 -3 6 9.5 6.1
6 -3 6 1.6 4.2
7 2 -6 -4.8 7.4
7 2 -6 2.8 6.5
6 2 -6 25 9.3
4 2 -6 340.47 23.7
3 2 -6 59.89 10.7
-3 -2 6 66.99 12
2 2 -6 62.99 8.2
-2 -2 6 60.89 10.1
1 2 -6 66.69 7.1
-1 -2 6 87.79 8.7
0 2 -6 11.9 3.2
0 -2 6 15.7 3.9
-1 2 -6 74.79 5.6
1 -2 6 87.79 5.8
-2 2 -6 65.99 8
2 -2 6 72.39 5.2
-3 2 -6 47.2 8.7
3 -2 6 56.79 5.7
-4 2 -6 363.46 21
4 -2 6 347.77 16.2
5 -2 6 36.8 8.1
5 -2 6 44.9 8.2
6 -2 6 44.1 8.3
7 -2 6 7.7 10.3
7 -2 6 -3.4 5.8
7 1 -6 6 7.3
7 1 -6 8.1 5.9
6 1 -6 0.4 6.9
5 1 -6 115.29 18.5
4 1 -6 56.19 11.9
3 1 -6 465.85 25.2
2 1 -6 261.07 16.6
-2 -1 6 242.88 16
1 1 -6 1280.97 32.6
-1 -1 6 1334.77 35.2
0 1 -6 264.17 10.5
0 -1 6 282.07 11.8
-1 1 -6 1329.47 21.7
-1 1 -6 1362.06 34.6
1 -1 6 1340.47 22.5
-2 1 -6 238.08 14.4
2 -1 6 265.37 7.8
-3 1 -6 481.65 22.6
3 -1 6 463.25 14.7
4 -1 6 54.69 8.5
5 -1 6 99.19 10.8
6 -1 6 3.8 5.2
7 -1 6 21 7.9
7 0 -6 6.8 7.2
6 0 -6 47.9 13.2
6 0 -6 51.59 6.1
5 0 -6 85.29 16.7
4 0 -6 1.3 4.2
3 0 -6 13.9 6.1
2 0 -6 48.3 8.9
1 0 -6 162.78 11.3
0 0 -6 470.95 14.6
0 0 -6 467.65 16.9
-1 0 -6 151.48 10.6
1 0 6 149.29 10.6
-2 0 -6 55.49 9
2 0 6 45 8
-3 0 -6 16.7 6.4
3 0 6 30.7 7.2
3 0 6 27 3.7
4 0 6 2.8 2.3
4 0 6 -4.8 2.1
5 0 6 72.59 12.8
6 0 6 70.49 11.6
6 0 6 61.49 11.8
7 0 6 -10.8 4.6
7 -1 -6 27.7 10.6
6 -1 -6 5.7 9.4
5 -1 -6 116.99 20.5
4 -1 -6 57.09 12.8
3 -1 -6 420.36 24.9
2 -1 -6 255.17 9.1
1 -1 -6 1339.97 27.9
0 -1 -6 262.67 12.8
0 1 6 284.87 13.2
-1 -1 -6 1384.26 20.5
-1 -1 -6 1380.26 35.2
1 1 6 1371.06 35.3
2 1 6 260.77 6.6
2 1 6 262.37 15.9
3 1 6 486.85 24
3 1 6 490.25 13.7
4 1 6 45.9 6.8
4 1 6 63.29 11.9
5 1 6 107.49 13.8
6 1 6 6.6 5.3
6 1 6 15.9 6.9
7 1 6 36.7 10.4
7 -2 -6 -2.1 8.6
6 -2 -6 37.3 12.8
-1 2 6 84.39 6.5
0 -2 -6 16.6 3.9
0 2 6 12.1 3.6
-1 -2 -6 82.49 5.2
1 2 6 69.89 8.1
-2 -2 -6 78.89 5.7
2 2 6 73.59 9.1
2 2 6 71.99 4.8
-3 -2 -6 68.89 6.9
3 2 6 64.69 5.4
3 2 6 72.89 10.1
4 2 6 346.07 23.3
4 2 6 361.16 14.9
5 2 6 41.8 10.5
5 2 6 37.3 7
6 2 6 37.2 9.8
6 2 6 18.4 5.9
7 2 6 8.2 5.6
7 2 6 -4.2 6.6
6 -3 -6 -0.2 5.9
-2 3 6 38 3.6
-1 3 6 480.15 16.9
0 -3 -6 1632.74 35.5
0 3 6 1611.64 38.7
-1 -3 -6 520.75 16.4
1 3 6 500.85 17.3
-2 -3 -6 36.9 4.7
2 3 6 31.1 7.7
2 3 6 36.5 4.5
-3 -3 -6 9.2 3.8
3 3 6 9.9 5.1
3 3 6 6.4 2.7
-4 -3 -6 53.49 9.6
4 3 6 44.2 5.8
4 3 6 25.9 8.4
5 3 6 3.9 3.5
5 3 6 9.4 6
6 3 6 5.6 5.9
6 3 6 6.4 3.6
-2 4 6 54.29 5.3
1 -4 -6 169.18 12.7
0 -4 -6 85.89 8.3
-1 -4 -6 165.98 10.7
1 4 6 140.29 10.4
-2 -4 -6 65.29 7.2
2 4 6 63.49 6.6
-3 -4 -6 76.39 8.4
3 4 6 64.39 7.3
-4 -4 -6 60.39 10.8
4 4 6 62.29 14.1
4 4 6 55.19 8.3
-5 -4 -6 21.7 8.2
5 4 6 19.2 8.2
5 4 6 26.5 6.1
6 4 6 7.8 7.1
6 4 6 2.4 3.9
3 -5 -6 20.7 7.5
-3 5 6 21.3 3.3
2 -5 -6 164.78 14.9
1 -5 -6 104.89 11
0 -5 -6 30 6.6
-1 -5 -6 117.29 9.9
1 5 6 108.89 10.3
-2 -5 -6 190.98 12.8
2 5 6 187.58 12.8
-3 -5 -6 20.9 5.9
3 5 6 19.5 5.8
-4 -5 -6 3.5 5
4 5 6 14.8 4.7
-5 -5 -6 -4.8 7.2
5 5 6 1.6 3.7
5 5 6 17.5 7.5
6 5 6 30.2 7.9
6 5 6 30.7 10.2
2 -6 -6 74.69 12.4
1 -6 -6 17.9 5.8
0 -6 -6 34.4 7.1
-1 -6 -6 11.8 4.4
1 6 6 8.5 5.1
-2 -6 -6 76.89 9.1
2 6 6 70.09 9.6
-3 -6 -6 8.9 4.6
3 6 6 14 5.2
4 6 6 141.49 12.8
-5 -6 -6 10.5 9.5
5 6 6 19.4 6.2
6 6 6 27.1 8
1 -7 -6 326.97 21.3
-1 -7 -6 298.67 18.6
1 7 6 303.17 21.1
-2 -7 -6 33 7.8
2 7 6 65.79 11.7
-3 -7 -6 29.1 8.9
3 7 6 18.5 6.8
4 7 6 11.4 5.4
5 7 6 8.2 4.8
1 8 6 19.5 7.1
2 8 6 11.6 11.8
3 8 6 23.6 7.8
4 8 6 8.2 6.1
-4 9 6 -2 4.7
1 9 6 3.9 6.2
2 9 6 25.1 10
3 9 6 87.19 14.7
4 9 6 -2.3 6.4
1 10 6 3.6 7.8
2 10 6 16.5 9.5
2 10 -7 3.1 6.7
1 10 -7 28.5 9.4
0 10 -7 18.6 9.9
-1 10 -7 19.3 10.1
-2 10 -7 8 8.4
3 9 -7 7.7 5.9
2 9 -7 24 9.2
1 9 -7 11.6 6.2
0 9 -7 -5.3 4.4
-1 9 -7 15.6 6.4
-2 9 -7 25.4 9.9
4 8 -7 10.3 8.3
3 8 -7 4.8 5.7
2 8 -7 0.6 5.2
1 8 -7 18.9 7.2
0 8 -7 53.29 11.2
-1 8 -7 19.5 6.8
-2 8 -7 2.6 5.9
5 7 -7 3.4 7.2
4 7 -7 10.1 5.8
3 7 -7 49.8 11.6
2 7 -7 51.89 10.8
1 7 -7 47.1 9.4
0 7 -7 -6.3 3.3
0 -7 7 14.6 6.6
-1 7 -7 55.69 10.8
1 -7 7 35.2 8.2
-2 7 -7 62.39 11.8
2 -7 7 36.3 8.4
5 6 -7 4.1 5.6
4 6 -7 51.79 11.3
3 6 -7 35.6 9.5
2 6 -7 58.09 10.8
-2 -6 7 55.79 11.6
1 6 -7 73.39 9.2
-1 -6 7 66.39 11.3
0 6 -7 4.4 3.7
0 -6 7 -5.4 2.5
-1 6 -7 62.19 10.3
1 -6 7 65.29 10.3
-2 6 -7 65.79 11.7
2 -6 7 50.59 9
-4 6 -7 50.49 11.1
4 -6 7 43.6 8.6
-5 6 -7 -17.4 6.6
6 5 -7 -7.4 5.4
5 5 -7 4.7 4.9
4 5 -7 45.5 10.9
3 5 -7 79.99 13
-3 -5 7 68.79 13.4
2 5 -7 43.8 9.1
1 5 -7 585.44 24.9
-1 -5 7 624.44 28.4
0 5 -7 509.25 22
0 -5 7 519.45 23.2
-1 5 -7 589.04 24.3
1 -5 7 572.24 23
-2 5 -7 33 7.4
2 -5 7 31.3 6.3
3 -5 7 83.09 8.6
-4 5 -7 21.5 9
4 -5 7 71.99 8.3
-5 5 -7 1.1 6.4
5 -5 7 -1.5 4.5
-6 5 -7 -3.2 8.9
6 4 -7 22.4 9.8
5 4 -7 24.2 9
4 4 -7 58.69 12.3
3 4 -7 119.59 12.9
-3 -4 7 108.19 14
2 4 -7 92.99 10.3
-2 -4 7 83.59 11.2
1 4 -7 199.58 13.4
-1 -4 7 178.18 14
0 4 -7 315.37 15.4
0 -4 7 294.07 16.3
-1 4 -7 195.88 12.6
1 -4 7 188.98 11.5
-2 4 -7 87.09 11.5
2 -4 7 102.79 8.5
-3 4 -7 113.29 12.5
3 -4 7 119.59 9.4
-4 4 -7 50.49 9
4 -4 7 58.09 7.7
-5 4 -7 29.8 9.4
5 -4 7 34.4 6.6
6 -4 7 28.4 7.5
6 3 -7 24 9.4
5 3 -7 47.2 11.6
4 3 -7 133.89 15.7
-4 -3 7 131.09 16.3
3 3 -7 126.99 13.3
-3 -3 7 146.39 15.7
2 3 -7 155.88 13
-2 -3 7 141.69 13.6
1 3 -7 419.36 20
-1 -3 7 380.66 19.5
0 3 -7 16.3 4.1
0 -3 7 23.2 6
-1 3 -7 421.66 15.9
1 -3 7 449.86 16.3
-2 3 -7 138.59 9.9
2 -3 7 144.19 8.6
-3 3 -7 156.38 13.6
3 -3 7 158.88 9.9
-4 3 -7 125.89 12.8
4 -3 7 130.79 9.7
-5 3 -7 29.4 8.3
5 -3 7 27 6.8
6 -3 7 29.1 8.2
6 -3 7 48.6 8
7 2 -7 7.4 11.9
6 2 -7 2.2 7
5 2 -7 37.1 10.5
4 2 -7 28 9.1
3 2 -7 66.39 11.8
-3 -2 7 67.09 12.2
2 2 -7 186.18 14.2
-2 -2 7 189.58 15.3
1 2 -7 3.8 2.3
-1 -2 7 4 4.2
0 2 -7 212.68 10.5
0 -2 7 216.48 11.8
-1 2 -7 3.3 1.9
1 -2 7 3.2 1.8
-2 2 -7 214.28 14.9
2 -2 7 205.08 8.7
-3 2 -7 65.59 9.1
3 -2 7 63.59 5.4
-4 2 -7 35.6 8.4
4 -2 7 41.5 5.4
5 -2 7 44.6 9.3
5 -2 7 39.8 7.3
6 -2 7 4.9 6.2
6 -2 7 9.3 5.6
7 -2 7 12.4 8.8
7 -2 7 21.5 9.2
6 1 -7 24.8 10
5 1 -7 67.89 16.7
4 1 -7 32.1 8.6
3 1 -7 293.07 20.5
2 1 -7 272.57 17.4
-2 -1 7 272.77 17.7
1 1 -7 345.57 16.5
-1 -1 7 356.06 17.7
0 1 -7 447.96 14.8
0 -1 7 412.76 15.5
-1 1 -7 335.97 17.4
-1 1 -7 334.27 9
1 -1 7 337.77 10.2
-2 1 -7 274.77 16.3
2 -1 7 273.27 7.3
-3 1 -7 273.97 17.9
3 -1 7 284.57 9.9
-4 1 -7 30.5 7.2
4 -1 7 38 6.9
4 -1 7 29.8 5
5 -1 7 74.49 8.9
6 -1 7 24.9 7
7 -1 7 5.5 5.7
7 0 -7 7.3 8.6
6 0 -7 64.29 16.1
6 0 -7 34 5
4 0 -7 2.1 4.3
3 0 -7 173.18 16.3
2 0 -7 671.53 34
1 0 -7 152.78 11.4
0 0 -7 0.2 1.5
0 0 -7 3.9 3
-2 0 -7 634.94 25.8
2 0 7 658.83 30.5
-3 0 -7 137.19 13
3 0 7 155.98 13.6
3 0 7 149.59 6.6
4 0 7 4.4 2.6
4 0 7 -0.6 3.4
5 0 7 2.5 4.6
5 0 7 2.3 3.5
6 0 7 40.4 8.3
7 0 7 -6.8 5.3
6 -1 -7 29.9 10.7
5 -1 -7 57.89 14.3
4 -1 -7 24.5 8.3
3 -1 -7 277.77 9.3
3 -1 -7 309.67 22
2 -1 -7 267.47 10.6
1 -1 -7 336.57 13.9
0 -1 -7 454.15 18
0 1 7 435.66 17.5
-1 -1 -7 359.96 8.6
-1 -1 -7 330.07 20.2
1 1 7 345.57 17.5
2 1 7 311.87 18.1
3 1 7 298.47 19.4
3 1 7 298.57 8.9
4 1 7 32.9 5
4 1 7 25.4 8.1
5 1 7 62.39 7.1
5 1 7 54.49 11.5
6 1 7 18.2 5.3
6 1 7 14.2 7.9
7 1 7 16.6 8.5
7 1 7 9.9 6
7 -2 -7 17.2 10.7
6 -2 -7 12.5 8.6
5 -2 -7 36.9 12.9
-1 2 7 6.5 2.8
0 2 7 183.38 11.8
-1 -2 -7 6.5 2.2
1 2 7 4.8 3.3
-2 -2 -7 204.48 8.6
2 2 7 199.28 15.2
2 2 7 204.58 8
-3 -2 -7 71.39 6.6
3 2 7 73.79 12.4
3 2 7 69.29 5.3
4 2 7 40.1 9.8
4 2 7 42.5 4.9
5 2 7 36.6 10.2
5 2 7 33.2 8.3
6 2 7 24.2 9.2
6 2 7 10.3 4.5
7 2 7 1.9 7.2
7 2 7 33.7 7.1
6 -3 -7 24 11.1
-1 3 7 422.76 16.7
0 -3 -7 16.1 4.2
0 3 7 18.3 5.1
-1 -3 -7 428.56 14.7
1 3 7 407.76 20.6
-2 -3 -7 140.09 8.5
2 3 7 159.08 14.3
2 3 7 155.48 9
-3 -3 -7 146.79 10.3
3 3 7 156.78 9
3 3 7 154.08 15.6
4 3 7 140.69 9.3
4 3 7 144.29 16.6
5 3 7 12.8 8.8
6 3 7 39.9 11.7
6 3 7 29 6.1
-2 4 7 103.69 7.5
1 -4 -7 165.88 13
-1 4 7 196.48 12
0 -4 -7 309.37 15.5
-1 -4 -7 204.68 11.8
1 4 7 193.08 12.4
2 4 7 104.19 8.8
-3 -4 -7 115.99 10.4
3 4 7 122.69 9.5
3 4 7 120.39 15.1
-4 -4 -7 60.39 10
4 4 7 54.29 12.8
4 4 7 64.79 7.1
-5 -4 -7 27.4 8.2
5 4 7 42.3 7.5
5 4 7 44.6 12.2
6 4 7 33.1 7.2
6 4 7 8.6 8.7
3 -5 -7 67.19 12.5
2 -5 -7 19.9 7.5
-2 5 7 40.2 5.4
1 -5 -7 574.44 25.3
0 -5 -7 540.25 22.5
-1 -5 -7 620.64 22.9
1 5 7 569.24 24.3
-2 -5 -7 31.3 6
2 5 7 42.5 7.9
-3 -5 -7 90.39 9.9
3 5 7 79.29 8.9
-4 -5 -7 38.2 9
4 5 7 46.3 8
4 5 7 25.5 9
-5 -5 -7 -4.2 6.4
5 5 7 5.1 6.1
5 5 7 7.4 4
6 5 7 10.7 8.2
6 5 7 7.7 5.1
-3 6 7 41.7 5.5
2 -6 -7 45.6 9.9
0 -6 -7 -2.2 2.6
-1 -6 -7 94.49 9.6
1 6 7 79.69 12.2
-2 -6 -7 54.09 9
2 6 7 60.99 10.2
-3 -6 -7 49.99 9
3 6 7 43.5 8.3
-4 -6 -7 51.49 10.3
4 6 7 44.5 8.9
-5 -6 -7 2.2 8.3
5 6 7 12.9 8.3
5 6 7 2.5 4.7
-3 7 7 48.9 6.7
1 -7 -7 39.4 9.6
0 -7 -7 -1.4 3.8
-1 -7 -7 26.8 6.7
1 7 7 47 11.2
-2 -7 -7 43.4 9.4
2 7 7 49.1 10.7
-3 -7 -7 53.19 10.6
3 7 7 57.69 11
-4 -7 -7 -10.8 6.4
4 7 7 5.5 4.4
5 7 7 -2.1 10.8
5 7 7 7.4 6.2
1 8 7 29.3 11.7
2 8 7 6.1 7.9
3 8 7 4.3 4.3
4 8 7 20.9 8.5
1 9 7 15 8.9
2 9 7 14.6 8.9
3 9 7 5 6.1
1 10 7 17.4 10.1
2 10 7 6.9 6.8
2 10 -8 19.3 6.3
1 10 -8 24.6 15.1
0 10 -8 31.4 10.1
-1 10 -8 32 11.4
-2 10 -8 29.7 11.2
2 9 -8 -1.5 5.3
1 9 -8 -2.2 5.6
0 9 -8 -5.3 3.7
-1 9 -8 3.3 5.5
-2 9 -8 -10.5 5.8
4 8 -8 28.5 9.6
3 8 -8 18 7.6
2 8 -8 74.09 13.9
1 8 -8 125.79 14.9
0 8 -8 135.99 14.9
-1 8 -8 126.89 14.8
-2 8 -8 44.7 12.1
5 7 -8 22.6 9.9
4 7 -8 3.1 5.7
3 7 -8 84.99 14.3
2 7 -8 14.5 6.3
1 7 -8 151.98 15
0 7 -8 30.2 7.9
0 -7 8 27.5 8.5
-1 7 -8 143.39 14.9
1 -7 8 125.49 13.3
-2 7 -8 16.3 6.8
2 -7 8 17.2 5.3
3 -7 8 84.49 19.8
5 6 -8 15.5 8
4 6 -8 47.5 11.1
3 6 -8 97.09 12.8
2 6 -8 35.5 8.5
-2 -6 8 23 8.7
1 6 -8 -1.9 3.1
-1 -6 8 8.1 6
0 6 -8 3.1 3.8
0 -6 8 3.4 4.4
-1 6 -8 -2 2.4
1 -6 8 1.7 3.8
-2 6 -8 30.5 7.4
2 -6 8 27.3 6.8
3 -6 8 96.19 12.9
-4 6 -8 6.7 8.5
4 -6 8 27 8.3
6 5 -8 -4.6 10.9
5 5 -8 30.2 10.2
4 5 -8 4.8 4.7
3 5 -8 12.8 5.2
2 5 -8 6.4 4.3
-2 -5 8 6.2 4.1
1 5 -8 7.9 4.3
-1 -5 8 -5.6 3.1
0 5 -8 44.3 8.1
0 -5 8 51.89 9.4
-1 5 -8 -2.2 2.4
1 -5 8 4.9 3
-2 5 -8 4.9 4.2
2 -5 8 5.6 3.4
3 -5 8 14.8 4.8
-4 5 -8 2.7 5.9
4 -5 8 4.8 4.1
-5 5 -8 42.9 11.4
5 -5 8 74.29 9.1
6 4 -8 0.8 6.5
5 4 -8 15 7.1
4 4 -8 74.69 14
3 4 -8 8.1 5.3
-3 -4 8 13.9 6.1
2 4 -8 24.9 6
-2 -4 8 30.8 8
1 4 -8 10.8 4
-1 -4 8 9.5 4.5
0 4 -8 24.9 5.5
0 -4 8 28.5 6
1 -4 8 15.8 4.4
-2 4 -8 27.7 7.7
2 -4 8 33.1 5.7
-3 4 -8 7.2 5.3
3 -4 8 10.5 3.7
4 -4 8 57.19 7.3
-5 4 -8 10.5 6.7
5 -4 8 6.5 4.6
6 -4 8 -7.2 5.8
6 3 -8 11.8 6.4
5 3 -8 1.6 5.7
4 3 -8 133.69 16.1
3 3 -8 28.4 8
-3 -3 8 28.7 9.7
2 3 -8 63.59 8.8
-2 -3 8 79.49 10.7
1 3 -8 89.79 9
-1 -3 8 98.89 10.2
0 3 -8 47.3 5.8
0 -3 8 52.59 6.7
-1 3 -8 93.79 7.5
1 -3 8 94.79 7.7
-2 3 -8 60.29 6.8
2 -3 8 68.49 6
-3 3 -8 21.2 7
3 -3 8 29.8 5
-4 3 -8 160.58 15.2
4 -3 8 142.59 9.7
-5 3 -8 -6.6 4.6
5 -3 8 3.3 3.3
6 -3 8 1.7 5.5
6 -3 8 30.2 6.9
6 2 -8 25.3 10.2
5 2 -8 82.89 16.5
4 2 -8 68.79 14.1
3 2 -8 87.89 13.8
-3 -2 8 86.69 14.1
2 2 -8 183.18 14.5
-2 -2 8 201.28 16.4
1 2 -8 181.08 12.2
-1 -2 8 155.58 12.3
0 2 -8 141.59 9
0 -2 8 151.68 10.3
-1 2 -8 179.88 8.5
1 -2 8 174.68 9.1
-2 2 -8 223.98 16
2 -2 8 190.78 8.4
-3 2 -8 99.89 11.3
3 -2 8 105.09 6.3
-4 2 -8 88.09 11.2
4 -2 8 61.59 6
5 -2 8 44.3 10.1
5 -2 8 57.59 8
6 -2 8 20.5 6.8
6 -2 8 -2.1 5.1
6 1 -8 1.1 5.3
5 1 -8 173.78 20.2
4 1 -8 97.29 17
3 1 -8 312.47 21.6
2 1 -8 94.29 10.6
1 1 -8 81.19 8.4
-1 -1 8 85.39 9.1
0 1 -8 5.3 2.5
0 -1 8 7.2 3.1
-1 1 -8 86.19 9.3
-1 1 -8 85.09 4.6
1 -1 8 83.79 5.5
-2 1 -8 99.89 10.4
2 -1 8 89.09 3.8
-3 1 -8 302.27 19.3
3 -1 8 289.87 10.5
3 -1 8 280.47 8.4
-4 1 -8 76.39 12.5
4 -1 8 80.99 7.2
4 -1 8 85.39 6.3
5 -1 8 204.58 13.3
6 -1 8 6.5 5.3
6 -1 8 11 4
7 0 -8 14.4 10.4
6 0 -8 38.5 12
5 0 -8 37 11.9
4 0 -8 34.5 10.9
3 0 -8 27.9 8.3
2 0 -8 443.16 23.9
1 0 -8 1732.53 43.1
0 0 -8 1072.99 30.9
0 0 -8 1079.39 26.3
-1 0 -8 1751.42 24.5
-1 0 -8 1724.43 43.6
-2 0 -8 448.76 22.5
2 0 8 457.75 22.5
-3 0 -8 30.1 8.2
3 0 8 26.7 7
4 0 8 40.4 9.4
4 0 8 41.3 4.5
5 0 8 43.9 10.9
5 0 8 47.4 6.2
6 0 8 23.3 6.4
7 0 8 29.8 7.4
6 -1 -8 -2.6 6.4
5 -1 -8 208.38 22.8
4 -1 -8 103.59 17.6
3 -1 -8 288.77 21.8
3 -1 -8 298.17 10.9
2 -1 -8 107.79 7.3
1 -1 -8 95.19 8
0 -1 -8 8.1 3.4
0 1 8 5 3.2
-1 -1 -8 81.29 4.3
-1 -1 -8 86.39 9.3
1 1 8 82.99 9.2
-2 -1 -8 99.19 10.9
2 1 8 100.59 11.1
3 1 8 316.07 20.8
4 1 8 81.39 5.5
4 1 8 90.29 12.2
5 1 8 220.38 11.4
5 1 8 192.68 19
6 1 8 4.2 6
6 1 8 2.1 4
6 -2 -8 10.4 10
5 -2 -8 51.89 14.3
-1 2 8 184.28 11.1
0 2 8 150.18 11.4
-1 -2 -8 191.78 8.3
1 2 8 181.08 13.7
-2 -2 -8 195.28 7.8
2 2 8 209.58 15.8
3 2 8 97.89 12
3 2 8 90.19 5.3
4 2 8 52.09 11.2
4 2 8 60.69 5.3
5 2 8 47.2 5.7
5 2 8 53.99 13.3
6 2 8 9.9 4.3
6 2 8 18.9 9.3
6 -3 -8 29.2 11.5
-1 3 8 91.79 8.3
0 -3 -8 57.39 6.3
0 3 8 48.9 6.7
-1 -3 -8 88.09 6.8
1 3 8 89.99 10.2
-2 -3 -8 60.49 5.7
2 3 8 56.19 11
2 3 8 60.69 5.8
-3 -3 -8 37.4 6.1
3 3 8 41.5 10.1
3 3 8 40.2 4.8
-4 -3 -8 148.49 11.7
4 3 8 146.39 9
4 3 8 172.18 18.5
5 3 8 5.2 5.6
6 3 8 19.7 8.7
6 3 8 12.2 4.2
6 -4 -8 -3.7 6.8
-2 4 8 44.4 5.5
1 -4 -8 19.5 5.8
-1 4 8 12.3 4.3
0 -4 -8 20.6 5.4
0 4 8 25.8 6.5
-1 -4 -8 4.5 3
1 4 8 11.7 4.5
-2 -4 -8 36.8 7.2
2 4 8 51.09 6.4
2 4 8 39.6 9.3
-3 -4 -8 11.8 4.8
3 4 8 11.6 4
3 4 8 9.5 6
-4 -4 -8 79.19 9.8
5 4 8 4.2 3.5
5 4 8 13.2 7.8
6 4 8 12.9 7.8
6 4 8 7 4.1
2 -5 -8 4.7 5.1
-2 5 8 4.6 2.7
1 -5 -8 2.1 3.2
-1 5 8 9.3 4.2
0 -5 -8 39.3 7.2
-1 -5 -8 4.4 3.4
-2 -5 -8 5.6 2.7
2 5 8 1.5 3.5
-3 -5 -8 11.7 4.6
3 5 8 -0.5 3.9
3 5 8 16.9 5.2
-4 -5 -8 6.4 4.9
4 5 8 0.6 3.3
4 5 8 8.4 5.9
-5 -5 -8 44.3 10.8
5 5 8 52.09 9
5 5 8 49 12.9
6 5 8 -3.5 7.4
6 5 8 5.8 4.6
-3 6 8 112.59 8
2 -6 -8 30.1 9.2
-2 6 8 25.5 5.7
1 -6 -8 -4.3 4
0 -6 -8 -1 3.7
-1 -6 -8 2.8 2.9
1 6 8 6.4 4.5
-2 -6 -8 19 5.5
2 6 8 26.1 7.1
-3 -6 -8 103.39 11.4
3 6 8 81.39 10.7
-4 -6 -8 20.2 7.5
4 6 8 49.1 9.5
4 6 8 32.1 11.5
-5 -6 -8 4.8 8
5 6 8 4.4 6.5
5 6 8 11.2 4.5
-3 7 8 87.59 8.4
0 -7 -8 43.6 8.7
-1 -7 -8 143.79 13.1
1 7 8 136.29 15.2
-2 -7 -8 3.1 4.4
2 7 8 6.9 5.4
-3 -7 -8 107.69 13
3 7 8 95.99 11.8
-4 -7 -8 -5.5 7
4 7 8 4 5
5 7 8 15.4 9.5
-3 8 8 23 7.6
2 8 8 59.29 14.4
3 8 8 24.2 8.5
4 8 8 19.5 8.1
-3 9 8 45.1 8.7
2 9 8 -14.9 5.7
3 9 8 33 10
2 10 8 6.3 8.5
1 10 -9 2.6 6.2
0 10 -9 12.4 7.4
-1 10 -9 17.1 8.3
3 9 -9 1.9 6.3
2 9 -9 7.2 4.6
1 9 -9 27.7 8.6
0 9 -9 6.4 6
-1 9 -9 12.8 8.2
-2 9 -9 4.2 7.2
4 8 -9 24.5 7.9
3 8 -9 3.7 5.3
2 8 -9 -3.3 4.3
1 8 -9 27.4 8.3
0 8 -9 -0.9 5.1
-1 8 -9 35.4 9.3
-2 8 -9 12.5 7.2
5 7 -9 -9.1 4.7
4 7 -9 16.4 8.4
3 7 -9 43.5 10.4
2 7 -9 17.7 7.2
0 7 -9 -1.2 4.2
-1 7 -9 81.99 11
1 -7 9 79.69 12.4
-2 7 -9 29 8
2 -7 9 38.3 7.3
3 -7 9 54.49 15.5
5 6 -9 18.6 8.4
4 6 -9 1.6 4.4
3 6 -9 26.2 8.4
2 6 -9 101.19 12
1 6 -9 2.7 3.8
-1 -6 9 3.3 5.5
0 6 -9 3.9 3.8
-1 6 -9 6.2 3.8
1 -6 9 13.1 5.5
-2 6 -9 91.09 11.3
2 -6 9 86.39 10.1
3 -6 9 39.1 7
4 -6 9 1.1 4.8
6 5 -9 13.1 7.5
5 5 -9 21.4 7.6
4 5 -9 25.6 8.2
3 5 -9 57.79 12.4
2 5 -9 32.6 8
-2 -5 9 29.9 8.2
1 5 -9 52.69 9.6
-1 -5 9 31.5 8.2
0 5 -9 273.07 16.7
0 -5 9 321.67 19.3
-1 5 -9 41.2 7.8
1 -5 9 39.8 8
-2 5 -9 27 7.1
2 -5 9 25.6 6
3 -5 9 63.09 7.8
-4 5 -9 15.3 7.2
4 -5 9 13.5 5.2
6 -5 9 29.1 7.6
6 4 -9 -3.7 5.1
5 4 -9 78.59 15.3
4 4 -9 80.89 14.8
3 4 -9 355.56 23.3
-3 -4 9 340.67 25.7
2 4 -9 111.19 11.8
-2 -4 9 100.89 12.9
1 4 -9 53.69 8.9
-1 -4 9 48.2 9.4
0 4 -9 172.68 11.9
0 -4 9 164.38 12.7
-1 4 -9 48.6 7.7
1 -4 9 45.6 7.3
-2 4 -9 103.19 12
2 -4 9 88.19 7.9
-3 4 -9 355.06 35.2
3 -4 9 352.16 15.7
-4 4 -9 114.39 13.1
4 -4 9 99.09 8.7
5 -4 9 46.3 7.4
6 -4 9 29 8.7
6 3 -9 16.3 8.4
5 3 -9 47.2 12.8
4 3 -9 134.49 27.4
3 3 -9 253.27 19.7
-3 -3 9 221.58 20.3
2 3 -9 111.69 11.5
-2 -3 9 127.19 13
1 3 -9 542.25 22.4
-1 -3 9 522.35 24.8
0 3 -9 117.19 8.9
0 -3 9 106.59 10
-1 3 -9 549.85 18.6
1 -3 9 553.14 19.8
-2 3 -9 102.09 8.4
2 -3 9 107.49 7.6
-3 3 -9 278.87 19.9
3 -3 9 256.47 11.7
-4 3 -9 151.98 15.5
4 -3 9 143.89 10.3
-5 3 -9 62.19 12
5 -3 9 51.99 7.5
6 -3 9 32.8 6.5
6 -3 9 18.2 7.7
6 2 -9 2.2 7.2
5 2 -9 -8.3 4.8
4 2 -9 -0.1 4.3
3 2 -9 27.7 8.2
-3 -2 9 11.4 6.5
2 2 -9 115.89 11.8
-2 -2 9 104.29 12.3
-1 -2 9 647.44 26.9
0 2 -9 67.59 6.6
0 -2 9 72.69 7.5
-1 2 -9 656.53 17.5
1 -2 9 664.93 19.7
-2 2 -9 113.29 12.2
2 -2 9 119.19 6.6
-3 2 -9 21.4 6.7
3 -2 9 13.1 2.7
4 -2 9 1.9 2.2
-5 2 -9 5.4 5.7
5 -2 9 2.8 3.6
6 -2 9 15.5 4.8
6 -2 9 4.9 5.3
6 1 -9 22.2 9.1
5 1 -9 1.6 7.6
4 1 -9 30 9.5
3 1 -9 17.3 7.1
2 1 -9 182.88 15.1
1 1 -9 108.49 9.8
-1 -1 9 133.19 11.4
0 1 -9 1.3 1.9
0 -1 9 1.4 2.3
-1 1 -9 135.29 6.1
-1 1 -9 126.59 11.6
1 -1 9 120.79 7.2
-2 1 -9 206.78 15.8
-3 1 -9 27.2 7.6
4 -1 9 30.4 3.5
4 -1 9 34.6 4.2
5 -1 9 23.4 4.4
5 -1 9 16.1 4.5
6 -1 9 24.7 5.5
6 0 -9 86.59 18.8
5 0 -9 4.3 6.7
4 0 -9 6.7 5.9
3 0 -9 236.78 20
2 0 -9 648.14 29.7
1 0 -9 33.3 7.4
0 0 -9 4.1 2.2
0 0 -9 -1 1.9
-1 0 -9 23.8 2.5
-1 0 -9 27.1 7.1
-2 0 -9 586.14 26.6
-3 0 -9 267.67 19.2
3 0 9 243.08 18.3
4 0 9 9.9 5.7
5 0 9 9.5 3.2
5 0 9 12.5 3.4
6 0 9 80.29 8.2
6 -1 -9 128.39 24.9
5 -1 -9 9.1 9.8
4 -1 -9 26.1 3.4
4 -1 -9 26 9.8
3 -1 -9 21.9 8.4
3 -1 -9 18.3 3.5
2 -1 -9 190.08 10.8
2 -1 -9 177.78 15.8
1 -1 -9 127.19 9.8
0 -1 -9 0.9 2.9
-1 -1 -9 130.69 6.7
-1 -1 -9 127.89 11.7
-1 -1 -9 136.29 6
1 1 9 117.69 11.2
-2 -1 -9 187.28 15.4
2 1 9 202.38 15.8
3 1 9 13.7 7.2
4 1 9 32.8 9.6
4 1 9 39.6 3
5 1 9 21.5 3.8
5 1 9 12.6 7.7
6 1 9 21.6 10.2
6 1 9 24.1 4.8
6 -2 -9 16.4 10.6
5 -2 -9 11.3 7.1
4 -2 -9 9.3 6.3
1 -2 -9 634.74 22.6
0 -2 -9 59.09 7.6
0 2 9 54.29 7.5
-1 -2 -9 676.53 17.1
1 2 9 683.53 28
-2 -2 -9 118.79 5.6
2 2 9 119.69 12.6
3 2 9 23.7 7.6
3 2 9 15.6 2.6
4 2 9 8.8 2.6
4 2 9 8.5 5.2
5 2 9 4 2.3
5 2 9 8.5 6.8
6 2 9 8.9 7.1
6 2 9 9.3 6.4
6 -3 -9 35.4 14.3
5 -3 -9 42.4 13
-1 3 9 525.75 20.6
0 3 9 110.69 10.6
-1 -3 -9 559.14 17.6
1 3 9 545.15 25.6
-2 -3 -9 112.49 7.3
2 3 9 117.69 13.1
-3 -3 -9 251.87 12.3
3 3 9 251.47 10.8
3 3 9 258.67 20.8
4 3 9 154.18 9
4 3 9 139.79 16.6
5 3 9 42.8 5.7
5 3 9 56.49 13.4
6 3 9 15.2 10.1
6 3 9 26.5 5.4
6 -4 -9 -8.8 9.6
-2 4 9 103.19 8.3
1 -4 -9 45.7 8.6
-1 4 9 34.4 6.8
0 -4 -9 147.49 11.5
0 4 9 156.58 12.9
-1 -4 -9 53.39 6.3
1 4 9 62.09 11
-2 -4 -9 102.99 8.2
2 4 9 87.19 11.8
2 4 9 113.79 9.2
-3 -4 -9 351.36 18
3 4 9 355.76 15.6
3 4 9 395.46 27.3
-4 -4 -9 109.89 11
4 4 9 107.39 8.8
4 4 9 99.29 19
5 4 9 77.19 7.7
5 4 9 56.69 14.3
6 4 9 0 6
6 4 9 3.2 4
2 -5 -9 14.6 7.5
-2 5 9 16.5 4.9
1 -5 -9 36.4 7.8
-1 5 9 35.7 7.7
0 -5 -9 274.87 16.3
0 5 9 254.77 17.9
-1 -5 -9 43.7 7.3
1 5 9 36.4 9.4
-2 -5 -9 27.3 5.9
2 5 9 25.9 6.7
2 5 9 34.3 9.4
-3 -5 -9 51.59 8.1
3 5 9 62.59 9.5
-4 -5 -9 14.3 6.1
4 5 9 12.3 6.6
4 5 9 18.4 5.2
-5 -5 -9 28.9 8.9
5 5 9 7.3 6.7
5 5 9 20.3 5.9
6 5 9 15.8 6.1
-3 6 9 20.4 4
1 -6 -9 3.9 4.3
-1 6 9 10.8 5.2
0 -6 -9 20.9 6
-1 -6 -9 0 3.1
-2 -6 -9 71.99 9
2 6 9 97.29 11.2
-3 -6 -9 23.7 6.5
3 6 9 22.5 8.9
3 6 9 31 7
-4 -6 -9 -5.8 5
4 6 9 3 4.4
4 6 9 3.1 6.5
5 6 9 29 10.6
5 6 9 36 7.1
-3 7 9 64.79 7.6
-2 7 9 22.3 6.2
0 -7 -9 3.7 4.4
-1 -7 -9 71.89 11.1
-2 -7 -9 38.1 7.2
2 7 9 27.8 8.5
-3 -7 -9 45.2 10.7
3 7 9 49.99 10.7
-4 -7 -9 13 8
4 7 9 15.1 10.1
4 7 9 30.8 8.2
5 7 9 6.6 6
5 7 9 -19.3 7.2
-3 8 9 5.1 5.4
-2 8 9 7.3 5.1
3 8 9 -1.9 7.2
4 8 9 28.7 7.6
4 8 9 2.2 7
-3 9 9 -2.8 5
2 9 9 -10 5.8
3 9 9 12.8 7.4
3 9 -10 32.8 10
2 9 -10 4.8 6.3
1 9 -10 -0.8 5
0 9 -10 9 6.3
-1 9 -10 -7.6 4.8
-2 9 -10 9.6 8.6
4 8 -10 -2.8 4.6
3 8 -10 24.4 7.9
2 8 -10 17.4 7.1
1 8 -10 40.5 9.9
0 8 -10 -1 5.2
-1 8 -10 33.8 9.4
-2 8 -10 26 8.4
4 7 -10 2.9 5.8
3 7 -10 19.7 7.7
2 7 -10 35.7 9.1
1 7 -10 61.89 12
0 7 -10 121.29 13.3
-1 7 -10 61.49 10.7
1 -7 10 42.1 9.8
-2 7 -10 46.6 10.2
2 -7 10 21.3 7.8
4 6 -10 1.9 4.5
3 6 -10 153.58 15.7
1 6 -10 22.7 7
-1 -6 10 8.6 6.9
0 6 -10 7.1 4.4
0 -6 10 10.3 5.8
-1 6 -10 22.5 6
1 -6 10 18.3 6.3
-2 6 -10 14.9 6.3
2 -6 10 2.5 4.3
3 -6 10 126.59 12.4
4 -6 10 14.4 5.2
5 -6 10 41.5 9.2
5 5 -10 30.1 8.9
4 5 -10 -4.7 4.5
3 5 -10 32.1 8.7
2 5 -10 65.59 11.4
-2 -5 10 62.99 12.9
1 5 -10 15.9 5.7
-1 -5 10 17.5 6.8
0 5 -10 12.2 4.7
0 -5 10 15.2 5.2
-1 5 -10 30 6.5
1 -5 10 18.1 6
-2 5 -10 69.59 10.8
2 -5 10 66.59 8.2
3 -5 10 21.5 5.6
4 -5 10 -1.1 3.8
5 -5 10 40.7 8.4
6 4 -10 33 10.9
5 4 -10 13.8 7.8
4 4 -10 25.6 8.9
3 4 -10 105.19 13.1
-3 -4 10 96.99 19.4
2 4 -10 136.69 13.5
1 4 -10 20.1 6.1
-1 -4 10 7.3 5.8
0 4 -10 70.69 7.8
0 -4 10 76.69 8.9
-1 4 -10 19 5.2
1 -4 10 15.6 5.1
-2 4 -10 99.99 17.7
2 -4 10 102.79 9
-3 4 -10 95.89 13.1
3 -4 10 85.99 7.7
-4 4 -10 27.1 9.5
4 -4 10 15.2 4.4
5 -4 10 2.6 3.9
6 -4 10 17.7 5.4
6 -4 10 33.6 9.3
6 3 -10 18 9.5
5 3 -10 13.4 7.2
4 3 -10 16.3 8.8
3 3 -10 48.3 11
-3 -3 10 39.1 10.2
2 3 -10 68.69 9.4
-2 -3 10 64.09 12.8
1 3 -10 5.7 3.5
-1 -3 10 14.6 4.5
0 3 -10 144.79 12.4
0 -3 10 146.79 11.7
-1 3 -10 3 2.6
1 -3 10 -3.5 2.4
-2 3 -10 65.09 6.6
-2 3 -10 56.59 10.8
2 -3 10 59.79 5.8
-3 3 -10 23.5 11.7
3 -3 10 35.8 4.9
-4 3 -10 23.6 7.5
5 -3 10 2 3.2
6 -3 10 9.9 5.2
6 -3 10 9.9 6.8
6 2 -10 7 7.9
5 2 -10 137.39 18.3
4 2 -10 75.69 15.4
3 2 -10 329.17 23.1
2 2 -10 17.8 5.9
-2 -2 10 7.2 5.1
1 2 -10 26.6 6.3
-1 -2 10 30.8 7.6
0 2 -10 -0.2 2
0 -2 10 -3.7 2.1
-1 2 -10 23.9 4.2
1 -2 10 26.1 4.9
-2 2 -10 31.3 7.6
2 -2 10 16.9 3.5
-3 2 -10 350.56 22.9
3 -2 10 329.07 10.4
-4 2 -10 89.69 12.3
4 -2 10 89.39 5.8
5 -2 10 112.69 9.4
5 -2 10 134.59 8.1
6 -2 10 5.7 3.8
6 -2 10 -9.5 4.1
6 1 -10 5.1 6.7
5 1 -10 80.79 16.2
4 1 -10 46.6 11.8
3 1 -10 6.7 5.1
2 1 -10 153.08 14.1
1 1 -10 108.79 10.1
0 1 -10 80.49 7.1
0 -1 10 84.49 8.1
-1 1 -10 95.79 10.9
-1 1 -10 96.79 5.5
-2 1 -10 142.19 13.7
-3 1 -10 -3.9 3.2
-4 1 -10 81.49 14.3
5 -1 10 52.29 4.8
5 -1 10 52.29 5.1
6 -1 10 2.9 3.4
6 -1 10 4.2 3.5
6 0 -10 -0.6 6
5 0 -10 8.6 6.6
4 0 -10 19.1 7.3
3 0 -10 -2.2 4.3
2 0 -10 15.6 5.9
1 0 -10 597.34 25.1
1 0 -10 584.74 23.3
0 0 -10 0.3 1.7
0 0 -10 1 1.5
-1 0 -10 588.44 13.3
-1 0 -10 578.64 26.1
-2 0 -10 13.6 5.7
-3 0 -10 3.5 4.6
6 0 10 -2.9 2.8
6 0 10 4.8 2.6
6 -1 -10 6.9 7.2
5 -1 -10 56.69 15.5
4 -1 -10 77.19 16.1
4 -1 -10 61.39 5.1
3 -1 -10 1 2.1
3 -1 -10 8.1 5
2 -1 -10 142.59 10
2 -1 -10 119.29 13.8
1 -1 -10 93.09 9
1 -1 -10 91.69 10.1
0 -1 -10 75.59 7.8
0 -1 -10 90.69 9.6
-1 -1 -10 99.09 5.4
-1 -1 -10 101.99 10.8
-1 -1 -10 98.79 6.1
1 1 10 96.39 10.7
-2 -1 -10 135.99 13.4
2 1 10 137.39 13.6
3 1 10 2.5 4
4 1 10 60.19 13.7
5 1 10 67.99 14.5
6 1 10 6.7 2.8
6 1 10 12.1 8.1
6 -2 -10 -12 5.6
5 -2 -10 116.99 21.5
4 -2 -10 103.49 19.3
2 -2 -10 15.9 4.2
1 -2 -10 24.1 6.1
0 -2 -10 0.5 2.7
0 2 10 1.2 2.8
-1 -2 -10 31.2 4.5
1 2 10 16 5.9
-2 -2 -10 21 2.4
2 2 10 18.9 6.6
3 2 10 345.17 23.6
4 2 10 96.29 16.4
5 2 10 143.49 17.3
6 2 10 -7.5 5.6
6 2 10 4.7 2.7
6 -3 -10 20.2 11.5
5 -3 -10 10.8 7.6
-1 3 10 10.6 4.2
0 -3 -10 131.09 10.2
0 3 10 143.49 12.5
-1 -3 -10 10.8 3.4
1 3 10 15.6 6.1
-2 -3 -10 54.49 5.1
2 3 10 55.29 10.3
-3 -3 -10 41.3 5
3 3 10 41.6 11.1
4 3 10 31.4 11.3
4 3 10 24.8 4.4
5 3 10 8 5.8
6 3 10 10.9 3.7
6 3 10 22.2 9.5
6 -4 -10 21.4 9.4
-2 4 10 104.69 9.1
1 -4 -10 11.6 5.2
-1 4 10 32.1 8
0 -4 -10 77.89 8.3
0 4 10 70.79 9.1
-1 -4 -10 18.3 4.8
1 4 10 17.6 6.9
-2 -4 -10 108.29 8.3
2 4 10 115.59 14.6
-3 -4 -10 76.89 8
3 4 10 72.49 7.4
3 4 10 82.09 16.4
-4 -4 -10 40.7 9.8
4 4 10 31.2 10.2
4 4 10 31.1 5.8
5 4 10 10.3 7
5 4 10 14.6 5.2
6 4 10 11.3 10.4
6 4 10 7.8 4.9
2 -5 -10 75.09 12.6
-2 5 10 77.49 8.6
1 -5 -10 17 6.3
-1 5 10 19.5 6
0 -5 -10 20 6.2
0 5 10 16.1 5.4
-1 -5 -10 21.3 5.7
1 5 10 19.3 6.6
-2 -5 -10 61.59 7.7
2 5 10 62.59 13.9
-3 -5 -10 20.9 5.5
3 5 10 18.8 9
3 5 10 47.8 8.4
-4 -5 -10 -0.1 4.7
4 5 10 7.5 6.3
4 5 10 -5 2.8
-5 -5 -10 45.8 11.1
5 5 10 61.69 9
5 5 10 24.7 11.9
-2 6 10 7.7 4
1 -6 -10 22.1 6.2
-1 6 10 23.2 6.7
0 -6 -10 9.8 4.7
0 6 10 -5.3 3
-1 -6 -10 16.1 5.4
1 6 10 11.3 5.8
-2 -6 -10 2.6 3.6
2 6 10 13.2 10.9
-3 -6 -10 137.49 13.4
3 6 10 139.39 19.1
3 6 10 163.08 13.7
-4 -6 -10 -11.5 4.7
4 6 10 5.6 4.3
4 6 10 2 5.6
-5 -6 -10 46.7 13.1
5 6 10 51.09 9.5
5 6 10 35.9 16.4
-3 7 10 21.7 5.1
-2 7 10 29.8 7.3
-1 7 10 46.9 9.6
0 -7 -10 127.89 13.4
0 7 10 91.09 15.3
-1 -7 -10 58.79 10.3
-2 -7 -10 44.3 8.3
2 7 10 34.1 10.6
-3 -7 -10 21 7.9
3 7 10 31.2 8.8
3 7 10 20.5 8.7
-4 -7 -10 23.6 8.2
4 7 10 8.3 5.7
4 7 10 16.5 8.2
-3 8 10 14 8
-2 8 10 21.4 6.7
-1 8 10 10.7 6.3
3 8 10 25.6 9.7
3 8 10 19.2 12.4
4 8 10 10.7 6
-2 9 10 2.9 7.1
-1 9 10 11.4 8.5
1 9 -11 -5.7 5.1
0 9 -11 9.8 6.8
-1 9 -11 -3.3 5.8
-2 9 -11 20.1 10.1
3 8 -11 20.5 7.7
2 8 -11 22.9 8.1
1 8 -11 17.9 6.8
0 8 -11 5.1 5
-1 8 -11 15.8 8.6
-2 8 -11 0.7 8.3
4 7 -11 -1.3 7.3
3 7 -11 29.2 9.1
2 7 -11 118.29 14.2
1 7 -11 20.7 7
0 7 -11 38 12.7
-1 7 -11 7.7 5.1
-2 7 -11 154.28 15.9
2 -7 11 132.29 14.2
5 6 -11 1.8 7
4 6 -11 0.1 6.3
3 6 -11 54.99 11.7
2 6 -11 45.3 9.7
1 6 -11 31.2 8
-1 -6 11 17.1 9.5
0 6 -11 35.5 7.4
0 -6 11 22.1 7.7
-1 6 -11 41.7 8.2
-2 6 -11 33.8 8.7
2 -6 11 46.9 8.6
3 -6 11 68.29 10
4 -6 11 0.7 5
5 -6 11 15.7 6.1
5 5 -11 6.1 5.2
4 5 -11 11.7 7.5
3 5 -11 0.1 4.3
2 5 -11 150.18 14.7
-2 -5 11 183.18 18.6
1 5 -11 131.99 12.4
-1 -5 11 135.99 14.5
0 5 -11 544.75 24
0 -5 11 531.15 27.1
-1 5 -11 104.49 10.6
1 -5 11 103.99 10.9
-2 5 -11 151.38 13
2 -5 11 158.38 12.4
3 -5 11 1.4 3.3
4 -5 11 14.3 4.4
5 -5 11 0.6 4.4
5 4 -11 27.1 9.8
4 4 -11 47.6 11.8
3 4 -11 14.5 7.2
2 4 -11 327.67 21
-2 -4 11 359.06 25.3
1 4 -11 19.9 5.7
-1 -4 11 8.1 5.5
0 4 -11 93.59 9.1
0 -4 11 80.69 10.1
-1 4 -11 21.8 5.4
1 -4 11 32.8 7
2 -4 11 376.66 17.4
-3 4 -11 17.4 6.3
3 -4 11 17.8 4.8
4 -4 11 33.3 5.7
5 -4 11 31.3 5.7
6 3 -11 13.5 9.7
5 3 -11 10.4 7.1
4 3 -11 9.3 6.6
3 3 -11 125.79 14.6
-3 -3 11 113.19 18.1
2 3 -11 75.79 10.3
-2 -3 11 75.89 13.7
1 3 -11 228.08 15.2
-1 -3 11 269.87 18.7
0 3 -11 168.38 11.4
0 -3 11 145.79 12.3
-1 3 -11 239.08 12.1
-2 3 -11 68.39 7.1
2 -3 11 90.49 7.3
-3 3 -11 123.29 14.5
3 -3 11 107.09 7.7
4 -3 11 13.4 3.3
5 -3 11 22.2 6.1
6 -3 11 19.2 5.3
6 2 -11 -0.1 7.4
5 2 -11 4.4 8.2
4 2 -11 4.5 6.6
3 2 -11 19.1 7.5
2 2 -11 11.8 5.6
-2 -2 11 -2 3.7
1 2 -11 39.5 7.9
-1 -2 11 31.8 7.6
0 2 -11 245.88 13.2
0 -2 11 260.77 18.7
-1 2 -11 26.7 4.4
1 -2 11 41.3 5.3
-2 2 -11 12.4 5.4
2 -2 11 6.4 2.3
-3 2 -11 10.5 6.6
3 -2 11 19.6 2.9
-4 2 -11 0 5.8
4 -2 11 4.5 1.9
5 -2 11 6.8 2.5
5 -2 11 8.1 3
6 -2 11 2.9 3.5
6 -2 11 7.8 3.1
6 1 -11 0.9 5.5
5 1 -11 8.3 6.9
3 1 -11 67.39 12.9
2 1 -11 166.08 14.8
1 1 -11 43 7.9
0 1 -11 116.29 8.9
0 1 -11 128.69 12.6
-1 1 -11 52.29 4.3
-1 1 -11 51.89 10.3
-2 1 -11 153.98 15.1
-3 1 -11 72.19 13
-4 1 -11 50.39 10.4
6 0 -11 -12.9 6.7
4 0 -11 49.8 16.6
3 0 -11 88.29 15
2 0 -11 -1.8 3.9
1 0 -11 500.95 22.5
0 0 -11 0.3 2.1
0 0 -11 3.4 2.7
-1 0 -11 513.45 13.1
-1 0 -11 516.75 25.7
-2 0 -11 18.4 6
-3 0 -11 82.79 14.6
6 -1 -11 -12 6.3
5 -1 -11 15.2 10.9
4 -1 -11 66.79 5.9
3 -1 -11 72.99 7.2
3 -1 -11 68.99 14.5
2 -1 -11 165.28 16.2
1 -1 -11 51.39 9.8
1 -1 -11 53.69 7.3
0 -1 -11 118.29 11.4
0 -1 -11 130.49 10.4
-1 -1 -11 43.4 4.2
-1 -1 -11 48.8 4.7
-1 -1 -11 58.29 11.2
-2 -1 -11 169.48 15.5
2 1 11 198.08 16.6
3 1 11 62.19 13.3
4 1 11 78.39 15.6
5 1 11 11.4 6.9
6 1 11 -12.2 5.1
6 -2 -11 13.4 8.2
5 -2 -11 7.9 7.6
4 -2 -11 -8.1 4.3
3 -2 -11 14.1 6.8
2 -2 -11 6.6 3.8
1 -2 -11 28.4 6.5
0 -2 -11 267.87 17.3
0 2 11 257.37 17.1
-1 -2 -11 30.9 4.1
1 2 11 36.9 8.5
2 2 11 12.5 6.2
3 2 11 14.2 6.4
4 2 11 -4.1 4.4
5 2 11 1.4 6.4
6 2 11 -5 5.8
6 -3 -11 25.3 15.2
5 -3 -11 21.1 8.9
-1 3 11 267.07 16.7
0 -3 -11 165.48 11.6
0 3 11 146.09 12.9
-1 -3 -11 227.68 11.4
1 3 11 239.88 18.2
-2 -3 -11 90.49 6.2
2 3 11 99.89 16.2
-3 -3 -11 120.99 7.3
3 3 11 109.99 15
4 3 11 13.2 7
5 3 11 19.4 3.6
5 3 11 45.6 12.8
6 3 11 17.6 3.8
6 3 11 23.3 10.2
1 -4 -11 37.8 7.9
-1 4 11 20.4 6.1
0 -4 -11 95.69 9.7
0 4 11 92.79 10.7
-1 -4 -11 35.5 6.4
1 4 11 33.2 8.7
-2 -4 -11 367.26 15.1
2 4 11 355.16 24.7
-3 -4 -11 13.7 4.4
-4 -4 -11 37.7 7.3
4 4 11 39.2 11.1
4 4 11 47.1 6.8
5 4 11 35.9 5.7
5 4 11 42.5 13.3
2 -5 -11 159.68 15.8
-2 5 11 124.39 11.5
1 -5 -11 93.69 11
-1 5 11 117.29 11.9
0 -5 -11 485.85 22.6
0 5 11 488.55 25.9
-1 -5 -11 125.59 10.4
1 5 11 113.89 14.1
-2 -5 -11 137.99 10.8
2 5 11 143.79 16.8
-3 -5 -11 -0.7 3.3
3 5 11 2.6 5.4
-4 -5 -11 7.9 4.8
4 5 11 16.1 10.2
4 5 11 9.3 6.6
5 5 11 11.1 5
5 5 11 18 9.5
-2 6 11 30.9 7.1
1 -6 -11 66.59 11.8
-1 6 11 39.1 8.9
0 6 11 32.8 8.3
-1 -6 -11 51.29 9
1 6 11 44.8 10.8
-2 -6 -11 33.5 7.3
2 6 11 31.5 9.9
-3 -6 -11 53.39 9.3
3 6 11 76.19 10.3
3 6 11 63.29 15.7
-4 -6 -11 1.9 6.3
4 6 11 -5.3 5.8
4 6 11 -6.8 3.9
-5 -6 -11 29.6 10.7
5 6 11 28.8 12.7
5 6 11 20.5 6.9
-3 7 11 15.9 5.1
-2 7 11 126.49 12.3
-1 7 11 9.6 5.1
0 -7 -11 32.9 8.6
0 7 11 44.8 10.1
-1 -7 -11 6.2 5.7
1 7 11 15.5 7.6
-2 -7 -11 132.79 13.1
2 7 11 124.89 21.3
-3 -7 -11 11.4 6.9
3 7 11 23.8 9.4
3 7 11 31.6 9.1
-4 -7 -11 5.5 8
4 7 11 27.2 11.7
4 7 11 17.7 6.4
-3 8 11 6.6 7.3
-2 8 11 28.1 8
-1 8 11 10.6 5.3
0 8 11 9 6.6
1 8 11 15.6 8
2 8 11 6.8 7.7
3 8 11 19.8 9.5
-2 9 11 17.7 7.3
-1 9 11 -0.9 6.6
0 9 11 -2.7 5.4
1 9 11 0.5 7.2
2 9 11 10.6 8.3
2 9 -12 -5.2 5.4
1 9 -12 -8.5 5.6
0 9 -12 -0.1 6.5
-1 9 -12 0.6 6.5
-2 9 -12 -14.5 7.5
2 8 -12 39.1 10.3
1 8 -12 22.3 8.2
-1 8 -12 24.9 8.8
-2 8 -12 38.6 11.1
4 7 -12 10 7.9
3 7 -12 6.1 5.6
2 7 -12 20.5 7.7
1 7 -12 64.89 11.6
0 7 -12 13.3 5.5
-1 7 -12 97.49 11.9
-2 7 -12 44.7 10.4
4 6 -12 57.59 12
3 6 -12 5.1 5
2 6 -12 7.3 3.9
1 6 -12 16.3 6.3
0 6 -12 -4.5 3.3
0 -6 12 11 6.1
-1 6 -12 7.8 5.4
1 -6 12 26.5 7.2
-2 6 -12 1.9 4.6
2 -6 12 2.5 4.8
3 -6 12 2.6 5.6
5 5 -12 3.6 9.3
4 5 -12 6.1 6.1
3 5 -12 -1.5 4.5
2 5 -12 33.7 8.3
1 5 -12 60.49 10.2
-1 -5 12 55.69 11.3
0 5 -12 9.9 4.1
0 -5 12 4.8 5.5
-1 5 -12 74.89 9.3
1 -5 12 80.29 9.9
-2 5 -12 51.99 9.6
2 -5 12 39.5 8.5
3 -5 12 -5 3.4
4 -5 12 11.9 5
5 -5 12 -4.1 4.9
5 4 -12 15 8.3
4 4 -12 10.5 5.7
3 4 -12 25.2 8.5
2 4 -12 83.99 10.8
-2 -4 12 81.69 14.9
1 4 -12 2.2 3.4
-1 -4 12 -9.7 4.2
0 4 -12 142.39 11.6
0 -4 12 143.09 13.6
-1 4 -12 -0.3 2.8
1 -4 12 3 3.9
2 -4 12 68.79 8.1
3 -4 12 35.1 6.2
4 -4 12 4.5 3.7
5 -4 12 11.6 4.3
6 3 -12 -0.9 6.6
5 3 -12 9.6 6.4
4 3 -12 -10.8 4.5
3 3 -12 79.29 13.9
2 3 -12 3.8 4.1
1 3 -12 169.58 13.4
-1 -3 12 159.98 15.4
0 3 -12 3.6 2.6
-1 3 -12 161.68 10.3
1 -3 12 179.98 12.5
-2 3 -12 10.4 3.6
-2 3 -12 12.4 5.7
2 -3 12 3.2 2.9
-3 3 -12 76.19 17.6
3 -3 12 69.49 6.2
4 -3 12 1.2 2.7
5 -3 12 6.9 3
5 -3 12 2.9 3.8
6 -3 12 2.8 3.7
6 2 -12 -7.5 5.8
5 2 -12 30.1 11.8
4 2 -12 10.7 7.4
3 2 -12 19.9 8.6
2 2 -12 -1.8 2.9
-2 -2 12 -3.8 3.3
1 2 -12 131.99 11.6
-1 -2 12 117.39 12.7
0 2 -12 54.59 6.6
0 -2 12 54.99 9.7
-1 2 -12 120.69 7.6
-1 2 -12 115.69 13.5
1 -2 12 120.39 9.3
-2 2 -12 -7.2 3.3
2 -2 12 5.4 2.2
-3 2 -12 30.7 8.8
5 1 -12 151.68 19.7
4 1 -12 99.49 18.1
3 1 -12 503.25 30.1
2 1 -12 127.39 13.4
1 1 -12 172.48 13.4
0 1 -12 2.5 3.5
0 1 -12 0.3 2
-1 1 -12 201.68 16.7
-1 1 -12 192.18 8.5
-3 1 -12 497.85 29.5
5 0 -12 32.6 11.6
3 0 -12 296.37 23.7
2 0 -12 323.17 22
2 0 -12 298.97 17.4
1 0 -12 36.2 7.8
1 0 -12 25.1 6.7
0 0 -12 485.45 24.7
0 0 -12 502.55 19.7
-1 0 -12 23.9 6.8
-1 0 -12 28.8 3.4
-2 0 -12 304.87 23.6
-3 0 -12 299.67 22.3
5 -1 -12 153.98 20.7
4 -1 -12 117.59 8.2
4 -1 -12 116.59 20.2
3 -1 -12 547.35 34
3 -1 -12 482.35 22.5
2 -1 -12 109.29 13.5
2 -1 -12 117.79 10.7
1 -1 -12 199.48 14.6
1 -1 -12 218.18 16.6
0 -1 -12 3.2 2.4
0 -1 -12 -0.7 3.1
-1 -1 -12 173.48 15.8
-1 -1 -12 184.68 8.6
-1 -1 -12 190.58 9.1
2 1 12 115.89 13.7
3 1 12 500.35 29.6
4 1 12 89.29 16.3
5 1 12 130.69 17.5
6 -2 -12 2.3 7.3
5 -2 -12 41.4 13.4
4 -2 -12 14.4 7
3 -2 -12 35.1 11.3
2 -2 -12 -1.7 2.8
1 -2 -12 130.49 11.6
0 -2 -12 67.99 9.2
-1 -2 -12 131.49 13.6
-1 -2 -12 118.69 7.6
1 2 12 123.79 13.4
2 2 12 -0.8 3.2
3 2 12 33.7 10.4
4 2 12 7.9 6.9
5 2 12 44.9 13.6
6 2 12 -4.8 8.3
6 -3 -12 -7.1 10.5
5 -3 -12 11.8 7.6
0 -3 -12 6.7 3.3
0 3 12 8.4 4
-1 -3 -12 166.08 9.9
1 3 12 190.28 16.7
-2 -3 -12 8.8 2.6
2 3 12 15 6.5
3 3 12 72.39 17.9
4 3 12 -1.3 4.6
5 3 12 -5.8 5.6
1 -4 -12 1.6 3.8
-1 4 12 6.5 4.6
0 -4 -12 123.89 10.9
0 4 12 128.69 13.3
-1 -4 -12 0.7 2.6
1 4 12 3.1 4.2
-2 -4 -12 84.09 7.3
2 4 12 67.19 14.2
-3 -4 -12 40 6.4
3 4 12 45.2 12.6
4 4 12 5.2 7.9
5 4 12 8.7 7.3
2 -5 -12 23.7 10.1
-2 5 12 45 8.2
1 -5 -12 60.69 14.4
-1 5 12 53.29 10
0 -5 -12 3.8 4.2
0 5 12 -4 3.8
-1 -5 -12 52.69 8.2
1 5 12 39.8 9.8
-2 -5 -12 42.2 7.4
2 5 12 39.1 17.3
-3 -5 -12 2.6 3.6
3 5 12 12.5 7.3
-4 -5 -12 9 5.4
4 5 12 15.3 8.4
5 5 12 -6.6 7.5
-2 6 12 3.5 4.1
1 -6 -12 17.2 7.7
-1 6 12 8.9 4.7
0 -6 -12 -6.4 4
0 6 12 7 5.4
-1 -6 -12 6.6 5.1
1 6 12 15.8 7.1
-2 -6 -12 2.9 4.6
2 6 12 8.7 6.7
-3 -6 -12 3.6 4.1
3 6 12 3.3 6.2
-4 -6 -12 57.29 10.6
4 6 12 60.99 15.2
-2 7 12 28.7 7.8
-1 7 12 84.49 11.7
0 7 12 17 7.3
-1 -7 -12 88.19 11.5
1 7 12 58.79 12.7
-2 -7 -12 34.3 8.3
2 7 12 17.5 8.1
3 7 12 12 7.4
4 7 12 -14 5.9
-3 8 12 -4.7 6.2
-2 8 12 30.1 8
-1 8 12 32.1 9.3
0 8 12 9.6 6
1 8 12 41.5 11.1
2 8 12 15.9 8.9
-2 9 12 -3.2 6.6
-1 9 12 -5 6
0 9 12 5.3 7.4
1 9 12 -5.4 7.2
1 9 -13 -2.1 5.3
0 9 -13 7.5 7.7
-1 9 -13 12.9 8
3 8 -13 7.4 7.7
2 8 -13 -8.2 4.5
1 8 -13 10.3 6.6
0 8 -13 23.4 8.5
-1 8 -13 23.1 8.6
-2 8 -13 -6.6 5.7
3 7 -13 20.4 8.1
2 7 -13 16 6.1
1 7 -13 1.5 5.6
0 7 -13 13 5.5
-1 7 -13 -3.4 6
-2 7 -13 7.9 6.9
4 6 -13 55.19 12.3
3 6 -13 28.5 8.4
2 6 -13 28.9 7.8
0 6 -13 42 8.7
0 -6 13 42 9.6
-1 6 -13 52.69 9.5
1 -6 13 57.89 10.6
-2 6 -13 21.6 7.1
3 -6 13 11.4 7
4 -6 13 61.39 13.3
5 5 -13 6.2 7.3
4 5 -13 8.5 6.2
3 5 -13 15.9 6
1 5 -13 35 7.6
-1 -5 13 24.4 10
0 5 -13 2.5 2.7
0 -5 13 12.4 4.8
-1 5 -13 46.2 8.7
1 -5 13 24.8 8.2
-2 5 -13 6.1 4.8
2 -5 13 13.7 5.1
3 -5 13 12.3 5.2
4 -5 13 9.4 4.7
5 4 -13 2.6 6.5
4 4 -13 83.89 15.4
3 4 -13 11.9 6.1
2 4 -13 211.58 17.3
-2 -4 13 227.28 21.6
1 4 -13 167.58 13.8
-1 -4 13 184.08 18.3
0 4 -13 5.4 4.2
0 -4 13 7.5 6.1
-1 4 -13 161.28 11.8
1 -4 13 144.19 12.5
2 -4 13 210.48 13.8
3 -4 13 16 4.2
5 3 -13 50.09 12.9
4 3 -13 48.6 12.3
2 3 -13 267.57 19.2
-2 -3 13 262.57 21.5
1 3 -13 16 5.3
-1 -3 13 17.3 7.3
0 3 -13 1.3 2.2
0 -3 13 -0.3 3.2
-1 3 -13 14.6 4.2
1 -3 13 18.5 5.4
-2 3 -13 219.68 20.9
-2 3 -13 247.58 12.5
2 -3 13 236.58 12.5
3 -3 13 32.3 4.8
4 -3 13 33.2 3.9
6 2 -13 26.8 10.4
5 2 -13 5.1 7
4 2 -13 26.5 10.1
3 2 -13 35.8 10.3
2 2 -13 20.1 6.8
1 2 -13 83.49 9.8
-1 -2 13 96.39 11.5
0 -2 13 502.05 23.6
-1 2 -13 79.69 6.6
-1 2 -13 79.29 14.1
1 -2 13 88.99 8.3
-2 2 -13 6.1 6.7
6 1 -13 25.7 10.7
5 1 -13 5.9 7.5
4 1 -13 13.3 6.9
3 1 -13 71.99 14
2 1 -13 17.1 6.7
1 1 -13 18.7 6.2
0 1 -13 0.6 2.3
-1 1 -13 27.6 3.7
-1 1 -13 23.5 7.5
-2 1 -13 30.1 8.3
6 0 -13 3.3 7.8
5 0 -13 -9.1 5.2
4 0 -13 41.2 12.5
4 0 -13 37.6 6.8
3 0 -13 59.39 13.4
3 0 -13 65.49 10.1
2 0 -13 18 5.8
2 0 -13 11.7 6.1
1 0 -13 236.98 16.8
1 0 -13 208.98 15.9
0 0 -13 8.7 3.2
0 0 -13 0.2 3
-1 0 -13 230.98 9.2
-1 0 -13 209.28 17.6
-2 0 -13 12.1 5.7
6 -1 -13 -10.5 8.6
5 -1 -13 24.2 9.8
4 -1 -13 -3.4 6.5
4 -1 -13 3.1 3
3 -1 -13 66.09 9.7
3 -1 -13 101.49 18
2 -1 -13 25.2 6.5
2 -1 -13 17.4 7.5
1 -1 -13 26.5 7.1
1 -1 -13 26.3 7.1
0 -1 -13 -6.4 3
0 -1 -13 5.7 3.5
-1 -1 -13 32 9.1
-1 -1 -13 32.9 4.9
-2 -1 -13 30.2 8.5
3 1 13 62.69 13.1
4 1 13 6.3 5.7
6 -2 -13 20.9 11.4
5 -2 -13 5.3 7.6
4 -2 -13 16.4 8.4
3 -2 -13 17.3 8.1
2 -2 -13 13.1 5.6
2 -2 -13 12.4 5.7
1 -2 -13 86.49 10.2
0 -2 -13 505.05 25.8
-1 -2 -13 93.39 8.2
-1 -2 -13 88.49 6.8
-1 -2 -13 109.69 16.6
1 2 13 88.99 14.5
2 2 13 33.2 9.4
4 2 13 17.4 7.9
5 2 13 13.3 7
5 -3 -13 33.5 13.5
4 -3 -13 37.7 13.1
0 -3 -13 -3.6 2.6
0 3 13 3.2 3.5
-1 -3 -13 24.9 4.8
1 3 13 18.8 7.7
-2 -3 -13 244.88 9.5
2 3 13 220.48 19.8
3 3 13 40.3 11.4
4 3 13 23.9 9.9
5 3 13 40.9 11.6
5 -4 -13 0.2 7.8
1 -4 -13 129.09 13.3
-1 4 13 156.58 14.1
0 -4 -13 4.7 4
0 4 13 2 4.1
-1 -4 -13 174.08 11.4
1 4 13 177.58 16.9
-2 -4 -13 239.18 11.8
2 4 13 255.17 24.5
-3 -4 -13 7.1 3
3 4 13 -3.6 4.2
4 4 13 114.59 20.7
5 4 13 2.2 6.7
1 -5 -13 40.9 9.1
-1 5 13 43.2 9.4
0 -5 -13 4.6 3.4
0 5 13 4.2 5.1
-1 -5 -13 58.19 7.7
1 5 13 43.2 10.4
-2 -5 -13 2.4 3.5
2 5 13 6.4 6
-3 -5 -13 15.2 5.2
3 5 13 4.7 5.5
-4 -5 -13 9.4 5.9
4 5 13 9.9 6.9
5 5 13 3 7.1
-2 6 13 22.8 6.5
-1 6 13 37.8 9.2
0 -6 -13 47.2 9
0 6 13 28.3 7.7
-1 -6 -13 44.1 9.2
1 6 13 56.19 11.9
-2 -6 -13 31.5 6.6
2 6 13 17.7 8.7
-3 -6 -13 11 5.9
3 6 13 19.1 8.3
-4 -6 -13 43.7 9.4
4 6 13 49.5 12.5
-2 7 13 21.2 6.5
-1 7 13 18.5 7
-1 -7 -13 11.9 6.1
1 7 13 13.1 7.6
-2 -7 -13 18.7 7.2
2 7 13 6.4 7.3
3 7 13 25.1 11.3
-2 8 13 -3.7 6.1
-1 8 13 15.2 7.1
0 8 13 17.5 8.9
1 8 13 2.6 7.3
2 8 13 4.9 6.3
-1 9 13 2.8 7.1
1 9 13 -11.9 7
2 8 -14 15.1 7
1 8 -14 7.7 6.4
0 8 -14 9.8 6.6
-1 8 -14 -2.6 6.3
-2 8 -14 -2.6 7.1
3 7 -14 2.5 6.2
2 7 -14 9.6 6.2
1 7 -14 49.3 11.1
0 7 -14 57.49 11
-1 7 -14 41.3 10.7
-2 7 -14 10.6 7.4
3 6 -14 32.9 9.1
2 6 -14 3.8 4
1 6 -14 3.2 4
0 6 -14 23.8 6.4
0 -6 14 34.9 12.3
-1 6 -14 0.5 4.3
1 -6 14 -9 5.7
-2 6 -14 10.1 5.5
3 -6 14 9.2 6.9
4 -6 14 73.09 11
4 5 -14 -10.8 5.4
3 5 -14 19.2 7.7
2 5 -14 5.3 4.8
1 5 -14 40.2 8.5
-1 -5 14 44.5 11.1
0 5 -14 3.8 3.5
0 -5 14 -0.6 5.4
-1 5 -14 40.3 8.1
1 -5 14 37.7 9.1
2 -5 14 37.2 7.2
3 -5 14 22.3 6.2
4 -5 14 0.8 4.8
5 4 -14 15.8 11.8
4 4 -14 16 7.7
3 4 -14 75.89 14.1
2 4 -14 42.1 9.6
1 4 -14 21.9 6.3
-1 -4 14 10.3 7.1
0 4 -14 2.6 3.5
-1 4 -14 21.6 5.1
1 -4 14 20.2 6.6
2 -4 14 48.8 7.8
4 -4 14 11.8 4.1
5 -4 14 24.3 5
5 -4 14 18 4.2
5 3 -14 5.8 7.1
4 3 -14 3.7 6.5
2 3 -14 20.2 6.8
-2 -3 14 39.1 10.2
1 3 -14 242.48 16.7
-1 -3 14 266.07 20.7
0 3 -14 50.49 8.3
0 -3 14 78.89 9.7
-1 3 -14 222.78 12.3
1 -3 14 222.28 14.8
-2 3 -14 22.2 5
2 -3 14 21.4 4.9
3 -3 14 5 2.1
5 2 -14 33.4 12.3
4 2 -14 46.2 13
3 2 -14 73.19 19.9
2 2 -14 57.49 11.8
1 2 -14 -3.3 2.7
0 2 -14 8.1 3.8
-1 2 -14 0.2 1.9
-1 2 -14 -4 3.9
5 1 -14 -5 5.2
4 1 -14 44.2 12.5
3 1 -14 19.5 8
2 1 -14 24.7 7.7
1 1 -14 71.89 11.5
1 1 -14 60.39 11.2
0 1 -14 51.49 12
0 1 -14 48.4 7.8
-1 1 -14 59.09 12.3
-1 1 -14 66.79 5.4
-2 1 -14 18.8 6.7
5 0 -14 -0.5 6.8
5 0 -14 -5.2 4.4
4 0 -14 97.89 10
4 0 -14 87.89 18.5
3 0 -14 24.6 8.2
2 0 -14 17.3 5.6
2 0 -14 11.4 5.3
1 0 -14 129.39 12.8
1 0 -14 122.39 13.3
0 0 -14 17.6 6.1
0 0 -14 15.6 4.6
-1 0 -14 116.89 6.8
-1 0 -14 122.99 14
-2 0 -14 4.1 5.7
5 -1 -14 25.5 9
4 -1 -14 41.7 13.6
3 -1 -14 48.3 12.8
3 -1 -14 40.4 7.6
2 -1 -14 41.1 7.8
2 -1 -14 26.3 8.7
1 -1 -14 76.19 12.8
1 -1 -14 71.09 9.6
0 -1 -14 50.59 10.1
0 -1 -14 57.19 9.3
-1 -1 -14 66.79 5.8
-1 -1 -14 72.19 12.1
-1 -1 -14 63.39 5.7
-2 -1 -14 27.3 9
5 -2 -14 61.29 14.1
4 -2 -14 54.49 15.2
3 -2 -14 56.29 8.7
3 -2 -14 39.1 11
2 -2 -14 51.69 13.1
2 -2 -14 50.59 9.2
1 -2 -14 2.4 3.5
1 -2 -14 -0.5 3.7
0 -2 -14 18.5 6.4
0 -2 -14 3.3 4.6
-1 -2 -14 -2.4 2.1
-1 -2 -14 1.4 4.5
-1 -2 -14 4.2 2.6
2 2 14 51.89 12
3 2 14 66.79 14.8
4 2 14 65.39 16
5 2 14 57.19 14.7
5 -3 -14 19.4 9
4 -3 -14 12.1 8.8
0 -3 -14 69.69 8.6
0 3 14 76.39 13.2
-1 -3 -14 207.08 11.5
1 3 14 239.58 19.9
-2 -3 -14 33.5 3.7
2 3 14 29.4 10.7
3 3 14 -0.1 5.1
4 3 14 0.4 6.2
5 3 14 6 7.2
5 -4 -14 25.5 15.6
1 -4 -14 27.4 7.5
0 -4 -14 0.9 3.2
0 4 14 -7.7 3.2
-1 -4 -14 24.8 5.9
1 4 14 30.6 8.9
-2 -4 -14 54.79 5.9
2 4 14 45 12.4
-3 -4 -14 74.49 5.7
3 4 14 58.39 13.6
4 4 14 31 10.5
5 4 14 37.1 17.1
1 -5 -14 42 9
-1 5 14 41.3 9.4
0 -5 -14 0 4.1
0 5 14 -8.3 4
-1 -5 -14 39.3 7.6
-2 -5 -14 22.6 5.5
2 5 14 15.1 7.8
3 5 14 18.2 9.1
-4 -5 -14 9.2 4.6
4 5 14 -1.5 6.1
-1 6 14 8.6 5.1
0 -6 -14 9.5 5.8
0 6 14 24.7 7.8
-1 -6 -14 2.6 4.7
1 6 14 7.7 5.6
-2 -6 -14 1.4 4.5
2 6 14 1.5 5.9
-3 -6 -14 23.3 7
3 6 14 17.1 7.8
4 6 14 66.59 16.7
-2 7 14 5.2 5.6
-1 7 14 57.99 11.6
0 7 14 66.29 12.5
-1 -7 -14 43.3 9.5
1 7 14 57.09 14.2
-2 -7 -14 -2.7 6.2
2 7 14 -2.9 6.1
-3 -7 -14 19.6 7.5
3 7 14 13.1 12.3
-2 8 14 12.9 7.6
-1 8 14 -6.7 6.6
0 8 14 8.3 8
1 8 14 3.1 7.6
2 8 14 22.2 9
1 8 -15 -4 4.1
0 8 -15 23.8 8.4
-1 8 -15 12.3 7.5
2 7 -15 5 5.2
1 7 -15 19.8 7.7
0 7 -15 -2.1 4.7
-1 7 -15 28.7 8.3
-2 7 -15 2.4 8.9
3 6 -15 -0.7 5
2 6 -15 36.3 8.9
1 6 -15 15.1 6.4
0 6 -15 8.9 4.9
-1 6 -15 23.7 6.9
1 -6 15 36.5 9.1
-2 6 -15 25.5 8.3
2 -6 15 28.8 8.6
3 -6 15 -8.3 6.2
4 5 -15 4.2 6.8
3 5 -15 17.5 7.3
2 5 -15 3.7 4.8
1 5 -15 18.5 6.2
0 5 -15 80.49 9.7
0 -5 15 82.79 14.4
-1 5 -15 29.4 6.7
1 -5 15 21.6 7.5
-2 5 -15 23.9 6.7
2 -5 15 17.8 6.1
3 -5 15 1.7 4.3
4 -5 15 -2.5 4.4
4 4 -15 20.4 8.1
3 4 -15 57.59 12.4
1 4 -15 87.09 10.9
-1 -4 15 76.29 14.5
0 4 -15 -1.8 2.5
0 -4 15 12.8 5.2
-1 4 -15 97.99 9.7
1 -4 15 78.49 11.8
2 -4 15 37.1 7.4
3 -4 15 57.99 7.9
4 -4 15 3.4 3
5 3 -15 -14 10.1
4 3 -15 34 10.1
3 3 -15 7.2 5.5
2 3 -15 185.78 16.8
-2 -3 15 179.38 19.4
1 3 -15 19.1 5.5
-1 -3 15 -1.9 5.7
0 3 -15 95.79 9.5
0 -3 15 87.99 11
1 -3 15 4.8 5
-2 3 -15 181.98 10.7
2 -3 15 184.38 11.6
5 2 -15 -5 5.5
4 2 -15 23.5 9.1
3 2 -15 33.4 8.6
2 2 -15 26.1 8.5
1 2 -15 88.19 10.9
0 2 -15 51.39 10.9
0 2 -15 69.59 8.1
-1 2 -15 92.69 7.3
5 1 -15 4.7 6.6
4 1 -15 26.8 9.4
3 1 -15 53.49 18.4
2 1 -15 46.1 11.1
1 1 -15 5.3 8.5
1 1 -15 17.4 6
0 1 -15 27.4 8.3
-1 1 -15 14.4 3.5
-1 1 -15 20.7 6.5
5 0 -15 37.8 11.6
5 0 -15 19.7 5.6
4 0 -15 -7.2 4.7
4 0 -15 2.6 4.4
3 0 -15 7.3 5
2 0 -15 62.19 10.5
2 0 -15 47.7 11.5
1 0 -15 5.1 4.9
1 0 -15 -1.1 3.3
0 0 -15 2.9 3.1
-1 0 -15 -2 4.1
-1 0 -15 1 1.7
5 -1 -15 11.1 9.9
4 -1 -15 15 8.2
4 -1 -15 19.7 6.1
3 -1 -15 44.2 8.6
2 -1 -15 15.3 8.8
2 -1 -15 44.3 8.7
1 -1 -15 10.9 5.7
1 -1 -15 11 5.4
0 -1 -15 28.9 6.9
0 -1 -15 37.5 10
-1 -1 -15 8.1 3
-1 -1 -15 12.5 3.3
-1 -1 -15 14.9 7.5
5 -2 -15 1.9 9.6
4 -2 -15 14.6 9.4
3 -2 -15 42.9 13.6
3 -2 -15 24.6 5.8
2 -2 -15 28.9 7.4
2 -2 -15 20.4 7.6
1 -2 -15 108.59 12.3
1 -2 -15 94.69 12.7
0 -2 -15 83.19 14.3
0 -2 -15 61.19 10.3
-1 -2 -15 92.79 7.3
-1 -2 -15 122.19 14.7
-1 -2 -15 105.69 8.8
3 2 15 41.8 12.3
4 2 15 27.5 10.1
5 2 15 -7.3 5.1
4 -3 -15 38.8 12.1
3 -3 -15 9.8 7
0 -3 -15 86.79 9.8
-1 -3 -15 19.2 5
1 3 15 18.2 7.5
2 3 15 178.58 18.8
3 3 15 -4 3.8
4 3 15 48 12.2
4 -4 -15 7.5 9.3
1 -4 -15 88.99 15.8
0 -4 -15 -4.8 3.6
0 4 15 -4.7 3.1
-1 -4 -15 84.39 8.9
1 4 15 88.09 17.2
-2 -4 -15 32.5 5.3
2 4 15 54.59 14.3
3 4 15 55.29 13.9
4 4 15 15.7 7
1 -5 -15 24.2 7.4
-1 5 15 21.4 7.5
0 -5 -15 82.09 10.1
0 5 15 77.59 14.3
-1 -5 -15 20.8 5.8
1 5 15 27.9 9.2
-2 -5 -15 25.6 5
2 5 15 28.7 10.9
-3 -5 -15 10.6 4.2
3 5 15 -7.7 5.7
-1 6 15 11.1 6.3
0 -6 -15 4.2 5.3
0 6 15 -2.6 6
-1 -6 -15 22.6 7.1
1 6 15 30.5 9.9
-2 -6 -15 40.6 7.3
2 6 15 33.4 12
-3 -6 -15 2.5 4.7
3 6 15 3.5 6.8
-2 7 15 1.2 6.3
-1 7 15 23.9 8.2
0 7 15 -10.2 5.8
-1 -7 -15 22.3 8.3
1 7 15 15 8.5
2 7 15 10.4 6.6
-3 -7 -15 5.9 7.6
3 7 15 1.5 8.5
-1 8 15 -6.2 7
0 8 15 18.5 9.8
1 8 15 4.3 7.3
2 7 -16 7.2 7.5
1 7 -16 -9.1 5
0 7 -16 42.5 8.9
-1 7 -16 10.9 6
3 6 -16 9.2 6.8
2 6 -16 -9.4 4.4
1 6 -16 11.6 6.8
-1 6 -16 2.2 4.6
1 -6 16 3.3 6.4
-2 6 -16 2 5.1
2 -6 16 4.2 6.6
3 -6 16 5.8 7.3
4 5 -16 6 8.5
3 5 -16 11.6 7
2 5 -16 5 5.1
0 5 -16 11.9 4.6
0 -5 16 1.3 7.1
-1 5 -16 18.1 6.3
1 -5 16 16.1 7.1
-2 5 -16 -5.7 4.2
2 -5 16 4.5 5
3 -5 16 -2.4 4.8
4 4 -16 -5.5 6.1
3 4 -16 7.1 6
2 4 -16 18.6 7.2
1 4 -16 172.58 14.9
-1 -4 16 133.89 17.8
0 4 -16 14.6 5.2
0 -4 16 2.3 7.1
-1 4 -16 151.88 11.8
1 -4 16 170.98 14.6
2 -4 16 -0.3 4.3
3 -4 16 3.9 3.7
4 3 -16 24.4 8.9
3 3 -16 1.9 5.8
2 3 -16 2.5 6.7
1 3 -16 3 4.5
-1 -3 16 8 5.8
0 3 -16 134.59 11.4
0 -3 16 155.88 15.1
-1 3 -16 4.5 3
1 -3 16 -2.1 3.7
-2 3 -16 24.2 4.9
5 2 -16 10.5 10.9
4 2 -16 -8.7 5.3
3 2 -16 0.1 5.1
2 2 -16 28.3 8.9
1 2 -16 44.1 9.6
0 2 -16 21.5 5.5
-1 2 -16 47.1 5.4
5 1 -16 17.5 7.4
4 1 -16 220.88 23
3 1 -16 42.1 11.6
3 1 -16 68.99 13.2
2 1 -16 31 10.1
2 1 -16 47.5 9.7
1 1 -16 65.09 11.3
1 1 -16 70.59 13.3
0 1 -16 20.4 6.9
-1 1 -16 58.69 5.7
5 0 -16 3.4 6.1
5 0 -16 -0.9 12.9
4 0 -16 11.6 8.9
4 0 -16 18.4 6
3 0 -16 90.99 16.9
3 0 -16 123.49 12.7
2 0 -16 31.2 8.6
2 0 -16 45.9 11.2
1 0 -16 326.27 22.2
1 0 -16 319.57 20.9
0 0 -16 110.39 12.4
0 0 -16 115.99 17.6
-1 0 -16 334.67 12.3
4 -1 -16 228.98 15.6
4 -1 -16 213.18 23.8
3 -1 -16 45.8 9
3 -1 -16 43.2 12.3
2 -1 -16 32.9 10.3
2 -1 -16 57.49 10.4
1 -1 -16 58.79 11.4
0 -1 -16 5.7 4.2
0 -1 -16 3 4.7
-1 -1 -16 60.29 6
-1 -1 -16 60.39 6.1
5 -2 -16 16.5 11.9
4 -2 -16 -3.2 5
3 -2 -16 4.5 6.7
2 -2 -16 55.19 13.9
2 -2 -16 26.7 8
1 -2 -16 40.2 10.4
0 -2 -16 19.9 6.6
0 -2 -16 23.2 8
-1 -2 -16 46 6.5
-1 -2 -16 53.39 6.8
4 -3 -16 19.6 11.4
3 -3 -16 2.4 6.6
2 -3 -16 32.8 10.5
0 -3 -16 142.09 12.4
-1 -3 -16 1.6 4
2 3 16 26.9 10
3 3 16 4.9 6.9
4 3 16 49.99 13.6
4 -4 -16 -5.2 8
1 -4 -16 139.09 15.2
0 -4 -16 20.1 6.3
0 4 16 12.6 6.3
-1 -4 -16 157.38 11.2
1 4 16 162.38 18.1
-2 -4 -16 19 3.7
2 4 16 22.2 9.1
3 4 16 12.3 7
4 4 16 -11 10
1 -5 -16 10 10.8
0 -5 -16 -4.8 4.7
-1 -5 -16 9.9 5.3
1 5 16 18.1 7.7
-2 -5 -16 2.8 3.4
2 5 16 -6.6 4.3
-3 -5 -16 -4.6 3.1
3 5 16 14.8 7.2
4 5 16 16.1 8.9
-1 6 16 -0.3 6.3
0 -6 -16 12.9 7.4
0 6 16 24.1 8.6
-1 -6 -16 5.9 6.8
1 6 16 11.5 7
-2 -6 -16 7.8 5.3
2 6 16 -7.1 5.3
-3 -6 -16 -7.6 4.8
-1 7 16 -2.2 6.3
0 7 16 13.8 9.1
1 7 16 -9.5 6.9
-2 -7 -16 7.9 7.3
2 7 16 25.1 10.2
1 7 -17 1.2 5.6
0 7 -17 15 6.4
-1 7 -17 25.9 8.2
2 6 -17 13.8 7.8
1 6 -17 10.2 6.1
0 6 -17 -7.3 3.9
-1 6 -17 13.8 6.2
1 -6 17 27.1 11.2
-2 6 -17 19.9 6.9
2 -6 17 8.1 8.4
3 5 -17 3.1 6.7
2 5 -17 41.2 10.7
1 5 -17 10.8 5.2
0 5 -17 26.1 6.7
0 -5 17 22 8.3
-1 5 -17 13.4 5.3
1 -5 17 -3.6 8
-2 5 -17 34.2 7.3
2 -5 17 55.29 9.3
3 -5 17 -3.5 5
4 4 -17 2.3 11.6
3 4 -17 1.3 6.4
2 4 -17 31.9 9.1
1 4 -17 45.2 9.4
0 4 -17 88.89 9.9
-1 4 -17 50.89 8.5
1 -4 17 38.8 8.7
2 -4 17 19.2 6.9
4 3 -17 15.5 9.2
3 3 -17 9.2 6.3
2 3 -17 74.49 13.9
1 3 -17 84.49 10.7
0 3 -17 35.4 7.5
-1 3 -17 69.79 7.5
-2 3 -17 78.69 7.2
4 2 -17 8.1 7.2
3 2 -17 7.6 6.7
2 2 -17 2.2 5.1
1 2 -17 2.5 4.1
0 2 -17 25 5.7
-1 2 -17 -0.9 2.3
4 1 -17 23.8 8
4 1 -17 27 11.6
3 1 -17 34.2 11.5
3 1 -17 32.4 8.7
2 1 -17 0.1 6.2
2 1 -17 18.6 7.6
1 1 -17 1 4.1
0 1 -17 55.49 9.4
-1 1 -17 4.3 2.6
4 0 -17 15.7 5.8
4 0 -17 -0.5 7.1
3 0 -17 -6.6 5.7
2 0 -17 -3.1 5
2 0 -17 0.8 5.4
1 0 -17 3 4.5
1 0 -17 5.6 5.8
0 0 -17 4.2 3.5
-1 0 -17 -0.7 1.9
4 -1 -17 25.2 12
4 -1 -17 14.8 6.8
3 -1 -17 60.69 10.3
3 -1 -17 25.6 10.5
2 -1 -17 -4.4 5.7
1 -1 -17 0.5 3.9
1 -1 -17 5.6 4.8
0 -1 -17 61.19 8.4
-1 -1 -17 -1.5 2.5
-1 -1 -17 3.1 2.7
4 -2 -17 8.2 10.3
3 -2 -17 -4.6 7.2
2 -2 -17 5.6 5.6
2 -2 -17 5.9 6.9
1 -2 -17 -1.6 5.2
1 -2 -17 -10.5 4.6
0 -2 -17 13 6.8
-1 -2 -17 6.1 3.1
-1 -2 -17 -6.2 2.4
4 -3 -17 3.5 9.3
3 -3 -17 1.8 7.2
1 -3 -17 72.19 14.3
0 -3 -17 31.5 9.5
0 -3 -17 51.29 9.4
-1 -3 -17 94.39 9.6
2 3 17 71.69 15.1
3 3 17 13.9 8.3
4 -4 -17 15.5 12.2
3 -4 -17 19 9.5
1 -4 -17 55.69 11.8
0 -4 -17 68.39 11
-1 -4 -17 49.1 7.9
1 4 17 48.9 11.9
-2 -4 -17 46.3 5.2
2 4 17 44.5 12.8
3 4 17 -6.3 6.3
4 4 17 14.7 8.7
0 -5 -17 23.8 8.2
0 5 17 25.2 8.9
-1 -5 -17 24.6 6.9
1 5 17 9.4 7.4
-2 -5 -17 29.8 5.7
2 5 17 47.9 12.3
3 5 17 4.8 7.3
0 6 17 8.1 5.5
1 6 17 23.4 8.7
-2 -6 -17 22.7 6.6
2 6 17 22.7 8.6
-1 7 17 14.3 7.6
0 7 17 8.8 8.6
1 7 17 2.8 6.7
2 6 -18 7 7.1
1 6 -18 3.5 5.6
0 6 -18 15.1 6.6
-1 6 -18 3.1 5.1
-2 6 -18 22.5 7.2
2 -6 18 24.9 8.1
3 5 -18 7.5 7.3
2 5 -18 14.5 7.2
1 5 -18 14.2 5.4
0 5 -18 -5.1 4
-1 5 -18 -0.6 5.1
1 -5 18 27 10.2
-2 5 -18 0.5 5.3
2 -5 18 11.4 6.8
3 4 -18 6.5 5.7
2 4 -18 2.4 5.6
1 4 -18 10.1 6.5
0 4 -18 35 7.8
0 -4 18 34 9.9
-1 4 -18 11 5.3
1 -4 18 28 7.7
2 -4 18 7.8 5.3
4 3 -18 3.1 11.7
3 3 -18 12.8 6.9
2 3 -18 21.1 7.2
1 3 -18 46.3 9.6
0 3 -18 102.09 10.7
-1 3 -18 65.29 7.3
4 2 -18 7.6 8.2
3 2 -18 35.3 10.3
2 2 -18 81.69 16.4
1 2 -18 38.6 8.7
0 2 -18 8 4.2
-1 2 -18 32 5.7
4 1 -18 2.6 7.6
4 1 -18 2.4 6.7
3 1 -18 3.2 7.5
2 1 -18 35.3 9.7
1 1 -18 -6.9 4.3
0 1 -18 4.4 3.6
-1 1 -18 2.4 2.3
4 0 -18 3.2 7.4
3 0 -18 -2.7 5.4
2 0 -18 33.7 9.8
2 0 -18 27.5 9.2
1 0 -18 49.6 10.5
0 0 -18 297.87 17.5
-1 0 -18 37 4.6
4 -1 -18 9.5 8.5
4 -1 -18 10.6 6.6
3 -1 -18 -4.9 6.3
2 -1 -18 68.29 14.2
2 -1 -18 34.2 8.8
1 -1 -18 -4.3 3.8
0 -1 -18 6.3 4.2
-1 -1 -18 5 2.7
-1 -1 -18 -1.3 2.3
4 -2 -18 2.3 9.3
3 -2 -18 34.6 13.1
2 -2 -18 68.49 12.3
1 -2 -18 35.7 12.9
1 -2 -18 21.8 8.5
0 -2 -18 -0.4 4.4
-1 -2 -18 33.2 5.3
-1 -2 -18 30.6 5.4
4 -3 -18 31.4 11.5
3 -3 -18 19.3 10.1
2 -3 -18 7.5 7.6
1 -3 -18 65.79 13.7
0 -3 -18 76.59 13.9
0 -3 -18 94.19 10.6
-1 -3 -18 51.19 8.6
3 -4 -18 17.3 11.1
2 -4 -18 8 8.9
1 -4 -18 15.5 9.1
0 -4 -18 42.2 9.1
-1 -4 -18 24.4 6.1
-1 -4 -18 9 5.5
-2 -4 -18 1.9 2.4
-2 -4 -18 6.9 3.4
2 4 18 16.7 8.8
3 4 18 17.1 8.5
0 -5 -18 -14.8 5.5
-1 -5 -18 12 5.6
1 5 18 -2 6.2
2 5 18 3.2 6.8
3 5 18 -7.8 6.4
0 6 18 10 6.4
-1 -6 -18 4.3 8
1 6 18 9.8 7.7
-2 -6 -18 -2.2 6.3
0 6 -19 15.9 6.9
2 5 -19 -1.1 6.4
1 5 -19 22.5 8.2
0 5 -19 -4.1 4.8
-1 5 -19 23.5 6.9
1 -5 19 -0.3 8.2
-2 5 -19 0.8 5.5
2 -5 19 11.4 7.7
3 4 -19 6.7 7.1
2 4 -19 15.3 6.8
1 4 -19 24.7 7.9
0 4 -19 19.9 6.5
-1 4 -19 26.2 6.1
3 3 -19 39.5 11.5
2 3 -19 33.3 9.8
1 3 -19 83.59 11
0 3 -19 42.6 8.4
-1 3 -19 67.29 7.4
3 2 -19 5 6.2
1 2 -19 -2.7 3.9
0 2 -19 43.1 8
-1 2 -19 7.3 3.5
3 1 -19 45.8 12.9
2 1 -19 36.2 10
1 1 -19 7.2 6.6
0 1 -19 2.2 4
-1 1 -19 15.6 3.8
4 0 -19 -0.4 7.7
4 0 -19 -5.1 7.6
3 0 -19 -0.4 5.9
2 0 -19 10.6 7.9
1 0 -19 5.1 5.4
0 0 -19 -4.7 4.2
-1 0 -19 -1.2 2
4 -1 -19 -8.4 8.2
4 -1 -19 -4.1 7.4
3 -1 -19 22 11.2
3 -1 -19 53.89 10.1
2 -1 -19 49.1 13.3
1 -1 -19 8.3 5.6
0 -1 -19 1.5 4.2
-1 -1 -19 9.6 3.9
-1 -1 -19 15.7 3.6
3 -2 -19 -1.6 7.2
2 -2 -19 18.6 7.9
2 -2 -19 8.5 7.8
1 -2 -19 5 6
0 -2 -19 41.4 8.8
-1 -2 -19 10.3 3.8
-1 -2 -19 10.4 3.6
3 -3 -19 18.9 12.1
2 -3 -19 38.2 11.4
1 -3 -19 73.29 14
0 -3 -19 43.9 9.3
0 -3 -19 44.6 9.7
-1 -3 -19 79.79 9.4
3 -4 -19 -8.2 8.9
2 -4 -19 23 8.7
1 -4 -19 24.3 9.8
0 -4 -19 16.3 7
0 -4 -19 9.4 7.3
-1 -4 -19 41.3 7.4
-1 -4 -19 28.7 8
3 4 19 4.6 7.4
0 -5 -19 9.1 6.9
-1 -5 -19 21.6 6.6
1 5 19 25.1 9.4
-2 -5 -19 -1.8 5.3
1 5 -20 -7.2 4.4
0 5 -20 -4.8 6
-1 5 -20 2.7 5
1 -5 20 -10.5 8.3
2 4 -20 6.4 6.7
1 4 -20 14.3 6.3
0 4 -20 55.19 10.3
-1 4 -20 4.9 4.3
2 3 -20 13.1 6.3
1 3 -20 14 8.3
0 3 -20 -3.4 4.2
-1 3 -20 11.1 4.6
3 2 -20 4.9 7.1
1 2 -20 10.9 6.3
0 2 -20 13.7 4.2
-1 2 -20 11.4 4.7
3 1 -20 42.9 12.6
2 1 -20 13 7.8
1 1 -20 -3.6 4.2
0 1 -20 5.1 3.8
-1 1 -20 -4.6 2.3
3 0 -20 -1 7.2
2 0 -20 93.69 16.1
1 0 -20 10.7 5.3
0 0 -20 79.09 9.6
-1 0 -20 -2.9 2.2
3 -1 -20 30.7 11.1
2 -1 -20 20 8.4
0 -1 -20 5.2 4.6
-1 -1 -20 1.1 3.2
-1 -1 -20 -1.4 2.3
3 -2 -20 16.4 8.7
2 -2 -20 -3.2 6.3
1 -2 -20 3.1 7.5
0 -2 -20 2 4.3
0 -2 -20 1.6 6.3
-1 -2 -20 4 3.5
-1 -2 -20 14.7 4.1
2 -3 -20 -10.8 7.5
1 -3 -20 1.4 8.2
0 -3 -20 20.3 6.7
0 -3 -20 15.5 6.5
-1 -3 -20 8.3 5
2 -4 -20 17.8 9.3
1 -4 -20 14.7 8
0 -4 -20 56.79 12.8
-1 -4 -20 -0.7 5.2
-1 -4 -20 -10.8 4.3
1 -5 -20 5.1 7.5
-1 -5 -20 -9.4 6.5
0 4 -21 100.79 11.8
1 3 -21 28.8 8.6
0 3 -21 7.1 4.2
-1 3 -21 -0.5 3.6
2 2 -21 8.7 7
1 2 -21 10.6 5.3
0 2 -21 6.1 4
-1 2 -21 -6.4 3.7
2 1 -21 6.8 7.3
1 1 -21 -9.8 4.8
0 1 -21 10.9 4.4
-1 1 -21 -1.5 2.4
2 0 -21 15.5 8.5
1 0 -21 7.3 7.1
0 0 -21 -3.2 4.3
-1 0 -21 -2.2 2.2
-1 0 -21 0.6 3.3
2 -1 -21 7.2 8.5
1 -1 -21 -9 6
0 -1 -21 -1.6 5.5
-1 -1 -21 1.5 2.9
2 -2 -21 -8.9 7.5
1 -2 -21 0.5 6.1
0 -2 -21 4.3 5
0 -2 -21 -9.8 7.1
-1 -2 -21 1.6 3
-1 -2 -21 -2.6 3.3
1 -3 -21 23.9 10.7
0 -3 -21 8 7.7
0 -3 -21 5.2 7.1
-1 -3 -21 4.4 4.3
0 -4 -21 77.79 13.2
0 -4 -21 97.49 16.8
1 2 -22 -12.4 4.6
0 2 -22 9.9 5.3
-1 2 -22 -1.1 3.9
1 1 -22 27.2 9.3
0 1 -22 15.2 5.6
-1 1 -22 -1.4 2.8
1 0 -22 1.4 6.6
0 0 -22 20.2 6.4
1 -1 -22 25.6 8.7
0 -1 -22 10.3 6.3
1 -2 -22 -3.5 6.9
0 -2 -22 -5.7 7.4
0 -2 -22 8.9 6.7
