#------------------------------------------------------------------------------
#$Date: 2022-03-10 12:18:55 +0200 (Thu, 10 Mar 2022) $
#$Revision: 273602 $
#$URL: file:///home/coder/svn-repositories/cod/cif/8/10/47/8104725.cif $
#------------------------------------------------------------------------------
#
# This file is available in the Crystallography Open Database (COD),
# http://www.crystallography.net/
#
# All data on this site have been placed in the public domain by the
# contributors.
#
data_8104725
loop_
_publ_author_name
'Luelf, U. Joost'
'Reiss, Guido J.'
'Bokel, Ansgar'
'Urlacher, Vlada B.'
_publ_section_title
;
 Selective biocatalytic synthesis and crystal structure of
 (2R,6R)-hydroxyketaminium chloride, C13H17Cl2NO2
;
_journal_issue                   4
_journal_name_full
'Zeitschrift f\"ur Kristallographie - New Crystal Structures'
_journal_page_first              827
_journal_page_last               829
_journal_paper_doi               10.1515/ncrs-2021-0055
_journal_volume                  236
_journal_year                    2021
_chemical_absolute_configuration ad
_chemical_formula_moiety         'C13 H17 Cl N O2, Cl'
_chemical_formula_sum            'C13 H17 Cl2 N O2'
_chemical_formula_weight         290.17
_space_group_crystal_system      triclinic
_space_group_IT_number           1
_space_group_name_Hall           'P 1'
_space_group_name_H-M_alt        'P 1'
_atom_sites_solution_hydrogens   mixed
_cell_angle_alpha                81.085(3)
_cell_angle_beta                 77.487(4)
_cell_angle_gamma                73.335(4)
_cell_formula_units_Z            2
_cell_length_a                   7.1486(3)
_cell_length_b                   7.8265(3)
_cell_length_c                   13.6579(5)
_cell_measurement_reflns_used    4458
_cell_measurement_temperature    290(1)
_cell_measurement_theta_max      25.4910
_cell_measurement_theta_min      3.5870
_cell_volume                     711.13(5)
_computing_cell_refinement
'CrysAlisPro(Rigaku Oxford Diffraction, 2019)'
_computing_data_collection
'CrysAlisPro(Rigaku Oxford Diffraction, 2019)'
_computing_data_reduction
'CrysAlisPro(Rigaku Oxford Diffraction, 2019)'
_computing_molecular_graphics    'Diamond 4 (Crystal Impact, 2020)'
_computing_structure_refinement  'SHELXL-2018/3 (Sheldrick, 2018)'
_computing_structure_solution    'SHELXT 2018/2 (Sheldrick, 2018)'
_diffrn_ambient_temperature      290(1)
_diffrn_detector_area_resol_mean 16.2678
_diffrn_measured_fraction_theta_full 0.998
_diffrn_measured_fraction_theta_max 0.942
_diffrn_measurement_device_type  'Xcalibur, Eos'
_diffrn_measurement_method       '\w scans'
_diffrn_radiation_type           MoK\a
_diffrn_radiation_wavelength     0.71073
_diffrn_reflns_av_R_equivalents  0.0562
_diffrn_reflns_av_unetI/netI     0.0737
_diffrn_reflns_Laue_measured_fraction_full 0.998
_diffrn_reflns_Laue_measured_fraction_max 0.942
_diffrn_reflns_limit_h_max       10
_diffrn_reflns_limit_h_min       -10
_diffrn_reflns_limit_k_max       11
_diffrn_reflns_limit_k_min       -11
_diffrn_reflns_limit_l_max       19
_diffrn_reflns_limit_l_min       -19
_diffrn_reflns_number            23627
_diffrn_reflns_point_group_measured_fraction_full 0.998
_diffrn_reflns_point_group_measured_fraction_max 0.919
_diffrn_reflns_theta_full        29.000
_diffrn_reflns_theta_max         30.814
_diffrn_reflns_theta_min         3.263
_diffrn_source                   'Enhance (Mo) X-ray Source'
_exptl_absorpt_coefficient_mu    0.450
_exptl_absorpt_correction_T_max  1.000
_exptl_absorpt_correction_T_min  0.827
_exptl_absorpt_correction_type   gaussian
_exptl_absorpt_process_details
;
CrysAlisPro 1.171.40.45a (Rigaku Oxford Diffraction, 2019)
Numerical absorption correction based on gaussian integration over
a multifaceted crystal model
Empirical absorption correction using spherical harmonics,
 implemented in SCALE3 ABSPACK scaling algorithm.
;
_exptl_crystal_colour            colorless
_exptl_crystal_density_diffrn    1.355
_exptl_crystal_description       needle
_exptl_crystal_F_000             304
_exptl_crystal_size_max          0.515
_exptl_crystal_size_mid          0.149
_exptl_crystal_size_min          0.039
_refine_diff_density_max         0.280
_refine_diff_density_min         -0.294
_refine_diff_density_rms         0.050
_refine_ls_abs_structure_details
;
 Flack x determined using 1973 quotients [(I+)-(I-)]/[(I+)+(I-)]
 (Parsons, Flack and Wagner, Acta Cryst. B69 (2013) 249-259).
;
_refine_ls_abs_structure_Flack   -0.02(3)
_refine_ls_extinction_coef       .
_refine_ls_extinction_method     none
_refine_ls_goodness_of_fit_ref   1.008
_refine_ls_hydrogen_treatment    mixed
_refine_ls_matrix_type           full
_refine_ls_number_parameters     335
_refine_ls_number_reflns         8214
_refine_ls_number_restraints     3
_refine_ls_restrained_S_all      1.008
_refine_ls_R_factor_all          0.0940
_refine_ls_R_factor_gt           0.0536
_refine_ls_shift/su_max          0.000
_refine_ls_shift/su_mean         0.000
_refine_ls_structure_factor_coef Fsqd
_refine_ls_weighting_details
'w=1/[\s^2^(Fo^2^)+(0.0100P)^2^+0.2754P] where P=(Fo^2^+2Fc^2^)/3'
_refine_ls_weighting_scheme      calc
_refine_ls_wR_factor_gt          0.0739
_refine_ls_wR_factor_ref         0.0878
_reflns_Friedel_coverage         0.952
_reflns_Friedel_fraction_full    0.998
_reflns_Friedel_fraction_max     0.897
_reflns_number_gt                5570
_reflns_number_total             8214
_reflns_threshold_expression     'I > 2\s(I)'
_cod_data_source_file            suppl_j_ncrs-2021-0055_suppl.cif
_cod_data_source_block           exp_1460_luelf2_RT2_a
_cod_database_code               8104725
_shelx_space_group_comment
;
The symmetry employed for this shelxl refinement is uniquely defined
by the following loop, which should always be used as a source of
symmetry information in preference to the above space-group names.
They are only intended as comments.
;
_oxdiff_exptl_absorpt_empirical_full_min 0.813
_oxdiff_exptl_absorpt_empirical_full_max 1.185
_oxdiff_exptl_absorpt_empirical_details
;
Empirical correction (ABSPACK) includes:
Absorption correction using spherical harmonics
Frame scaling
;
_shelx_res_file
;
TITL exp_1460_luelf2_RT2_a.res in P1
    exp_1460_luelf2_RT2_a.res
    created by SHELXL-2018/3 at 20:12:13 on 16-Dec-2020
REM Old TITL exp_1460_luelf2_RT2 in P1
REM SHELXT solution in P1: R1 0.107, Rweak 0.031, Alpha 0.000
REM <I/s>   0.000 for    0 systematic absences,  Orientation as input
REM Flack x =  0.063 ( 0.028 ) from  2005 Parsons' quotients
REM Formula found by SHELXT:  C26 N2 O4 Cl4
CELL  0.71073   7.1486   7.8265  13.6579   81.085   77.487   73.335
ZERR    2.000   0.0003   0.0003   0.0005    0.003    0.004    0.004
LATT -1
SFAC C H N O CL
UNIT 26 34 2 4 4
L.S. 5
BOND
LIST 6
FMAP 2
conf
htab

EQIV $1 x, y-1, z
HTAB O1 Cl2_$1
HTAB O3 Cl4_$1
HTAB N1 Cl1
HTAB N1 Cl2
HTAB N1 Cl4_$1
HTAB N2 Cl4
HTAB N2 Cl2

PLAN 20
omit -3
acta 58
WGHT    0.010000    0.275400
FVAR       1.20038
CL1   5    0.453052    0.527412    0.196238    11.00000    0.04524    0.05093 =
         0.06114   -0.00320   -0.01905   -0.00133
CL2   5    0.385903    0.733879    0.413622    11.00000    0.05994    0.04167 =
         0.04265   -0.00792   -0.00942   -0.00121
CL3   5    0.541154    0.794428    0.838161    11.00000    0.03174    0.07194 =
         0.05542   -0.01329   -0.01466   -0.00669
CL4   5    0.652978    1.107621    0.600814    11.00000    0.04121    0.04385 =
         0.04607    0.00097   -0.00822   -0.01129
O1    4    0.459748    0.008602    0.219775    11.00000    0.04623    0.04958 =
         0.07215   -0.00179   -0.02313   -0.01927
H1O   2    0.418410   -0.048242    0.277894    11.00000    0.09039
O2    4    0.448453    0.207144    0.371529    11.00000    0.03938    0.05158 =
         0.05599   -0.00585    0.00437   -0.01493
O3    4    0.537715    0.319752    0.796893    11.00000    0.06485    0.04019 =
         0.05780    0.00024   -0.01781    0.01013
H3O   2    0.577646    0.286515    0.743732    11.00000    0.05315
O4    4    0.570887    0.591150    0.645335    11.00000    0.03531    0.04812 =
         0.04896   -0.00606   -0.00308   -0.00140
N1    3    0.708893    0.365542    0.398876    11.00000    0.03917    0.03309 =
         0.03652   -0.00196   -0.00641   -0.00313
AFIX  23
H11   2    0.606164    0.456825    0.386775    11.00000   -1.20000
H12   2    0.666131    0.298624    0.453246    11.00000   -1.20000
AFIX   0
N2    3    0.325179    0.904609    0.612984    11.00000    0.02966    0.03594 =
         0.03078    0.00043   -0.00617   -0.00949
AFIX  23
H21   2    0.423604    0.934784    0.630354    11.00000   -1.20000
H22   2    0.376902    0.842764    0.559621    11.00000   -1.20000
AFIX   0
C1    1    0.595127    0.182516    0.306746    11.00000    0.03240    0.02920 =
         0.03660    0.00336   -0.00481   -0.00474
C2    1    0.773567    0.253630    0.310298    11.00000    0.03238    0.03122 =
         0.03044   -0.00313   -0.00609   -0.00525
C3    1    0.936111    0.082989    0.336370    11.00000    0.03842    0.03313 =
         0.03751   -0.00213   -0.00759   -0.00265
AFIX  23
H3A   2    1.055368    0.116487    0.338958    11.00000   -1.20000
H3B   2    0.890821    0.027556    0.402485    11.00000   -1.20000
AFIX   0
C4    1    0.985336   -0.052285    0.258986    11.00000    0.03915    0.03743 =
         0.05186   -0.00855   -0.00681    0.00163
AFIX  23
H4A   2    1.042621   -0.000753    0.194176    11.00000   -1.20000
H4B   2    1.083658   -0.158538    0.279374    11.00000   -1.20000
AFIX   0
C5    1    0.803514   -0.105396    0.248051    11.00000    0.04930    0.03734 =
         0.06295   -0.01424   -0.00726   -0.00562
AFIX  23
H5A   2    0.759193   -0.174117    0.309727    11.00000   -1.20000
H5B   2    0.839594   -0.181955    0.193792    11.00000   -1.20000
AFIX   0
C6    1    0.630896    0.057249    0.225871    11.00000    0.03658    0.04063 =
         0.04687   -0.00227   -0.00670   -0.01396
AFIX  13
H6A   2    0.674664    0.119639    0.160722    11.00000   -1.20000
AFIX   0
C7    1    0.840424    0.365534    0.213541    11.00000    0.04146    0.03281 =
         0.02906   -0.00082   -0.00935   -0.01226
C8    1    1.041180    0.348133    0.175191    11.00000    0.04292    0.05418 =
         0.04073   -0.00296   -0.00855   -0.01892
AFIX  43
H8A   2    1.134619    0.268565    0.209835    11.00000   -1.20000
AFIX   0
C9    1    1.106416    0.445063    0.087383    11.00000    0.05275    0.07400 =
         0.04022   -0.00647   -0.00050   -0.03472
AFIX  43
H9A   2    1.241835    0.427834    0.063172    11.00000   -1.20000
AFIX   0
C10   1    0.973256    0.565780    0.036096    11.00000    0.08841    0.06578 =
         0.03702    0.00249   -0.01024   -0.04127
AFIX  43
H10A  2    1.017392    0.632335   -0.022382    11.00000   -1.20000
AFIX   0
C11   1    0.772447    0.588612    0.071517    11.00000    0.07544    0.04360 =
         0.03548    0.00267   -0.01969   -0.01854
AFIX  43
H11A  2    0.680624    0.670667    0.036937    11.00000   -1.20000
AFIX   0
C12   1    0.708297    0.489277    0.158434    11.00000    0.04503    0.03882 =
         0.03620   -0.00322   -0.01289   -0.01263
C13   1    0.862242    0.439143    0.422869    11.00000    0.05627    0.03925 =
         0.05109   -0.00861   -0.01747   -0.00792
AFIX 137
H13A  2    0.969936    0.342196    0.441311    11.00000   -1.50000
H13B  2    0.804504    0.511662    0.477938    11.00000   -1.50000
H13C  2    0.911149    0.511022    0.364829    11.00000   -1.50000
AFIX   0
C21   1    0.419235    0.610793    0.706331    11.00000    0.02790    0.03675 =
         0.03750   -0.00712   -0.00871   -0.00340
C22   1    0.246070    0.782631    0.698670    11.00000    0.02658    0.03181 =
         0.03092    0.00007   -0.00391   -0.00596
C23   1    0.087745    0.715502    0.665252    11.00000    0.03266    0.03590 =
         0.03709   -0.00395   -0.00915   -0.00687
AFIX  23
H23A  2   -0.028084    0.815040    0.658736    11.00000   -1.20000
H23B  2    0.141021    0.670888    0.599721    11.00000   -1.20000
AFIX   0
C24   1    0.025469    0.566361    0.740782    11.00000    0.04127    0.04076 =
         0.05111   -0.00332   -0.00507   -0.01703
AFIX  23
H24A  2   -0.036057    0.612871    0.805249    11.00000   -1.20000
H24B  2   -0.071611    0.526324    0.716886    11.00000   -1.20000
AFIX   0
C25   1    0.204415    0.408150    0.754306    11.00000    0.05034    0.03510 =
         0.06139    0.00429   -0.00652   -0.01354
AFIX  23
H25A  2    0.162303    0.319156    0.805370    11.00000   -1.20000
H25B  2    0.255905    0.353335    0.691548    11.00000   -1.20000
AFIX   0
C27   1    0.169379    0.880068    0.794256    11.00000    0.03255    0.03045 =
         0.02727    0.00058   -0.00561   -0.00745
C26   1    0.367610    0.463199    0.784880    11.00000    0.04364    0.03286 =
         0.04400   -0.00087   -0.00589    0.00162
AFIX  13
H26A  2    0.314324    0.514211    0.849528    11.00000   -1.20000
AFIX   0
C28   1   -0.034186    0.971502    0.818172    11.00000    0.03156    0.04110 =
         0.04148   -0.00194   -0.00984   -0.00780
AFIX  43
H28A  2   -0.119239    0.967991    0.776181    11.00000   -1.20000
AFIX   0
C29   1   -0.109848    1.064943    0.901154    11.00000    0.03540    0.04809 =
         0.04567   -0.00904   -0.00063   -0.00216
AFIX  43
H29A  2   -0.244206    1.124012    0.914398    11.00000   -1.20000
AFIX   0
C30   1    0.011965    1.071798    0.964961    11.00000    0.05605    0.04767 =
         0.03646   -0.01066    0.00101   -0.00735
AFIX  43
H30A  2   -0.039944    1.133877    1.021792    11.00000   -1.20000
AFIX   0
C31   1    0.211543    0.986059    0.944154    11.00000    0.04992    0.04968 =
         0.03860   -0.00647   -0.01242   -0.01489
AFIX  43
H31A  2    0.295375    0.990535    0.986579    11.00000   -1.20000
AFIX   0
C32   1    0.285782    0.893708    0.860018    11.00000    0.03028    0.03824 =
         0.03761    0.00000   -0.00746   -0.00916
C33   1    0.179102    1.072686    0.581953    11.00000    0.04188    0.03518 =
         0.04880    0.00636   -0.01384   -0.00711
AFIX 137
H33A  2    0.080622    1.042886    0.554803    11.00000   -1.50000
H33B  2    0.246890    1.145151    0.531613    11.00000   -1.50000
H33C  2    0.115920    1.138032    0.639500    11.00000   -1.50000
REM #####
AFIX   0
HKLF 4




REM  exp_1460_luelf2_RT2_a.res in P1
REM wR2 = 0.0878, GooF = S = 1.008, Restrained GooF = 1.008 for all data
REM R1 = 0.0536 for 5570 Fo > 4sig(Fo) and 0.0940 for all 8214 data
REM 335 parameters refined using 3 restraints

END

WGHT      0.0337      0.0260

REM Instructions for potential hydrogen bonds
HTAB O1 Cl2_$1
HTAB O3 Cl4_$1
HTAB N1 Cl1
HTAB N1 Cl2
HTAB N1 Cl4_$1
HTAB N2 Cl4
HTAB N2 Cl2
HTAB C3 Cl4_$1
HTAB C5 Cl2_$1
HTAB C13 O4
EQIV $2 x-1, y, z
HTAB C23 Cl4_$2
HTAB C23 Cl2
HTAB C33 Cl4_$2
EQIV $3 x, y+1, z
HTAB C33 O2_$3

REM Highest difference peak  0.280,  deepest hole -0.294,  1-sigma level  0.050
Q1    1   0.4914  0.7980  0.7756  11.00000  0.05    0.26
Q2    1   0.3702  0.5546  0.1408  11.00000  0.05    0.25
Q3    1   0.4768  0.4984  0.2667  11.00000  0.05    0.25
Q4    1   0.4372  0.7670  0.3397  11.00000  0.05    0.25
Q5    1   0.6218  0.7861  0.9001  11.00000  0.05    0.24
Q6    1   0.3559  0.7316  0.3474  11.00000  0.05    0.24
Q7    1   0.6215  1.1269  0.5316  11.00000  0.05    0.24
Q8    1   0.3167  0.7080  0.4882  11.00000  0.05    0.23
Q9    1   0.5802  1.0809  0.6658  11.00000  0.05    0.23
Q10   1   0.7083  1.1019  0.6654  11.00000  0.05    0.23
Q11   1   0.5863  0.5353  0.1937  11.00000  0.05    0.23
Q12   1   0.3562  0.2027  0.4262  11.00000  0.05    0.23
Q13   1   0.4798  0.9383  0.7487  11.00000  0.05    0.22
Q14   1   0.5584  0.8335 -0.0402  11.00000  0.05    0.22
Q15   1   0.2449  1.0852  0.5106  11.00000  0.05    0.22
Q16   1   0.4031  0.8449  0.8444  11.00000  0.05    0.21
Q17   1   0.4575  0.6908  0.4734  11.00000  0.05    0.21
Q18   1   0.2802  0.4219  0.6569  11.00000  0.05    0.21
Q19   1  -0.0052  1.1204  0.9626  11.00000  0.05    0.20
Q20   1   0.7995  0.4734  0.2015  11.00000  0.05    0.20
;
_shelx_hkl_file
;
 -10  -5  -6   17.57   10.69
 -10  -5  -5   32.67   15.11
 -10  -5  -5    7.96   10.53
 -10  -5  -4   -0.94    9.29
 -10  -5  -3   11.17   12.54
 -10  -4  -2  118.46   24.76
 -10  -3  -2   -1.39    8.99
 -10  -3  -1   31.82   14.85
 -10  -2  -2  -16.89   12.44
  -9  -7  -9    0.94    6.43
  -9  -7  -8    3.47    7.33
  -9  -7  -7    5.20    8.06
  -9  -7  -5   17.48    9.16
  -9  -7  -4  -10.03   13.10
  -9  -6 -10  -16.05   11.74
  -9  -6 -10   -7.06    8.61
  -9  -6  -9   23.75   11.44
  -9  -6  -9   -5.88    9.35
  -9  -6  -8    7.79   10.48
  -9  -6  -8   -1.08    8.36
  -9  -6  -7   85.14   21.91
  -9  -6  -7   39.91   15.04
  -9  -6  -6    8.49    7.02
  -9  -6  -6   30.94   14.99
  -9  -6  -5    2.62    8.21
  -9  -6  -4   24.34   13.45
  -9  -6  -3   10.84   10.51
  -9  -6  -2   10.99   10.38
  -9  -6  -1   -7.45    9.04
  -9  -6  -1   23.49   14.03
  -9  -6   0   34.75   15.21
  -9  -6   0   19.02   10.25
  -9  -6   1   27.45   13.11
  -9  -6   2   14.87   14.36
  -9  -5 -12   35.91   14.95
  -9  -5 -11   -0.64   10.24
  -9  -5 -11   -1.85    6.42
  -9  -5 -10   31.94   14.49
  -9  -5 -10   25.56   15.11
  -9  -5 -10   27.22   13.52
  -9  -5  -9  -14.35   10.19
  -9  -5  -9    5.12    7.36
  -9  -5  -9   -0.44    7.62
  -9  -5  -8   12.39   10.66
  -9  -5  -8   30.44   12.94
  -9  -5  -8    6.43    8.33
  -9  -5  -7   11.05    8.93
  -9  -5  -7  -10.97    9.36
  -9  -5  -7   -1.69    6.89
  -9  -5  -6   11.80    9.28
  -9  -5  -6   -2.41    6.57
  -9  -5  -5   14.38   11.41
  -9  -5  -5    0.15    8.20
  -9  -5  -5    9.90    9.00
  -9  -5  -4   -2.32    7.79
  -9  -5  -4   -4.39    9.13
  -9  -5  -3   89.58   20.41
  -9  -5  -3   83.50   19.78
  -9  -5  -2   19.74   10.66
  -9  -5  -2   11.88   10.29
  -9  -5  -1    9.00   10.05
  -9  -5  -1   20.21   12.72
  -9  -5   0    6.45    8.71
  -9  -5   0    7.81    9.31
  -9  -5   1   19.11   10.99
  -9  -5   1   37.00   17.05
  -9  -5   2   17.60   11.38
  -9  -5   2   21.56   11.40
  -9  -5   3   -8.49   10.04
  -9  -4 -12   28.12   14.00
  -9  -4 -11   -6.03    8.35
  -9  -4 -11    9.70    9.60
  -9  -4 -10   39.02   14.81
  -9  -4 -10   19.74   10.32
  -9  -4  -9   12.14   11.00
  -9  -4  -9   -3.43    8.18
  -9  -4  -8   26.29   12.63
  -9  -4  -8   39.68   15.00
  -9  -4  -7   16.17   11.93
  -9  -4  -7   12.32    9.13
  -9  -4  -7   12.79    9.89
  -9  -4  -6   12.50    9.14
  -9  -4  -6   16.58   11.86
  -9  -4  -6    9.94    8.02
  -9  -4  -5    8.65    9.75
  -9  -4  -5   20.62   11.13
  -9  -4  -5    3.89    7.89
  -9  -4  -4   24.73   13.45
  -9  -4  -4    1.30    7.48
  -9  -4  -4    2.39    8.44
  -9  -4  -3   46.34   14.79
  -9  -4  -3   36.72   15.02
  -9  -4  -2   62.54   18.59
  -9  -4  -2   32.84   13.58
  -9  -4  -1   40.22   15.03
  -9  -4  -1   67.73   17.53
  -9  -4   0   38.71   14.94
  -9  -4   0   21.45   13.28
  -9  -4   1    7.84    9.97
  -9  -4   1   17.12   10.83
  -9  -4   2   14.89   11.71
  -9  -4   2   21.87   12.87
  -9  -4   3   21.98   12.22
  -9  -4   3   21.04   13.18
  -9  -4   4   13.77   11.21
  -9  -3 -12   15.14   14.62
  -9  -3 -11   37.25   18.97
  -9  -3 -11    9.62   10.76
  -9  -3 -10   20.72   11.40
  -9  -3 -10   37.34   14.34
  -9  -3  -9   34.72   14.73
  -9  -3  -9   10.37    7.01
  -9  -3  -8   63.80   18.80
  -9  -3  -8   72.26   20.46
  -9  -3  -7    9.29    8.12
  -9  -3  -7   11.38   10.43
  -9  -3  -6   15.55   10.76
  -9  -3  -6   10.16   10.82
  -9  -3  -5   27.76   14.83
  -9  -3  -5   37.55   15.81
  -9  -3  -4   20.27   13.64
  -9  -3  -4   41.46   14.97
  -9  -3  -3   76.13   20.03
  -9  -3  -3   64.99   18.17
  -9  -3  -3   52.47   15.98
  -9  -3  -2   31.16   14.45
  -9  -3  -2   48.69   16.63
  -9  -3  -1   47.89   16.18
  -9  -3  -1   31.90   14.04
  -9  -3  -1   38.61   13.48
  -9  -3   0   26.30   12.80
  -9  -3   0   12.61   13.26
  -9  -3   0    9.22   13.23
  -9  -3   1   62.51   18.91
  -9  -3   1   87.60   23.04
  -9  -3   1   53.78   16.17
  -9  -3   2    5.07    8.75
  -9  -3   2    7.03    8.37
  -9  -3   2    9.52   11.88
  -9  -3   3   38.53   17.02
  -9  -3   3   12.36   11.94
  -9  -3   3   15.28   11.23
  -9  -3   4   24.47   12.48
  -9  -3   4   80.12   23.50
  -9  -3   5   14.83   11.30
  -9  -2 -11   31.57   17.17
  -9  -2 -10   50.10   18.62
  -9  -2 -10   99.98   23.90
  -9  -2 -10  102.35   23.44
  -9  -2  -9   50.36   19.36
  -9  -2  -9   35.88   14.67
  -9  -2  -9   -5.33    9.68
  -9  -2  -8    5.11   11.72
  -9  -2  -8    1.14    7.20
  -9  -2  -7   13.06    8.37
  -9  -2  -7    9.71   11.34
  -9  -2  -6  139.63   28.28
  -9  -2  -6   95.11   22.09
  -9  -2  -6  145.60   27.24
  -9  -2  -5   -0.19    8.74
  -9  -2  -5   24.31   12.82
  -9  -2  -4   69.13   18.87
  -9  -2  -4   74.13   20.60
  -9  -2  -4  105.99   23.66
  -9  -2  -3   89.47   22.71
  -9  -2  -3   58.72   18.12
  -9  -2  -3   92.83   22.79
  -9  -2  -3   54.99   16.93
  -9  -2  -2    4.18   11.00
  -9  -2  -2   48.08   18.17
  -9  -2  -2   35.57   15.03
  -9  -2  -1   28.34   16.75
  -9  -2  -1   28.18   14.28
  -9  -2  -1   -1.05   10.75
  -9  -2   0   29.82   14.50
  -9  -2   0   30.12   17.19
  -9  -2   0   16.42   15.01
  -9  -2   1   31.09   16.20
  -9  -2   1    6.10   10.44
  -9  -2   1   24.57   14.18
  -9  -2   2   70.86   19.32
  -9  -2   2   78.14   21.41
  -9  -2   2   91.27   23.21
  -9  -2   3   -7.25   10.06
  -9  -2   3  -10.58   12.24
  -9  -2   3   14.49   15.55
  -9  -2   4   26.31   17.29
  -9  -1 -11   29.75   15.33
  -9  -1 -10   -0.20   13.38
  -9  -1  -9   57.88   19.43
  -9  -1  -9   71.21   20.86
  -9  -1  -8   -7.21    9.96
  -9  -1  -8   -4.99   10.14
  -9  -1  -8    5.33    7.70
  -9  -1  -7  -10.27    9.61
  -9  -1  -7   -2.98   12.10
  -9  -1  -6  108.60   24.19
  -9  -1  -6   90.09   21.86
  -9  -1  -6   97.98   24.12
  -9  -1  -5   45.17   16.95
  -9  -1  -5   21.75   17.21
  -9  -1  -5   56.50   16.67
  -9  -1  -4    8.41   10.15
  -9  -1  -4   22.98   16.02
  -9  -1  -4  -18.67   11.32
  -9  -1  -3   10.49    9.28
  -9  -1  -3    3.42    8.93
  -9  -1  -3   28.35   13.25
  -9  -1  -3    9.47   16.36
  -9  -1  -2   60.60   19.18
  -9  -1  -2   54.66   15.65
  -9  -1  -2   63.60   18.26
  -9  -1  -2   69.42   21.90
  -9  -1  -1   44.54   16.17
  -9  -1  -1   21.05   15.21
  -9  -1  -1   35.21   14.20
  -9  -1   0   16.84   10.78
  -9  -1   0   23.41   16.50
  -9  -1   0   -0.58   10.87
  -9  -1   1    8.05   12.29
  -9  -1   1    1.32    8.91
  -9  -1   1  -10.48   12.26
  -9  -1   2   -8.93   13.66
  -9  -1   2    3.42   12.29
  -9  -1   2   18.71   12.26
  -9  -1   3   42.52   17.85
  -9  -1   3   72.98   21.77
  -9  -1   4   -7.38   13.16
  -9  -1   5  -20.32   14.65
  -9   0 -10   -6.77   15.05
  -9   0  -9   16.05   12.40
  -9   0  -9  -19.97   14.20
  -9   0  -8   30.08   15.10
  -9   0  -8   73.05   21.09
  -9   0  -8   55.84   18.65
  -9   0  -7    6.85    8.38
  -9   0  -7  -17.28   16.46
  -9   0  -7   11.83   12.35
  -9   0  -6  -15.95   16.90
  -9   0  -6   18.98   12.43
  -9   0  -6    4.57    7.22
  -9   0  -5   44.67   17.73
  -9   0  -5   45.53   16.42
  -9   0  -5   11.35   11.15
  -9   0  -4   18.65   11.98
  -9   0  -4   34.55   15.63
  -9   0  -4   31.07   16.25
  -9   0  -3    8.57   12.60
  -9   0  -3   19.69   11.19
  -9   0  -3   11.18   11.37
  -9   0  -2  -15.88   13.96
  -9   0  -2   -5.83   11.10
  -9   0  -2   21.17   13.32
  -9   0  -2   21.42   12.79
  -9   0  -1   25.70   11.97
  -9   0  -1   35.04   15.69
  -9   0  -1   24.12   12.25
  -9   0   0   13.09   10.37
  -9   0   0   36.61   15.52
  -9   0   0   16.50   12.75
  -9   0   1   32.20   17.97
  -9   0   1   27.38   16.24
  -9   0   1   21.76   12.80
  -9   0   2   -0.82    9.16
  -9   0   2  -47.35   19.23
  -9   0   3   11.80   14.18
  -9   0   4    0.32   12.37
  -9   1  -8   24.39   14.93
  -9   1  -7   33.13   15.48
  -9   1  -7    3.68    7.93
  -9   1  -6  -27.64   17.17
  -9   1  -6   -0.51    7.23
  -9   1  -5   19.82   12.44
  -9   1  -5   11.68   10.35
  -9   1  -5   -8.98   18.71
  -9   1  -4   -2.89    7.88
  -9   1  -4  -13.52   14.42
  -9   1  -3   -1.16    9.87
  -9   1  -3   -0.86    6.31
  -9   1  -3  -17.46   17.04
  -9   1  -2    3.80    8.31
  -9   1  -2    9.67   12.04
  -9   1  -2   18.97   12.46
  -9   1  -2   30.57   16.29
  -9   1  -1   -4.36    8.79
  -9   1  -1   -4.89   13.31
  -9   1  -1  -18.94   17.39
  -9   1   0    9.34   12.48
  -9   1   0   29.75   13.68
  -9   1   0    4.77   11.70
  -9   1   1    2.11    7.83
  -9   2  -6   14.33   11.26
  -9   2  -5   10.03    9.49
  -9   2  -2  -40.84   15.94
  -9   2  -1  -20.53   12.32
  -8  -8  -8  -10.39   10.06
  -8  -8  -7   30.97   14.42
  -8  -8  -6    4.78    9.21
  -8  -8  -5   41.10   15.11
  -8  -8  -4   26.14   13.09
  -8  -8  -3   -7.65   13.00
  -8  -8  -2   19.55   12.31
  -8  -8  -1   26.87   14.41
  -8  -7 -11   -6.07    9.36
  -8  -7 -10   -2.99    8.17
  -8  -7  -9    2.14    6.62
  -8  -7  -8    4.09    6.86
  -8  -7  -8   29.75   12.41
  -8  -7  -7   22.25   11.02
  -8  -7  -7   11.55   10.29
  -8  -7  -6   20.56   14.05
  -8  -7  -5   25.75   12.68
  -8  -7  -4   80.96   20.26
  -8  -7  -3    2.91    9.64
  -8  -7  -2   -9.18   11.70
  -8  -7  -1   46.12   16.42
  -8  -7   0   -1.62    7.95
  -8  -7   1    2.14    9.03
  -8  -7   2   22.05   13.99
  -8  -6 -14  -22.78   12.88
  -8  -6 -13   47.44   17.11
  -8  -6 -13   20.76   11.98
  -8  -6 -12   10.08    9.10
  -8  -6 -12    0.76    6.74
  -8  -6 -11   23.59   13.45
  -8  -6 -11   57.41   17.61
  -8  -6 -10   20.43   11.40
  -8  -6 -10   21.02   12.44
  -8  -6  -9    9.22   10.67
  -8  -6  -9   -0.51    5.67
  -8  -6  -8   -0.79    6.84
  -8  -6  -8    8.49    6.29
  -8  -6  -7   23.67   11.20
  -8  -6  -7   22.68   10.20
  -8  -6  -6    3.13    8.81
  -8  -6  -6   29.17   11.70
  -8  -6  -5   22.13    9.64
  -8  -6  -5   -1.23    7.22
  -8  -6  -4   58.97   17.05
  -8  -6  -3    7.39   10.83
  -8  -6  -2   45.28   14.90
  -8  -6  -2   25.38   11.36
  -8  -6  -1    8.77    9.08
  -8  -6  -1    4.00    7.80
  -8  -6   0   65.84   18.23
  -8  -6   0   89.01   19.85
  -8  -6   1   65.95   18.86
  -8  -6   1   74.24   18.65
  -8  -6   2   29.97   14.56
  -8  -6   2    7.26    9.28
  -8  -6   3   26.68   13.04
  -8  -6   3   16.64   11.38
  -8  -6   4   10.08   10.90
  -8  -6   4   -2.16   10.55
  -8  -6   5   20.82   13.32
  -8  -5 -14   15.93   11.65
  -8  -5 -14   30.47   15.76
  -8  -5 -13   19.05   12.39
  -8  -5 -13   13.76    9.14
  -8  -5 -12   15.71   10.44
  -8  -5 -12   26.27   13.50
  -8  -5 -11   -2.91    7.66
  -8  -5 -11    6.56    8.52
  -8  -5 -10   35.18   13.39
  -8  -5 -10   58.30   17.12
  -8  -5 -10   15.37   10.58
  -8  -5  -9   13.60    9.04
  -8  -5  -9   15.28    9.86
  -8  -5  -9    8.52    8.68
  -8  -5  -8   10.09   10.32
  -8  -5  -8    2.98    7.09
  -8  -5  -8    0.62    7.92
  -8  -5  -7   20.23   10.77
  -8  -5  -7   18.76   10.60
  -8  -5  -7   13.46    9.25
  -8  -5  -6   55.14   15.01
  -8  -5  -6   66.22   15.48
  -8  -5  -6   90.27   20.24
  -8  -5  -5   23.66   10.54
  -8  -5  -5    8.03    8.87
  -8  -5  -5   36.63   14.87
  -8  -5  -4    5.29    6.30
  -8  -5  -4   12.39    9.62
  -8  -5  -4   13.52    9.48
  -8  -5  -3    9.96    9.58
  -8  -5  -3   -2.74    8.95
  -8  -5  -2   12.83   10.38
  -8  -5  -2   -9.75   12.43
  -8  -5  -1   26.55   12.43
  -8  -5  -1   24.13   11.09
  -8  -5   0   21.79   11.88
  -8  -5   0   29.31   14.14
  -8  -5   1   32.83   13.40
  -8  -5   1   21.56   12.03
  -8  -5   2   39.25   15.72
  -8  -5   2   28.14   13.67
  -8  -5   3   20.57   12.31
  -8  -5   3   35.90   13.21
  -8  -5   4   23.14   13.64
  -8  -5   4    7.33    9.89
  -8  -5   5   26.62   14.50
  -8  -5   5    6.69   11.25
  -8  -5   6   23.51   14.48
  -8  -5   7   29.63   13.74
  -8  -4 -15   13.99   11.71
  -8  -4 -14    2.60    8.49
  -8  -4 -14   13.99   10.98
  -8  -4 -13   90.48   21.55
  -8  -4 -13   80.69   20.80
  -8  -4 -13  115.70   24.66
  -8  -4 -12    9.57    9.97
  -8  -4 -12    9.98   10.32
  -8  -4 -12   -1.23    8.69
  -8  -4 -11   26.13   13.64
  -8  -4 -11   38.23   14.88
  -8  -4 -11   44.39   15.92
  -8  -4 -10   13.77   10.09
  -8  -4 -10    8.03    9.79
  -8  -4 -10    3.65    8.58
  -8  -4  -9   42.64   15.08
  -8  -4  -9   40.45   14.22
  -8  -4  -9   18.54    9.68
  -8  -4  -8  124.46   23.80
  -8  -4  -8  103.86   21.42
  -8  -4  -8   93.17   20.13
  -8  -4  -7   -4.43    7.79
  -8  -4  -7    6.68    7.65
  -8  -4  -7    7.34    9.65
  -8  -4  -6   18.32   10.12
  -8  -4  -6   10.93    8.37
  -8  -4  -6   15.73   11.34
  -8  -4  -5   17.14    9.75
  -8  -4  -5   26.29   11.65
  -8  -4  -5   15.49   10.63
  -8  -4  -4    6.18    6.72
  -8  -4  -4    1.27    8.11
  -8  -4  -4    6.76    8.19
  -8  -4  -3   68.40   16.90
  -8  -4  -3   52.82   14.09
  -8  -4  -3   54.12   15.25
  -8  -4  -2   38.26   14.03
  -8  -4  -2   37.46   12.77
  -8  -4  -1    8.14    9.13
  -8  -4  -1   14.97    9.25
  -8  -4   0  111.17   20.90
  -8  -4   0   68.78   18.63
  -8  -4   1    6.84    7.88
  -8  -4   1   30.41   12.38
  -8  -4   2   32.84   12.64
  -8  -4   2   33.19   13.15
  -8  -4   3   28.93   12.77
  -8  -4   3   10.29   11.19
  -8  -4   4   42.28   16.99
  -8  -4   4   23.91   12.48
  -8  -4   5   14.93   13.10
  -8  -4   5    7.24   10.37
  -8  -4   6    7.32   10.16
  -8  -4   6  -10.92   13.90
  -8  -4   7   -9.84   10.31
  -8  -3 -14   19.51   12.18
  -8  -3 -14   40.97   16.31
  -8  -3 -13    6.72    7.11
  -8  -3 -13   40.30   16.73
  -8  -3 -12  101.47   23.13
  -8  -3 -12   83.54   22.65
  -8  -3 -11   39.79   14.58
  -8  -3 -11   40.42   15.75
  -8  -3 -10   53.16   16.90
  -8  -3 -10   28.94   13.41
  -8  -3  -9   28.99   12.61
  -8  -3  -9   75.32   19.17
  -8  -3  -8   26.90   11.38
  -8  -3  -8   46.85   15.69
  -8  -3  -8   46.69   15.38
  -8  -3  -7   49.71   14.11
  -8  -3  -7   41.02   14.66
  -8  -3  -7   27.79   12.95
  -8  -3  -6  -10.32   11.00
  -8  -3  -6   10.59    8.85
  -8  -3  -6    1.40    7.14
  -8  -3  -5   -8.54    7.45
  -8  -3  -5   -1.28    7.71
  -8  -3  -4  182.71   24.39
  -8  -3  -4  167.48   26.07
  -8  -3  -4  171.78   26.47
  -8  -3  -3   54.06   15.86
  -8  -3  -3   51.88   13.63
  -8  -3  -3   74.73   18.55
  -8  -3  -2   62.02   16.90
  -8  -3  -2   77.68   16.34
  -8  -3  -2   53.36   15.25
  -8  -3  -1    9.02    8.03
  -8  -3  -1   20.08   10.59
  -8  -3   0   10.22    9.21
  -8  -3   0   15.78   10.80
  -8  -3   1  119.50   21.01
  -8  -3   1   72.08   19.23
  -8  -3   2    5.14    7.71
  -8  -3   2   26.50   13.09
  -8  -3   3   10.74   10.33
  -8  -3   3    4.90    8.96
  -8  -3   4   16.50   11.78
  -8  -3   4    3.41    9.89
  -8  -3   5   43.20   17.68
  -8  -3   5   26.28   13.93
  -8  -3   6   21.18   11.79
  -8  -3   6   20.72   14.19
  -8  -3   6    6.87    9.35
  -8  -3   7    0.24    8.50
  -8  -3   7  -12.71    9.32
  -8  -3   7   11.17   12.00
  -8  -3   8    6.58    9.29
  -8  -2 -14    6.30    9.81
  -8  -2 -13    9.16    9.55
  -8  -2 -13   26.50   13.64
  -8  -2 -12   -7.34    8.88
  -8  -2 -12   23.43   11.99
  -8  -2 -11   36.22   14.82
  -8  -2 -11   57.58   17.36
  -8  -2 -11   56.17   18.64
  -8  -2 -10   26.12   13.22
  -8  -2 -10   32.63   13.93
  -8  -2 -10   46.71   18.68
  -8  -2  -9    3.55    7.25
  -8  -2  -9   -8.23   11.05
  -8  -2  -8   93.71   20.77
  -8  -2  -8   89.59   20.18
  -8  -2  -7   41.67   14.88
  -8  -2  -7   55.41   16.42
  -8  -2  -6  195.19   28.40
  -8  -2  -6  158.97   25.58
  -8  -2  -5    0.43    7.97
  -8  -2  -5    0.75    6.63
  -8  -2  -4   41.37   13.88
  -8  -2  -4   52.09   15.89
  -8  -2  -4   62.14   16.35
  -8  -2  -3   23.95   12.01
  -8  -2  -3   70.25   18.20
  -8  -2  -3   58.99   15.98
  -8  -2  -2   44.63   14.17
  -8  -2  -2   31.94   11.78
  -8  -2  -2   11.43   10.33
  -8  -2  -2   36.77   14.36
  -8  -2  -1   96.03   17.81
  -8  -2  -1   81.95   17.82
  -8  -2  -1   98.22   21.90
  -8  -2   0   36.67   12.21
  -8  -2   0   46.06   15.96
  -8  -2   0   27.54   12.43
  -8  -2   1   34.79   16.04
  -8  -2   1    8.81    9.06
  -8  -2   1   11.41    9.86
  -8  -2   2  109.71   22.92
  -8  -2   2   89.58   18.52
  -8  -2   2   81.91   20.53
  -8  -2   3   45.19   16.77
  -8  -2   3   29.00   13.76
  -8  -2   3   65.21   20.50
  -8  -2   3   27.55   13.67
  -8  -2   4   -3.76    9.07
  -8  -2   4    3.43    8.53
  -8  -2   4   13.47   11.43
  -8  -2   5   29.60   13.31
  -8  -2   5   26.08   15.59
  -8  -2   5   28.60   14.04
  -8  -2   5   33.32   19.53
  -8  -2   6   56.97   17.73
  -8  -2   6   46.90   19.58
  -8  -2   6   34.47   14.06
  -8  -2   6   56.20   18.90
  -8  -2   7    6.48    8.76
  -8  -2   7   16.32   14.56
  -8  -2   7   11.97   15.20
  -8  -2   7   20.63   13.24
  -8  -2   8   -4.59   10.37
  -8  -2   8  -16.74   10.90
  -8  -1 -13    4.53    9.54
  -8  -1 -13   15.76   12.31
  -8  -1 -12   16.63   11.62
  -8  -1 -12   27.22   13.51
  -8  -1 -11   24.99   13.17
  -8  -1 -11    9.88   12.40
  -8  -1 -11   13.92   10.47
  -8  -1 -10    0.62    6.29
  -8  -1 -10    7.01    9.37
  -8  -1 -10    8.83    9.66
  -8  -1  -9   48.65   15.61
  -8  -1  -9   11.72    9.49
  -8  -1  -9   35.06   17.40
  -8  -1  -8   27.90   14.00
  -8  -1  -8   20.59   11.69
  -8  -1  -8   26.97   13.25
  -8  -1  -7    8.68   11.62
  -8  -1  -7   31.75   12.05
  -8  -1  -7   41.56   16.02
  -8  -1  -6  106.13   21.79
  -8  -1  -6  147.13   27.01
  -8  -1  -6   97.30   21.87
  -8  -1  -5   87.24   20.90
  -8  -1  -5  104.32   21.17
  -8  -1  -5  141.96   25.62
  -8  -1  -4   78.95   21.39
  -8  -1  -4   51.73   17.15
  -8  -1  -4   68.50   16.36
  -8  -1  -4  106.87   21.39
  -8  -1  -3    5.87    9.13
  -8  -1  -3    0.72    7.20
  -8  -1  -3   11.36    8.30
  -8  -1  -2   99.17   20.48
  -8  -1  -2   84.82   19.43
  -8  -1  -2  116.66   24.30
  -8  -1  -2   98.92   20.60
  -8  -1  -1   65.36   19.02
  -8  -1  -1   73.17   17.74
  -8  -1  -1   88.54   22.79
  -8  -1  -1   72.70   18.67
  -8  -1   0   70.50   18.14
  -8  -1   0   84.36   22.56
  -8  -1   0   57.93   16.93
  -8  -1   1    4.07    9.84
  -8  -1   1   11.70   13.65
  -8  -1   1   24.85   14.10
  -8  -1   2   31.88   15.96
  -8  -1   2    9.14   11.19
  -8  -1   2   24.45   12.77
  -8  -1   3  130.86   25.82
  -8  -1   3  143.55   26.06
  -8  -1   3  138.05   27.48
  -8  -1   4   21.22   13.99
  -8  -1   4   13.85   11.61
  -8  -1   4    2.88   10.37
  -8  -1   5    5.08   10.52
  -8  -1   5   30.11   16.44
  -8  -1   5    9.45   10.02
  -8  -1   6    8.89   13.68
  -8  -1   6    7.25    8.71
  -8  -1   6   -0.76   10.73
  -8  -1   6   13.01   10.77
  -8  -1   7    7.35    8.80
  -8  -1   7   15.85    9.68
  -8  -1   7   26.80   17.44
  -8  -1   7   15.40   14.96
  -8  -1   8    9.86    9.95
  -8   0 -12   -9.64    8.40
  -8   0 -12   -2.59    6.68
  -8   0 -12    7.87    9.50
  -8   0 -11   22.93   13.69
  -8   0 -11    0.22   11.83
  -8   0 -11   38.55   16.62
  -8   0 -11   25.04   14.41
  -8   0 -10    7.14   10.39
  -8   0 -10  -16.68   14.07
  -8   0 -10   -6.73   10.57
  -8   0  -9   15.09   11.78
  -8   0  -9   31.59   12.44
  -8   0  -9   28.03   14.42
  -8   0  -8   68.09   18.33
  -8   0  -8   51.84   16.34
  -8   0  -8   47.69   16.27
  -8   0  -7   31.74   13.92
  -8   0  -7   29.85   12.76
  -8   0  -7   23.05   11.81
  -8   0  -6   19.81   14.30
  -8   0  -6   17.44   10.15
  -8   0  -6   24.84   13.13
  -8   0  -5   38.70   14.72
  -8   0  -5   15.03    9.75
  -8   0  -5   34.18   14.55
  -8   0  -4   23.32   15.05
  -8   0  -4   45.32   13.23
  -8   0  -4   45.68   16.08
  -8   0  -4   40.15   13.95
  -8   0  -3   20.59   11.43
  -8   0  -3    5.29    9.66
  -8   0  -3    3.71   11.58
  -8   0  -3   13.19    9.52
  -8   0  -2   72.56   19.08
  -8   0  -2   58.23   16.18
  -8   0  -2   62.99   15.83
  -8   0  -2   50.73   16.51
  -8   0  -1   59.00   19.28
  -8   0  -1   48.12   13.92
  -8   0  -1   55.08   17.56
  -8   0  -1   50.33   15.32
  -8   0   0    5.02   10.08
  -8   0   0   21.11   13.84
  -8   0   1   50.24   14.55
  -8   0   1   66.95   19.45
  -8   0   1   79.64   21.03
  -8   0   2   15.11    9.66
  -8   0   2    0.17    8.62
  -8   0   2   11.22   10.52
  -8   0   3   30.10   14.39
  -8   0   3    2.17   11.34
  -8   0   3   11.27   10.56
  -8   0   4   54.16   18.64
  -8   0   4   52.42   18.20
  -8   0   4   59.20   16.87
  -8   0   5    1.71   10.09
  -8   0   5   -3.19   10.60
  -8   0   5  -20.66   15.82
  -8   0   6    7.34   11.76
  -8   0   6   24.71   12.64
  -8   0   6   43.04   18.01
  -8   0   7   31.89   14.97
  -8   1 -11   36.50   15.25
  -8   1 -11   -2.86    9.40
  -8   1 -11   40.36   16.47
  -8   1 -11   46.21   17.76
  -8   1 -10   35.83   14.97
  -8   1 -10   30.28   14.28
  -8   1 -10   42.18   16.14
  -8   1 -10   -8.28   15.76
  -8   1  -9   16.46    9.42
  -8   1  -9   27.81   13.46
  -8   1  -9   -9.12   14.21
  -8   1  -9   13.66   10.70
  -8   1  -8    8.94   10.27
  -8   1  -8   10.56   10.82
  -8   1  -8   10.39   10.78
  -8   1  -8  -19.47   15.14
  -8   1  -7   65.39   17.54
  -8   1  -7  102.64   21.45
  -8   1  -7  105.53   22.93
  -8   1  -7   95.11   23.51
  -8   1  -6   53.07   16.27
  -8   1  -6   36.80   15.57
  -8   1  -6   23.48   12.57
  -8   1  -6   14.82   12.03
  -8   1  -5   14.04   10.85
  -8   1  -5    0.77   11.01
  -8   1  -5    8.85    6.46
  -8   1  -5   21.34   11.79
  -8   1  -4  134.92   24.44
  -8   1  -4  129.34   25.06
  -8   1  -4  127.34   25.96
  -8   1  -3   52.21   16.36
  -8   1  -3   54.83   16.11
  -8   1  -3   35.45   14.46
  -8   1  -3   55.81   15.58
  -8   1  -2   80.07   19.43
  -8   1  -2  160.09   27.40
  -8   1  -2  141.34   24.45
  -8   1  -2  135.91   24.21
  -8   1  -1   -5.70    9.49
  -8   1  -1    8.41    8.26
  -8   1  -1   29.40   14.17
  -8   1  -1    3.93   10.26
  -8   1   0   17.40   11.86
  -8   1   0    9.92   10.43
  -8   1   0   23.00   11.56
  -8   1   1   13.60   12.04
  -8   1   1    1.73    9.05
  -8   1   2   53.06   17.09
  -8   1   2   48.98   18.10
  -8   1   2   59.03   17.74
  -8   1   3   20.97   11.93
  -8   1   3   49.84   19.55
  -8   1   3   18.26   12.07
  -8   1   4  -32.67   19.48
  -8   1   4   -6.51   11.90
  -8   1   4   14.64   14.19
  -8   1   5   -0.22   11.22
  -8   1   5    4.78   12.22
  -8   1   5   14.83   13.62
  -8   1   6  -19.61   11.27
  -8   1   6    5.75   11.23
  -8   1   7  -16.34   10.83
  -8   2 -10   -2.73    8.57
  -8   2 -10   18.67   14.83
  -8   2 -10   22.58   13.02
  -8   2  -9   59.41   18.71
  -8   2  -9  111.24   25.04
  -8   2  -9   94.52   23.64
  -8   2  -9  117.52   24.30
  -8   2  -8   19.11   11.62
  -8   2  -8   42.84   17.37
  -8   2  -8   14.17   10.30
  -8   2  -8   13.32   11.72
  -8   2  -7  -22.99   11.83
  -8   2  -7  -10.49    9.45
  -8   2  -7   12.97   13.59
  -8   2  -7    0.09   10.04
  -8   2  -6   72.94   19.39
  -8   2  -6   72.77   20.06
  -8   2  -6   64.89   19.07
  -8   2  -6   53.07   15.27
  -8   2  -5   72.66   21.51
  -8   2  -5   58.92   18.09
  -8   2  -5   54.84   16.67
  -8   2  -4   15.53   12.61
  -8   2  -4   -0.95    7.51
  -8   2  -3   62.08   17.20
  -8   2  -3   34.40   15.13
  -8   2  -3   31.48   13.95
  -8   2  -3   46.54   15.06
  -8   2  -2   -0.07   13.96
  -8   2  -2   18.48   12.17
  -8   2  -2   22.38   11.88
  -8   2  -2   11.06    9.73
  -8   2  -1   62.46   19.52
  -8   2  -1   25.30   11.95
  -8   2  -1   39.69   14.58
  -8   2  -1   41.13   14.22
  -8   2   0   39.90   14.77
  -8   2   0    7.65    9.88
  -8   2   0   12.86   12.14
  -8   2   1   -1.21    7.69
  -8   2   1   19.55   11.52
  -8   2   1   -5.41   14.11
  -8   2   2   53.02   18.11
  -8   2   2   51.54   16.20
  -8   2   2   33.39   14.64
  -8   2   3   57.57   19.38
  -8   2   3   23.61   16.50
  -8   2   4   -7.12   11.09
  -8   2   4    1.59    7.75
  -8   2   5    2.36   10.44
  -8   2   5   24.98   14.75
  -8   2   6   21.39   12.80
  -8   3  -9   10.01   10.54
  -8   3  -8    6.28    9.82
  -8   3  -7   11.81   12.39
  -8   3  -7    6.28   11.18
  -8   3  -6   -2.79    9.60
  -8   3  -6   21.12   13.31
  -8   3  -5  118.48   26.83
  -8   3  -5  143.51   27.54
  -8   3  -4   53.82   17.13
  -8   3  -4   56.30   19.11
  -8   3  -3   36.51   15.54
  -8   3  -3   40.49   15.61
  -8   3  -3   26.69   16.00
  -8   3  -2   -1.45   11.50
  -8   3  -2    1.29    8.99
  -8   3  -2   -2.87    7.88
  -8   3  -1   14.93   12.04
  -8   3  -1   24.58   13.13
  -8   3  -1   26.15   15.06
  -8   3   0   36.58   14.80
  -8   3   0   26.37   15.55
  -8   3   0   19.87   12.23
  -8   3   1   21.99   14.62
  -8   3   1   25.90   13.46
  -8   3   1   31.16   14.42
  -8   3   2   14.76   11.42
  -8   3   2   22.35   14.29
  -8   3   2    7.13   10.82
  -8   3   3   43.29   17.03
  -8   3   3   31.07   14.95
  -8   3   4   -0.17    9.06
  -8   4  -4   18.31   12.05
  -8   4  -3   13.79   11.98
  -8   4  -2   -5.36    8.53
  -8   4  -2    0.91    9.08
  -8   4  -1   42.31   16.13
  -8   4   0   51.13   18.76
  -7 -10  -6   21.84   12.87
  -7 -10  -5   -3.22    9.00
  -7  -9  -9   79.66   20.96
  -7  -9  -8   31.95   15.88
  -7  -9  -8    6.44   10.13
  -7  -9  -7    9.26   10.50
  -7  -9  -7   30.94   13.84
  -7  -9  -6   20.26   11.83
  -7  -9  -6   17.87   12.63
  -7  -9  -5   44.56   16.53
  -7  -9  -5   39.82   14.23
  -7  -9  -4   24.69   13.14
  -7  -9  -3    1.74    7.71
  -7  -9  -2   -0.70   12.30
  -7  -9  -1    3.23    8.89
  -7  -9   0    6.41   10.40
  -7  -8 -11   22.08   14.86
  -7  -8 -10  -16.22   11.98
  -7  -8  -9   11.16    9.04
  -7  -8  -8    8.55    9.45
  -7  -8  -8   54.95   18.89
  -7  -8  -7   36.10   14.05
  -7  -8  -7   58.34   16.69
  -7  -8  -6  114.26   22.40
  -7  -8  -6   90.40   21.06
  -7  -8  -5    9.18    9.67
  -7  -8  -5   24.02   11.90
  -7  -8  -4   41.39   15.36
  -7  -8  -3   12.16   11.93
  -7  -8  -2   -5.35    9.19
  -7  -8  -1   26.48   12.53
  -7  -8   0   21.21   10.69
  -7  -8   1   -2.87    8.98
  -7  -8   2    6.23    9.59
  -7  -8   3   29.43   13.91
  -7  -7 -13   54.63   18.08
  -7  -7 -12    7.23    9.00
  -7  -7 -11    1.22    9.39
  -7  -7 -10   -4.15    7.41
  -7  -7  -9   25.22   13.52
  -7  -7  -8   32.68   13.47
  -7  -7  -7   29.75   13.45
  -7  -7  -7   28.60   11.01
  -7  -7  -6   11.69    8.18
  -7  -7  -6    3.83    7.22
  -7  -7  -5   12.27    9.32
  -7  -7  -5   12.94   10.22
  -7  -7  -4   29.79   12.28
  -7  -7  -3   14.51   10.75
  -7  -7  -2    5.40    9.90
  -7  -7  -1   18.39   11.14
  -7  -7   0   19.27   10.78
  -7  -7   1   20.06   12.54
  -7  -7   2   -5.44   12.50
  -7  -7   3   -4.58    8.98
  -7  -7   4   51.62   16.99
  -7  -7   5    2.48   10.25
  -7  -7   6   -8.17   12.41
  -7  -7   7    0.29    7.18
  -7  -6 -14   30.49   15.41
  -7  -6 -13   -4.38    8.43
  -7  -6 -13   -1.22    7.32
  -7  -6 -12   32.97   12.96
  -7  -6 -12   19.42   10.64
  -7  -6 -11   65.47   17.21
  -7  -6 -11   42.30   15.80
  -7  -6 -10   47.89   16.02
  -7  -6 -10   48.43   14.32
  -7  -6  -9   15.23    8.75
  -7  -6  -9   53.87   16.44
  -7  -6  -8    6.54    7.09
  -7  -6  -8    7.27    5.75
  -7  -6  -7    4.10    6.27
  -7  -6  -7   10.55    8.16
  -7  -6  -6   48.41   14.49
  -7  -6  -6   55.59   17.71
  -7  -6  -5   12.73    8.25
  -7  -6  -5   21.48   10.42
  -7  -6  -4   10.62    9.08
  -7  -6  -3   35.49   13.09
  -7  -6  -2   -1.46    8.93
  -7  -6  -1  107.73   20.76
  -7  -6  -1  120.85   20.36
  -7  -6   0   49.00   15.38
  -7  -6   0   44.07   13.72
  -7  -6   1   48.80   14.88
  -7  -6   1   39.05   12.84
  -7  -6   2    8.93    8.58
  -7  -6   2   20.37   10.09
  -7  -6   3    7.06    9.28
  -7  -6   3   19.43   11.13
  -7  -6   4    1.45    8.07
  -7  -6   4   10.63   10.91
  -7  -6   5   15.10   11.77
  -7  -6   5   15.77   11.18
  -7  -6   6    1.74    8.25
  -7  -6   6    9.75   12.75
  -7  -6   7    9.84   13.71
  -7  -6   7   -5.45   10.30
  -7  -6   8   -4.81   10.55
  -7  -5 -16   14.12   13.30
  -7  -5 -16   19.82   14.31
  -7  -5 -15   -9.72   12.01
  -7  -5 -15   11.83    9.77
  -7  -5 -15  -11.76    9.88
  -7  -5 -14   35.51   13.28
  -7  -5 -14   46.41   15.28
  -7  -5 -13    9.02    7.77
  -7  -5 -13    0.10    6.51
  -7  -5 -12   36.14   13.73
  -7  -5 -12   18.52   12.29
  -7  -5 -11   56.96   17.55
  -7  -5 -11   81.27   19.50
  -7  -5 -10    8.21    6.86
  -7  -5 -10   28.46   13.03
  -7  -5 -10   34.27   13.32
  -7  -5  -9    4.40    6.69
  -7  -5  -9   -3.87    7.15
  -7  -5  -9   12.33    9.54
  -7  -5  -8   16.58    7.88
  -7  -5  -8   25.50   11.15
  -7  -5  -8    9.32    9.26
  -7  -5  -7   30.45   12.65
  -7  -5  -7   47.79   12.77
  -7  -5  -7   26.86    9.90
  -7  -5  -6   74.72   15.97
  -7  -5  -6   77.10   16.95
  -7  -5  -6   64.57   16.04
  -7  -5  -5   22.63    9.77
  -7  -5  -5   16.72    7.41
  -7  -5  -5   23.07   10.91
  -7  -5  -4   -4.61    8.01
  -7  -5  -4   -0.48    6.04
  -7  -5  -4   -6.27    8.23
  -7  -5  -3   19.82   11.19
  -7  -5  -3    0.22    6.63
  -7  -5  -3   15.16    9.68
  -7  -5  -2  189.44   24.51
  -7  -5  -2  178.33   25.79
  -7  -5  -1   48.74   12.40
  -7  -5  -1   60.83   15.89
  -7  -5   0   26.97   11.06
  -7  -5   0   21.52    9.79
  -7  -5   1   29.70   11.53
  -7  -5   1   45.35   14.22
  -7  -5   2   -8.15    8.75
  -7  -5   2    7.22   10.13
  -7  -5   3   63.18   17.47
  -7  -5   3   53.45   16.38
  -7  -5   4   36.30   14.89
  -7  -5   4   56.59   16.70
  -7  -5   5   -2.89    7.05
  -7  -5   5   -2.09   10.56
  -7  -5   6   16.84   14.36
  -7  -5   6    8.56   10.60
  -7  -5   7    4.55    9.04
  -7  -5   7   -9.50   11.33
  -7  -5   8   55.62   18.49
  -7  -5   8   11.03   11.80
  -7  -4 -16    8.42   11.77
  -7  -4 -16   29.32   13.40
  -7  -4 -16   10.29    9.83
  -7  -4 -16   -8.57    9.79
  -7  -4 -15  -14.72   10.75
  -7  -4 -15   -4.30    7.78
  -7  -4 -15   -3.39    8.50
  -7  -4 -15  -11.90   12.97
  -7  -4 -14   25.82   13.28
  -7  -4 -14   19.86   11.40
  -7  -4 -14   -0.47    9.62
  -7  -4 -14   15.03   11.41
  -7  -4 -13  123.31   24.54
  -7  -4 -13   81.42   19.01
  -7  -4 -13  115.61   24.06
  -7  -4 -12    8.96    8.65
  -7  -4 -12   11.94   10.53
  -7  -4 -12   11.27    8.78
  -7  -4 -11   24.92   11.85
  -7  -4 -11   20.66   10.77
  -7  -4 -11   28.67   11.77
  -7  -4 -10   12.41    9.51
  -7  -4 -10   14.15    9.80
  -7  -4 -10   15.75   10.33
  -7  -4  -9  134.49   23.41
  -7  -4  -9  115.63   20.46
  -7  -4  -9  115.40   21.49
  -7  -4  -8   69.74   17.37
  -7  -4  -8   58.44   15.81
  -7  -4  -8   55.83   15.42
  -7  -4  -7    5.42    8.60
  -7  -4  -7   -1.51    8.58
  -7  -4  -7  -22.35   10.49
  -7  -4  -6   -1.61    6.27
  -7  -4  -6   10.28    7.68
  -7  -4  -6    2.86    6.68
  -7  -4  -5   55.99   14.46
  -7  -4  -5   43.10   12.60
  -7  -4  -5   51.59   14.55
  -7  -4  -4  208.92   26.41
  -7  -4  -4  198.48   25.07
  -7  -4  -4  252.40   28.89
  -7  -4  -3   14.30    8.13
  -7  -4  -3   30.14   11.61
  -7  -4  -3   11.72    7.50
  -7  -4  -2   37.41   12.71
  -7  -4  -2   17.70   10.15
  -7  -4  -2   10.53    8.43
  -7  -4  -1   21.14   10.81
  -7  -4  -1    3.49    7.47
  -7  -4   0   -1.08    7.94
  -7  -4   0    3.38    7.01
  -7  -4   1   20.66   10.98
  -7  -4   1   24.71   11.28
  -7  -4   2   24.55   12.72
  -7  -4   2   36.67   13.81
  -7  -4   3   36.38   13.74
  -7  -4   3   38.62   14.35
  -7  -4   4   81.27   20.77
  -7  -4   4   42.34   13.73
  -7  -4   5   20.89   12.29
  -7  -4   5   -6.12    9.71
  -7  -4   6   31.06   14.00
  -7  -4   6   18.57   12.90
  -7  -4   7   67.08   19.55
  -7  -4   7   34.09   13.77
  -7  -4   8  -10.36   10.93
  -7  -4   8   43.61   19.01
  -7  -4   9   66.75   20.35
  -7  -4   9   45.70   16.98
  -7  -4   9   86.63   22.05
  -7  -3 -16   18.94   12.64
  -7  -3 -16   23.45   13.55
  -7  -3 -15   39.21   14.70
  -7  -3 -15   50.84   17.01
  -7  -3 -14   27.42   13.92
  -7  -3 -14    3.05    8.19
  -7  -3 -13   66.95   17.96
  -7  -3 -13   53.50   17.46
  -7  -3 -13   28.58   13.45
  -7  -3 -13   32.49   13.04
  -7  -3 -12   43.11   14.65
  -7  -3 -12   70.10   18.34
  -7  -3 -12   77.50   18.43
  -7  -3 -11   12.22    9.07
  -7  -3 -11   29.00   14.18
  -7  -3 -11   15.28    8.96
  -7  -3 -10   52.27   14.34
  -7  -3 -10   27.56   11.09
  -7  -3 -10   18.45   10.18
  -7  -3  -9   31.65   11.80
  -7  -3  -9   48.34   15.42
  -7  -3  -9   75.70   17.31
  -7  -3  -8   27.25   11.58
  -7  -3  -8   40.05   12.40
  -7  -3  -8   28.65   11.60
  -7  -3  -7   54.97   15.64
  -7  -3  -7   77.44   17.15
  -7  -3  -7   68.87   16.21
  -7  -3  -6   15.31   10.12
  -7  -3  -6    8.50    7.96
  -7  -3  -6    7.67    9.59
  -7  -3  -5   19.95    9.40
  -7  -3  -5    6.32    7.51
  -7  -3  -5   10.83    8.19
  -7  -3  -4   73.31   16.12
  -7  -3  -4   68.69   14.49
  -7  -3  -4   68.39   16.19
  -7  -3  -3   15.11    8.36
  -7  -3  -3   -2.21    8.46
  -7  -3  -3    7.15    5.91
  -7  -3  -2   58.46   15.67
  -7  -3  -2   48.93   13.36
  -7  -3  -2   43.26   12.11
  -7  -3  -1   79.94   16.71
  -7  -3  -1   74.78   15.46
  -7  -3   0  143.10   20.34
  -7  -3   0  167.76   24.45
  -7  -3   1  182.60   24.48
  -7  -3   1  116.40   21.21
  -7  -3   2   37.33   14.39
  -7  -3   2   50.66   14.48
  -7  -3   2   27.96   10.07
  -7  -3   3   46.49   12.65
  -7  -3   3   41.09   14.97
  -7  -3   3   63.11   16.39
  -7  -3   4    2.30    6.13
  -7  -3   4   10.06    9.89
  -7  -3   4   23.52   12.37
  -7  -3   5   54.50   15.72
  -7  -3   5   50.78   15.81
  -7  -3   5   79.18   16.39
  -7  -3   6   17.57   13.00
  -7  -3   6   18.32   10.34
  -7  -3   6    7.99    8.69
  -7  -3   7   23.88   12.31
  -7  -3   7   22.27   14.41
  -7  -3   7   -3.89    9.47
  -7  -3   8    6.00   11.57
  -7  -3   8   -8.17    9.07
  -7  -3   8    5.02    8.59
  -7  -3   9   12.05    8.86
  -7  -3   9   -7.12   10.16
  -7  -3   9   -0.11    9.57
  -7  -3  10   20.68   12.46
  -7  -2 -15   28.47   16.52
  -7  -2 -15   14.09    9.91
  -7  -2 -14   32.53   14.41
  -7  -2 -14   33.51   14.20
  -7  -2 -13   12.13    7.08
  -7  -2 -13   -0.11    9.17
  -7  -2 -12   -5.42    8.71
  -7  -2 -12    0.28    9.14
  -7  -2 -11   57.95   17.46
  -7  -2 -11   74.35   18.21
  -7  -2 -10    4.24    9.21
  -7  -2 -10    1.00    8.10
  -7  -2  -9   29.82   11.67
  -7  -2  -9   54.14   15.12
  -7  -2  -8    7.69    8.05
  -7  -2  -8   10.43    8.54
  -7  -2  -8    8.12    8.87
  -7  -2  -7   79.34   15.48
  -7  -2  -7   70.95   17.10
  -7  -2  -7   80.15   16.91
  -7  -2  -6   22.99   10.17
  -7  -2  -6   43.80   13.37
  -7  -2  -6   22.26    9.09
  -7  -2  -5    9.15    8.51
  -7  -2  -5   12.05    8.62
  -7  -2  -5    3.17    8.38
  -7  -2  -5    1.77    5.41
  -7  -2  -4   88.55   18.20
  -7  -2  -4  103.16   19.32
  -7  -2  -4  113.35   17.61
  -7  -2  -4   79.29   15.66
  -7  -2  -3   37.95   13.26
  -7  -2  -3   17.94   10.48
  -7  -2  -3   17.00    9.65
  -7  -2  -3    3.66    6.05
  -7  -2  -2    5.55    7.19
  -7  -2  -2   10.20    6.83
  -7  -2  -2    8.21    9.17
  -7  -2  -1    8.41    6.42
  -7  -2  -1   19.18    8.97
  -7  -2  -1   30.93   12.98
  -7  -2   0   39.37   11.78
  -7  -2   0   38.31   13.95
  -7  -2   1   67.57   15.46
  -7  -2   1   60.65   15.61
  -7  -2   2  122.09   17.89
  -7  -2   2  154.46   22.18
  -7  -2   2  126.15   22.57
  -7  -2   3   39.35   13.55
  -7  -2   3   38.19   15.21
  -7  -2   3   20.57    9.57
  -7  -2   4  146.05   22.98
  -7  -2   4  142.45   20.75
  -7  -2   4  174.31   27.65
  -7  -2   5    9.63    9.40
  -7  -2   5    5.04    8.71
  -7  -2   5    9.33    7.33
  -7  -2   6   67.47   20.38
  -7  -2   6   31.41   13.01
  -7  -2   6   55.32   17.58
  -7  -2   6   74.78   20.94
  -7  -2   6   34.58   11.67
  -7  -2   7    2.35    7.73
  -7  -2   7   -0.25    8.56
  -7  -2   7    8.75    9.10
  -7  -2   7   28.05   16.47
  -7  -2   8   26.97   14.46
  -7  -2   8   28.47   11.92
  -7  -2   8   10.25    9.01
  -7  -2   8   47.43   16.73
  -7  -2   9   15.21   11.65
  -7  -2   9   18.79   14.53
  -7  -2   9   21.30   14.42
  -7  -2   9   19.13   11.91
  -7  -2  10    9.03   17.57
  -7  -2  10   -4.11    7.84
  -7  -1 -15   13.05   12.25
  -7  -1 -15   -9.73   10.16
  -7  -1 -15   30.58   14.50
  -7  -1 -14   30.93   15.52
  -7  -1 -14   43.22   15.81
  -7  -1 -14   30.19   14.65
  -7  -1 -13   13.54   12.67
  -7  -1 -13   12.99   10.12
  -7  -1 -12   -5.99    9.22
  -7  -1 -12   15.56   11.04
  -7  -1 -11   76.31   19.17
  -7  -1 -11   80.44   20.02
  -7  -1 -11   65.13   17.30
  -7  -1 -10   26.86   12.20
  -7  -1 -10   34.51   12.77
  -7  -1 -10   52.16   15.80
  -7  -1  -9   90.79   20.60
  -7  -1  -9   86.12   19.07
  -7  -1  -9  110.47   21.74
  -7  -1  -8   29.53   10.94
  -7  -1  -8   35.24   13.65
  -7  -1  -8   39.46   14.52
  -7  -1  -7    1.65    9.39
  -7  -1  -7    0.62    7.51
  -7  -1  -6  186.53   26.05
  -7  -1  -6  184.15   27.76
  -7  -1  -6  160.25   23.84
  -7  -1  -5   90.65   19.81
  -7  -1  -5   82.92   18.23
  -7  -1  -5   45.49   13.63
  -7  -1  -5   53.08   12.84
  -7  -1  -4  157.97   23.66
  -7  -1  -4  193.01   26.37
  -7  -1  -4  161.18   21.30
  -7  -1  -3   87.99   17.21
  -7  -1  -3  111.66   20.09
  -7  -1  -3  110.47   20.53
  -7  -1  -2   93.68   17.75
  -7  -1  -2   77.93   13.60
  -7  -1  -2  116.34   20.33
  -7  -1  -2  106.78   20.20
  -7  -1  -1    2.52    8.02
  -7  -1  -1    0.92    5.74
  -7  -1  -1   11.92   10.33
  -7  -1  -1   12.19    8.48
  -7  -1   0  258.02   30.03
  -7  -1   0  262.31   25.44
  -7  -1   0  313.32   33.73
  -7  -1   0  263.77   31.60
  -7  -1   1   75.02   17.48
  -7  -1   1   71.48   14.82
  -7  -1   1   76.82   18.27
  -7  -1   2   17.25    7.44
  -7  -1   2   46.29   15.54
  -7  -1   2   14.59   10.13
  -7  -1   2   29.87   13.22
  -7  -1   2    6.79    7.05
  -7  -1   3    7.25    8.44
  -7  -1   3    1.71    6.66
  -7  -1   3   29.41   14.98
  -7  -1   3   15.32   10.54
  -7  -1   3   19.18   12.80
  -7  -1   4   27.95   13.88
  -7  -1   4   30.03   12.62
  -7  -1   4   34.29   14.04
  -7  -1   4   14.50    7.74
  -7  -1   4   43.16   15.20
  -7  -1   5    4.64    7.79
  -7  -1   5    6.87    8.91
  -7  -1   5   11.93   13.65
  -7  -1   5   -8.90   11.15
  -7  -1   5   10.71    8.71
  -7  -1   6   23.16   12.01
  -7  -1   6    7.73    9.99
  -7  -1   6    5.38   10.97
  -7  -1   6   -5.19    9.05
  -7  -1   6  -12.23    9.79
  -7  -1   7   94.70   23.81
  -7  -1   7   56.11   16.47
  -7  -1   7   61.94   18.15
  -7  -1   7   70.32   19.99
  -7  -1   8   37.06   15.31
  -7  -1   8   28.38   15.19
  -7  -1   8   47.82   15.92
  -7  -1   8   39.87   16.42
  -7  -1   9   43.02   17.59
  -7  -1   9   14.26   11.88
  -7  -1   9   21.32   15.53
  -7  -1  10   16.10    9.62
  -7  -1  10   36.31   17.05
  -7   0 -14   19.84   13.44
  -7   0 -14    6.48    9.59
  -7   0 -14   11.19   10.04
  -7   0 -13  -15.65   10.64
  -7   0 -13    4.83    9.72
  -7   0 -13    9.73   13.50
  -7   0 -12   74.09   20.79
  -7   0 -12   71.19   19.26
  -7   0 -12   48.46   16.37
  -7   0 -11   19.35   10.92
  -7   0 -11   50.34   16.92
  -7   0 -11    7.01    8.35
  -7   0 -11   46.83   15.30
  -7   0 -10    7.81    7.53
  -7   0 -10   31.87   11.93
  -7   0  -9   32.70   14.13
  -7   0  -9   11.08    9.72
  -7   0  -9    7.64    8.66
  -7   0  -8   -1.08    7.89
  -7   0  -8    5.37    8.80
  -7   0  -8   11.70    9.75
  -7   0  -7  267.02   32.46
  -7   0  -7  282.34   31.65
  -7   0  -7  283.92   32.88
  -7   0  -6   28.19   11.57
  -7   0  -6   23.47   10.89
  -7   0  -5  165.09   25.20
  -7   0  -5   94.56   20.21
  -7   0  -5  103.03   16.82
  -7   0  -5  124.62   21.44
  -7   0  -4   34.42   14.48
  -7   0  -4   29.22    9.59
  -7   0  -4   39.41   12.65
  -7   0  -4   24.02   10.93
  -7   0  -3   22.84   14.04
  -7   0  -3    9.54    6.78
  -7   0  -3   22.06    9.92
  -7   0  -3    2.24    8.18
  -7   0  -2  106.38   19.58
  -7   0  -2  101.77   20.79
  -7   0  -2  129.72   23.80
  -7   0  -2   75.77   16.41
  -7   0  -1   44.40   15.41
  -7   0  -1   28.09   10.99
  -7   0  -1   16.66    9.65
  -7   0  -1   17.85   10.03
  -7   0   0   18.63   10.17
  -7   0   0    5.05    7.06
  -7   0   0   22.68   12.36
  -7   0   0   17.50   11.12
  -7   0   1  138.45   24.05
  -7   0   1  134.25   23.51
  -7   0   1  118.10   21.67
  -7   0   2    7.31    7.75
  -7   0   2    5.20    8.08
  -7   0   2   11.06   11.30
  -7   0   2   16.20   10.03
  -7   0   3   51.49   16.78
  -7   0   3   43.83   14.41
  -7   0   3   78.37   16.55
  -7   0   3   59.65   17.62
  -7   0   4   40.20   13.10
  -7   0   4   65.49   16.06
  -7   0   4   44.46   17.66
  -7   0   4   47.54   16.42
  -7   0   4   87.47   19.60
  -7   0   5   42.24   13.84
  -7   0   5   48.08   16.84
  -7   0   5   69.59   17.18
  -7   0   5   38.09   13.80
  -7   0   5   48.69   17.11
  -7   0   6   42.67   13.45
  -7   0   6    9.90    9.26
  -7   0   6   46.95   15.76
  -7   0   6   40.39   14.13
  -7   0   6   46.19   16.99
  -7   0   7   56.30   19.97
  -7   0   7   67.96   20.89
  -7   0   7   75.42   18.54
  -7   0   8   22.27   14.07
  -7   0   8    1.62    8.30
  -7   0   8   30.20   15.67
  -7   0   9   46.49   17.60
  -7   0   9   26.23   16.16
  -7   0   9   16.18   12.30
  -7   1 -13   12.93    8.81
  -7   1 -13   14.05   13.25
  -7   1 -13    5.14   10.79
  -7   1 -12   37.79   16.81
  -7   1 -12   60.48   19.15
  -7   1 -12   71.92   20.53
  -7   1 -11  -12.04    9.63
  -7   1 -11    9.49    9.27
  -7   1 -11   -7.28   10.48
  -7   1 -10   -1.73   11.25
  -7   1 -10   45.18   15.15
  -7   1 -10   15.83   11.11
  -7   1 -10   21.13   11.35
  -7   1  -9   23.27   13.47
  -7   1  -9    7.51   10.71
  -7   1  -9   32.97   13.71
  -7   1  -9   21.14   12.46
  -7   1  -8    7.11   10.88
  -7   1  -8   25.55   12.11
  -7   1  -8   -0.09    8.91
  -7   1  -7  105.84   20.75
  -7   1  -7  114.33   21.35
  -7   1  -7  105.87   22.40
  -7   1  -7   68.71   17.95
  -7   1  -6   61.28   15.04
  -7   1  -6   74.08   19.91
  -7   1  -5   46.48   14.86
  -7   1  -5   41.55   13.95
  -7   1  -5   42.42   14.76
  -7   1  -4   34.95   10.86
  -7   1  -4   46.23   14.20
  -7   1  -4   26.13   11.21
  -7   1  -4   38.13   12.87
  -7   1  -3   42.78   15.26
  -7   1  -3   43.63   14.90
  -7   1  -3   57.79   15.00
  -7   1  -3   77.65   15.96
  -7   1  -2  159.60   25.38
  -7   1  -2  162.41   23.72
  -7   1  -2  115.50   22.92
  -7   1  -2  183.49   24.95
  -7   1  -1   87.48   19.92
  -7   1  -1   66.66   15.62
  -7   1  -1  108.89   19.70
  -7   1  -1   70.41   18.42
  -7   1   0   -0.51    5.95
  -7   1   0    7.00    8.62
  -7   1   0  -12.60   11.20
  -7   1   0  -14.88   14.45
  -7   1   1  -14.53   10.41
  -7   1   1  -14.14   13.68
  -7   1   1    9.09   10.00
  -7   1   2  142.90   23.76
  -7   1   2  116.19   22.04
  -7   1   2  183.41   28.00
  -7   1   2  171.31   23.57
  -7   1   3   28.57   12.73
  -7   1   3   37.55   15.62
  -7   1   3   -4.17   14.36
  -7   1   3   25.06    9.60
  -7   1   4   13.58    9.31
  -7   1   4   39.21   15.31
  -7   1   4    1.51    9.81
  -7   1   4   58.90   15.25
  -7   1   5   49.27   14.84
  -7   1   5   11.84    9.09
  -7   1   5   20.75   10.78
  -7   1   5   62.11   18.71
  -7   1   6   22.74   14.04
  -7   1   6  -10.98   14.16
  -7   1   6    9.45    8.91
  -7   1   6  -11.06   14.53
  -7   1   7   91.31   20.94
  -7   1   7   81.49   22.08
  -7   1   7  123.83   25.43
  -7   1   8    7.21   11.28
  -7   1   8    8.74   12.29
  -7   1   8  -12.18   14.10
  -7   1   9    2.57    9.88
  -7   1   9    7.76    8.93
  -7   1   9    3.36   11.68
  -7   2 -13   -6.87    9.16
  -7   2 -12   10.30    9.53
  -7   2 -12   -2.42   10.44
  -7   2 -12  -13.89   11.37
  -7   2 -11   -2.72    7.35
  -7   2 -11  -15.30   12.57
  -7   2 -11    4.09   11.98
  -7   2 -10   -2.22    7.16
  -7   2 -10    9.16    9.77
  -7   2 -10   18.04   10.81
  -7   2  -9   49.78   16.43
  -7   2  -9   44.81   14.51
  -7   2  -9   27.15   13.93
  -7   2  -9   24.17   13.21
  -7   2  -8   18.75   13.86
  -7   2  -8   -0.44    7.18
  -7   2  -8    4.81    9.57
  -7   2  -8   -2.02    8.69
  -7   2  -7    2.83    9.90
  -7   2  -7    8.62    9.12
  -7   2  -7   18.23   11.08
  -7   2  -7   13.28   10.64
  -7   2  -6   10.18   11.03
  -7   2  -6   21.20   11.27
  -7   2  -6   26.41   11.50
  -7   2  -6   11.44    8.59
  -7   2  -5  269.49   32.12
  -7   2  -5  229.36   31.34
  -7   2  -5  188.32   29.48
  -7   2  -5  265.67   29.57
  -7   2  -4  131.76   23.81
  -7   2  -4  129.72   22.79
  -7   2  -4   92.55   21.06
  -7   2  -4  122.37   20.25
  -7   2  -4   70.88   16.26
  -7   2  -3   62.66   14.95
  -7   2  -3   31.32   11.82
  -7   2  -3   36.81   13.76
  -7   2  -2   24.30   10.74
  -7   2  -2   -9.99   16.06
  -7   2  -2    9.36    8.41
  -7   2  -2   12.75    8.31
  -7   2  -1    6.46    8.54
  -7   2  -1   36.41   12.41
  -7   2  -1   21.72    9.86
  -7   2   0  148.52   24.82
  -7   2   0  146.15   24.72
  -7   2   0  141.90   25.91
  -7   2   1    8.86   13.74
  -7   2   1   34.86   12.76
  -7   2   1   44.77   15.26
  -7   2   2   20.34    9.25
  -7   2   2   -1.49   11.07
  -7   2   2   10.47    8.92
  -7   2   3   32.20   12.11
  -7   2   3   32.74   13.21
  -7   2   3   63.29   18.24
  -7   2   3   58.96   17.76
  -7   2   4    8.57   10.48
  -7   2   4   -6.01    8.44
  -7   2   4   12.93    8.70
  -7   2   4    7.84    8.00
  -7   2   5   13.68    9.33
  -7   2   5   39.45   16.30
  -7   2   5   28.50   16.38
  -7   2   5   42.38   17.86
  -7   2   6   46.63   18.96
  -7   2   6   49.51   17.52
  -7   2   6   74.95   19.96
  -7   2   6   53.11   17.34
  -7   2   7   26.02   14.70
  -7   2   7   18.20   11.89
  -7   2   7   22.24   12.11
  -7   2   8   34.36   16.12
  -7   2   8   31.65   14.62
  -7   2   8    3.19    7.46
  -7   2   9   -8.76   12.18
  -7   3 -12   14.92   11.55
  -7   3 -11   23.41   12.04
  -7   3 -11   48.29   18.12
  -7   3 -11   47.29   17.88
  -7   3 -10   -2.65    8.70
  -7   3 -10   10.13   10.41
  -7   3 -10   15.01   10.81
  -7   3 -10    4.09    9.37
  -7   3  -9   15.63   14.56
  -7   3  -9   12.18   10.50
  -7   3  -9   16.39   11.52
  -7   3  -9   17.46   11.74
  -7   3  -8  131.40   26.05
  -7   3  -8  104.29   23.00
  -7   3  -8  103.35   22.34
  -7   3  -8  115.27   23.41
  -7   3  -7   13.91   11.65
  -7   3  -7    2.78    9.70
  -7   3  -7   11.19   10.46
  -7   3  -7    4.09    7.64
  -7   3  -6   26.82   12.31
  -7   3  -6   17.79   12.04
  -7   3  -6   43.44   14.18
  -7   3  -6   43.31   14.11
  -7   3  -5   34.66   12.76
  -7   3  -5   33.17   14.25
  -7   3  -5   15.14   11.38
  -7   3  -5   40.67   14.08
  -7   3  -4   14.89   10.18
  -7   3  -4    0.32    7.17
  -7   3  -4    7.73    7.91
  -7   3  -4    4.38    7.92
  -7   3  -3   17.93    8.10
  -7   3  -3   15.34   12.45
  -7   3  -3   21.08   13.49
  -7   3  -2    0.47    9.01
  -7   3  -2   -4.00   10.28
  -7   3  -2   -1.83    9.33
  -7   3  -1   46.02   15.87
  -7   3  -1   43.00   14.22
  -7   3  -1   68.66   20.76
  -7   3   0   90.87   20.85
  -7   3   0  108.05   24.72
  -7   3   0   70.84   18.11
  -7   3   1   26.21   12.98
  -7   3   1   24.03   15.25
  -7   3   1   39.87   14.27
  -7   3   2   45.84   15.89
  -7   3   2   42.58   17.96
  -7   3   2   41.36   15.53
  -7   3   2   11.64    6.64
  -7   3   3   -0.02    9.00
  -7   3   3    6.17    8.37
  -7   3   3   20.00   13.03
  -7   3   4   30.92   12.88
  -7   3   4   23.86   11.38
  -7   3   4   35.89   14.20
  -7   3   4   57.46   19.66
  -7   3   5    3.93    8.61
  -7   3   5    7.55    9.14
  -7   3   5   27.18   12.90
  -7   3   5   18.01   11.55
  -7   3   6    7.79   10.82
  -7   3   6  -17.80   12.84
  -7   3   6   23.39   13.01
  -7   3   6   22.13   12.34
  -7   3   7   -2.96    8.18
  -7   3   7   -5.16   10.36
  -7   3   8    3.05   11.44
  -7   4 -10  -20.77   14.27
  -7   4  -9   -0.95    9.70
  -7   4  -9   -6.32    9.92
  -7   4  -9    6.38   11.70
  -7   4  -8   -5.04   11.87
  -7   4  -8   47.52   19.65
  -7   4  -8   26.23   15.44
  -7   4  -7   32.65   13.36
  -7   4  -7   30.03   13.04
  -7   4  -7   66.92   20.17
  -7   4  -6   47.44   19.07
  -7   4  -6   22.94   13.12
  -7   4  -5   23.27   14.79
  -7   4  -5   51.51   18.33
  -7   4  -4   31.43   15.70
  -7   4  -4   -0.79    8.28
  -7   4  -3    4.02    8.16
  -7   4  -3   32.48   18.15
  -7   4  -2    5.79    8.45
  -7   4  -2   23.66   15.88
  -7   4  -1   66.50   18.86
  -7   4  -1   48.64   16.97
  -7   4  -1   61.50   21.62
  -7   4   0   12.17    8.39
  -7   4   0   -3.77    8.56
  -7   4   0    0.42   13.32
  -7   4   1   73.13   20.23
  -7   4   1  107.22   24.21
  -7   4   1  118.66   26.58
  -7   4   2   44.32   16.34
  -7   4   2   35.18   14.07
  -7   4   2    6.87   10.64
  -7   4   2   35.47   14.27
  -7   4   3   56.96   17.57
  -7   4   3   50.64   17.79
  -7   4   3   40.77   16.92
  -7   4   3   65.63   19.02
  -7   4   4    8.59   12.68
  -7   4   4   31.07   14.13
  -7   4   4   25.36   13.06
  -7   4   5    3.55    8.24
  -7   4   5   -5.46   10.01
  -7   4   6   10.63   12.44
  -7   4   6   -6.28    9.00
  -7   5  -3    0.27    7.55
  -7   5  -2   24.78   12.89
  -7   5  -1  118.18   25.82
  -7   5   0   55.63   19.23
  -7   5   1   22.79   12.33
  -7   5   2  -17.55   11.92
  -7   5   3   21.50   13.13
  -6 -10  -7   17.91   13.17
  -6 -10  -6  -22.70   14.39
  -6 -10  -6  -20.96   12.49
  -6 -10  -5   63.01   17.81
  -6 -10  -5   17.50   11.54
  -6 -10  -4    1.90   11.45
  -6 -10  -4   18.67   11.50
  -6 -10  -3   -2.10    8.03
  -6 -10  -3   51.26   16.51
  -6 -10  -2    9.08    9.76
  -6 -10  -2   -9.16   11.95
  -6 -10  -1  -39.15   15.81
  -6 -10  -1   -5.42    9.70
  -6 -10   0   -0.42    8.94
  -6  -9 -11   76.67   21.34
  -6  -9 -10   32.23   16.38
  -6  -9 -10  -10.48   14.78
  -6  -9  -9    7.36   10.05
  -6  -9  -9   -0.86   10.90
  -6  -9  -8    9.87   10.01
  -6  -9  -8   -7.56   10.08
  -6  -9  -7  -26.29   13.12
  -6  -9  -7    5.70    9.95
  -6  -9  -6   23.53   12.06
  -6  -9  -6   20.50   11.76
  -6  -9  -5   -7.99   10.30
  -6  -9  -5   -7.93    8.72
  -6  -9  -4   -1.23    8.46
  -6  -9  -4   -0.51    6.85
  -6  -9  -3   59.12   17.22
  -6  -9  -3   13.43    9.08
  -6  -9  -2    4.58    8.73
  -6  -9  -2   21.59   13.21
  -6  -9  -1    4.04    8.15
  -6  -9  -1   33.04   14.36
  -6  -9   0    8.42   10.20
  -6  -9   1    3.38    8.90
  -6  -9   2  -11.55   12.31
  -6  -9   3   24.56   12.46
  -6  -9   4   14.61   13.06
  -6  -8 -12   14.09   12.52
  -6  -8 -11    5.04    8.17
  -6  -8 -10   25.24   13.26
  -6  -8 -10   43.89   16.45
  -6  -8  -9    5.79    8.24
  -6  -8  -9   25.63   13.75
  -6  -8  -8   85.95   19.81
  -6  -8  -8   65.01   18.01
  -6  -8  -7  -14.96   10.21
  -6  -8  -7   13.57   11.23
  -6  -8  -6  -11.44   10.10
  -6  -8  -6   -8.23   11.13
  -6  -8  -5    7.47    8.72
  -6  -8  -5   17.02    9.81
  -6  -8  -4   55.55   16.22
  -6  -8  -4   37.26   13.70
  -6  -8  -3   49.57   13.74
  -6  -8  -3   79.76   18.45
  -6  -8  -2   14.72   11.60
  -6  -8  -2    0.75    7.12
  -6  -8  -1    9.38   10.45
  -6  -8  -1   33.61   12.00
  -6  -8   0    5.35    9.27
  -6  -8   1   15.63    9.17
  -6  -8   2   10.03    8.38
  -6  -8   3   32.13   14.18
  -6  -8   4   37.99   15.14
  -6  -8   5   12.50   10.67
  -6  -8   5   29.00   14.56
  -6  -8   6   27.81   13.54
  -6  -8   6   -6.17   12.63
  -6  -7 -14   -4.60    8.82
  -6  -7 -14    7.28   12.52
  -6  -7 -13    4.87    8.28
  -6  -7 -12   10.20    6.31
  -6  -7 -11    2.30    6.99
  -6  -7 -10   26.43   13.16
  -6  -7  -9   69.91   18.06
  -6  -7  -9   96.58   22.39
  -6  -7  -8    2.84   10.50
  -6  -7  -8   -0.70   11.03
  -6  -7  -7   46.61   15.05
  -6  -7  -7   40.21   13.32
  -6  -7  -6   -1.89    8.63
  -6  -7  -6   -2.56    6.92
  -6  -7  -5   27.45   10.39
  -6  -7  -5    4.10    9.37
  -6  -7  -4   77.30   16.25
  -6  -7  -4   91.77   19.50
  -6  -7  -3   25.08   11.55
  -6  -7  -3   17.12    8.27
  -6  -7  -2   51.45   13.08
  -6  -7  -2   37.96   13.98
  -6  -7  -1   23.43    9.60
  -6  -7  -1   16.46   10.42
  -6  -7   0    9.63    8.33
  -6  -7   1   18.54    9.20
  -6  -7   2   24.44   11.24
  -6  -7   3   29.26   13.48
  -6  -7   4    9.39    8.99
  -6  -7   5   71.36   20.30
  -6  -7   6   13.07   11.45
  -6  -7   6    9.47   12.59
  -6  -7   7    0.67    9.82
  -6  -7   7    2.77    9.62
  -6  -7   8    9.06   10.11
  -6  -7   8    8.17   11.51
  -6  -7   9  -14.91   10.66
  -6  -6 -15   14.29   11.53
  -6  -6 -15   16.88   11.86
  -6  -6 -14   32.46   14.53
  -6  -6 -14    9.55   11.28
  -6  -6 -13   45.09   18.20
  -6  -6 -12   17.66   10.85
  -6  -6 -11   28.45   10.56
  -6  -6 -11   51.52   16.80
  -6  -6 -10    7.49    6.33
  -6  -6 -10    5.35    5.30
  -6  -6  -9   17.38    8.18
  -6  -6  -9   21.25   10.89
  -6  -6  -8   14.50   11.16
  -6  -6  -8    7.71    6.45
  -6  -6  -7   77.78   18.38
  -6  -6  -7   70.48   16.65
  -6  -6  -7   45.29   12.00
  -6  -6  -6  243.99   27.05
  -6  -6  -6  259.00   32.00
  -6  -6  -6  205.72   24.68
  -6  -6  -5   -0.78    6.68
  -6  -6  -5    3.95    5.17
  -6  -6  -5    9.19   10.48
  -6  -6  -4   11.28    9.04
  -6  -6  -4   10.02    8.42
  -6  -6  -4    8.19    7.61
  -6  -6  -3   21.82    8.99
  -6  -6  -3   30.11   10.19
  -6  -6  -2  150.11   23.31
  -6  -6  -2  112.22   16.87
  -6  -6  -1  131.13   22.04
  -6  -6   0    0.24    8.64
  -6  -6   0   -1.17    5.72
  -6  -6   1   35.43   11.33
  -6  -6   1   37.72   12.26
  -6  -6   2   10.93    8.44
  -6  -6   2   11.81   11.26
  -6  -6   3   27.77   13.58
  -6  -6   3   24.70   10.71
  -6  -6   4   26.17   10.51
  -6  -6   4   50.95   15.27
  -6  -6   5   56.45   16.83
  -6  -6   5   66.69   17.53
  -6  -6   6   34.81   14.56
  -6  -6   6   89.74   20.55
  -6  -6   7   15.50    9.04
  -6  -6   7    9.02    9.51
  -6  -6   7   15.76   12.62
  -6  -6   8   27.69   13.78
  -6  -6   8   25.48   13.09
  -6  -6   8   20.50   14.26
  -6  -6   9    6.96   10.55
  -6  -6   9   43.25   16.50
  -6  -6  10   41.09   17.70
  -6  -5 -16   25.08   14.18
  -6  -5 -16   -2.95   12.66
  -6  -5 -16   12.54   11.10
  -6  -5 -15    7.72   14.60
  -6  -5 -15   23.23   13.06
  -6  -5 -15   25.09   12.03
  -6  -5 -14   16.86   13.08
  -6  -5 -14    5.11    7.01
  -6  -5 -14   33.31   13.18
  -6  -5 -13    0.75    6.68
  -6  -5 -13    9.13    7.93
  -6  -5 -12   11.49    7.98
  -6  -5 -12   14.38    9.91
  -6  -5 -11   76.87   16.75
  -6  -5 -11   41.92   15.02
  -6  -5 -10   55.59   15.13
  -6  -5 -10   71.82   16.20
  -6  -5  -9  224.83   27.89
  -6  -5  -9  201.59   28.04
  -6  -5  -9  214.67   24.30
  -6  -5  -8   48.31   12.74
  -6  -5  -8   54.27   13.28
  -6  -5  -8   57.63   15.49
  -6  -5  -7   10.29    7.58
  -6  -5  -7   15.91   10.55
  -6  -5  -7   11.66    7.35
  -6  -5  -6   89.36   15.35
  -6  -5  -6   80.17   17.66
  -6  -5  -6   96.16   16.90
  -6  -5  -5   56.03   12.42
  -6  -5  -5   94.52   19.27
  -6  -5  -5   67.80   14.33
  -6  -5  -5   88.24   15.75
  -6  -5  -4   67.04   15.99
  -6  -5  -4   95.57   15.86
  -6  -5  -4   68.06   14.31
  -6  -5  -4   71.50   13.63
  -6  -5  -3   47.58   11.49
  -6  -5  -3   36.01   10.62
  -6  -5  -3   17.36    8.44
  -6  -5  -3   43.56   12.67
  -6  -5  -2  118.73   20.10
  -6  -5  -2  152.31   20.09
  -6  -5  -2  141.45   16.85
  -6  -5  -1  154.70   20.47
  -6  -5  -1  172.40   23.12
  -6  -5   0   53.97   12.93
  -6  -5   0   79.28   15.55
  -6  -5   1  116.54   18.48
  -6  -5   1  137.17   21.36
  -6  -5   2   27.76   10.97
  -6  -5   2   59.07   15.17
  -6  -5   3  125.76   21.91
  -6  -5   3  146.16   23.12
  -6  -5   4    6.92    8.14
  -6  -5   4   24.89   12.28
  -6  -5   5    3.16    7.96
  -6  -5   5    8.90    9.23
  -6  -5   6   11.21   10.55
  -6  -5   6   11.01   10.75
  -6  -5   7   34.04   11.43
  -6  -5   7   33.12   13.56
  -6  -5   7   47.47   15.75
  -6  -5   8   13.73   10.57
  -6  -5   8   34.59   15.64
  -6  -5   9   13.36   13.47
  -6  -5   9    5.41    9.14
  -6  -5  10  -16.72   13.35
  -6  -5  10   26.59   16.64
  -6  -4 -17   11.60    9.89
  -6  -4 -17   14.53   12.86
  -6  -4 -16   64.19   18.70
  -6  -4 -16   81.59   22.21
  -6  -4 -16   34.75   14.52
  -6  -4 -16   53.08   17.25
  -6  -4 -15   -9.64    8.90
  -6  -4 -15    4.38    7.81
  -6  -4 -15    1.36    6.75
  -6  -4 -15   -3.43   13.93
  -6  -4 -14   -3.63    9.66
  -6  -4 -14  -12.45    9.17
  -6  -4 -14   -1.02   12.72
  -6  -4 -14    5.42    8.01
  -6  -4 -13   58.11   16.76
  -6  -4 -13   33.69   13.81
  -6  -4 -13   35.65   13.46
  -6  -4 -13   40.66   14.59
  -6  -4 -12   52.98   15.39
  -6  -4 -12   32.82   12.40
  -6  -4 -12   45.26   14.29
  -6  -4 -11  142.14   23.22
  -6  -4 -11  108.73   20.76
  -6  -4 -11  119.52   20.11
  -6  -4 -10   19.32   10.25
  -6  -4 -10   25.23    9.74
  -6  -4 -10   19.83    9.06
  -6  -4  -9  134.25   21.10
  -6  -4  -9  129.01   21.76
  -6  -4  -9  104.02   18.09
  -6  -4  -8   56.15   13.00
  -6  -4  -8   49.76   12.68
  -6  -4  -8   65.70   15.60
  -6  -4  -7  210.99   24.98
  -6  -4  -7  190.12   25.17
  -6  -4  -7  161.66   20.99
  -6  -4  -6   31.70   11.10
  -6  -4  -6   18.92    8.80
  -6  -4  -6   38.01   11.69
  -6  -4  -5   66.07   14.42
  -6  -4  -5   56.52   14.14
  -6  -4  -5   37.56   11.45
  -6  -4  -4  229.50   24.37
  -6  -4  -4  254.07   27.36
  -6  -4  -4  264.16   27.30
  -6  -4  -3   26.04   10.00
  -6  -4  -3   33.05    9.96
  -6  -4  -3   25.39    9.46
  -6  -4  -2  182.66   21.80
  -6  -4  -2  153.48   21.28
  -6  -4  -2  208.28   24.61
  -6  -4  -1   98.64   16.71
  -6  -4  -1  120.16   18.17
  -6  -4   0  183.79   22.61
  -6  -4   0  178.30   22.89
  -6  -4   1  111.71   18.85
  -6  -4   1  101.04   18.43
  -6  -4   2   50.24   14.96
  -6  -4   2   44.19   13.58
  -6  -4   3   -4.36    7.87
  -6  -4   3    3.00    9.17
  -6  -4   4  145.53   22.25
  -6  -4   4  156.17   24.88
  -6  -4   5   12.68   10.80
  -6  -4   5   16.92   11.42
  -6  -4   6   61.76   16.62
  -6  -4   6   52.66   16.64
  -6  -4   7    6.12    9.84
  -6  -4   7   -0.61    9.30
  -6  -4   8   23.42   13.35
  -6  -4   8   21.47   11.15
  -6  -4   9   36.67   16.21
  -6  -4   9    9.79    9.93
  -6  -4  10    4.37   11.93
  -6  -4  10    4.43   14.09
  -6  -4  11   11.43   11.64
  -6  -3 -17   18.47   12.42
  -6  -3 -17   32.31   17.77
  -6  -3 -17   24.12   15.31
  -6  -3 -16   17.90   11.43
  -6  -3 -16   32.33   15.77
  -6  -3 -15   44.93   15.30
  -6  -3 -15   44.41   15.85
  -6  -3 -15   27.01   13.19
  -6  -3 -14   20.47   10.99
  -6  -3 -14   22.66   12.21
  -6  -3 -14   20.42    9.28
  -6  -3 -13   25.43   12.22
  -6  -3 -13   10.96    8.68
  -6  -3 -13   50.00   15.02
  -6  -3 -13   28.92   11.30
  -6  -3 -12  119.37   21.32
  -6  -3 -12  109.74   20.70
  -6  -3 -12  139.69   23.75
  -6  -3 -11    0.40    5.08
  -6  -3 -11   18.75   10.67
  -6  -3 -11    8.66    9.45
  -6  -3 -10   96.73   19.02
  -6  -3 -10  123.93   20.97
  -6  -3 -10  123.08   21.11
  -6  -3  -9  122.08   20.30
  -6  -3  -9  144.15   21.63
  -6  -3  -9  175.60   23.85
  -6  -3  -8  113.74   19.24
  -6  -3  -8   83.74   17.13
  -6  -3  -8   88.58   16.84
  -6  -3  -7  315.76   30.84
  -6  -3  -7  302.08   30.39
  -6  -3  -7  330.73   30.44
  -6  -3  -6   67.74   14.85
  -6  -3  -6   54.73   13.25
  -6  -3  -6   41.56   12.14
  -6  -3  -5    3.37    6.71
  -6  -3  -5    6.58    6.26
  -6  -3  -5    5.26    6.62
  -6  -3  -4  182.20   21.97
  -6  -3  -4  187.16   22.73
  -6  -3  -4  213.97   24.53
  -6  -3  -3  185.75   22.75
  -6  -3  -3  172.68   21.09
  -6  -3  -3  170.37   21.49
  -6  -3  -2  369.62   30.24
  -6  -3  -2  303.01   28.83
  -6  -3  -2  387.06   33.11
  -6  -3  -1   13.19    7.92
  -6  -3  -1   37.72   12.33
  -6  -3  -1   29.80    9.28
  -6  -3   0  219.55   25.25
  -6  -3   0  248.19   25.17
  -6  -3   1   95.98   18.35
  -6  -3   1  136.67   19.02
  -6  -3   2   51.72   14.02
  -6  -3   2   52.88   13.87
  -6  -3   3  108.51   18.68
  -6  -3   3   81.12   17.15
  -6  -3   4   17.56   10.77
  -6  -3   4   13.02    8.40
  -6  -3   5  184.77   24.96
  -6  -3   5  230.98   30.39
  -6  -3   6    7.18    9.06
  -6  -3   6    1.42    7.33
  -6  -3   7   14.99    9.86
  -6  -3   7    3.44   11.01
  -6  -3   8   21.03   11.80
  -6  -3   8    3.57    8.78
  -6  -3   9   25.92   14.38
  -6  -3   9   -0.52   11.62
  -6  -3  10   25.65   13.20
  -6  -3  10   11.58    9.50
  -6  -3  10   35.74   16.59
  -6  -3  11   18.60   12.69
  -6  -3  11   27.23   16.16
  -6  -2 -17   -0.95   10.50
  -6  -2 -17    3.37    8.72
  -6  -2 -16  -12.34   10.21
  -6  -2 -16   15.04   11.13
  -6  -2 -15   10.30   10.92
  -6  -2 -15   28.28   13.07
  -6  -2 -14  207.96   28.66
  -6  -2 -14  192.79   29.17
  -6  -2 -13   -1.91    9.35
  -6  -2 -13   17.27    9.29
  -6  -2 -13    6.69    6.59
  -6  -2 -12    0.11    5.87
  -6  -2 -12   13.01    7.59
  -6  -2 -12   -0.95    9.95
  -6  -2 -12   -5.81    9.33
  -6  -2 -11   13.06    9.86
  -6  -2 -11   18.69    8.70
  -6  -2 -11   13.37    8.88
  -6  -2 -10  198.08   26.61
  -6  -2 -10  169.86   25.08
  -6  -2 -10  209.30   26.13
  -6  -2  -9  178.73   25.13
  -6  -2  -9  177.00   24.96
  -6  -2  -9  164.55   22.41
  -6  -2  -8  114.55   19.56
  -6  -2  -8   91.78   17.37
  -6  -2  -8  119.01   18.79
  -6  -2  -7   88.99   17.03
  -6  -2  -7   85.05   16.70
  -6  -2  -7   90.37   16.09
  -6  -2  -6  165.36   22.11
  -6  -2  -6  202.80   24.29
  -6  -2  -6  163.30   20.56
  -6  -2  -6  210.12   19.77
  -6  -2  -5  932.20   47.13
  -6  -2  -5  916.95   50.47
  -6  -2  -5  956.75   51.72
  -6  -2  -4   19.01    8.74
  -6  -2  -4   32.31   10.39
  -6  -2  -4   28.11   10.87
  -6  -2  -3  196.85   23.77
  -6  -2  -3  218.70   24.81
  -6  -2  -3  235.03   22.77
  -6  -2  -2  312.35   29.86
  -6  -2  -2  247.46   23.30
  -6  -2  -2  273.50   28.05
  -6  -2  -1    8.09    4.92
  -6  -2  -1   17.10    8.80
  -6  -2  -1   13.20    6.15
  -6  -2  -1    7.81    6.90
  -6  -2   0  529.98   34.16
  -6  -2   0  516.24   29.52
  -6  -2   0  592.99   41.77
  -6  -2   1  167.73   23.39
  -6  -2   1  155.23   20.21
  -6  -2   1  116.72   15.29
  -6  -2   2  166.75   19.35
  -6  -2   2  168.03   23.97
  -6  -2   2  161.20   20.87
  -6  -2   3   42.45   12.42
  -6  -2   3   63.05   13.04
  -6  -2   3   80.53   17.74
  -6  -2   4   10.92    7.31
  -6  -2   4   14.11   11.03
  -6  -2   4   10.74    8.78
  -6  -2   5   35.98   11.56
  -6  -2   5   26.56   12.86
  -6  -2   5   47.70   15.06
  -6  -2   6   41.90   14.04
  -6  -2   6   46.38   13.36
  -6  -2   6   26.00   11.21
  -6  -2   7   64.70   17.07
  -6  -2   7   56.96   16.43
  -6  -2   7   36.34   12.36
  -6  -2   8   34.94   14.13
  -6  -2   8   46.19   15.11
  -6  -2   8   32.41   11.80
  -6  -2   9   11.38   10.53
  -6  -2   9    3.69   10.47
  -6  -2   9   -1.89    9.36
  -6  -2  10   25.04   17.10
  -6  -2  10    8.80    9.07
  -6  -2  10    9.55    9.44
  -6  -2  11   22.73   15.55
  -6  -2  11   30.88   15.17
  -6  -2  11    6.21    9.64
  -6  -2  12   -9.32   10.60
  -6  -1 -16   37.79   16.57
  -6  -1 -16   72.49   19.97
  -6  -1 -15   -2.97    8.95
  -6  -1 -15    8.95    8.32
  -6  -1 -14   23.10   13.33
  -6  -1 -14   34.15   16.18
  -6  -1 -13   95.05   21.64
  -6  -1 -12    1.04    8.29
  -6  -1 -11   57.91   16.31
  -6  -1 -11   68.36   17.92
  -6  -1 -11   58.99   15.58
  -6  -1 -10  156.10   22.35
  -6  -1 -10  125.49   22.26
  -6  -1 -10  140.67   23.66
  -6  -1  -9   52.90   15.72
  -6  -1  -9   71.85   16.87
  -6  -1  -9   44.73   14.36
  -6  -1  -9   38.73   10.64
  -6  -1  -8  417.26   32.06
  -6  -1  -8  456.24   38.91
  -6  -1  -8  398.14   36.54
  -6  -1  -7   71.05   16.17
  -6  -1  -7   75.27   15.79
  -6  -1  -7   87.34   14.65
  -6  -1  -6   77.01   15.90
  -6  -1  -6   64.11   12.20
  -6  -1  -6   77.28   16.61
  -6  -1  -6   61.16   10.97
  -6  -1  -5  102.58   14.55
  -6  -1  -5  103.53   17.85
  -6  -1  -5   86.89   16.81
  -6  -1  -5   92.51   14.19
  -6  -1  -4   27.14    9.50
  -6  -1  -4   21.02    7.61
  -6  -1  -4   14.41    8.74
  -6  -1  -4   24.62    9.84
  -6  -1  -3   57.63   13.64
  -6  -1  -3   36.42    8.55
  -6  -1  -3   36.45   11.66
  -6  -1  -3   47.48   12.23
  -6  -1  -2  190.17   22.31
  -6  -1  -2  166.98   17.72
  -6  -1  -2  162.39   21.68
  -6  -1  -2  180.97   22.65
  -6  -1  -1   21.96    6.61
  -6  -1  -1   24.52   10.65
  -6  -1  -1   27.71   11.62
  -6  -1  -1   35.97   12.90
  -6  -1  -1   25.32    8.24
  -6  -1   0  268.78   28.83
  -6  -1   0  252.86   27.10
  -6  -1   0  282.60   29.14
  -6  -1   0  281.51   24.39
  -6  -1   0  267.31   22.15
  -6  -1   1  185.71   25.08
  -6  -1   1  213.36   25.17
  -6  -1   1  249.10   23.75
  -6  -1   1  177.60   19.05
  -6  -1   2   97.91   18.24
  -6  -1   2   80.59   15.29
  -6  -1   2   63.82   12.73
  -6  -1   2   80.63   16.98
  -6  -1   3   35.91   13.40
  -6  -1   3   14.78    7.55
  -6  -1   3   18.36   11.11
  -6  -1   3   15.23    9.59
  -6  -1   4  359.55   35.22
  -6  -1   4  365.26   31.19
  -6  -1   4  310.93   28.87
  -6  -1   4  363.04   36.57
  -6  -1   4  349.76   33.46
  -6  -1   5  132.29   22.58
  -6  -1   5  112.98   20.27
  -6  -1   5   92.99   16.95
  -6  -1   5  113.54   19.81
  -6  -1   5  120.55   23.20
  -6  -1   6   44.63   14.42
  -6  -1   6   35.35   14.32
  -6  -1   6   46.09   14.92
  -6  -1   6   34.02   11.26
  -6  -1   6   57.91   15.79
  -6  -1   7   36.31   15.51
  -6  -1   7   19.21   11.28
  -6  -1   7   17.96   12.49
  -6  -1   7    5.26    7.80
  -6  -1   8   26.66   13.92
  -6  -1   8    6.29    9.36
  -6  -1   8   14.70   10.77
  -6  -1   8   22.25   13.38
  -6  -1   9   50.26   18.87
  -6  -1   9   19.41   10.59
  -6  -1   9   48.90   17.78
  -6  -1  10   -8.94    8.47
  -6  -1  10   -5.46    9.96
  -6  -1  10    7.45   10.17
  -6  -1  11   -2.59    9.85
  -6  -1  11  -21.78   12.29
  -6  -1  12   29.34   15.43
  -6   0 -16   58.44   19.40
  -6   0 -16   65.40   19.90
  -6   0 -15   15.70   12.66
  -6   0 -15   16.00   13.64
  -6   0 -14    9.04   10.46
  -6   0 -14   47.87   17.15
  -6   0 -13   17.39   11.71
  -6   0 -13   51.78   16.95
  -6   0 -12  129.25   23.83
  -6   0 -12  157.32   25.96
  -6   0 -11   36.95   15.78
  -6   0 -11   15.49    7.70
  -6   0 -10   27.97   11.73
  -6   0 -10   15.14    7.84
  -6   0 -10   32.87   11.47
  -6   0  -9    1.51    6.09
  -6   0  -9    4.89    7.51
  -6   0  -9   10.11    9.56
  -6   0  -8   56.93   15.26
  -6   0  -8   50.64   14.04
  -6   0  -8   58.62   15.17
  -6   0  -7  282.83   31.63
  -6   0  -7  298.24   31.24
  -6   0  -7  276.02   29.47
  -6   0  -6   64.63   15.38
  -6   0  -6   90.92   17.80
  -6   0  -6   82.36   16.47
  -6   0  -5  202.67   20.74
  -6   0  -5  243.70   28.03
  -6   0  -5  293.76   29.28
  -6   0  -5  284.30   29.30
  -6   0  -4    5.29    7.71
  -6   0  -4    6.87    7.00
  -6   0  -4   16.05   10.03
  -6   0  -3  608.28   42.75
  -6   0  -3  587.68   37.01
  -6   0  -3  696.98   44.09
  -6   0  -3  678.32   44.78
  -6   0  -2  359.15   32.98
  -6   0  -2  310.16   29.65
  -6   0  -2  350.87   23.91
  -6   0  -2  354.61   30.01
  -6   0  -2  396.89   35.21
  -6   0  -1  237.03   20.45
  -6   0  -1  246.56   28.92
  -6   0  -1  227.73   26.96
  -6   0  -1  208.58   24.51
  -6   0  -1  189.08   22.75
  -6   0  -1  186.25   18.52
  -6   0   0   -3.32    3.93
  -6   0   0    6.77    7.05
  -6   0   0    4.53    8.72
  -6   0   0   11.05    5.88
  -6   0   0    4.25    7.16
  -6   0   1  167.74   19.10
  -6   0   1  203.70   26.57
  -6   0   1  215.43   21.08
  -6   0   1  175.38   22.77
  -6   0   1  195.96   25.88
  -6   0   2   70.11   13.64
  -6   0   2   65.54   15.57
  -6   0   2   70.59   17.15
  -6   0   2   74.55   17.85
  -6   0   2   47.04   11.67
  -6   0   3   28.68   10.02
  -6   0   3   44.03   12.02
  -6   0   3   40.96   13.69
  -6   0   3   23.59   11.50
  -6   0   3   39.63   13.31
  -6   0   4   79.07   15.70
  -6   0   4   69.00   16.31
  -6   0   4   76.37   15.52
  -6   0   4   87.85   19.92
  -6   0   4   88.21   19.02
  -6   0   5   87.99   16.55
  -6   0   5  131.78   20.46
  -6   0   5   88.38   19.15
  -6   0   5   74.85   15.48
  -6   0   5  136.76   23.80
  -6   0   6  117.01   22.59
  -6   0   6  103.69   18.47
  -6   0   6   77.48   16.78
  -6   0   6  137.34   24.49
  -6   0   6   86.75   17.78
  -6   0   7   43.24   14.93
  -6   0   7   24.96    8.85
  -6   0   7   23.54   12.57
  -6   0   7   15.54    9.10
  -6   0   8  101.47   20.00
  -6   0   8  133.70   25.79
  -6   0   8  111.86   24.04
  -6   0   9   23.93   13.06
  -6   0   9   58.82   16.95
  -6   0   9   58.44   19.33
  -6   0  10   15.41   12.32
  -6   0  10   10.39   10.04
  -6   0  10   -3.05   10.26
  -6   0  11   -5.17   12.81
  -6   0  11    8.25   14.52
  -6   0  11   -5.69   11.86
  -6   0  12    4.87   11.56
  -6   0  12    0.03   10.59
  -6   1 -15   56.16   18.46
  -6   1 -15   34.29   15.99
  -6   1 -14   -7.82   10.33
  -6   1 -14    1.43    9.17
  -6   1 -13    0.09   10.07
  -6   1 -13   -8.11    9.68
  -6   1 -12   45.81   16.34
  -6   1 -12   22.75   11.45
  -6   1 -11   34.94   16.12
  -6   1 -11   35.89   14.67
  -6   1 -10  120.18   22.98
  -6   1 -10   64.94   14.75
  -6   1 -10   92.84   20.74
  -6   1 -10  118.46   21.41
  -6   1  -9   53.08   15.81
  -6   1  -9   23.58    8.55
  -6   1  -9   31.97   12.10
  -6   1  -9   41.34   14.01
  -6   1  -8   34.85   13.57
  -6   1  -8    1.15    7.84
  -6   1  -8   53.02   14.70
  -6   1  -8   41.86   14.39
  -6   1  -7   97.57   18.20
  -6   1  -7  103.10   20.51
  -6   1  -7  114.93   20.04
  -6   1  -7  133.03   22.02
  -6   1  -6   71.63   16.13
  -6   1  -6   56.64   14.48
  -6   1  -6   80.28   17.69
  -6   1  -5  154.11   21.77
  -6   1  -5  129.63   20.99
  -6   1  -5  179.09   25.16
  -6   1  -5  141.01   18.30
  -6   1  -4   -8.89    7.03
  -6   1  -4   -2.77    8.29
  -6   1  -4    3.23    7.38
  -6   1  -4   -7.43   10.12
  -6   1  -3  126.13   21.24
  -6   1  -3  131.46   18.90
  -6   1  -3  109.03   19.28
  -6   1  -3  122.43   19.51
  -6   1  -2  424.73   37.77
  -6   1  -2  399.80   32.67
  -6   1  -2  452.61   37.55
  -6   1  -2  453.91   36.03
  -6   1  -1   77.35   17.10
  -6   1  -1   99.08   14.76
  -6   1  -1   98.61   17.30
  -6   1  -1   79.66   16.70
  -6   1  -1   95.34   17.33
  -6   1   0   78.32   15.96
  -6   1   0   93.47   18.76
  -6   1   0  105.04   18.90
  -6   1   0   79.00   16.56
  -6   1   0  111.43   16.10
  -6   1   1  195.64   25.21
  -6   1   1  175.20   21.07
  -6   1   1  209.21   27.01
  -6   1   1  157.08   23.92
  -6   1   2  132.27   21.51
  -6   1   2  116.70   20.42
  -6   1   2  150.50   23.22
  -6   1   2  135.55   19.64
  -6   1   3    5.53    8.56
  -6   1   3    6.22    8.33
  -6   1   3    8.45    6.92
  -6   1   3    5.88    8.74
  -6   1   4   43.61   12.23
  -6   1   4   39.60   11.58
  -6   1   4   55.68   15.33
  -6   1   5   -2.25   12.01
  -6   1   5    5.86   10.77
  -6   1   5   17.25    8.30
  -6   1   6   48.55   15.79
  -6   1   6   21.09   11.14
  -6   1   6   24.42    8.46
  -6   1   7   14.19   10.20
  -6   1   7   17.77    9.83
  -6   1   7   19.77   13.03
  -6   1   7   -3.07   10.27
  -6   1   8   15.86   11.60
  -6   1   8   22.89   12.33
  -6   1   8   12.36   11.28
  -6   1   9   -6.79   12.11
  -6   1   9    0.70   13.69
  -6   1   9   35.72   13.67
  -6   1  10   31.10   15.73
  -6   1  10   20.36   13.12
  -6   1  10   11.29   12.84
  -6   1  11   48.74   17.70
  -6   1  11   72.39   20.85
  -6   1  11   38.97   18.60
  -6   1  12    6.00   10.93
  -6   2 -14   22.37   14.28
  -6   2 -14   50.38   17.22
  -6   2 -13   11.42   11.62
  -6   2 -13   10.56   11.25
  -6   2 -12   87.11   22.67
  -6   2 -12   45.48   15.91
  -6   2 -11   -1.08    8.31
  -6   2 -11   -8.41    9.70
  -6   2 -10   27.50   12.63
  -6   2 -10   12.70    8.91
  -6   2 -10   18.09    9.30
  -6   2 -10   22.22   12.29
  -6   2  -9   52.97   16.06
  -6   2  -9   54.80   15.18
  -6   2  -9   52.85   15.62
  -6   2  -9   61.41   16.01
  -6   2  -8   83.24   19.18
  -6   2  -8   86.46   18.17
  -6   2  -8   60.42   15.93
  -6   2  -8   91.19   18.88
  -6   2  -7   72.90   16.08
  -6   2  -7  114.34   21.43
  -6   2  -7   91.93   18.52
  -6   2  -7   91.35   18.27
  -6   2  -6    6.81    8.26
  -6   2  -6    0.27    6.58
  -6   2  -6   -7.52   14.59
  -6   2  -6    9.19   10.19
  -6   2  -5  111.57   20.63
  -6   2  -5   63.52   15.77
  -6   2  -5  104.29   18.80
  -6   2  -5  111.47   19.58
  -6   2  -5  101.31   16.55
  -6   2  -4   20.02    9.22
  -6   2  -4   -3.00    6.27
  -6   2  -4    6.68    8.20
  -6   2  -4    3.77    5.31
  -6   2  -3   65.07   14.25
  -6   2  -3  121.54   19.24
  -6   2  -3  105.69   17.61
  -6   2  -3  101.99   19.06
  -6   2  -3  100.71   16.69
  -6   2  -2   17.97    9.24
  -6   2  -2    0.17   11.72
  -6   2  -2    9.82    8.15
  -6   2  -2   29.32   11.09
  -6   2  -2   15.05    7.32
  -6   2  -1   22.93   10.51
  -6   2  -1   18.55    9.50
  -6   2  -1   28.43    9.18
  -6   2  -1   32.97   12.57
  -6   2  -1   -4.89   13.66
  -6   2   0   10.20    9.07
  -6   2   0   35.30   11.66
  -6   2   0   30.95    9.97
  -6   2   0   20.54   10.67
  -6   2   0   45.99   12.23
  -6   2   1    7.38    6.79
  -6   2   1    1.56    6.84
  -6   2   1   -7.73   13.94
  -6   2   1    6.96    8.64
  -6   2   2    9.43    9.63
  -6   2   2   -0.74    5.36
  -6   2   2   13.19    9.58
  -6   2   3  202.74   27.01
  -6   2   3  165.50   25.28
  -6   2   3  177.14   24.51
  -6   2   3  120.48   21.91
  -6   2   4    8.20    8.19
  -6   2   4   25.17    9.09
  -6   2   4   19.52   11.00
  -6   2   4   23.89   12.21
  -6   2   5  209.54   28.31
  -6   2   5  240.31   29.70
  -6   2   5  282.80   34.05
  -6   2   5  224.12   30.87
  -6   2   6   34.91   12.99
  -6   2   6   57.07   18.66
  -6   2   6   66.35   18.17
  -6   2   6   66.99   16.65
  -6   2   7   34.02   13.17
  -6   2   7   32.99   13.07
  -6   2   7   45.84   14.67
  -6   2   7   29.23   11.68
  -6   2   8   60.59   17.01
  -6   2   8   16.23   11.89
  -6   2   8   66.35   18.90
  -6   2   9   11.32   12.04
  -6   2   9   11.60   10.05
  -6   2   9   41.14   16.66
  -6   2  10   19.32   13.95
  -6   2  10   20.76   13.14
  -6   2  10   22.06   13.04
  -6   2  11   31.24   15.50
  -6   2  11   20.75   12.86
  -6   3 -13   52.47   19.13
  -6   3 -13   36.92   14.73
  -6   3 -12   10.73   10.56
  -6   3 -12    5.57    9.61
  -6   3 -11   20.27   13.01
  -6   3 -11   30.03   14.68
  -6   3 -11   13.59    9.24
  -6   3 -10   47.98   16.66
  -6   3 -10   24.65   10.94
  -6   3 -10   23.40   11.55
  -6   3 -10   24.52   10.68
  -6   3  -9    2.74    8.63
  -6   3  -9   10.63   10.71
  -6   3  -9   28.03   14.08
  -6   3  -9   18.77   10.16
  -6   3  -8  115.96   21.90
  -6   3  -8  133.81   23.36
  -6   3  -8   82.04   21.10
  -6   3  -8   78.07   19.06
  -6   3  -7   79.77   18.26
  -6   3  -7   63.72   16.34
  -6   3  -7   75.98   17.49
  -6   3  -7   55.60   17.36
  -6   3  -6   20.96   11.03
  -6   3  -6   20.73   10.46
  -6   3  -6   15.19   10.38
  -6   3  -6    7.06    9.46
  -6   3  -5   77.90   16.44
  -6   3  -5   65.46   17.70
  -6   3  -5   56.40   16.02
  -6   3  -5   61.01   14.20
  -6   3  -5   53.13   15.05
  -6   3  -4   43.85   14.62
  -6   3  -4   49.74   15.61
  -6   3  -4   31.54   11.69
  -6   3  -4   31.51   10.57
  -6   3  -4   38.80   12.34
  -6   3  -3   78.28   16.65
  -6   3  -3   83.82   18.55
  -6   3  -3   83.90   16.64
  -6   3  -3  109.34   18.49
  -6   3  -3   89.08   20.80
  -6   3  -2  108.76   20.40
  -6   3  -2   93.97   17.61
  -6   3  -2  121.97   20.03
  -6   3  -2   83.04   15.93
  -6   3  -2  137.23   25.15
  -6   3  -1   60.53   14.35
  -6   3  -1   38.08   12.48
  -6   3  -1   68.71   18.16
  -6   3  -1   34.21   12.12
  -6   3  -1   31.14    9.94
  -6   3   0   91.87   18.27
  -6   3   0  108.35   22.99
  -6   3   0  103.77   19.59
  -6   3   0  132.13   19.49
  -6   3   0  105.36   18.50
  -6   3   1  129.38   21.93
  -6   3   1  111.16   19.80
  -6   3   1  153.18   23.82
  -6   3   1  130.72   24.19
  -6   3   2  137.85   23.08
  -6   3   2  119.91   23.48
  -6   3   2  129.68   21.86
  -6   3   2  119.51   22.36
  -6   3   3    9.24    7.17
  -6   3   3    1.23    7.34
  -6   3   3   16.55    9.40
  -6   3   3    6.13    7.04
  -6   3   4   15.91   10.15
  -6   3   4   23.90   11.29
  -6   3   4   39.51   13.70
  -6   3   4   42.91   14.75
  -6   3   5    5.35    6.60
  -6   3   5   12.02   10.74
  -6   3   5   -3.19    8.26
  -6   3   5   -1.82    7.44
  -6   3   6   76.61   20.24
  -6   3   6   56.73   17.63
  -6   3   6   55.20   16.09
  -6   3   6   75.62   20.45
  -6   3   7   19.80   11.31
  -6   3   7   14.27    9.94
  -6   3   7   15.82   10.63
  -6   3   7   11.48   11.50
  -6   3   8   12.22   10.64
  -6   3   8   19.22   11.28
  -6   3   8   -3.55    7.41
  -6   3   9    6.99    8.33
  -6   3   9   15.79   12.06
  -6   3  10    7.95   11.07
  -6   3  10   10.87   11.90
  -6   3  11    1.17   12.35
  -6   4 -12   21.57   12.14
  -6   4 -12    7.13   10.17
  -6   4 -11  137.16   26.37
  -6   4 -11  125.72   26.98
  -6   4 -11  141.88   26.28
  -6   4 -10   90.32   22.33
  -6   4 -10   76.61   19.59
  -6   4 -10   63.46   18.42
  -6   4  -9   -0.75   11.36
  -6   4  -9   14.36   10.41
  -6   4  -9   26.68   12.59
  -6   4  -9   17.69   11.72
  -6   4  -8   -7.30    9.49
  -6   4  -8   -3.73   10.19
  -6   4  -8   14.66   10.42
  -6   4  -7   27.43   13.18
  -6   4  -7   39.57   15.10
  -6   4  -7   21.59    9.19
  -6   4  -6    4.99   11.25
  -6   4  -6   60.45   18.70
  -6   4  -6   44.44   16.40
  -6   4  -5  132.89   22.72
  -6   4  -5  143.73   24.07
  -6   4  -5   91.85   22.63
  -6   4  -4    2.21    7.02
  -6   4  -4   12.31    7.75
  -6   4  -4   10.75   10.13
  -6   4  -3   17.74    9.58
  -6   4  -3    6.41    8.54
  -6   4  -3   29.86   15.75
  -6   4  -2   20.59   13.83
  -6   4  -2   -1.99    6.87
  -6   4  -2   25.08   10.97
  -6   4  -1  115.40   20.85
  -6   4  -1  117.25   25.87
  -6   4  -1   93.52   20.06
  -6   4  -1  118.52   20.97
  -6   4   0   -6.40   10.51
  -6   4   0    6.00    8.34
  -6   4   0    7.76    7.31
  -6   4   1   12.08   10.60
  -6   4   1   13.63    8.73
  -6   4   1    4.37    7.62
  -6   4   1   19.32   10.20
  -6   4   2   51.29   15.42
  -6   4   2   77.63   18.14
  -6   4   2   67.72   18.54
  -6   4   2   41.68   13.10
  -6   4   3   -5.48    8.83
  -6   4   3   -7.10    8.62
  -6   4   3    7.93    8.70
  -6   4   3  -11.03   10.75
  -6   4   4   50.57   15.51
  -6   4   4   38.02   15.04
  -6   4   4   50.35   15.10
  -6   4   4   45.26   15.61
  -6   4   5   22.13   13.29
  -6   4   5    1.56    8.33
  -6   4   5   18.34   12.19
  -6   4   5   15.57   10.35
  -6   4   6   13.71   10.28
  -6   4   6   20.31   13.52
  -6   4   6   13.71   10.61
  -6   4   7   41.97   15.73
  -6   4   7   35.40   15.87
  -6   4   7   29.97   15.53
  -6   4   8   36.85   16.15
  -6   4   8   -1.42    9.54
  -6   5 -10   18.09   12.87
  -6   5  -9   23.69   12.66
  -6   5  -9   60.63   19.68
  -6   5  -9   60.59   20.54
  -6   5  -8   60.84   19.45
  -6   5  -8   49.09   18.11
  -6   5  -8   49.26   17.58
  -6   5  -7   30.87   15.14
  -6   5  -7   48.42   17.74
  -6   5  -7   16.02   13.67
  -6   5  -6    4.62    9.84
  -6   5  -6   16.71   11.65
  -6   5  -5    4.03    8.44
  -6   5  -5    1.83   13.02
  -6   5  -4   11.46   11.10
  -6   5  -4   11.74   10.45
  -6   5  -4  -13.84   12.03
  -6   5  -3    0.62    7.64
  -6   5  -3   -8.43   11.30
  -6   5  -2   31.80   12.69
  -6   5  -2   -4.65   10.08
  -6   5  -1   30.97   13.17
  -6   5  -1   63.15   17.56
  -6   5  -1   65.72   21.71
  -6   5   0   60.11   16.98
  -6   5   0   19.50   14.17
  -6   5   0   20.06   11.67
  -6   5   1   17.59   11.03
  -6   5   1   21.98   10.00
  -6   5   1   16.72    9.16
  -6   5   2   13.64    9.86
  -6   5   2    7.28   10.91
  -6   5   2   18.15   12.86
  -6   5   3  102.85   23.55
  -6   5   3   78.38   22.73
  -6   5   3   92.43   22.04
  -6   5   4   17.48   11.82
  -6   5   4   23.82   12.50
  -6   5   4   -2.60    9.16
  -6   5   5    2.48    9.12
  -6   5   5   -9.50   10.36
  -6   5   5   -8.11   10.69
  -6   5   6    0.31   10.09
  -6   5   6    4.48    8.35
  -6   5   7   -6.46   10.26
  -6   6  -5    5.12   11.61
  -6   6  -4   37.62   18.75
  -6   6  -4   17.38   12.10
  -6   6  -3   95.18   23.95
  -6   6  -3   61.12   21.27
  -6   6  -2   26.02   16.51
  -6   6  -2    9.97   13.36
  -6   6  -1   19.40   15.60
  -6   6  -1   30.38   17.29
  -6   6   0   19.80   15.99
  -6   6   0   -2.43    8.28
  -6   6   0    8.25    9.60
  -6   6   1   -4.61    8.36
  -6   6   1    2.52   13.61
  -6   6   2   -4.45    9.44
  -6   6   2    6.15   12.59
  -6   6   2  -22.01   13.60
  -6   6   3   17.60   12.34
  -6   6   3    8.68   12.51
  -6   6   4   -7.56    9.79
  -6   6   4    9.35   11.38
  -5 -11  -4   27.64   13.32
  -5 -10  -9   17.41   11.80
  -5 -10  -8    1.31    7.94
  -5 -10  -8    1.37    9.30
  -5 -10  -7   -9.82   10.95
  -5 -10  -7   -5.77   11.95
  -5 -10  -6   -2.12   10.14
  -5 -10  -6   29.41   13.71
  -5 -10  -5   13.30    9.52
  -5 -10  -5  -10.92    9.87
  -5 -10  -4   26.51   13.97
  -5 -10  -4   59.59   19.22
  -5 -10  -3    5.58    8.01
  -5 -10  -3    2.66    9.01
  -5 -10  -2   13.32   11.27
  -5 -10  -2    7.47   10.56
  -5 -10  -1   20.40   11.19
  -5 -10  -1   47.29   16.75
  -5 -10   0    0.67    9.00
  -5 -10   0   21.39   11.29
  -5 -10   1   -4.11    8.30
  -5 -10   1  -17.58   11.44
  -5 -10   2   15.63   10.71
  -5 -10   2   17.28    9.76
  -5 -10   3   -0.84    8.20
  -5  -9 -12   15.69   10.43
  -5  -9 -11   23.94   14.71
  -5  -9 -11   -3.43    8.65
  -5  -9 -10    9.59   11.07
  -5  -9 -10   22.93   14.68
  -5  -9  -9    6.37   11.40
  -5  -9  -9   11.14    7.53
  -5  -9  -8   29.27   13.35
  -5  -9  -8    1.62    8.78
  -5  -9  -7   35.83   14.54
  -5  -9  -7   25.44   12.56
  -5  -9  -6   15.88   10.33
  -5  -9  -6  -14.00   11.40
  -5  -9  -5   19.97   13.29
  -5  -9  -5  -14.12   12.71
  -5  -9  -4    4.47    7.44
  -5  -9  -4   13.23   10.64
  -5  -9  -3   11.90   10.14
  -5  -9  -3   28.79   11.67
  -5  -9  -2   19.38   13.01
  -5  -9  -2   10.59   11.18
  -5  -9  -1   -1.39    8.62
  -5  -9  -1    4.30    8.87
  -5  -9   0  -16.97   10.45
  -5  -9   0   -7.73   11.32
  -5  -9   1   17.07   12.01
  -5  -9   1    1.46    8.62
  -5  -9   2   13.74   10.29
  -5  -9   2   16.83    9.33
  -5  -9   3    6.39   10.41
  -5  -9   3   -3.24   11.93
  -5  -9   4   -3.55    8.84
  -5  -9   4    9.46   10.32
  -5  -9   5   11.06    9.22
  -5  -9   5    8.21   10.68
  -5  -9   6   15.43   13.39
  -5  -8 -13   -2.16   11.22
  -5  -8 -13   24.76   13.64
  -5  -8 -12    2.09    9.48
  -5  -8 -11   21.80   14.06
  -5  -8 -11   -1.52   10.09
  -5  -8 -10   37.31   13.92
  -5  -8 -10   10.67    8.81
  -5  -8  -9   32.93   14.16
  -5  -8  -9   37.97   13.29
  -5  -8  -8   25.75   11.75
  -5  -8  -8   17.27   11.26
  -5  -8  -7   -4.20    9.24
  -5  -8  -7   15.30   11.27
  -5  -8  -6   10.49   10.45
  -5  -8  -6    2.78    8.09
  -5  -8  -5   -7.70    9.80
  -5  -8  -5  -10.43    9.96
  -5  -8  -4   54.87   14.86
  -5  -8  -4   43.03   13.97
  -5  -8  -3   35.02   11.60
  -5  -8  -3   37.78   13.01
  -5  -8  -2   21.84   10.78
  -5  -8  -2   18.80   10.61
  -5  -8  -1   36.43   12.80
  -5  -8  -1    8.68    7.29
  -5  -8   0    1.91    9.07
  -5  -8   0    1.63    8.55
  -5  -8   1   11.00    7.83
  -5  -8   1   24.03   11.50
  -5  -8   2   39.36   13.86
  -5  -8   2   62.07   16.37
  -5  -8   3    3.30    8.78
  -5  -8   4  -11.53   12.80
  -5  -8   4   -5.30    8.83
  -5  -8   5   23.69   11.68
  -5  -8   5   -8.82   11.97
  -5  -8   6   13.98   12.26
  -5  -8   6  -14.86   10.93
  -5  -8   7  -13.13   12.00
  -5  -8   7   -9.70    9.92
  -5  -8   8    1.84   11.03
  -5  -8   8    7.47    8.03
  -5  -7 -15   19.18   15.12
  -5  -7 -15   46.33   16.74
  -5  -7 -14   -2.06   13.21
  -5  -7 -14   25.64   13.29
  -5  -7 -13   13.74   10.88
  -5  -7 -13   -5.03   10.42
  -5  -7 -12   50.45   17.43
  -5  -7 -11   32.62   13.56
  -5  -7 -10   25.50   14.18
  -5  -7 -10   10.75   11.70
  -5  -7  -9   29.68   14.25
  -5  -7  -9   58.05   16.92
  -5  -7  -8   17.11   11.87
  -5  -7  -8   16.10   10.56
  -5  -7  -7  145.52   24.76
  -5  -7  -7  146.20   22.14
  -5  -7  -6   14.39    8.78
  -5  -7  -6   32.49   11.76
  -5  -7  -5   58.30   13.81
  -5  -7  -5   84.36   17.69
  -5  -7  -4   45.04   13.54
  -5  -7  -4   35.63   10.21
  -5  -7  -3    3.77    6.97
  -5  -7  -3    8.93    9.80
  -5  -7  -2   31.11   10.87
  -5  -7  -2   31.84   11.09
  -5  -7  -1   64.92   15.58
  -5  -7  -1   71.72   16.66
  -5  -7   0   76.19   15.28
  -5  -7   0   63.78   15.60
  -5  -7   1    3.50    8.04
  -5  -7   1    8.45    7.08
  -5  -7   2    6.42    6.32
  -5  -7   2   20.94   11.81
  -5  -7   3    2.80    7.97
  -5  -7   4   11.32   10.89
  -5  -7   5   72.54   18.71
  -5  -7   5   62.52   17.86
  -5  -7   6   42.52   15.72
  -5  -7   6   45.01   14.49
  -5  -7   7   13.94   11.07
  -5  -7   7   11.31   11.18
  -5  -7   8    2.00   10.63
  -5  -7   8    8.14    9.52
  -5  -7   9   11.78   12.13
  -5  -7   9   14.76   11.93
  -5  -7  10   20.01   11.49
  -5  -6 -16   -2.83   11.21
  -5  -6 -15  -17.27   11.63
  -5  -6 -15    7.38   10.63
  -5  -6 -14    8.89    6.88
  -5  -6 -14    2.34   10.13
  -5  -6 -13    3.03    8.37
  -5  -6 -13    8.30   10.42
  -5  -6 -12   45.74   15.85
  -5  -6 -11   92.57   20.48
  -5  -6 -10   12.44    9.53
  -5  -6  -9  101.02   17.21
  -5  -6  -9  119.41   22.49
  -5  -6  -9  158.06   23.76
  -5  -6  -8   16.55    8.71
  -5  -6  -8   15.80    7.58
  -5  -6  -8   20.52   10.85
  -5  -6  -7   10.73   10.96
  -5  -6  -7    5.33    6.74
  -5  -6  -7    3.43    8.34
  -5  -6  -6  112.61   18.45
  -5  -6  -6  134.88   22.30
  -5  -6  -6  142.63   18.45
  -5  -6  -5   55.37   11.20
  -5  -6  -5   64.23   13.50
  -5  -6  -5   41.22   12.83
  -5  -6  -4   35.24   10.59
  -5  -6  -4   71.21   16.31
  -5  -6  -4   61.25   12.44
  -5  -6  -3   94.78   15.70
  -5  -6  -3  107.69   18.84
  -5  -6  -2   98.89   16.37
  -5  -6  -2   97.61   18.27
  -5  -6  -1  415.77   30.96
  -5  -6  -1  442.80   36.84
  -5  -6   0  121.61   17.29
  -5  -6   0  144.48   22.03
  -5  -6   1   88.38   16.71
  -5  -6   1   95.26   15.30
  -5  -6   1   97.78   15.39
  -5  -6   2  144.84   19.02
  -5  -6   2  126.87   17.98
  -5  -6   2  117.87   19.99
  -5  -6   3   54.35   14.08
  -5  -6   3   73.92   15.32
  -5  -6   4   19.55    8.80
  -5  -6   4   10.86   11.84
  -5  -6   5   22.45   11.36
  -5  -6   5   28.28   11.79
  -5  -6   6   20.69   11.51
  -5  -6   6   37.41   13.79
  -5  -6   6   45.54   14.79
  -5  -6   7   54.97   15.05
  -5  -6   7   81.01   20.25
  -5  -6   7   60.73   17.40
  -5  -6   8    9.75    9.63
  -5  -6   8   -5.77    8.57
  -5  -6   8    2.10   10.34
  -5  -6   9   23.93   14.58
  -5  -6   9   31.62   13.35
  -5  -6   9   19.20   11.97
  -5  -6  10   39.27   17.04
  -5  -6  10   20.11   12.17
  -5  -6  10   33.63   15.65
  -5  -6  11   38.82   16.86
  -5  -5 -17   10.57   11.61
  -5  -5 -16   14.58   12.66
  -5  -5 -15   30.08   15.56
  -5  -5 -14   67.49   19.96
  -5  -5 -14   46.29   14.02
  -5  -5 -13    3.97   10.25
  -5  -5 -13    1.57    4.92
  -5  -5 -13    9.38    8.83
  -5  -5 -12   23.21    9.11
  -5  -5 -12   20.75   11.17
  -5  -5 -11   48.58   14.84
  -5  -5 -11   41.79   11.99
  -5  -5 -10   41.16   14.24
  -5  -5 -10   35.34   10.64
  -5  -5  -9  100.35   17.21
  -5  -5  -9  100.32   19.45
  -5  -5  -8   36.03   12.56
  -5  -5  -8   48.89   11.66
  -5  -5  -8   49.03   10.89
  -5  -5  -7   89.18   15.03
  -5  -5  -7   95.18   14.14
  -5  -5  -7  119.79   20.63
  -5  -5  -7  123.06   18.71
  -5  -5  -6   47.45   10.41
  -5  -5  -6   48.91   13.23
  -5  -5  -6   40.93    9.67
  -5  -5  -6   48.83   12.84
  -5  -5  -5  220.83   22.68
  -5  -5  -5  207.47   24.99
  -5  -5  -5  212.23   19.88
  -5  -5  -5  210.32   22.31
  -5  -5  -4   66.62   14.51
  -5  -5  -4   50.66   11.19
  -5  -5  -4   45.92    9.42
  -5  -5  -4   41.02   10.62
  -5  -5  -3    8.85    6.62
  -5  -5  -3    4.58    4.85
  -5  -5  -3    3.95    4.35
  -5  -5  -3   12.75    6.92
  -5  -5  -2   93.79   13.88
  -5  -5  -2   85.79   15.88
  -5  -5  -2  106.04   14.77
  -5  -5  -1   77.09   15.68
  -5  -5  -1   69.84   12.48
  -5  -5  -1   82.65   13.75
  -5  -5   0  131.25   17.31
  -5  -5   0  129.97   16.08
  -5  -5   1    0.97    5.53
  -5  -5   1    1.84    4.80
  -5  -5   1    6.76    7.81
  -5  -5   2  410.91   32.41
  -5  -5   2  365.71   25.99
  -5  -5   2  377.06   32.66
  -5  -5   3  135.41   20.74
  -5  -5   3  126.26   19.21
  -5  -5   4   78.78   16.37
  -5  -5   4   85.15   16.90
  -5  -5   5  160.54   24.04
  -5  -5   5  185.80   25.24
  -5  -5   6   57.20   15.54
  -5  -5   6   42.12   13.31
  -5  -5   7  188.30   27.93
  -5  -5   7  225.80   28.03
  -5  -5   7  206.28   28.40
  -5  -5   8   15.28   10.72
  -5  -5   8   12.28    7.90
  -5  -5   8   11.58   11.50
  -5  -5   9   60.62   18.30
  -5  -5   9   44.03   13.02
  -5  -5   9   70.67   20.38
  -5  -5  10   15.99   14.07
  -5  -5  10   -0.28   10.10
  -5  -5  11    4.40   11.47
  -5  -5  11  -10.45   11.98
  -5  -5  12   15.72   12.95
  -5  -4 -18   11.41   11.67
  -5  -4 -18   14.65   15.75
  -5  -4 -17   11.30   11.04
  -5  -4 -17   38.69   17.89
  -5  -4 -16    4.96   11.38
  -5  -4 -16   25.14   14.36
  -5  -4 -15    2.37   11.36
  -5  -4 -15    3.38    9.43
  -5  -4 -14   -3.05    7.75
  -5  -4 -14   12.37   11.48
  -5  -4 -14   10.68    7.83
  -5  -4 -13   13.29    7.41
  -5  -4 -13   -2.78   10.54
  -5  -4 -13    1.33    6.55
  -5  -4 -12   84.78   17.23
  -5  -4 -12   76.65   16.32
  -5  -4 -12   72.77   17.31
  -5  -4 -11   85.69   16.44
  -5  -4 -11  116.80   19.85
  -5  -4 -11  127.47   19.32
  -5  -4 -11   97.76   19.83
  -5  -4 -10   10.88    8.68
  -5  -4 -10    8.80    6.46
  -5  -4 -10   -0.44    6.16
  -5  -4  -9   23.07    8.80
  -5  -4  -9   23.94    9.59
  -5  -4  -9   22.14    9.69
  -5  -4  -8   -5.24    6.88
  -5  -4  -8    8.29    5.47
  -5  -4  -8    8.35    6.57
  -5  -4  -7  515.38   35.72
  -5  -4  -7  557.66   34.47
  -5  -4  -7  554.97   40.10
  -5  -4  -6   14.02    6.31
  -5  -4  -6   22.36    8.54
  -5  -4  -6   15.85    7.65
  -5  -4  -5   12.56    6.37
  -5  -4  -5    9.15    5.28
  -5  -4  -5   15.35    8.27
  -5  -4  -5   30.67   10.73
  -5  -4  -4  233.44   25.49
  -5  -4  -4  259.98   22.20
  -5  -4  -4  212.64   22.24
  -5  -4  -4  217.83   20.95
  -5  -4  -3  199.55   18.61
  -5  -4  -3  180.55   21.95
  -5  -4  -3  186.45   20.72
  -5  -4  -3  192.39   19.76
  -5  -4  -2  521.74   34.53
  -5  -4  -2  407.58   25.09
  -5  -4  -2  493.13   35.58
  -5  -4  -2  451.57   30.38
  -5  -4  -1   39.75    8.38
  -5  -4  -1   59.14   12.83
  -5  -4  -1   76.62   14.71
  -5  -4   0    3.48    6.32
  -5  -4   0    5.12    7.29
  -5  -4   0   -3.45    5.97
  -5  -4   1   29.19   10.11
  -5  -4   1   30.28    7.42
  -5  -4   1   41.75   11.04
  -5  -4   2  877.30   46.93
  -5  -4   2  994.23   50.28
  -5  -4   3   35.78   11.42
  -5  -4   3   49.65   13.10
  -5  -4   4  325.48   30.06
  -5  -4   4  317.34   31.30
  -5  -4   5   23.92   11.51
  -5  -4   5   61.78   14.58
  -5  -4   6   67.47   15.31
  -5  -4   6   52.23   14.92
  -5  -4   7   25.70   11.81
  -5  -4   7   12.42   10.38
  -5  -4   7    2.10    7.33
  -5  -4   8   -2.81    9.17
  -5  -4   8   13.79   10.63
  -5  -4   8   11.47    9.08
  -5  -4   9   62.32   18.77
  -5  -4   9   24.64   11.72
  -5  -4  10   48.31   17.11
  -5  -4  10   57.67   19.12
  -5  -4  11   13.76   13.48
  -5  -4  11   13.83   12.41
  -5  -4  12   16.78   13.86
  -5  -3 -18   53.65   17.86
  -5  -3 -18    5.71   11.93
  -5  -3 -17   24.31   14.55
  -5  -3 -17   58.75   19.17
  -5  -3 -17   20.58   12.94
  -5  -3 -16   18.65   13.87
  -5  -3 -16   28.45   15.12
  -5  -3 -15   23.20   12.48
  -5  -3 -15   31.74   13.02
  -5  -3 -15   44.24   16.15
  -5  -3 -14   38.88   15.41
  -5  -3 -14   30.53   12.48
  -5  -3 -14   17.22   10.06
  -5  -3 -13   84.35   18.41
  -5  -3 -13   64.58   16.83
  -5  -3 -13   72.71   17.13
  -5  -3 -12   76.99   16.65
  -5  -3 -12   74.45   17.26
  -5  -3 -12   41.97   13.83
  -5  -3 -11   12.97    8.46
  -5  -3 -10  201.94   25.45
  -5  -3 -10  190.17   23.43
  -5  -3 -10  176.40   23.10
  -5  -3  -9   31.02   10.45
  -5  -3  -9   14.73    7.41
  -5  -3  -9   33.17   11.00
  -5  -3  -8    0.47    5.50
  -5  -3  -8   10.44    5.92
  -5  -3  -8   17.37    8.01
  -5  -3  -7  117.19   17.16
  -5  -3  -7  154.65   20.24
  -5  -3  -7  147.40   20.11
  -5  -3  -6  172.88   20.53
  -5  -3  -6  147.57   19.63
  -5  -3  -6  167.20   19.30
  -5  -3  -5   11.16    7.92
  -5  -3  -5    7.12    5.97
  -5  -3  -5   19.06    7.83
  -5  -3  -4   -1.36    7.29
  -5  -3  -4    4.94    5.44
  -5  -3  -4   -0.43    6.15
  -5  -3  -3  131.51   18.29
  -5  -3  -3  134.39   18.01
  -5  -3  -3  147.34   17.96
  -5  -3  -2  176.65   20.35
  -5  -3  -2  138.63   18.02
  -5  -3  -2  157.84   18.53
  -5  -3  -1  227.41   22.67
  -5  -3  -1  201.04   21.46
  -5  -3  -1  181.68   20.87
  -5  -3  -1  179.30   14.34
  -5  -3   0   30.19   10.97
  -5  -3   0   48.53    7.64
  -5  -3   0   26.53    7.26
  -5  -3   1   42.05   10.70
  -5  -3   1   22.29    9.11
  -5  -3   2  223.49   22.78
  -5  -3   2  238.67   25.63
  -5  -3   3  337.63   30.96
  -5  -3   3  369.08   30.25
  -5  -3   4   69.43   15.46
  -5  -3   4   68.67   16.01
  -5  -3   5   85.12   16.76
  -5  -3   5   79.42   17.57
  -5  -3   6   67.27   15.19
  -5  -3   6   39.82   12.71
  -5  -3   7   57.75   14.95
  -5  -3   7   89.27   18.66
  -5  -3   8   20.57   11.07
  -5  -3   8    7.01    7.96
  -5  -3   9   58.61   16.86
  -5  -3   9   39.87   15.20
  -5  -3  10   12.77   11.78
  -5  -3  10   32.51   14.56
  -5  -3  11   89.89   22.85
  -5  -3  11   44.56   16.46
  -5  -3  12   28.07   14.36
  -5  -3  13   -0.56    9.23
  -5  -2 -18   -3.10   10.29
  -5  -2 -18   20.78   11.79
  -5  -2 -17   25.51   13.40
  -5  -2 -17   17.92   13.17
  -5  -2 -17   30.60   14.21
  -5  -2 -16   30.83   15.07
  -5  -2 -16    3.97    7.43
  -5  -2 -16   12.64   10.66
  -5  -2 -16    7.56    9.57
  -5  -2 -15   12.77   11.66
  -5  -2 -15    7.67    9.61
  -5  -2 -15   13.15    9.64
  -5  -2 -15   11.61   10.33
  -5  -2 -14   69.85   18.35
  -5  -2 -14   39.28   14.36
  -5  -2 -14   55.87   16.31
  -5  -2 -13   24.31   11.42
  -5  -2 -13   29.68   12.22
  -5  -2 -13   21.37   10.51
  -5  -2 -12   -3.25    8.25
  -5  -2 -12   -1.61    8.36
  -5  -2 -11   54.07   14.51
  -5  -2 -11   40.12   12.44
  -5  -2 -10  597.46   42.29
  -5  -2 -10  630.58   42.23
  -5  -2  -9  651.32   43.27
  -5  -2  -9  662.12   42.02
  -5  -2  -9  618.14   41.71
  -5  -2  -8  105.70   16.75
  -5  -2  -8  139.10   19.62
  -5  -2  -8  134.16   19.85
  -5  -2  -7   27.90    9.94
  -5  -2  -7   41.19   11.10
  -5  -2  -7   51.34   12.13
  -5  -2  -6    5.07    6.41
  -5  -2  -6   10.45    6.05
  -5  -2  -6   10.00    6.72
  -5  -2  -5  784.67   41.83
  -5  -2  -5  771.37   42.28
  -5  -2  -5  815.86   42.06
  -5  -2  -4  342.14   27.51
  -5  -2  -4  355.81   27.24
  -5  -2  -4  368.48   29.33
  -5  -2  -3  195.65   19.83
  -5  -2  -3  183.54   20.66
  -5  -2  -3  161.56   10.55
  -5  -2  -3  182.44   20.40
  -5  -2  -2   45.17    7.12
  -5  -2  -2   48.39   10.45
  -5  -2  -2   34.66   10.05
  -5  -2  -2   37.63   10.14
  -5  -2  -1   20.04    8.79
  -5  -2  -1   16.30    8.06
  -5  -2  -1   15.72    7.01
  -5  -2  -1   30.59    6.78
  -5  -2   0  589.46   37.33
  -5  -2   0  639.52   34.81
  -5  -2   0  645.69   39.01
  -5  -2   1  117.77   18.24
  -5  -2   1  146.88   17.47
  -5  -2   2    9.73    8.04
  -5  -2   2   12.94    8.07
  -5  -2   3   73.37   13.95
  -5  -2   3   55.56   13.75
  -5  -2   4   43.45   12.39
  -5  -2   4   39.05   11.88
  -5  -2   5   39.96   12.89
  -5  -2   5   36.92   11.39
  -5  -2   6   80.83   16.58
  -5  -2   6   94.16   18.73
  -5  -2   7  107.00   19.68
  -5  -2   7   94.08   19.66
  -5  -2   8   75.58   17.65
  -5  -2   8   71.53   17.70
  -5  -2   9   31.88   14.70
  -5  -2   9   79.55   19.78
  -5  -2  10   75.55   21.15
  -5  -2  10   38.40   13.96
  -5  -2  10   32.78   12.55
  -5  -2  11   90.07   20.41
  -5  -2  11   94.17   22.86
  -5  -2  12   26.50   15.26
  -5  -2  12   11.67   15.93
  -5  -2  12    1.30    9.57
  -5  -2  13   21.39   13.64
  -5  -2  13   30.06   15.08
  -5  -2  13    2.44   12.46
  -5  -1 -18   -5.08   11.75
  -5  -1 -17    5.11   11.04
  -5  -1 -16   72.99   19.57
  -5  -1 -16   64.24   19.09
  -5  -1 -15   39.35   15.84
  -5  -1 -15   41.37   13.68
  -5  -1 -14  118.80   22.18
  -5  -1 -14   90.54   20.96
  -5  -1 -13  310.12   31.04
  -5  -1 -13  313.12   32.90
  -5  -1 -13  246.15   31.35
  -5  -1 -12   61.55   16.88
  -5  -1 -12   42.48   13.29
  -5  -1 -11  109.98   18.08
  -5  -1 -11   87.80   18.82
  -5  -1 -10  177.07   21.76
  -5  -1 -10  212.38   23.83
  -5  -1 -10  229.03   23.27
  -5  -1 -10  209.79   26.63
  -5  -1  -9   57.33   12.86
  -5  -1  -9   32.44   12.35
  -5  -1  -8  241.21   26.56
  -5  -1  -8  271.87   25.13
  -5  -1  -8  252.35   26.90
  -5  -1  -7  118.01   18.26
  -5  -1  -7  109.17   17.49
  -5  -1  -7  118.82   16.19
  -5  -1  -6  109.95   16.67
  -5  -1  -6   83.43   15.40
  -5  -1  -6   66.07    9.85
  -5  -1  -6   85.60   13.95
  -5  -1  -5  584.28   36.60
  -5  -1  -5  558.11   28.47
  -5  -1  -5  526.78   31.01
  -5  -1  -5  550.45   36.08
  -5  -1  -4   79.26   13.97
  -5  -1  -4   71.22   11.24
  -5  -1  -4   78.35   14.33
  -5  -1  -4   75.69   11.85
  -5  -1  -3  460.09   32.56
  -5  -1  -3  482.96   28.71
  -5  -1  -3  480.57   27.98
  -5  -1  -3  415.23   18.20
  -5  -1  -3  525.97   34.42
  -5  -1  -2  118.55   17.26
  -5  -1  -2  117.35   11.23
  -5  -1  -2  103.51   16.45
  -5  -1  -2  120.21   14.16
  -5  -1  -1  367.00   24.18
  -5  -1  -1  370.15   29.46
  -5  -1  -1  385.27   29.48
  -5  -1  -1  343.79   20.46
  -5  -1   0  218.75   19.12
  -5  -1   0  194.44   16.78
  -5  -1   0  178.72   20.33
  -5  -1   0  190.33   21.61
  -5  -1   1  128.89   14.91
  -5  -1   1   89.82   13.49
  -5  -1   1  151.61   20.03
  -5  -1   2   32.76   10.45
  -5  -1   2   29.34    8.73
  -5  -1   2   20.98    9.53
  -5  -1   3   94.83   15.15
  -5  -1   3  119.66   19.59
  -5  -1   3   89.71   14.50
  -5  -1   4  431.60   31.37
  -5  -1   4  433.42   31.22
  -5  -1   4  488.17   38.13
  -5  -1   5   94.85   16.68
  -5  -1   5  102.79   16.67
  -5  -1   5   97.97   18.89
  -5  -1   6   61.51   14.21
  -5  -1   6   60.68   14.11
  -5  -1   6   34.32   10.93
  -5  -1   6   45.08   14.39
  -5  -1   7   14.72    8.62
  -5  -1   7   42.23   12.44
  -5  -1   7   26.10   11.52
  -5  -1   7   24.73   12.03
  -5  -1   8   78.18   18.77
  -5  -1   8   85.39   17.44
  -5  -1   8   63.74   15.80
  -5  -1   8   98.10   20.04
  -5  -1   9   65.47   17.87
  -5  -1   9   36.79   11.66
  -5  -1   9   45.45   16.48
  -5  -1  10   -2.84   10.60
  -5  -1  10   20.45   12.25
  -5  -1  10   -7.71   10.90
  -5  -1  11    0.88    8.35
  -5  -1  11    6.40   10.25
  -5  -1  11   21.86   14.63
  -5  -1  12   15.96   14.78
  -5  -1  12    9.79    9.42
  -5  -1  12   -7.04   10.65
  -5  -1  13   36.81   17.12
  -5  -1  13    6.92   11.34
  -5  -1  13   18.79   13.42
  -5   0 -17   22.31   13.79
  -5   0 -16    1.93    9.12
  -5   0 -16    0.64    9.07
  -5   0 -15   29.09   13.69
  -5   0 -15   11.99    9.80
  -5   0 -14    5.00   10.52
  -5   0 -14    0.06    7.93
  -5   0 -13   10.72    9.99
  -5   0 -13   -3.75    8.16
  -5   0 -12  203.94   29.28
  -5   0 -12  167.58   24.54
  -5   0 -11   77.66   18.00
  -5   0 -11   16.82   11.89
  -5   0 -10  181.95   20.92
  -5   0 -10  229.06   28.60
  -5   0  -9    7.90    6.47
  -5   0  -9    1.38    7.78
  -5   0  -9   11.38    8.18
  -5   0  -8   49.67   12.11
  -5   0  -8   62.40   11.46
  -5   0  -8   30.47   11.46
  -5   0  -7  168.56   17.46
  -5   0  -7  181.09   22.11
  -5   0  -7  195.75   24.84
  -5   0  -7  175.91   22.85
  -5   0  -6  818.94   33.95
  -5   0  -6  913.43   38.07
  -5   0  -6  881.23   47.16
  -5   0  -6  889.94   45.20
  -5   0  -6  889.18   48.26
  -5   0  -5  112.27   13.45
  -5   0  -5  128.48   13.78
  -5   0  -5  129.82   19.39
  -5   0  -5  138.85   19.47
  -5   0  -5  119.83   17.60
  -5   0  -4 1741.37   48.01
  -5   0  -4 1574.86   50.88
  -5   0  -4 1637.37   60.94
  -5   0  -4 1777.10   66.03
  -5   0  -4 1733.94   62.67
  -5   0  -3  496.67   34.84
  -5   0  -3  517.57   30.76
  -5   0  -3  532.76   26.27
  -5   0  -3  461.95   22.90
  -5   0  -3  525.99   34.55
  -5   0  -3  559.55   36.56
  -5   0  -2  709.29   39.70
  -5   0  -2  645.64   28.81
  -5   0  -2  662.47   35.82
  -5   0  -2  625.14   27.99
  -5   0  -2  721.08   42.02
  -5   0  -2  699.86   41.07
  -5   0  -1  395.46   31.32
  -5   0  -1  419.62   30.92
  -5   0  -1  357.45   22.53
  -5   0  -1  449.89   33.51
  -5   0  -1  386.71   28.33
  -5   0  -1  446.78   24.89
  -5   0   0  132.76   19.80
  -5   0   0  104.67   16.66
  -5   0   0  101.58   13.19
  -5   0   0  107.61   16.42
  -5   0   0  123.52   13.80
  -5   0   0  103.20   15.41
  -5   0   1  152.00   15.87
  -5   0   1  153.45   16.66
  -5   0   1  178.02   21.26
  -5   0   1  154.83   19.35
  -5   0   1  172.30   21.76
  -5   0   1  194.96   22.89
  -5   0   2  200.85   24.07
  -5   0   2  175.79   18.07
  -5   0   2  189.78   23.15
  -5   0   2  212.92   23.79
  -5   0   2  182.96   19.51
  -5   0   3   19.95   10.18
  -5   0   3   -6.32    7.54
  -5   0   3   13.13    7.36
  -5   0   3   25.27   11.72
  -5   0   4  111.26   18.09
  -5   0   4  114.60   20.27
  -5   0   4   68.32   15.13
  -5   0   4   83.37   14.77
  -5   0   4   93.80   14.94
  -5   0   5   73.51   14.69
  -5   0   5   52.40   12.24
  -5   0   5   48.41   15.10
  -5   0   5   33.43   10.94
  -5   0   5   34.62   11.73
  -5   0   6   22.10   10.79
  -5   0   6   40.24   12.37
  -5   0   6   38.49   12.55
  -5   0   6   32.08   10.72
  -5   0   6   38.76   11.22
  -5   0   7   73.27   16.82
  -5   0   7   76.61   16.91
  -5   0   7   60.48   14.57
  -5   0   7   93.70   19.15
  -5   0   7   71.55   13.53
  -5   0   8  112.82   21.78
  -5   0   8  114.39   21.52
  -5   0   8   76.46   16.27
  -5   0   9   -1.14    8.16
  -5   0   9   -5.08    7.48
  -5   0   9    2.56    8.93
  -5   0  10   15.25   12.21
  -5   0  10    8.48    9.31
  -5   0  10   28.10   14.34
  -5   0  11   11.09    9.24
  -5   0  11  -14.09   12.96
  -5   0  11   12.66   11.60
  -5   0  12   -3.83   10.27
  -5   0  12    3.37   11.11
  -5   0  13   27.34   14.55
  -5   0  13   30.83   14.42
  -5   0  13   24.11   16.58
  -5   1 -16   30.29   12.26
  -5   1 -16   52.72   19.13
  -5   1 -15    8.58    9.65
  -5   1 -15   25.78   12.45
  -5   1 -14   13.78    9.31
  -5   1 -14   15.89   10.39
  -5   1 -13   -1.54   10.04
  -5   1 -13   11.89   10.59
  -5   1 -12  118.53   21.27
  -5   1 -12  112.06   22.71
  -5   1 -11  112.62   20.75
  -5   1 -11  105.46   21.26
  -5   1 -10    7.42    7.51
  -5   1 -10   28.38   11.65
  -5   1 -10   -0.28    8.91
  -5   1  -9  245.34   27.81
  -5   1  -9  306.93   32.76
  -5   1  -9  255.58   25.33
  -5   1  -8   69.20   13.52
  -5   1  -8   77.56   17.54
  -5   1  -8  117.95   19.64
  -5   1  -7  166.29   20.86
  -5   1  -7  213.87   24.26
  -5   1  -7  208.80   24.98
  -5   1  -7  191.12   25.19
  -5   1  -6  533.49   37.64
  -5   1  -6  493.40   29.04
  -5   1  -6  526.24   36.41
  -5   1  -6  601.13   41.63
  -5   1  -5  199.37   19.11
  -5   1  -5  269.15   26.11
  -5   1  -5  289.85   28.77
  -5   1  -5  254.87   25.95
  -5   1  -4   56.15   13.69
  -5   1  -4   47.32   11.86
  -5   1  -4   41.17    8.15
  -5   1  -4   55.97   11.07
  -5   1  -4   39.53   11.87
  -5   1  -3  180.72   19.38
  -5   1  -3  200.99   22.05
  -5   1  -3  205.44   17.85
  -5   1  -3  200.17   23.43
  -5   1  -3  220.30   24.63
  -5   1  -2   70.99   14.30
  -5   1  -2   66.03   14.73
  -5   1  -2   74.94   13.24
  -5   1  -2   84.67   14.10
  -5   1  -2   79.16   11.66
  -5   1  -1   -0.84    6.93
  -5   1  -1   -5.09    8.05
  -5   1  -1   13.52    6.32
  -5   1  -1    1.68    4.15
  -5   1  -1    0.88    9.07
  -5   1  -1   -0.51    4.39
  -5   1   0  147.60   19.08
  -5   1   0  143.84   16.84
  -5   1   0  190.65   23.27
  -5   1   0  164.70   20.94
  -5   1   0  183.91   21.10
  -5   1   0  160.21   14.56
  -5   1   1  180.26   21.60
  -5   1   1  171.37   16.16
  -5   1   1  202.02   20.37
  -5   1   1  226.29   24.88
  -5   1   1  176.81   20.32
  -5   1   1  185.27   22.78
  -5   1   2  199.09   24.01
  -5   1   2  211.26   24.10
  -5   1   2  205.71   23.70
  -5   1   2  175.98   17.42
  -5   1   2  184.81   20.39
  -5   1   3  162.59   20.43
  -5   1   3  138.11   16.40
  -5   1   3  149.07   22.11
  -5   1   3  163.81   21.58
  -5   1   3  203.29   25.10
  -5   1   4  148.28   21.39
  -5   1   4  150.73   20.29
  -5   1   4  138.61   20.20
  -5   1   4  114.73   16.21
  -5   1   4  111.93   19.75
  -5   1   5  243.79   26.65
  -5   1   5  216.77   27.75
  -5   1   5  236.82   27.93
  -5   1   5  185.39   22.60
  -5   1   6   92.84   18.48
  -5   1   6  112.65   20.71
  -5   1   6  100.51   18.54
  -5   1   6   74.27   14.46
  -5   1   7   89.72   19.79
  -5   1   7   60.59   16.37
  -5   1   7   37.59   10.04
  -5   1   7   61.20   16.12
  -5   1   8   88.13   20.67
  -5   1   8   47.10   14.00
  -5   1   8  123.81   23.86
  -5   1   9    6.52   12.86
  -5   1   9    1.67    9.05
  -5   1   9   -3.32    8.27
  -5   1  10   -6.76   12.53
  -5   1  10  -10.92   10.66
  -5   1  10   -3.34    9.09
  -5   1  11   45.27   17.38
  -5   1  11   29.37   13.99
  -5   1  11   45.37   15.50
  -5   1  12    2.73    9.67
  -5   1  12   10.31   11.25
  -5   1  12   -8.52   10.70
  -5   1  13   -6.50   12.84
  -5   1  13    5.06   12.90
  -5   1  13   23.25   13.12
  -5   2 -15    5.12   10.36
  -5   2 -15   -2.82   15.08
  -5   2 -14   -1.15    9.11
  -5   2 -14  -17.12   14.99
  -5   2 -13   71.49   19.90
  -5   2 -13   69.17   17.78
  -5   2 -12   97.38   22.49
  -5   2 -12   79.45   18.66
  -5   2 -11   17.78    9.79
  -5   2 -11   23.13    9.99
  -5   2 -10   14.04   11.88
  -5   2 -10    4.70    8.08
  -5   2 -10    5.36    7.00
  -5   2  -9  136.05   20.27
  -5   2  -9  158.65   22.62
  -5   2  -9  160.61   25.41
  -5   2  -8  227.01   25.78
  -5   2  -8  233.53   26.61
  -5   2  -8  256.32   30.55
  -5   2  -7  138.07   21.97
  -5   2  -7  121.44   18.79
  -5   2  -7  117.04   19.42
  -5   2  -7   96.99   16.74
  -5   2  -6   56.24   14.62
  -5   2  -6   48.34   11.07
  -5   2  -6   28.48    9.47
  -5   2  -6   49.33   13.08
  -5   2  -5  140.87   20.22
  -5   2  -5  139.49   17.85
  -5   2  -5  171.22   21.70
  -5   2  -5  134.68   19.65
  -5   2  -5  141.23   21.36
  -5   2  -4  277.57   28.83
  -5   2  -4  302.71   26.23
  -5   2  -4  329.53   27.83
  -5   2  -4  326.64   30.41
  -5   2  -4  338.45   29.59
  -5   2  -3  496.08   32.24
  -5   2  -3  462.74   32.65
  -5   2  -3  493.71   36.63
  -5   2  -3  490.30   32.65
  -5   2  -3  453.50   36.58
  -5   2  -3  532.31   36.03
  -5   2  -2   35.40   10.17
  -5   2  -2   27.26    9.01
  -5   2  -2   39.03   10.34
  -5   2  -2   32.57   10.04
  -5   2  -2   48.77   11.43
  -5   2  -2   13.20    8.32
  -5   2  -1  188.49   22.35
  -5   2  -1  154.84   18.83
  -5   2  -1  169.11   18.63
  -5   2  -1  165.91   21.22
  -5   2  -1  142.15   17.98
  -5   2  -1  153.99   22.44
  -5   2   0   80.43   13.92
  -5   2   0  109.61   14.43
  -5   2   0   91.44   16.31
  -5   2   0  108.89   17.91
  -5   2   0  105.62   17.72
  -5   2   0  118.44   16.74
  -5   2   1  575.06   36.06
  -5   2   1  576.57   40.22
  -5   2   1  549.37   36.05
  -5   2   1  566.45   41.00
  -5   2   1  610.84   41.03
  -5   2   2  172.80   23.01
  -5   2   2  208.21   23.43
  -5   2   2  236.24   26.34
  -5   2   2  225.80   26.00
  -5   2   3  149.62   22.10
  -5   2   3  112.38   17.91
  -5   2   3  157.64   22.53
  -5   2   3  138.15   19.94
  -5   2   4    0.82    6.34
  -5   2   4    4.57    6.48
  -5   2   4   18.65   10.18
  -5   2   4   10.96    7.56
  -5   2   5  103.87   20.14
  -5   2   5  107.53   18.69
  -5   2   5  129.40   21.42
  -5   2   5  107.42   18.38
  -5   2   6   17.01    9.16
  -5   2   6   11.22    7.85
  -5   2   6    9.87    8.90
  -5   2   6    5.34    8.75
  -5   2   7    6.25   10.21
  -5   2   7    4.15    6.21
  -5   2   7    1.96    8.75
  -5   2   7   10.38    7.67
  -5   2   8   17.42   11.68
  -5   2   8   41.57   12.55
  -5   2   8   21.87   11.16
  -5   2   9   97.41   21.41
  -5   2   9   72.52   19.59
  -5   2   9   71.50   17.73
  -5   2  10   -1.35    8.55
  -5   2  10   10.68   12.10
  -5   2  10   14.59   11.18
  -5   2  11   18.53   13.45
  -5   2  11   26.10   13.55
  -5   2  11    8.24    9.75
  -5   2  12    6.96   12.59
  -5   2  12   -6.95    9.05
  -5   2  12    2.55    8.95
  -5   2  13   -6.31   13.20
  -5   2  13   24.94   13.16
  -5   3 -14   11.35   12.12
  -5   3 -14   35.47   15.36
  -5   3 -13   29.00   13.90
  -5   3 -13   -4.01   13.20
  -5   3 -12   -1.11    9.98
  -5   3 -12   21.07   12.18
  -5   3 -11   33.66   13.21
  -5   3 -11   22.09   12.50
  -5   3 -10   15.50   10.04
  -5   3 -10   20.54    9.97
  -5   3 -10   30.15   11.79
  -5   3  -9   41.33   12.10
  -5   3  -9   53.44   16.73
  -5   3  -9   54.79   14.63
  -5   3  -8   -3.05    9.15
  -5   3  -8    5.04   10.39
  -5   3  -8    4.83    7.31
  -5   3  -7   15.91   10.20
  -5   3  -7   18.79    9.37
  -5   3  -7    5.46    9.18
  -5   3  -7    6.36    7.08
  -5   3  -6    6.69    8.75
  -5   3  -6   -8.78    7.95
  -5   3  -6   14.74    6.98
  -5   3  -6   16.45    9.85
  -5   3  -6    4.29    5.14
  -5   3  -5   75.66   16.12
  -5   3  -5   62.08   13.28
  -5   3  -5   63.69   15.51
  -5   3  -5   86.92   16.29
  -5   3  -5   85.40   17.60
  -5   3  -4   70.68   16.09
  -5   3  -4   65.84   13.99
  -5   3  -4   81.00   17.82
  -5   3  -4   72.22   14.58
  -5   3  -4   57.41   12.98
  -5   3  -3   63.82   15.98
  -5   3  -3   73.53   14.32
  -5   3  -3   79.92   15.52
  -5   3  -3   82.69   14.73
  -5   3  -3   88.78   17.50
  -5   3  -3   80.64   14.97
  -5   3  -2   41.19   12.26
  -5   3  -2   42.40   11.05
  -5   3  -2   62.37   16.07
  -5   3  -2   62.70   12.84
  -5   3  -2   77.09   14.70
  -5   3  -2   44.75   12.52
  -5   3  -1    5.47    6.26
  -5   3  -1   16.47    8.74
  -5   3  -1   14.19    7.65
  -5   3  -1   16.97    6.85
  -5   3  -1   10.74    5.57
  -5   3  -1   12.86    8.33
  -5   3   0   12.64    6.92
  -5   3   0   20.53    8.94
  -5   3   0   23.48    9.49
  -5   3   0   31.73   12.81
  -5   3   0   12.50    6.60
  -5   3   1  133.77   20.40
  -5   3   1   89.65   17.69
  -5   3   1  110.33   16.04
  -5   3   1  169.62   24.72
  -5   3   1  128.73   19.52
  -5   3   2  287.03   31.57
  -5   3   2  260.94   28.03
  -5   3   2  285.15   31.27
  -5   3   2  285.41   29.24
  -5   3   3   64.80   15.42
  -5   3   3   59.97   15.36
  -5   3   3   57.11   14.76
  -5   3   3   67.28   14.79
  -5   3   4   27.82   10.52
  -5   3   4    8.07    6.38
  -5   3   4   22.35   10.55
  -5   3   4   18.45    9.54
  -5   3   5  186.16   25.90
  -5   3   5  219.60   27.93
  -5   3   5  220.04   27.79
  -5   3   5  173.56   26.84
  -5   3   6  131.53   22.43
  -5   3   6  183.96   26.48
  -5   3   6  132.60   22.27
  -5   3   6  111.73   22.06
  -5   3   7   17.18    9.66
  -5   3   7   25.64   13.64
  -5   3   7   27.96   11.04
  -5   3   7   29.88   12.07
  -5   3   8   12.46    9.74
  -5   3   8   -4.71    6.32
  -5   3   8   10.51    9.62
  -5   3   9    1.69    8.93
  -5   3   9   10.17    9.95
  -5   3  10   33.99   15.33
  -5   3  10   26.85   14.75
  -5   3  10   32.11   13.69
  -5   3  11   34.28   14.81
  -5   3  11   15.08   11.77
  -5   3  11   46.82   16.59
  -5   3  12   17.90   12.92
  -5   3  12   16.46   11.98
  -5   3  12   26.79   17.44
  -5   3  13   37.29   16.28
  -5   3  13   15.80   12.40
  -5   4 -13    5.90   12.16
  -5   4 -13   -8.94   11.34
  -5   4 -12    9.32   10.82
  -5   4 -12   12.29   11.21
  -5   4 -11   27.03   12.19
  -5   4 -11   28.60   12.53
  -5   4 -10  121.91   24.56
  -5   4 -10  122.27   23.88
  -5   4  -9    1.17   11.96
  -5   4  -9    0.33    6.36
  -5   4  -9  -11.34   10.30
  -5   4  -8    6.70    8.41
  -5   4  -8   49.91   17.23
  -5   4  -8   29.60   11.89
  -5   4  -8   19.01   12.24
  -5   4  -7   12.47    9.85
  -5   4  -7    4.27    8.54
  -5   4  -7    3.38    7.91
  -5   4  -7   13.30    9.24
  -5   4  -6  115.28   19.14
  -5   4  -6   92.37   18.91
  -5   4  -6  115.01   21.70
  -5   4  -6  107.34   20.98
  -5   4  -5   35.56   12.08
  -5   4  -5   58.10   15.28
  -5   4  -5   32.80   12.61
  -5   4  -5   66.16   17.26
  -5   4  -5   50.41   12.85
  -5   4  -4   18.52   10.86
  -5   4  -4   -2.39    8.42
  -5   4  -4   16.16    9.21
  -5   4  -4    6.74    7.49
  -5   4  -3   10.61    7.68
  -5   4  -3   12.79    9.15
  -5   4  -3    8.38    6.70
  -5   4  -3   10.66    7.36
  -5   4  -2   64.57   12.86
  -5   4  -2   75.36   16.32
  -5   4  -2   58.44   14.44
  -5   4  -2   63.48   14.48
  -5   4  -2   69.07   18.65
  -5   4  -1  177.94   23.29
  -5   4  -1  178.81   25.25
  -5   4  -1  173.81   24.33
  -5   4  -1  190.46   28.51
  -5   4   0    4.68    6.37
  -5   4   0    1.85    6.55
  -5   4   0    0.22    6.20
  -5   4   0    9.30    8.59
  -5   4   1    8.69    8.14
  -5   4   1    7.53    6.38
  -5   4   1   12.16    7.77
  -5   4   1   16.36   11.83
  -5   4   2   28.93   10.51
  -5   4   2   32.96   13.15
  -5   4   2   34.17   11.90
  -5   4   2   29.79   12.03
  -5   4   3    0.31    6.77
  -5   4   3    0.31    7.80
  -5   4   3    1.02    7.94
  -5   4   3    2.32    6.56
  -5   4   4  112.05   19.98
  -5   4   4   63.82   17.46
  -5   4   4   99.55   20.19
  -5   4   4   94.67   19.76
  -5   4   5    0.97    8.95
  -5   4   5    5.11    9.28
  -5   4   5   17.62   11.05
  -5   4   5   17.14    9.97
  -5   4   6   20.36   10.66
  -5   4   6   33.18   13.97
  -5   4   6   31.60   14.62
  -5   4   6   18.22    9.79
  -5   4   7   65.16   20.36
  -5   4   7   49.32   15.82
  -5   4   7   35.36   13.51
  -5   4   7   38.54   15.01
  -5   4   8    7.94   11.36
  -5   4   8   16.92   11.70
  -5   4   9   49.08   16.19
  -5   4   9   21.80   17.35
  -5   4  10   35.63   15.13
  -5   4  10   43.02   16.04
  -5   4  11   40.21   16.23
  -5   4  11   17.14   10.83
  -5   5 -12   -5.28   10.26
  -5   5 -11   44.72   17.32
  -5   5 -11   84.28   21.79
  -5   5 -10   37.48   15.11
  -5   5 -10   23.26   10.95
  -5   5  -9   20.17   11.42
  -5   5  -9   26.78   14.36
  -5   5  -9   60.78   17.80
  -5   5  -8    7.56    9.56
  -5   5  -8   25.07   14.10
  -5   5  -8    7.38   10.45
  -5   5  -7   14.95   13.40
  -5   5  -7   17.10   14.31
  -5   5  -7    9.57    9.15
  -5   5  -6   67.39   20.06
  -5   5  -6   39.50   13.31
  -5   5  -6   87.14   19.26
  -5   5  -5   -4.69    6.91
  -5   5  -5    2.96    6.95
  -5   5  -5    9.94    8.85
  -5   5  -5   17.37   11.87
  -5   5  -4   24.47   12.10
  -5   5  -4   21.83   11.97
  -5   5  -4   17.99   10.19
  -5   5  -4   -3.16    6.77
  -5   5  -3   35.26   12.77
  -5   5  -3   38.09   12.48
  -5   5  -3   49.49   16.37
  -5   5  -2   36.70   12.10
  -5   5  -2   35.06   13.57
  -5   5  -2   33.72   12.79
  -5   5  -1   64.64   16.63
  -5   5  -1   64.39   16.99
  -5   5  -1   45.58   17.07
  -5   5   0   11.71    8.21
  -5   5   0   14.89   10.23
  -5   5   0   13.58   11.04
  -5   5   1   21.90    9.83
  -5   5   1   33.47   15.69
  -5   5   1   31.99   12.79
  -5   5   2    2.23    8.81
  -5   5   2   18.16    9.02
  -5   5   2   10.61    7.43
  -5   5   3  107.86   23.77
  -5   5   3   75.78   19.11
  -5   5   3  131.03   24.11
  -5   5   4   45.57   16.12
  -5   5   4   62.80   19.51
  -5   5   4   28.99   13.35
  -5   5   5  101.36   22.57
  -5   5   5   73.58   18.26
  -5   5   5   75.50   21.08
  -5   5   6   15.36   13.54
  -5   5   6   22.83   11.62
  -5   5   6   12.22   10.31
  -5   5   7   -0.19    8.47
  -5   5   7   -4.41   10.49
  -5   5   8   34.42   15.74
  -5   5   8   41.48   18.09
  -5   5   9  -14.27   12.15
  -5   5   9   13.33   12.46
  -5   5  10  -16.23   13.98
  -5   6  -9    1.39    8.66
  -5   6  -9   11.31   10.14
  -5   6  -8   20.78   14.55
  -5   6  -8    6.39    9.49
  -5   6  -7   55.20   17.00
  -5   6  -7   58.10   21.29
  -5   6  -6   62.21   21.35
  -5   6  -6   34.01   14.49
  -5   6  -5   14.44   12.25
  -5   6  -5    2.44    9.54
  -5   6  -5   -1.97   10.58
  -5   6  -4    5.59   10.89
  -5   6  -4   27.33   10.90
  -5   6  -3   -6.12   11.13
  -5   6  -3    1.46    7.87
  -5   6  -2   47.49   18.26
  -5   6  -2   42.46   15.21
  -5   6  -1   25.52   16.08
  -5   6  -1   36.50   13.74
  -5   6   0    8.44    9.26
  -5   6   0   18.07   15.71
  -5   6   0   -2.98    8.98
  -5   6   1  108.93   23.94
  -5   6   1  125.63   26.10
  -5   6   1   65.87   20.87
  -5   6   2   10.69   10.82
  -5   6   2    6.99    9.82
  -5   6   2   -1.38    7.89
  -5   6   3  110.27   23.59
  -5   6   3  107.59   24.38
  -5   6   3  107.99   25.97
  -5   6   4   32.68   14.72
  -5   6   4    7.17    8.46
  -5   6   4   17.17   11.74
  -5   6   5   12.70   10.55
  -5   6   5   23.77   12.35
  -5   6   5   12.61   11.47
  -5   6   6   72.13   21.86
  -5   6   6   52.70   19.40
  -5   6   6   68.85   21.19
  -5   6   7   43.23   19.86
  -5   6   7   20.55   13.56
  -5   6   7   26.72   12.73
  -5   7  -7   20.51   13.08
  -5   7  -5   14.16   12.44
  -5   7  -4   30.74   14.99
  -5   7  -4   -4.82    9.06
  -5   7  -3   17.65   12.67
  -5   7  -3   22.56   13.37
  -5   7  -2   15.18   11.53
  -5   7  -2   19.59   15.93
  -5   7  -1   43.28   19.19
  -5   7  -1   -9.59   11.23
  -5   7   0   38.12   16.09
  -5   7   0   43.21   18.42
  -5   7   1   -0.76   10.39
  -5   7   1    1.88    9.97
  -5   7   2   54.61   21.49
  -5   7   2   53.89   18.53
  -5   7   2  109.55   26.24
  -5   7   3   11.00   13.04
  -5   7   3   32.74   15.28
  -5   7   3   35.30   15.50
  -5   7   4   -1.12   11.41
  -5   7   4   16.23   15.02
  -5   7   5   -6.81    9.99
  -4 -11  -3   -0.21   10.68
  -4 -10 -10  -22.32   17.29
  -4 -10 -10    7.91   10.14
  -4 -10  -9  -24.15   13.13
  -4 -10  -9    0.62   10.39
  -4 -10  -8   15.26   10.66
  -4 -10  -8    2.95    9.22
  -4 -10  -7   20.05   11.61
  -4 -10  -7   10.81   10.99
  -4 -10  -6   32.31   13.91
  -4 -10  -6   -1.85    9.50
  -4 -10  -5    8.57   10.90
  -4 -10  -5   -4.47   10.03
  -4 -10  -4   19.77   11.86
  -4 -10  -4   15.58   10.90
  -4 -10  -3    8.14    8.27
  -4 -10  -3    5.69   10.35
  -4 -10  -2   -8.12    7.91
  -4 -10  -2    0.14    9.05
  -4 -10  -1   36.78   15.13
  -4 -10   0   -0.05    7.93
  -4 -10   0   10.08    9.07
  -4 -10   1    4.05    7.33
  -4 -10   1   22.84   14.20
  -4 -10   2   24.63   14.32
  -4  -9 -12   14.74   15.10
  -4  -9 -12    0.92   12.67
  -4  -9 -12    0.43    7.50
  -4  -9 -11   -1.36    8.27
  -4  -9 -11    1.25   12.63
  -4  -9 -11    5.00   10.40
  -4  -9 -10   14.66   10.90
  -4  -9 -10    6.89    9.07
  -4  -9  -9   13.76   10.81
  -4  -9  -9   22.33   14.15
  -4  -9  -8    7.31    9.78
  -4  -9  -8   29.00   12.98
  -4  -9  -7   25.76   10.98
  -4  -9  -7   -5.05    8.12
  -4  -9  -6    1.29    6.83
  -4  -9  -6   -5.55   11.91
  -4  -9  -5   58.18   17.18
  -4  -9  -5   36.48   13.25
  -4  -9  -4   44.93   14.09
  -4  -9  -4   48.66   14.95
  -4  -9  -3    3.40    8.36
  -4  -9  -3    0.98    8.54
  -4  -9  -2   35.32   14.34
  -4  -9  -2   32.57   14.16
  -4  -9  -1   14.13   10.49
  -4  -9  -1    2.66    9.41
  -4  -9   0   22.85   11.42
  -4  -9   0   32.29   13.08
  -4  -9   1    6.68    7.34
  -4  -9   2   19.03   11.15
  -4  -9   2   28.18   13.38
  -4  -9   3   26.33   10.15
  -4  -9   3   22.19   12.63
  -4  -9   4   17.40   11.96
  -4  -9   4    5.87   10.02
  -4  -9   5    0.94    9.09
  -4  -9   6   39.72   16.18
  -4  -8 -14   45.72   18.63
  -4  -8 -14   49.68   18.45
  -4  -8 -13   -0.15    7.76
  -4  -8 -13  -10.80   12.48
  -4  -8 -12   34.60   15.21
  -4  -8 -12   53.36   20.85
  -4  -8 -12   15.01   13.09
  -4  -8 -11    2.51   11.32
  -4  -8 -11    1.40    9.17
  -4  -8 -10    5.81    9.11
  -4  -8 -10   19.95   13.10
  -4  -8  -9   94.25   21.07
  -4  -8  -9   56.90   15.71
  -4  -8  -8   41.84   14.59
  -4  -8  -8   35.10   13.15
  -4  -8  -7   87.53   19.38
  -4  -8  -7  103.84   19.67
  -4  -8  -6   -4.61    9.25
  -4  -8  -6  -15.98   11.97
  -4  -8  -5   67.67   16.80
  -4  -8  -5   45.14   13.33
  -4  -8  -4   67.51   17.28
  -4  -8  -4   97.72   18.47
  -4  -8  -3    4.23    7.33
  -4  -8  -3   10.24    8.10
  -4  -8  -2   32.88   12.17
  -4  -8  -2   26.92   11.27
  -4  -8  -1   28.24   11.40
  -4  -8  -1   44.47   13.08
  -4  -8   0   16.23    9.83
  -4  -8   0   15.11    9.80
  -4  -8   1   96.76   18.76
  -4  -8   2   14.99    9.45
  -4  -8   3   15.50    9.76
  -4  -8   3   23.92   11.48
  -4  -8   4   28.83   11.48
  -4  -8   4   30.47   12.20
  -4  -8   5  -12.35   11.62
  -4  -8   5   24.71   13.00
  -4  -8   6   20.59   12.12
  -4  -8   6   27.06   11.90
  -4  -8   7   -1.90    8.71
  -4  -8   7   15.05   11.03
  -4  -8   8   21.72   11.96
  -4  -8   8   15.70   11.37
  -4  -8   9   46.14   16.81
  -4  -7 -15   25.75   15.98
  -4  -7 -14   22.22   12.72
  -4  -7 -13    5.86    9.65
  -4  -7 -13   15.09   12.24
  -4  -7 -12   38.58   14.89
  -4  -7 -12   29.53   13.90
  -4  -7 -11   30.75   13.69
  -4  -7 -11   71.62   18.08
  -4  -7 -10   44.03   15.71
  -4  -7 -10   15.11   10.31
  -4  -7  -9   17.31   11.57
  -4  -7  -9   25.51   12.59
  -4  -7  -8   24.22   11.88
  -4  -7  -8   28.77   12.08
  -4  -7  -7   67.39   16.54
  -4  -7  -7   53.79   14.21
  -4  -7  -6    8.25    7.62
  -4  -7  -6    6.34    5.55
  -4  -7  -5   31.27   10.88
  -4  -7  -5   38.12   12.11
  -4  -7  -4   83.67   16.53
  -4  -7  -4   45.27   12.16
  -4  -7  -3   49.96   13.39
  -4  -7  -3   32.22   11.64
  -4  -7  -2   89.07   17.42
  -4  -7  -2   91.37   16.79
  -4  -7  -1   58.08   14.58
  -4  -7  -1   61.93   14.55
  -4  -7   0  177.89   23.31
  -4  -7   0  168.41   22.99
  -4  -7   1   15.11    7.05
  -4  -7   2   78.35   15.61
  -4  -7   3   14.81    9.77
  -4  -7   4   93.74   18.69
  -4  -7   5   64.42   16.09
  -4  -7   5   39.75   12.38
  -4  -7   6   46.57   15.14
  -4  -7   6    7.26    7.67
  -4  -7   7    4.91   10.32
  -4  -7   7   13.76   10.23
  -4  -7   8   16.76   10.18
  -4  -7   8    8.81   11.14
  -4  -7   9   54.54   16.39
  -4  -7   9   47.37   17.17
  -4  -7  10   37.91   14.84
  -4  -7  10   31.52   16.03
  -4  -7  11   -1.12   10.76
  -4  -7  11   -3.92   10.14
  -4  -6 -16   17.24   14.75
  -4  -6 -15   41.42   19.83
  -4  -6 -14   38.26   14.55
  -4  -6 -13   -6.12   12.16
  -4  -6 -12   19.31   13.02
  -4  -6 -11   20.79    9.49
  -4  -6 -10  207.65   26.56
  -4  -6 -10  225.62   29.85
  -4  -6  -9   36.77   12.51
  -4  -6  -9   27.42   11.75
  -4  -6  -8   41.78   12.45
  -4  -6  -8   37.90   12.89
  -4  -6  -7  178.29   18.82
  -4  -6  -7  177.04   23.01
  -4  -6  -7  191.45   25.27
  -4  -6  -6    1.89    7.30
  -4  -6  -6   -6.43    5.98
  -4  -6  -6    2.34    8.91
  -4  -6  -5  700.16   35.32
  -4  -6  -5  719.30   45.77
  -4  -6  -5  658.12   40.57
  -4  -6  -4  320.31   31.21
  -4  -6  -4  350.93   29.66
  -4  -6  -3  271.27   27.67
  -4  -6  -3  224.94   23.56
  -4  -6  -2    4.70    6.57
  -4  -6  -2    6.28    7.22
  -4  -6  -1   -8.16    7.67
  -4  -6  -1   -5.00    7.75
  -4  -6   0   81.61   14.39
  -4  -6   0   99.12   17.50
  -4  -6   1  101.44   16.41
  -4  -6   2  120.78   16.55
  -4  -6   2  128.20   19.32
  -4  -6   3   45.88   12.32
  -4  -6   3   27.83    9.15
  -4  -6   4    1.57    6.47
  -4  -6   4   -0.65    6.59
  -4  -6   5   36.63   13.05
  -4  -6   5   36.50   12.28
  -4  -6   5   32.45   11.51
  -4  -6   6   34.97   13.46
  -4  -6   6   69.70   16.16
  -4  -6   6   72.51   16.47
  -4  -6   7   66.46   15.95
  -4  -6   7   35.09   14.78
  -4  -6   7   48.78   15.23
  -4  -6   8    5.81    7.64
  -4  -6   8   16.44    9.08
  -4  -6   8   25.30   12.81
  -4  -6   9   10.54    9.56
  -4  -6   9   11.86   12.55
  -4  -6   9    3.52    8.90
  -4  -6  10    7.50    9.81
  -4  -6  10   21.81   13.49
  -4  -6  10   -5.51    9.16
  -4  -6  11   -4.49    7.55
  -4  -6  11    5.86   10.10
  -4  -6  11   -9.73   12.47
  -4  -6  12   19.10   14.28
  -4  -6  12   44.10   18.04
  -4  -5 -17   22.51   16.10
  -4  -5 -16   68.47   20.87
  -4  -5 -15    6.89   11.80
  -4  -5 -14   -3.09   10.61
  -4  -5 -14    8.82    8.23
  -4  -5 -13   90.48   18.23
  -4  -5 -13   69.98   19.02
  -4  -5 -12   52.99   12.33
  -4  -5 -12   74.09   19.09
  -4  -5 -11   90.75   15.72
  -4  -5 -10   42.60   10.99
  -4  -5  -9   83.02   18.16
  -4  -5  -9   71.96   13.48
  -4  -5  -8  159.10   23.41
  -4  -5  -8  127.86   19.02
  -4  -5  -8  164.73   19.03
  -4  -5  -7  164.75   20.52
  -4  -5  -7  138.08   20.87
  -4  -5  -7  161.72   18.03
  -4  -5  -7  160.67   15.71
  -4  -5  -6   60.17    9.90
  -4  -5  -6   40.70   12.50
  -4  -5  -6   51.58   10.54
  -4  -5  -6   45.37   12.74
  -4  -5  -5   68.92   13.05
  -4  -5  -5   75.26   14.78
  -4  -5  -5  104.86   13.99
  -4  -5  -5   82.96   10.66
  -4  -5  -4  142.81   16.21
  -4  -5  -4  120.03   12.56
  -4  -5  -4  148.57   20.07
  -4  -5  -3   59.27   12.81
  -4  -5  -3   56.88    9.17
  -4  -5  -3   71.59   11.90
  -4  -5  -3   64.58   12.27
  -4  -5  -2  107.94   15.41
  -4  -5  -2   97.09   16.66
  -4  -5  -2  120.91   13.39
  -4  -5  -1  532.69   28.52
  -4  -5  -1  560.96   32.66
  -4  -5  -1  547.65   36.66
  -4  -5   0  160.23   17.98
  -4  -5   0  166.50   20.95
  -4  -5   0  175.78   17.35
  -4  -5   1   34.23    9.65
  -4  -5   1   41.53    9.57
  -4  -5   2    5.80    5.58
  -4  -5   2   -0.35    7.50
  -4  -5   3   16.95    9.09
  -4  -5   3   25.33    8.44
  -4  -5   4  169.53   21.27
  -4  -5   4   89.52   17.30
  -4  -5   5   79.89   16.98
  -4  -5   5   28.07   10.53
  -4  -5   6  115.19   20.25
  -4  -5   6   88.67   16.89
  -4  -5   6  109.29   19.11
  -4  -5   7   20.71   11.20
  -4  -5   7   32.24   11.63
  -4  -5   7   22.73   11.00
  -4  -5   8    0.68    9.61
  -4  -5   8   -3.41    7.87
  -4  -5   8    2.56   10.26
  -4  -5   9   84.72   19.23
  -4  -5   9   91.27   20.97
  -4  -5   9   65.79   16.60
  -4  -5  10   -0.38   10.55
  -4  -5  10   13.54    8.33
  -4  -5  10   24.34   13.73
  -4  -5  11   -9.70   11.45
  -4  -5  11   13.10   10.93
  -4  -5  11   10.61    9.22
  -4  -5  12   11.00   11.92
  -4  -5  12    7.45   11.01
  -4  -5  13    0.93    8.62
  -4  -4 -18   56.78   19.79
  -4  -4 -18   47.84   17.85
  -4  -4 -17   43.84   18.88
  -4  -4 -17   50.13   17.87
  -4  -4 -16   22.35   13.27
  -4  -4 -16  -10.46    9.63
  -4  -4 -15   32.16   12.42
  -4  -4 -15   75.70   20.12
  -4  -4 -14  -11.34    9.11
  -4  -4 -14  -23.13   13.36
  -4  -4 -13   12.49    9.24
  -4  -4 -13    2.02    8.06
  -4  -4 -12  178.57   22.06
  -4  -4 -12  232.73   25.94
  -4  -4 -12  175.63   25.95
  -4  -4 -11   52.21   12.03
  -4  -4 -11   60.54   13.85
  -4  -4 -10  141.81   18.40
  -4  -4 -10  129.66   17.06
  -4  -4  -9   57.78   12.38
  -4  -4  -9   56.16   11.53
  -4  -4  -9   46.56   11.18
  -4  -4  -8  550.97   39.33
  -4  -4  -8  575.90   32.48
  -4  -4  -8  510.28   29.68
  -4  -4  -8  603.40   36.10
  -4  -4  -7  937.66   49.10
  -4  -4  -7  832.04   37.22
  -4  -4  -7  805.36   41.00
  -4  -4  -7  776.14   33.98
  -4  -4  -7  894.37   42.13
  -4  -4  -6   78.51   14.31
  -4  -4  -6   62.24   13.54
  -4  -4  -6   65.98   10.83
  -4  -4  -6   77.59   12.62
  -4  -4  -5   30.37    7.71
  -4  -4  -5   28.04    8.79
  -4  -4  -5   44.10   10.27
  -4  -4  -5   35.90    7.99
  -4  -4  -4  260.11   24.57
  -4  -4  -4  250.06   21.03
  -4  -4  -4  235.70   20.45
  -4  -4  -4  230.94   18.16
  -4  -4  -3  652.60   38.53
  -4  -4  -3  650.24   34.03
  -4  -4  -3  687.30   31.49
  -4  -4  -3  628.08   32.11
  -4  -4  -2  911.40   44.87
  -4  -4  -2  860.13   39.11
  -4  -4  -2  793.45   34.82
  -4  -4  -2  837.06   35.39
  -4  -4  -1  192.93   17.73
  -4  -4  -1  207.29   21.84
  -4  -4  -1  192.31   17.36
  -4  -4   0   59.49   12.73
  -4  -4   0   78.83   12.05
  -4  -4   0   73.41   10.73
  -4  -4   1  531.32   33.58
  -4  -4   1  557.58   28.55
  -4  -4   1  576.76   32.47
  -4  -4   2  311.10   25.94
  -4  -4   2  337.01   26.43
  -4  -4   3 1407.33   56.50
  -4  -4   3 1444.52   57.07
  -4  -4   4  118.28   17.85
  -4  -4   4  137.48   19.42
  -4  -4   5   12.24    9.80
  -4  -4   5    8.32    6.36
  -4  -4   6   42.72   14.44
  -4  -4   6   22.60    8.96
  -4  -4   7   40.91   12.22
  -4  -4   7   26.62   13.79
  -4  -4   7   41.05   14.56
  -4  -4   8   23.54    9.28
  -4  -4   8   37.78   13.31
  -4  -4   8   40.71   13.83
  -4  -4   9   54.22   13.18
  -4  -4   9   48.20   15.19
  -4  -4   9   63.26   17.68
  -4  -4  10   75.59   16.10
  -4  -4  10   74.02   19.14
  -4  -4  10   78.08   19.88
  -4  -4  11   10.07    9.74
  -4  -4  11   22.79   14.36
  -4  -4  12   12.33   11.31
  -4  -4  13    5.53   10.64
  -4  -3 -18   25.48   14.11
  -4  -3 -18  -11.77   12.93
  -4  -3 -17   57.92   18.02
  -4  -3 -17   59.97   18.33
  -4  -3 -16   19.71   12.46
  -4  -3 -16    6.78   10.30
  -4  -3 -16   34.94   16.12
  -4  -3 -15   78.01   18.94
  -4  -3 -15  116.67   23.46
  -4  -3 -14   55.66   16.46
  -4  -3 -14   92.81   20.41
  -4  -3 -13    0.79    6.04
  -4  -3 -13    0.56    8.10
  -4  -3 -13    7.89    8.48
  -4  -3 -12  179.25   23.56
  -4  -3 -12  176.68   24.94
  -4  -3 -12  141.53   21.18
  -4  -3 -11   46.81   12.51
  -4  -3 -11   28.85   10.42
  -4  -3 -11   34.27   10.59
  -4  -3 -10  282.23   26.47
  -4  -3 -10  274.63   25.62
  -4  -3  -9   28.08    9.25
  -4  -3  -9   25.02    9.71
  -4  -3  -8   55.08   11.95
  -4  -3  -8   65.05   12.00
  -4  -3  -7   99.43   14.54
  -4  -3  -7   81.82   14.28
  -4  -3  -7   98.41   13.93
  -4  -3  -6  489.28   33.25
  -4  -3  -6  528.63   31.72
  -4  -3  -6  502.89   29.08
  -4  -3  -5  592.07   34.96
  -4  -3  -5  573.85   32.42
  -4  -3  -5  570.12   30.13
  -4  -3  -4  405.02   25.20
  -4  -3  -4  394.24   24.33
  -4  -3  -4  415.98   27.18
  -4  -3  -4  395.20   28.38
  -4  -3  -3  376.39   25.64
  -4  -3  -3  372.19   27.34
  -4  -3  -3  355.86   21.72
  -4  -3  -3  362.11   23.78
  -4  -3  -2  158.33   14.20
  -4  -3  -2  162.68   16.25
  -4  -3  -2  160.58   18.35
  -4  -3  -2  178.02   18.01
  -4  -3  -1  174.69   18.41
  -4  -3  -1  167.68   18.52
  -4  -3  -1  169.06   13.92
  -4  -3  -1  193.93   18.39
  -4  -3   0  584.87   31.77
  -4  -3   0  640.58   34.60
  -4  -3   0  568.95   24.32
  -4  -3   1  423.57   28.03
  -4  -3   1  374.31   26.54
  -4  -3   1  350.59   18.76
  -4  -3   2  457.72   21.34
  -4  -3   2  532.26   33.10
  -4  -3   2  542.99   32.49
  -4  -3   3  184.52   21.39
  -4  -3   3  219.09   23.23
  -4  -3   4  206.05   23.03
  -4  -3   4  233.30   23.80
  -4  -3   5  102.72   16.57
  -4  -3   5  102.30   17.78
  -4  -3   6 1150.99   54.20
  -4  -3   6 1194.09   59.76
  -4  -3   7  290.28   26.27
  -4  -3   7  260.22   27.55
  -4  -3   7  255.97   29.42
  -4  -3   8   40.80   13.97
  -4  -3   8   48.70   15.08
  -4  -3   8   53.05   11.78
  -4  -3   9    6.35    8.53
  -4  -3   9   -0.49    8.72
  -4  -3   9   10.60    6.90
  -4  -3  10   24.58   13.02
  -4  -3  10   17.05   11.27
  -4  -3  11  150.40   27.39
  -4  -3  12   41.81   15.12
  -4  -3  13   12.04   12.72
  -4  -3  14   12.33   11.47
  -4  -2 -19    8.45   12.93
  -4  -2 -18   20.95   13.18
  -4  -2 -18   16.99   12.86
  -4  -2 -17   -8.27   12.65
  -4  -2 -17   12.75   10.56
  -4  -2 -17    8.30    9.64
  -4  -2 -16   18.53   12.50
  -4  -2 -16    6.44   10.19
  -4  -2 -16    2.80   10.40
  -4  -2 -15   21.23   11.72
  -4  -2 -15   -2.21    8.74
  -4  -2 -15   24.35   13.93
  -4  -2 -14   16.86   10.16
  -4  -2 -14    7.33    7.89
  -4  -2 -14   19.91   12.75
  -4  -2 -14   20.85   12.49
  -4  -2 -13   96.15   18.28
  -4  -2 -13  117.44   20.97
  -4  -2 -13   95.88   19.07
  -4  -2 -12   55.97   13.91
  -4  -2 -12   61.90   14.60
  -4  -2 -12   47.05   12.74
  -4  -2 -11    7.33    8.82
  -4  -2 -11    6.15    7.32
  -4  -2 -11   12.26    9.19
  -4  -2 -10  101.20   17.02
  -4  -2 -10   59.81   13.10
  -4  -2 -10   58.21   13.82
  -4  -2  -9   73.07   14.39
  -4  -2  -9   59.78   12.79
  -4  -2  -8  188.12   20.41
  -4  -2  -8  190.58   21.02
  -4  -2  -7   94.64   14.27
  -4  -2  -7  117.67   16.23
  -4  -2  -6   13.68    6.23
  -4  -2  -6   10.25    5.76
  -4  -2  -6    5.67    5.10
  -4  -2  -5  789.22   38.21
  -4  -2  -5  826.60   38.74
  -4  -2  -5  792.92   37.04
  -4  -2  -4    1.85    5.14
  -4  -2  -4    4.75    5.38
  -4  -2  -4    6.77    4.81
  -4  -2  -3 1350.35   47.79
  -4  -2  -3 1197.94   45.41
  -4  -2  -3 1250.24   45.24
  -4  -2  -2 1198.82   44.49
  -4  -2  -2 1178.51   44.23
  -4  -2  -2 1171.55   45.64
  -4  -2  -1  211.95   20.32
  -4  -2  -1  248.34   20.74
  -4  -2  -1  244.82   20.32
  -4  -2   0 1963.00   59.06
  -4  -2   0 1914.59   58.71
  -4  -2   0 1837.29   53.43
  -4  -2   1  291.84   12.77
  -4  -2   1  346.50   26.41
  -4  -2   1  298.69   22.28
  -4  -2   2  277.10   24.18
  -4  -2   2  218.00   10.32
  -4  -2   2  269.99   21.92
  -4  -2   3  817.64   38.78
  -4  -2   3  814.98   42.55
  -4  -2   4  150.58   18.40
  -4  -2   4  162.17   19.78
  -4  -2   5  199.92   21.44
  -4  -2   5  205.77   24.07
  -4  -2   6  267.76   28.67
  -4  -2   6  232.73   24.78
  -4  -2   7   91.74   13.26
  -4  -2   7  107.12   18.52
  -4  -2   7  132.80   21.36
  -4  -2   8  167.93   23.16
  -4  -2   8  206.02   27.20
  -4  -2   9  107.01   22.00
  -4  -2   9   77.18   16.78
  -4  -2  10   35.88   13.60
  -4  -2  10   51.27   15.36
  -4  -2  11   52.17   17.10
  -4  -2  12   81.22   21.59
  -4  -2  13   23.92   12.99
  -4  -2  13   28.67   15.64
  -4  -2  14   19.78   14.57
  -4  -2  14   60.53   18.86
  -4  -1 -18    4.52    9.27
  -4  -1 -18   -9.62   11.08
  -4  -1 -17   -0.31    8.75
  -4  -1 -17  -23.70   13.36
  -4  -1 -16   10.13    9.03
  -4  -1 -16   29.48   12.57
  -4  -1 -16   25.68   12.24
  -4  -1 -15    0.03    9.87
  -4  -1 -15    7.58    9.90
  -4  -1 -15   16.59   11.97
  -4  -1 -14  121.98   22.18
  -4  -1 -14   87.45   18.33
  -4  -1 -14   81.42   17.49
  -4  -1 -14   88.75   20.27
  -4  -1 -13   53.94   16.84
  -4  -1 -13   46.16   14.46
  -4  -1 -13   39.01   13.39
  -4  -1 -13   63.90   15.01
  -4  -1 -12   69.03   16.41
  -4  -1 -12   77.12   16.98
  -4  -1 -12   84.84   16.22
  -4  -1 -11   26.40   10.73
  -4  -1 -11   35.64   12.37
  -4  -1 -11   19.45    9.76
  -4  -1 -10  182.34   21.42
  -4  -1 -10  191.87   23.39
  -4  -1 -10  213.85   24.84
  -4  -1  -9   88.00   16.70
  -4  -1  -8  219.32   23.04
  -4  -1  -7  233.15   20.89
  -4  -1  -7  191.87   11.17
  -4  -1  -7  175.62   21.03
  -4  -1  -6   19.89    4.73
  -4  -1  -6   36.27    9.74
  -4  -1  -6   34.94    8.49
  -4  -1  -5  463.67   21.14
  -4  -1  -5  504.90   28.28
  -4  -1  -5  467.94   30.14
  -4  -1  -5  519.80   31.42
  -4  -1  -4   72.07   12.05
  -4  -1  -4   75.58   11.32
  -4  -1  -4   94.74   13.75
  -4  -1  -3  240.04   11.13
  -4  -1  -3  255.41   21.64
  -4  -1  -3  278.80   19.88
  -4  -1  -3  278.50   22.39
  -4  -1  -2  344.92   24.89
  -4  -1  -2  329.90   21.15
  -4  -1  -2  340.04   24.83
  -4  -1  -2  276.59   13.94
  -4  -1  -1  617.70   28.42
  -4  -1  -1  573.04   22.52
  -4  -1  -1  577.04   32.18
  -4  -1  -1  636.17   33.10
  -4  -1   0  216.59   17.09
  -4  -1   0  187.66   18.98
  -4  -1   0  214.36   15.35
  -4  -1   0  186.85   19.19
  -4  -1   1  245.04   18.96
  -4  -1   1  256.54   22.70
  -4  -1   1  232.29   17.52
  -4  -1   2  336.40   22.79
  -4  -1   2  329.24   26.49
  -4  -1   2  281.61   20.33
  -4  -1   3  313.14   23.33
  -4  -1   3  292.29   22.22
  -4  -1   3  292.73   25.78
  -4  -1   4  637.54   34.80
  -4  -1   4  661.81   39.62
  -4  -1   5   55.65   12.08
  -4  -1   5   61.55   13.64
  -4  -1   6  102.65   18.45
  -4  -1   6   92.04   16.10
  -4  -1   7  442.44   37.45
  -4  -1   7  414.41   33.31
  -4  -1   8  354.97   31.84
  -4  -1   8  427.31   37.99
  -4  -1   8  360.77   32.94
  -4  -1   9  156.62   23.15
  -4  -1   9  193.49   28.00
  -4  -1  10  129.95   21.88
  -4  -1  10   94.47   19.11
  -4  -1  10   88.08   19.44
  -4  -1  11   26.04   11.80
  -4  -1  11   13.16   11.40
  -4  -1  11   17.74   13.06
  -4  -1  12   -0.75    9.69
  -4  -1  12   10.52   10.69
  -4  -1  12    7.56    8.65
  -4  -1  13   21.17   12.34
  -4  -1  13   42.00   15.75
  -4  -1  13   44.45   15.86
  -4  -1  14   15.21   12.83
  -4  -1  14    2.20   10.24
  -4  -1  15    5.47   10.62
  -4   0 -18   -1.67   14.53
  -4   0 -17   29.79   15.44
  -4   0 -17   28.19   12.41
  -4   0 -16  123.53   23.07
  -4   0 -16  152.89   27.32
  -4   0 -15   76.12   17.76
  -4   0 -15   62.10   18.53
  -4   0 -14    5.61    9.56
  -4   0 -14    0.57    8.47
  -4   0 -14    9.37    8.92
  -4   0 -13   37.34   13.20
  -4   0 -13   72.09   15.09
  -4   0 -13   48.09   13.88
  -4   0 -13   40.37   13.30
  -4   0 -12    9.67    8.56
  -4   0 -12   26.20   15.28
  -4   0 -12   20.63    9.54
  -4   0 -12   17.22   11.44
  -4   0 -11  118.54   20.41
  -4   0 -11  147.92   20.94
  -4   0 -11  116.16   16.74
  -4   0 -10  491.84   31.77
  -4   0 -10  533.60   39.80
  -4   0 -10  504.05   35.93
  -4   0  -9    3.66    6.59
  -4   0  -9    7.68    6.35
  -4   0  -9   -2.73    6.46
  -4   0  -8   10.75    6.78
  -4   0  -8   24.00    6.79
  -4   0  -7   43.41    6.22
  -4   0  -7   61.58   13.91
  -4   0  -6 1442.81   37.44
  -4   0  -6 1484.92   51.21
  -4   0  -6 1578.04   48.08
  -4   0  -5 1262.63   40.34
  -4   0  -5 1107.86   34.39
  -4   0  -5 1246.88   49.41
  -4   0  -5 1239.30   46.61
  -4   0  -5 1212.76   49.21
  -4   0  -4   12.39    7.97
  -4   0  -4    4.30    3.73
  -4   0  -4   -4.02    4.48
  -4   0  -4    0.06    5.00
  -4   0  -3   53.60    7.92
  -4   0  -3   45.03    9.68
  -4   0  -3   56.08    9.39
  -4   0  -3   48.29    6.77
  -4   0  -3   52.79   10.55
  -4   0  -2  120.82   13.97
  -4   0  -2  129.44   15.32
  -4   0  -2  106.60   10.51
  -4   0  -2  105.90   10.05
  -4   0  -2  118.82   15.74
  -4   0  -1 1716.52   42.11
  -4   0  -1 1608.47   49.72
  -4   0  -1 1595.81   41.00
  -4   0  -1 1688.97   54.10
  -4   0  -1 1657.58   55.55
  -4   0   0   86.61   10.63
  -4   0   0   84.86   12.54
  -4   0   0  112.28   11.96
  -4   0   0  102.86   14.57
  -4   0   0  122.89   16.23
  -4   0   1   88.64   13.64
  -4   0   1  100.21   11.86
  -4   0   1  100.41   14.84
  -4   0   1  104.74   14.28
  -4   0   1  105.40   12.38
  -4   0   2  179.45   16.00
  -4   0   2  213.12   21.31
  -4   0   2  213.85   20.88
  -4   0   2  171.48   16.86
  -4   0   2  191.22   20.68
  -4   0   3   79.67   14.08
  -4   0   3   62.97   10.97
  -4   0   3   95.28   14.66
  -4   0   3   62.68   11.39
  -4   0   3   90.64   16.51
  -4   0   4  383.89   26.54
  -4   0   4  423.27   31.50
  -4   0   4  361.68   26.98
  -4   0   4  361.57   30.11
  -4   0   4  417.67   27.92
  -4   0   5  132.27   19.92
  -4   0   5  177.12   21.90
  -4   0   5  149.44   18.71
  -4   0   5  118.00   16.83
  -4   0   5  188.50   19.18
  -4   0   6   74.09   14.39
  -4   0   6   84.34   17.85
  -4   0   6   89.01   11.72
  -4   0   6   65.06   12.13
  -4   0   6   82.51   15.00
  -4   0   6   80.52   16.48
  -4   0   7   61.86   14.73
  -4   0   7   98.35   18.26
  -4   0   7   64.36   14.20
  -4   0   7   79.33   12.72
  -4   0   7   73.45   15.52
  -4   0   8   47.54   13.56
  -4   0   8   46.23   14.67
  -4   0   8   52.59   14.75
  -4   0   9  223.14   28.95
  -4   0   9  182.54   24.17
  -4   0   9  187.82   24.75
  -4   0  10   66.88   17.19
  -4   0  10   44.49   13.29
  -4   0  11   48.81   15.39
  -4   0  11   80.51   19.31
  -4   0  11   60.85   18.30
  -4   0  12   35.11   16.16
  -4   0  12   20.51   12.04
  -4   0  12   33.92   14.19
  -4   0  13   11.76   10.71
  -4   0  13    4.06    9.41
  -4   0  13  -17.58   10.93
  -4   0  14    8.29    9.64
  -4   0  14   27.50   15.91
  -4   0  15   19.13   12.99
  -4   0  15   14.27   12.55
  -4   1 -17   17.05   11.47
  -4   1 -16   -0.06    9.71
  -4   1 -15  -16.12   13.64
  -4   1 -14  122.24   22.54
  -4   1 -14   99.58   22.32
  -4   1 -13  175.51   25.28
  -4   1 -13  237.03   31.38
  -4   1 -12  277.11   32.43
  -4   1 -12  266.20   28.98
  -4   1 -11    9.17    8.88
  -4   1 -11   40.81   13.38
  -4   1 -10   15.18    6.40
  -4   1 -10   13.33    9.30
  -4   1 -10    5.40    6.69
  -4   1  -9  210.65   24.12
  -4   1  -9  265.17   28.68
  -4   1  -9  230.17   21.69
  -4   1  -8  101.51   18.11
  -4   1  -8   73.35   12.30
  -4   1  -8   95.98   16.38
  -4   1  -7   82.39   15.05
  -4   1  -7   72.67    9.73
  -4   1  -7   98.95   11.11
  -4   1  -7   95.94   14.43
  -4   1  -7   94.91   16.33
  -4   1  -7   88.46   11.16
  -4   1  -6  170.97   13.99
  -4   1  -6  153.82   14.49
  -4   1  -6  153.28   19.32
  -4   1  -6  164.46   18.31
  -4   1  -5  287.51   25.54
  -4   1  -5  258.62   22.51
  -4   1  -5  256.43   15.40
  -4   1  -5  238.99   18.34
  -4   1  -4  437.21   18.71
  -4   1  -4  430.31   25.08
  -4   1  -4  456.77   30.40
  -4   1  -4  405.84   29.53
  -4   1  -4  425.92   28.73
  -4   1  -3   43.69    9.88
  -4   1  -3   62.11    6.98
  -4   1  -3   76.10   11.31
  -4   1  -3   83.67   10.56
  -4   1  -3   82.20   12.88
  -4   1  -3   97.60   15.13
  -4   1  -2  447.32   28.25
  -4   1  -2  452.02   27.06
  -4   1  -2  465.89   24.78
  -4   1  -2  488.80   18.90
  -4   1  -2  484.06   32.11
  -4   1  -2  501.85   31.42
  -4   1  -1  647.81   22.64
  -4   1  -1  638.18   37.45
  -4   1  -1  615.07   32.73
  -4   1  -1  592.03   28.81
  -4   1  -1  617.49   32.78
  -4   1  -1  613.76   34.88
  -4   1   0  179.74   18.64
  -4   1   0  213.25   19.77
  -4   1   0  197.93   17.45
  -4   1   0  220.53   21.39
  -4   1   0  237.01   22.67
  -4   1   0  244.10   15.16
  -4   1   1  107.16   15.60
  -4   1   1   96.61   14.74
  -4   1   1  100.81   13.31
  -4   1   1  109.79   16.49
  -4   1   1  117.07   11.89
  -4   1   1  109.05   14.45
  -4   1   2    5.81    7.59
  -4   1   2   17.55    8.26
  -4   1   2    8.91    6.77
  -4   1   2   13.27    6.03
  -4   1   2    6.76    5.14
  -4   1   3  513.75   34.41
  -4   1   3  465.45   26.85
  -4   1   3  505.75   32.01
  -4   1   3  518.03   32.02
  -4   1   3  472.03   33.14
  -4   1   4  422.73   32.86
  -4   1   4  400.29   26.31
  -4   1   4  380.01   28.74
  -4   1   4  448.46   33.28
  -4   1   4  394.19   28.33
  -4   1   5    4.14    6.26
  -4   1   5   -0.76    6.47
  -4   1   5   21.60    7.53
  -4   1   5   14.89    5.97
  -4   1   5   14.59    7.62
  -4   1   6  238.75   24.97
  -4   1   6  247.97   26.54
  -4   1   6  292.76   24.12
  -4   1   6  231.58   21.82
  -4   1   6  254.85   27.15
  -4   1   7  261.65   28.72
  -4   1   7  208.16   20.54
  -4   1   7  254.01   28.61
  -4   1   7  240.14   25.72
  -4   1   7  253.85   23.35
  -4   1   8  330.88   32.76
  -4   1   8  340.25   32.10
  -4   1   8  356.08   34.26
  -4   1   9   14.18   11.33
  -4   1   9   10.43    9.39
  -4   1  10   -6.29    9.75
  -4   1  10   -2.51    9.95
  -4   1  10    2.54    9.34
  -4   1  11   38.55   14.75
  -4   1  11   34.53   13.62
  -4   1  11   16.82    7.62
  -4   1  12  -20.83   13.87
  -4   1  12   -3.15    8.65
  -4   1  12    4.95   10.93
  -4   1  13    0.74    9.37
  -4   1  13   38.12   14.48
  -4   1  13   34.03   14.11
  -4   1  14    4.09   11.43
  -4   1  14   17.48   14.52
  -4   1  15    9.37   11.12
  -4   2 -16   32.14   13.37
  -4   2 -15   -8.78   11.86
  -4   2 -14    4.04    8.49
  -4   2 -14  -14.93   12.09
  -4   2 -13   98.11   23.06
  -4   2 -13   74.49   17.66
  -4   2 -12   54.74   16.24
  -4   2 -12   44.04   14.31
  -4   2 -11   58.12   15.32
  -4   2 -11   49.60   14.91
  -4   2 -10   49.28   13.90
  -4   2 -10   37.10   12.57
  -4   2 -10   18.85    7.84
  -4   2  -9  179.33   21.16
  -4   2  -9  178.06   23.01
  -4   2  -9  231.77   27.68
  -4   2  -8  983.17   53.18
  -4   2  -8  855.45   45.03
  -4   2  -8  917.75   48.38
  -4   2  -7   -0.39    7.77
  -4   2  -7   -0.89    4.48
  -4   2  -7   10.19    8.20
  -4   2  -7    3.76    7.15
  -4   2  -6  224.08   22.90
  -4   2  -6  211.10   22.89
  -4   2  -6  238.00   20.52
  -4   2  -6  226.07   25.10
  -4   2  -5   93.97   13.67
  -4   2  -5  103.10   16.92
  -4   2  -5  126.98   16.91
  -4   2  -4  678.04   35.14
  -4   2  -4  746.35   37.50
  -4   2  -4  721.52   38.40
  -4   2  -4  679.13   39.45
  -4   2  -4  767.55   41.50
  -4   2  -3  757.31   36.52
  -4   2  -3  747.44   36.49
  -4   2  -3  712.34   40.51
  -4   2  -3  732.86   36.95
  -4   2  -3  759.94   38.16
  -4   2  -3  816.41   42.12
  -4   2  -2  150.73   16.41
  -4   2  -2  142.04   17.03
  -4   2  -2  151.87   17.02
  -4   2  -2  134.66   17.63
  -4   2  -2  146.61   16.66
  -4   2  -2  126.66   17.69
  -4   2  -1   90.56   13.19
  -4   2  -1   73.26   12.71
  -4   2  -1   86.21   14.24
  -4   2  -1   58.72   12.29
  -4   2  -1   89.23   12.69
  -4   2  -1   73.53   12.28
  -4   2   0  189.29   20.70
  -4   2   0  160.89   19.49
  -4   2   0  217.08   22.07
  -4   2   0  194.53   19.56
  -4   2   0  200.87   18.92
  -4   2   0  242.91   18.50
  -4   2   1  681.68   36.59
  -4   2   1  702.66   41.00
  -4   2   1  654.35   27.15
  -4   2   1  703.30   38.91
  -4   2   1  625.32   37.00
  -4   2   1  686.17   34.59
  -4   2   2  133.44   18.70
  -4   2   2  160.89   12.41
  -4   2   2  163.23   19.52
  -4   2   2  134.58   18.32
  -4   2   2  145.66   18.15
  -4   2   3   89.45   15.04
  -4   2   3   91.26   15.59
  -4   2   3   73.68   14.24
  -4   2   3   62.26   12.64
  -4   2   4   79.33   14.71
  -4   2   4   53.56   12.26
  -4   2   4   61.05   13.56
  -4   2   4   93.29   15.19
  -4   2   5    0.19    5.76
  -4   2   5    6.30    6.73
  -4   2   5    2.02    6.16
  -4   2   6   51.51   13.32
  -4   2   6   22.53    9.18
  -4   2   6   49.49   13.71
  -4   2   6   11.57    9.19
  -4   2   6   47.54   11.64
  -4   2   7  151.39   19.64
  -4   2   7  126.50   21.50
  -4   2   7  138.30   21.38
  -4   2   7  181.62   24.29
  -4   2   7  181.16   21.94
  -4   2   8   22.98    9.30
  -4   2   8   39.51   12.14
  -4   2   8   16.88    9.31
  -4   2   8   23.97   12.33
  -4   2   8   23.88    8.66
  -4   2   9   41.07   14.13
  -4   2   9   71.92   17.36
  -4   2   9   33.39   11.57
  -4   2  10   25.91   12.17
  -4   2  10   29.74   12.25
  -4   2  10   31.99   12.23
  -4   2  11   20.31   13.30
  -4   2  11   44.48   14.78
  -4   2  11   54.36   15.83
  -4   2  12   58.24   17.03
  -4   2  12   42.55   15.00
  -4   2  12   54.49   16.61
  -4   2  13   21.88   13.51
  -4   2  13   22.33   11.24
  -4   2  13   38.57   15.72
  -4   2  14   15.95   11.03
  -4   2  14   -8.14    9.93
  -4   2  15    3.47   10.53
  -4   3 -15    1.55    9.65
  -4   3 -14    6.07   11.22
  -4   3 -13   39.36   15.37
  -4   3 -13   37.38   13.61
  -4   3 -12   65.36   18.49
  -4   3 -12   32.50   12.49
  -4   3 -11   35.34   15.11
  -4   3 -11   65.07   15.49
  -4   3 -10   46.19   13.91
  -4   3 -10   75.17   17.59
  -4   3  -9   68.96   16.27
  -4   3  -9   79.63   16.08
  -4   3  -9   42.72   13.30
  -4   3  -8  178.34   23.65
  -4   3  -8  138.40   20.48
  -4   3  -8  169.15   23.46
  -4   3  -7  541.05   40.20
  -4   3  -7  502.49   37.29
  -4   3  -7  436.07   35.66
  -4   3  -6  185.60   23.10
  -4   3  -6  160.55   19.31
  -4   3  -6  127.20   19.01
  -4   3  -6  158.12   21.46
  -4   3  -5  172.46   22.17
  -4   3  -5  223.35   24.50
  -4   3  -5  193.60   21.61
  -4   3  -5  161.86   20.80
  -4   3  -4  221.86   22.97
  -4   3  -4  285.13   24.94
  -4   3  -4  181.04   21.17
  -4   3  -4  220.55   23.83
  -4   3  -4  205.84   24.51
  -4   3  -3   39.03   10.57
  -4   3  -3   46.00   12.64
  -4   3  -3   38.72   10.16
  -4   3  -3   38.35   12.91
  -4   3  -3   34.82    9.86
  -4   3  -2  233.75   23.72
  -4   3  -2  243.15   23.82
  -4   3  -2  273.72   27.95
  -4   3  -2  251.98   21.82
  -4   3  -2  245.12   23.50
  -4   3  -2  227.49   21.06
  -4   3  -1   40.73   11.28
  -4   3  -1   36.81    9.04
  -4   3  -1   40.79   10.47
  -4   3  -1   42.28    9.49
  -4   3  -1   36.26   10.46
  -4   3  -1   43.55   12.38
  -4   3   0  325.59   27.06
  -4   3   0  279.14   26.55
  -4   3   0  292.03   26.41
  -4   3   0  336.39   31.20
  -4   3   0  304.06   22.93
  -4   3   0  299.25   21.27
  -4   3   1  475.59   34.80
  -4   3   1  560.16   30.97
  -4   3   1  524.97   35.70
  -4   3   1  566.44   40.17
  -4   3   1  518.23   34.06
  -4   3   1  519.83   25.70
  -4   3   2   52.33   12.72
  -4   3   2   57.41   12.88
  -4   3   2   57.58   13.97
  -4   3   2   29.46    9.31
  -4   3   3   86.31   14.85
  -4   3   3   98.34   17.70
  -4   3   3   71.11   15.08
  -4   3   3   79.57   14.96
  -4   3   4   51.17   12.54
  -4   3   4   35.51   11.78
  -4   3   4   50.62   12.24
  -4   3   4   43.69   12.57
  -4   3   5  176.44   24.43
  -4   3   5  202.56   24.70
  -4   3   5  187.13   24.25
  -4   3   5  157.62   21.46
  -4   3   6  115.51   19.87
  -4   3   6   82.73   16.19
  -4   3   6   81.54   16.83
  -4   3   6   80.59   18.78
  -4   3   6   64.31   14.97
  -4   3   7   22.27   10.07
  -4   3   7   36.75   13.60
  -4   3   7   11.90    8.90
  -4   3   7   20.45   10.46
  -4   3   7   13.72    9.36
  -4   3   8    6.41    8.11
  -4   3   8    1.95    6.74
  -4   3   8    2.89    9.51
  -4   3   8   -0.95    5.45
  -4   3   8   -3.43    7.50
  -4   3   9   11.17    9.07
  -4   3   9   11.77   11.61
  -4   3   9    8.49    7.68
  -4   3   9   17.60    9.24
  -4   3  10   71.93   18.57
  -4   3  10   93.70   20.95
  -4   3  10   91.84   20.42
  -4   3  11   -3.25    7.39
  -4   3  11   -8.94    9.44
  -4   3  11  -11.59    9.58
  -4   3  12    4.81    7.89
  -4   3  12   11.19   10.68
  -4   3  12   10.89   10.18
  -4   3  13   28.19   15.00
  -4   3  13   35.04   13.40
  -4   3  13   26.63   14.97
  -4   3  14   -3.33    9.60
  -4   4 -14   11.38   11.70
  -4   4 -13   43.37   15.51
  -4   4 -13   52.57   19.02
  -4   4 -12   25.96   13.54
  -4   4 -12   22.64   12.59
  -4   4 -11   49.23   15.79
  -4   4 -11   39.80   14.37
  -4   4 -10    2.93    8.87
  -4   4 -10    5.90    7.98
  -4   4  -9  276.27   32.18
  -4   4  -9  275.47   32.65
  -4   4  -9  273.67   32.22
  -4   4  -8   11.49   11.01
  -4   4  -8    2.74    8.01
  -4   4  -8   13.76    9.76
  -4   4  -7   35.56   12.18
  -4   4  -7   39.65   13.47
  -4   4  -7   14.27   10.03
  -4   4  -6  188.00   24.28
  -4   4  -6  203.82   26.76
  -4   4  -6  206.08   24.54
  -4   4  -6  215.03   26.10
  -4   4  -5   39.29   11.96
  -4   4  -5   41.72   12.17
  -4   4  -5   53.82   11.93
  -4   4  -5   45.87   12.83
  -4   4  -5   53.06   15.08
  -4   4  -4  109.96   18.22
  -4   4  -4  106.06   15.97
  -4   4  -4  117.76   19.29
  -4   4  -4  145.76   19.99
  -4   4  -4  103.66   20.26
  -4   4  -3   -1.95    4.96
  -4   4  -3    7.72    4.98
  -4   4  -3    8.01    6.83
  -4   4  -3    2.62    7.40
  -4   4  -3   -2.32    7.17
  -4   4  -2   84.34   15.48
  -4   4  -2   61.47   14.28
  -4   4  -2   88.47   13.28
  -4   4  -2   81.52   14.26
  -4   4  -2   81.20   16.50
  -4   4  -2   80.25   18.11
  -4   4  -1  470.67   33.51
  -4   4  -1  401.40   37.61
  -4   4  -1  397.82   28.27
  -4   4  -1  424.64   35.52
  -4   4  -1  399.20   34.16
  -4   4   0  159.39   17.03
  -4   4   0  130.52   20.73
  -4   4   0  132.90   20.34
  -4   4   0  154.40   24.08
  -4   4   0  166.27   19.82
  -4   4   1   21.76    7.82
  -4   4   1   20.16    9.29
  -4   4   1   30.50   10.98
  -4   4   1   42.22   12.83
  -4   4   2   32.69   10.23
  -4   4   2   44.10   13.31
  -4   4   2   42.13   13.09
  -4   4   2   28.14   10.64
  -4   4   3  169.73   21.08
  -4   4   3  136.55   21.71
  -4   4   3  122.03   21.49
  -4   4   3  135.21   21.05
  -4   4   4  149.97   23.19
  -4   4   4  140.51   22.86
  -4   4   4  140.23   22.46
  -4   4   4  155.38   20.21
  -4   4   5   36.03   12.76
  -4   4   5   38.87   11.69
  -4   4   5   29.22   11.77
  -4   4   5   25.82   10.44
  -4   4   6   42.03   11.72
  -4   4   6   37.52   12.26
  -4   4   6   -1.51    7.60
  -4   4   6   24.24   11.56
  -4   4   7   15.95   10.70
  -4   4   7   14.25   10.71
  -4   4   7   11.55    9.53
  -4   4   7   11.12    8.90
  -4   4   7    9.29    8.80
  -4   4   8  121.41   21.30
  -4   4   8   74.71   20.32
  -4   4   8  121.08   21.92
  -4   4   8  143.29   24.33
  -4   4   8  108.63   21.24
  -4   4   9   15.07   10.88
  -4   4   9    9.75    8.44
  -4   4  10   15.64    9.72
  -4   4  10   -2.52    7.10
  -4   4  10    7.26   10.14
  -4   4  11    9.29   10.25
  -4   4  11   26.70   12.71
  -4   4  12   12.88   10.22
  -4   4  12   17.03   12.60
  -4   4  13  -14.17   11.76
  -4   5 -12   32.96   15.47
  -4   5 -12   16.41   12.08
  -4   5 -11   17.40   12.00
  -4   5 -11   17.04   13.86
  -4   5 -10   62.73   17.94
  -4   5 -10   56.20   16.64
  -4   5  -9   23.63   12.67
  -4   5  -9   37.95   15.03
  -4   5  -9   59.24   19.23
  -4   5  -8   27.61   12.05
  -4   5  -8   16.25   11.59
  -4   5  -8   19.37   10.25
  -4   5  -7   25.96   10.95
  -4   5  -7   11.08    8.30
  -4   5  -7   25.04   11.93
  -4   5  -6   54.10   16.76
  -4   5  -6   67.33   17.63
  -4   5  -6   61.03   15.31
  -4   5  -6   60.74   16.52
  -4   5  -5  103.80   19.54
  -4   5  -5   84.82   19.99
  -4   5  -5  135.38   22.28
  -4   5  -5  109.40   18.99
  -4   5  -4   57.54   14.13
  -4   5  -4   65.86   14.95
  -4   5  -4   75.78   19.67
  -4   5  -4   48.26   14.88
  -4   5  -3   69.13   18.10
  -4   5  -3   61.18   16.15
  -4   5  -3   80.38   16.25
  -4   5  -3   54.45   13.43
  -4   5  -2   35.49   12.65
  -4   5  -2   35.54   10.18
  -4   5  -2   40.97   14.74
  -4   5  -2   18.81    9.40
  -4   5  -1   18.59    9.18
  -4   5  -1   16.82   10.76
  -4   5  -1   15.88    7.94
  -4   5  -1   18.21   11.35
  -4   5   0   88.62   20.71
  -4   5   0  143.41   23.12
  -4   5   0  123.07   21.46
  -4   5   0  124.95   18.19
  -4   5   1   55.93   14.97
  -4   5   1   49.97   15.92
  -4   5   1   38.19   13.18
  -4   5   2   82.24   19.53
  -4   5   2   57.06   15.71
  -4   5   2   50.89   13.73
  -4   5   3  104.03   20.76
  -4   5   3   84.43   18.53
  -4   5   3  113.67   23.50
  -4   5   4   -1.79    7.99
  -4   5   4   -2.25    9.32
  -4   5   4   18.60   10.00
  -4   5   5   74.05   18.95
  -4   5   5   57.76   16.48
  -4   5   5   65.40   16.80
  -4   5   6   37.92   14.02
  -4   5   6   22.28   10.94
  -4   5   6   19.40   10.16
  -4   5   7   39.61   14.74
  -4   5   7   16.13   10.72
  -4   5   7   26.73   11.28
  -4   5   8   10.94    7.70
  -4   5   8   22.13   12.65
  -4   5   8   30.17   14.68
  -4   5   8    1.29    8.56
  -4   5   9   -1.28   11.64
  -4   5   9   15.31   10.68
  -4   5   9    6.68    7.50
  -4   5  10   -8.58    9.79
  -4   5  10   11.33   11.26
  -4   5  11    7.97    9.41
  -4   5  11   14.23   12.59
  -4   5  11   11.82    8.02
  -4   5  12   13.70   12.38
  -4   5  13   11.23   10.02
  -4   6 -11   17.32   10.39
  -4   6 -10   -5.22    9.35
  -4   6  -9   41.46   14.54
  -4   6  -9   26.28   12.36
  -4   6  -8    5.96   10.05
  -4   6  -8   -4.17   10.83
  -4   6  -7   41.27   17.96
  -4   6  -7   53.81   17.01
  -4   6  -6   19.52   14.10
  -4   6  -6   -0.73    9.38
  -4   6  -5   -8.83    8.92
  -4   6  -5    2.75    7.95
  -4   6  -5   -0.81    6.85
  -4   6  -4   63.47   19.61
  -4   6  -4   69.13   17.58
  -4   6  -4   65.39   15.49
  -4   6  -3    2.81    9.10
  -4   6  -3   -1.28    7.73
  -4   6  -3    5.09    7.07
  -4   6  -2  100.27   22.92
  -4   6  -2   73.23   17.70
  -4   6  -1    7.23   11.53
  -4   6  -1   32.37   13.91
  -4   6   0   11.56    8.46
  -4   6   0   10.61   10.30
  -4   6   0   22.21   12.72
  -4   6   1   34.69   14.85
  -4   6   1   48.08   15.66
  -4   6   1   58.56   17.14
  -4   6   2   38.85   16.82
  -4   6   2   33.24   12.89
  -4   6   2   39.53   15.62
  -4   6   3   23.28   10.85
  -4   6   3   23.68   14.10
  -4   6   3   10.78    9.28
  -4   6   4   13.05   10.37
  -4   6   4   11.09   10.30
  -4   6   4   30.58   14.22
  -4   6   5   11.64   11.23
  -4   6   5   15.91   11.54
  -4   6   5   12.64   10.22
  -4   6   6   17.49   11.07
  -4   6   6   16.54   11.56
  -4   6   6   23.62   11.26
  -4   6   7   -2.85    8.14
  -4   6   7    4.31    8.20
  -4   6   7   19.21   15.03
  -4   6   8    2.97    9.55
  -4   6   8    4.48    8.29
  -4   6   8   10.35   11.01
  -4   6   9    1.35    7.29
  -4   6   9   -1.41    9.90
  -4   6  10   40.94   16.39
  -4   6  10   31.13   15.14
  -4   6  10    3.82    8.64
  -4   6  11   28.19   14.56
  -4   7  -9   19.66   11.01
  -4   7  -8   52.19   20.12
  -4   7  -8   29.38   16.56
  -4   7  -7   44.04   17.54
  -4   7  -7   36.12   15.49
  -4   7  -6  -12.39   11.31
  -4   7  -6  -25.15   14.81
  -4   7  -5   -4.38   10.29
  -4   7  -5   51.83   16.86
  -4   7  -4   30.85   13.09
  -4   7  -4    4.91    8.98
  -4   7  -3   44.23   18.84
  -4   7  -3   16.97   10.81
  -4   7  -2    4.38   13.19
  -4   7  -2    2.36    8.36
  -4   7  -1    2.04    8.23
  -4   7  -1    4.27   13.29
  -4   7   0   56.31   22.63
  -4   7   0   37.80   15.85
  -4   7   1   73.31   23.99
  -4   7   1   50.35   17.63
  -4   7   2   52.11   18.77
  -4   7   2   73.67   21.22
  -4   7   2   72.45   22.75
  -4   7   3   97.81   22.68
  -4   7   3  144.07   31.32
  -4   7   3  100.04   23.97
  -4   7   4   19.94   12.24
  -4   7   4   -4.77    9.30
  -4   7   4   21.23   11.47
  -4   7   5    8.93   10.21
  -4   7   5   14.67   12.49
  -4   7   5   -9.81   10.27
  -4   7   6   19.53   13.48
  -4   7   6   -5.68    9.55
  -4   7   6   -7.79   11.25
  -4   7   7   29.98   15.44
  -4   7   7   75.12   21.70
  -4   7   7   48.35   20.07
  -4   7   8   38.90   19.39
  -4   8  -3   22.82   14.74
  -4   8  -2   -1.98    8.70
  -4   8  -2    0.89   10.69
  -4   8  -1    4.17    8.42
  -4   8  -1   13.33   17.59
  -4   8   0   26.18   17.11
  -4   8   0   33.97   15.40
  -4   8   1   29.07   16.72
  -4   8   1   -7.04   10.27
  -4   8   2   89.69   26.72
  -4   8   2  -11.41   11.93
  -4   8   3   12.41   13.06
  -4   8   3   -7.43   12.21
  -4   8   4   24.04   17.69
  -3 -11  -3    6.51    7.42
  -3 -11  -2    1.13    8.99
  -3 -11  -1    4.49    9.40
  -3 -10 -11  -29.96   15.37
  -3 -10 -11  -14.24   11.58
  -3 -10 -10   -7.27    9.51
  -3 -10 -10  -13.09   12.85
  -3 -10  -9   14.45   11.08
  -3 -10  -9   26.07   11.34
  -3 -10  -9   15.00   10.82
  -3 -10  -8    0.69   11.50
  -3 -10  -7   -5.49   10.01
  -3 -10  -6   45.88   16.66
  -3 -10  -5   21.87   12.51
  -3 -10  -4    8.20    9.46
  -3 -10  -3   11.99    9.04
  -3 -10  -3   27.69   15.57
  -3 -10  -2   12.22   10.98
  -3 -10  -2    2.11    9.45
  -3 -10  -1  -10.47   13.07
  -3 -10  -1   11.82    9.99
  -3 -10   0   13.40   11.25
  -3 -10   0   23.72   12.58
  -3 -10   1  -12.77   11.06
  -3 -10   2   45.11   16.82
  -3 -10   3   14.95   10.75
  -3 -10   5   -7.17   10.35
  -3  -9 -13   14.46   16.18
  -3  -9 -13   28.91   14.79
  -3  -9 -12  -23.03   13.22
  -3  -9 -12   -3.92   10.48
  -3  -9 -12    4.96   11.33
  -3  -9 -11   33.03   13.22
  -3  -9 -11   11.11   12.01
  -3  -9 -10   10.87    9.71
  -3  -9 -10    9.60    9.53
  -3  -9  -9   -1.04    9.50
  -3  -9  -9   12.22    9.78
  -3  -9  -9    2.60   10.26
  -3  -9  -8    1.16    7.41
  -3  -9  -8   -7.61   11.97
  -3  -9  -7    4.92    6.58
  -3  -9  -7   -2.90   11.70
  -3  -9  -6   -2.82    7.72
  -3  -9  -6   -0.52    7.53
  -3  -9  -5   53.45   15.28
  -3  -9  -5   65.25   16.46
  -3  -9  -4   28.72   12.06
  -3  -9  -4   39.84   13.84
  -3  -9  -3   28.18   11.63
  -3  -9  -3   42.67   14.72
  -3  -9  -2   21.59   11.04
  -3  -9  -2   24.95    9.13
  -3  -9  -1   29.63   13.70
  -3  -9  -1   37.56   11.98
  -3  -9   0   -6.15    8.82
  -3  -9   0    1.52    8.24
  -3  -9   1   55.85   16.58
  -3  -9   2   62.96   17.48
  -3  -9   3    2.16    7.23
  -3  -9   4    9.74    9.06
  -3  -9   5    8.69   12.30
  -3  -9   6   22.17   13.05
  -3  -8 -14   32.84   14.45
  -3  -8 -14    9.22   14.14
  -3  -8 -13   -4.79    8.37
  -3  -8 -13   18.52   15.09
  -3  -8 -12   75.25   23.27
  -3  -8 -12   91.68   23.47
  -3  -8 -12   61.88   17.91
  -3  -8 -11   14.17   11.20
  -3  -8 -11    3.87   10.21
  -3  -8 -10   -0.46   10.03
  -3  -8 -10   -3.06    8.85
  -3  -8 -10   12.65    9.98
  -3  -8  -9   19.06   11.70
  -3  -8  -9   24.81   10.87
  -3  -8  -8   14.42    9.74
  -3  -8  -8   -3.25    9.35
  -3  -8  -7  123.89   22.13
  -3  -8  -7  107.96   20.02
  -3  -8  -6   27.03   12.66
  -3  -8  -6   19.16    9.22
  -3  -8  -5    4.58    6.91
  -3  -8  -5   12.64    9.67
  -3  -8  -4  100.49   18.60
  -3  -8  -4  103.51   19.75
  -3  -8  -3  172.06   23.55
  -3  -8  -3  166.55   24.78
  -3  -8  -2   81.45   16.34
  -3  -8  -2  112.53   20.31
  -3  -8  -1  150.66   21.57
  -3  -8   0   21.51   10.02
  -3  -8   1   16.07    8.03
  -3  -8   2    3.49    7.38
  -3  -8   2   12.59    7.78
  -3  -8   3   13.57    9.30
  -3  -8   3   31.41   12.65
  -3  -8   4   95.01   18.29
  -3  -8   4  120.37   21.91
  -3  -8   5   48.78   15.10
  -3  -8   5   38.27   13.29
  -3  -8   6    2.94    7.27
  -3  -8   6    5.43   10.15
  -3  -8   7   51.30   16.09
  -3  -8   8   10.31   10.56
  -3  -8   9    5.80    8.12
  -3  -7 -15    9.59   11.40
  -3  -7 -14   52.26   19.86
  -3  -7 -13    4.49   10.73
  -3  -7 -12  -16.14   13.65
  -3  -7 -12   52.94   17.67
  -3  -7 -11   64.55   18.34
  -3  -7 -11   53.82   15.59
  -3  -7 -10   -2.34   11.21
  -3  -7 -10   20.41   12.13
  -3  -7 -10   -1.59    9.57
  -3  -7  -9  159.44   25.13
  -3  -7  -9  125.26   21.47
  -3  -7  -8   19.99   11.47
  -3  -7  -8   27.50   11.17
  -3  -7  -7  101.04   19.13
  -3  -7  -7   58.62   15.34
  -3  -7  -6   30.93   11.65
  -3  -7  -6   54.12   14.43
  -3  -7  -5   20.08    9.54
  -3  -7  -5   34.51   11.89
  -3  -7  -4   21.30    8.75
  -3  -7  -4   26.27    9.13
  -3  -7  -4   30.36   10.82
  -3  -7  -3   66.49   14.07
  -3  -7  -3   73.48   12.90
  -3  -7  -3   68.33   14.42
  -3  -7  -2   44.80   12.97
  -3  -7  -2   35.10   10.29
  -3  -7  -2   28.20    8.77
  -3  -7  -1    4.26    7.19
  -3  -7  -1   14.33    7.94
  -3  -7   0   28.38   10.22
  -3  -7   1   -0.39    8.75
  -3  -7   2   39.16   11.60
  -3  -7   3   -3.15    7.71
  -3  -7   3   -5.21    7.62
  -3  -7   4   23.34   11.81
  -3  -7   4   28.82   11.45
  -3  -7   5   24.52   13.81
  -3  -7   5   43.81   13.18
  -3  -7   6   95.44   18.93
  -3  -7   6   98.12   19.03
  -3  -7   7   17.74   10.95
  -3  -7   7    9.14    7.75
  -3  -7   8   -2.19    8.26
  -3  -7   8   11.15    9.32
  -3  -7   9   14.77   12.54
  -3  -7   9   38.47   15.17
  -3  -7  10   12.99    9.70
  -3  -7  10   -0.37   10.05
  -3  -7  11   38.71   14.49
  -3  -6 -16   25.89   18.23
  -3  -6 -15   60.90   20.57
  -3  -6 -14   89.64   22.17
  -3  -6 -13   32.48   13.96
  -3  -6 -12   14.81   11.23
  -3  -6 -11   -2.46   10.66
  -3  -6 -11   29.50   15.20
  -3  -6 -10  238.61   28.07
  -3  -6  -9  136.43   21.99
  -3  -6  -8   56.77   14.68
  -3  -6  -8   92.74   17.61
  -3  -6  -7   81.43   16.57
  -3  -6  -7   48.82   12.36
  -3  -6  -6   43.42   12.88
  -3  -6  -6   26.36    9.12
  -3  -6  -5  559.80   38.74
  -3  -6  -5  565.61   31.15
  -3  -6  -5  647.63   40.50
  -3  -6  -4  108.61   17.24
  -3  -6  -4  119.66   14.78
  -3  -6  -4  145.01   19.29
  -3  -6  -3   15.87    8.39
  -3  -6  -3   -1.29    7.28
  -3  -6  -3    4.50    5.53
  -3  -6  -2   29.71    7.52
  -3  -6  -2   19.49    7.19
  -3  -6  -2   23.86    8.23
  -3  -6  -2   13.74    6.33
  -3  -6  -1   72.96   14.04
  -3  -6  -1  116.16   14.84
  -3  -6   0  400.34   31.24
  -3  -6   1   26.62    9.42
  -3  -6   2   -9.89    8.37
  -3  -6   3   29.95   10.47
  -3  -6   3   31.30    9.15
  -3  -6   4   97.95   15.84
  -3  -6   4   87.48   16.24
  -3  -6   4  103.77   18.71
  -3  -6   5  167.73   23.64
  -3  -6   5  199.14   23.79
  -3  -6   5  184.24   22.03
  -3  -6   6   74.76   16.52
  -3  -6   6  110.10   18.77
  -3  -6   6   93.35   17.40
  -3  -6   7   -0.63    7.84
  -3  -6   7    1.21    7.92
  -3  -6   7   24.34   11.53
  -3  -6   8   -4.92    8.16
  -3  -6   8   -7.46    8.63
  -3  -6   8   -4.82    7.66
  -3  -6   9   13.21   11.55
  -3  -6   9    6.56    7.45
  -3  -6   9    0.46    8.40
  -3  -6  10   -6.52   10.12
  -3  -6  10   15.72   10.47
  -3  -6  10   -6.12    9.11
  -3  -6  11   -2.12   11.63
  -3  -6  11   10.70   10.81
  -3  -6  11    1.81   10.83
  -3  -6  12   28.67   14.38
  -3  -6  12    3.90    8.89
  -3  -6  13   38.48   17.19
  -3  -6  13   41.06   16.52
  -3  -5 -18   55.14   18.91
  -3  -5 -17   55.73   20.18
  -3  -5 -17   10.59   10.00
  -3  -5 -16    4.47   13.37
  -3  -5 -16   -6.58   11.06
  -3  -5 -15   35.74   13.04
  -3  -5 -15   42.83   14.86
  -3  -5 -14    7.13    7.08
  -3  -5 -14   13.93   11.94
  -3  -5 -13  137.46   24.69
  -3  -5 -13  126.82   20.33
  -3  -5 -12  257.73   31.03
  -3  -5 -12  228.62   26.00
  -3  -5 -11   55.59   13.23
  -3  -5 -11   53.83   15.70
  -3  -5 -10   81.57   14.42
  -3  -5 -10   93.50   18.67
  -3  -5  -9   24.19    8.62
  -3  -5  -9   27.75    7.85
  -3  -5  -9   25.94   12.60
  -3  -5  -8  493.13   34.87
  -3  -5  -8  570.56   31.27
  -3  -5  -8  479.28   27.62
  -3  -5  -7  221.97   17.20
  -3  -5  -7  244.54   19.57
  -3  -5  -7  212.59   23.99
  -3  -5  -7  243.04   23.97
  -3  -5  -6  283.13   20.07
  -3  -5  -6  253.18   25.71
  -3  -5  -6  207.35   14.86
  -3  -5  -6  247.69   23.38
  -3  -5  -5  150.20   14.31
  -3  -5  -5  146.97   18.01
  -3  -5  -5  121.99   17.07
  -3  -5  -4  116.39   12.67
  -3  -5  -4  112.48   16.02
  -3  -5  -4   98.24   11.49
  -3  -5  -4  103.51   15.81
  -3  -5  -4  110.37    9.41
  -3  -5  -3   79.42   10.48
  -3  -5  -3   72.92    7.86
  -3  -5  -3   65.30    9.50
  -3  -5  -3   73.19   13.55
  -3  -5  -3   84.18   14.10
  -3  -5  -2   33.20    5.70
  -3  -5  -2   39.64    9.27
  -3  -5  -2   19.98    7.54
  -3  -5  -2   40.47    8.10
  -3  -5  -1  312.40   17.80
  -3  -5  -1  367.46   22.56
  -3  -5  -1  361.90   26.41
  -3  -5  -1  392.95   29.08
  -3  -5  -1  346.87   18.94
  -3  -5   0  419.08   18.82
  -3  -5   0  432.54   30.69
  -3  -5   0  439.01   22.79
  -3  -5   1   47.21   11.28
  -3  -5   1   32.30    7.60
  -3  -5   2   27.60    8.47
  -3  -5   2   54.49   10.38
  -3  -5   3  252.96   22.42
  -3  -5   3  242.72   23.03
  -3  -5   4  293.79   25.45
  -3  -5   4  361.41   29.10
  -3  -5   5    7.14    5.80
  -3  -5   5   28.23    9.00
  -3  -5   5   30.93   12.06
  -3  -5   6   47.59   12.44
  -3  -5   6   47.72   12.62
  -3  -5   6   44.35   13.13
  -3  -5   7   17.34   10.48
  -3  -5   7   25.16   12.59
  -3  -5   7   13.69    7.57
  -3  -5   8  187.00   24.04
  -3  -5   8  207.50   27.95
  -3  -5   8  180.62   25.13
  -3  -5   9  119.00   20.17
  -3  -5   9  115.59   21.40
  -3  -5   9   81.00   18.20
  -3  -5  10    3.76    7.06
  -3  -5  10    1.55    8.78
  -3  -5  10  -11.49   10.85
  -3  -5  11   -0.12    9.39
  -3  -5  11   -0.04    9.96
  -3  -5  11    6.43   10.18
  -3  -5  12   18.62   12.41
  -3  -5  12   -5.64    9.67
  -3  -5  13   47.59   16.74
  -3  -5  14   28.40   16.82
  -3  -4 -18    1.18   14.88
  -3  -4 -18    3.34   10.79
  -3  -4 -17   28.18   14.82
  -3  -4 -17   22.34   14.21
  -3  -4 -16   10.89   12.85
  -3  -4 -16   -0.52    9.69
  -3  -4 -15   85.65   19.73
  -3  -4 -15  104.49   22.68
  -3  -4 -14   23.98   12.86
  -3  -4 -14    2.97    8.21
  -3  -4 -13   -7.74    8.82
  -3  -4 -13    7.70   12.02
  -3  -4 -12   66.73   15.63
  -3  -4 -12  117.22   21.73
  -3  -4 -11  142.37   19.63
  -3  -4 -11  159.20   23.93
  -3  -4 -10   40.81   10.96
  -3  -4 -10   57.57   14.50
  -3  -4 -10   44.95   10.57
  -3  -4  -9  704.94   37.02
  -3  -4  -9  747.45   35.71
  -3  -4  -8  395.42   24.70
  -3  -4  -8  387.84   25.56
  -3  -4  -8  405.33   30.06
  -3  -4  -7  792.79   33.03
  -3  -4  -7  871.42   37.60
  -3  -4  -7  760.87   39.09
  -3  -4  -7  869.06   33.95
  -3  -4  -6  133.22   12.81
  -3  -4  -6  133.95   17.03
  -3  -4  -6  112.21   16.67
  -3  -4  -6  133.85   14.34
  -3  -4  -6  117.35   12.07
  -3  -4  -5  340.27   24.74
  -3  -4  -5  288.46   16.46
  -3  -4  -5  322.45   26.44
  -3  -4  -5  352.94   22.17
  -3  -4  -5  308.47   17.98
  -3  -4  -4  123.13   11.01
  -3  -4  -4  119.66   15.83
  -3  -4  -4  136.06   13.67
  -3  -4  -4  108.80   14.15
  -3  -4  -3 1068.41   28.45
  -3  -4  -3 1094.02   46.15
  -3  -4  -3 1010.89   40.67
  -3  -4  -3 1088.83   37.56
  -3  -4  -3 1066.88   31.57
  -3  -4  -2  214.01   14.77
  -3  -4  -2  185.57   17.07
  -3  -4  -2  192.83   12.50
  -3  -4  -2  190.23   19.51
  -3  -4  -2  197.25   16.48
  -3  -4  -1  780.25   34.59
  -3  -4  -1  782.67   38.33
  -3  -4  -1  796.96   29.36
  -3  -4   0   88.41    6.49
  -3  -4   0  114.95   15.27
  -3  -4   0  112.55   11.95
  -3  -4   1  225.76   17.80
  -3  -4   1  233.44   20.91
  -3  -4   2  218.24   18.98
  -3  -4   2  202.05   19.47
  -3  -4   3   39.32    9.65
  -3  -4   3   22.51    6.85
  -3  -4   4   57.51   12.09
  -3  -4   4   42.74   10.85
  -3  -4   5   69.90   14.05
  -3  -4   5   94.86   15.65
  -3  -4   6   19.97   10.47
  -3  -4   6   18.55    7.84
  -3  -4   6   18.15   10.15
  -3  -4   7  117.63   18.15
  -3  -4   7  130.58   20.10
  -3  -4   7  136.62   20.38
  -3  -4   8   22.56   10.58
  -3  -4   8   16.63    8.37
  -3  -4   8   33.75   12.52
  -3  -4   9   22.24   11.98
  -3  -4   9    9.98    6.81
  -3  -4   9    4.76    9.71
  -3  -4  10    7.24    9.19
  -3  -4  10   10.49    9.82
  -3  -4  10   11.95    8.18
  -3  -4  11   -6.10    9.65
  -3  -4  11    9.52    6.79
  -3  -4  11   10.97   10.08
  -3  -4  12   44.51   16.23
  -3  -4  13   52.23   17.60
  -3  -4  14   45.20   16.80
  -3  -3 -18   -8.99   14.90
  -3  -3 -18   10.15   11.05
  -3  -3 -17   73.71   20.17
  -3  -3 -17   79.69   21.97
  -3  -3 -16   50.65   15.92
  -3  -3 -16   72.59   18.38
  -3  -3 -15   52.47   17.13
  -3  -3 -15    2.32    9.25
  -3  -3 -14   79.66   17.57
  -3  -3 -14  149.14   24.44
  -3  -3 -13   16.80   11.55
  -3  -3 -13    2.04    8.38
  -3  -3 -12   47.20   13.00
  -3  -3 -12   54.75   15.59
  -3  -3 -11  374.13   31.02
  -3  -3 -11  356.27   30.04
  -3  -3 -11  384.97   33.86
  -3  -3 -10  107.04   17.05
  -3  -3 -10  114.78   16.68
  -3  -3 -10   93.05   17.57
  -3  -3  -9   15.54    7.56
  -3  -3  -9   20.03    7.67
  -3  -3  -8  529.12   30.20
  -3  -3  -8  506.63   29.94
  -3  -3  -7  144.64   15.33
  -3  -3  -7  152.20   15.60
  -3  -3  -6  399.14   23.37
  -3  -3  -6  416.49   26.08
  -3  -3  -6  414.22   25.32
  -3  -3  -6  388.22   22.60
  -3  -3  -5  120.76   14.43
  -3  -3  -5   83.79   10.02
  -3  -3  -5   91.00   11.68
  -3  -3  -5  100.37   11.23
  -3  -3  -5  102.37   14.29
  -3  -3  -4  194.17   16.75
  -3  -3  -4  163.86   17.39
  -3  -3  -4  161.39   13.50
  -3  -3  -4  171.11   15.39
  -3  -3  -3  317.94   18.65
  -3  -3  -3  395.71   26.08
  -3  -3  -3  355.36   21.72
  -3  -3  -3  351.35   21.24
  -3  -3  -3  309.43    9.96
  -3  -3  -2  336.78   20.13
  -3  -3  -2  332.14   23.70
  -3  -3  -2  355.59   21.52
  -3  -3  -2  333.94   19.28
  -3  -3  -1   48.84    8.24
  -3  -3  -1   62.00    9.32
  -3  -3  -1   48.65    9.04
  -3  -3  -1   50.00    8.05
  -3  -3   0  224.85   19.39
  -3  -3   0  183.60   14.71
  -3  -3   0  203.50   16.09
  -3  -3   1  949.16   38.63
  -3  -3   1  953.17   36.55
  -3  -3   2  455.33   27.25
  -3  -3   2  430.28   26.11
  -3  -3   3  178.14   18.23
  -3  -3   3  174.91   18.19
  -3  -3   4   90.39   14.42
  -3  -3   4   84.43   13.98
  -3  -3   5   82.43   14.26
  -3  -3   5   80.36   14.44
  -3  -3   6  194.62   21.62
  -3  -3   6  179.81   19.69
  -3  -3   6  191.10   22.89
  -3  -3   7   37.17    9.99
  -3  -3   7   35.86   12.25
  -3  -3   7   21.46    8.86
  -3  -3   8   50.12   14.26
  -3  -3   8   59.42   15.32
  -3  -3   8   58.72   12.17
  -3  -3   9   40.19   12.62
  -3  -3   9   54.18   14.79
  -3  -3   9   58.47   12.32
  -3  -3  10   39.78   10.89
  -3  -3  10   46.56   14.71
  -3  -3  10   50.43   16.34
  -3  -3  11   77.32   18.43
  -3  -3  12    3.27    8.04
  -3  -3  13   35.54   17.45
  -3  -3  14   31.54   17.13
  -3  -3  15    8.84   11.59
  -3  -2 -19   38.30   16.03
  -3  -2 -18   10.55   13.55
  -3  -2 -18   41.42   16.53
  -3  -2 -17   75.21   20.43
  -3  -2 -17   28.46   14.71
  -3  -2 -16   51.15   15.84
  -3  -2 -16   55.92   17.59
  -3  -2 -15   30.46   13.46
  -3  -2 -15   16.10   12.99
  -3  -2 -15   40.07   13.16
  -3  -2 -14   75.48   18.33
  -3  -2 -14  123.23   21.68
  -3  -2 -14   81.67   16.17
  -3  -2 -13  208.19   26.46
  -3  -2 -13  225.26   27.92
  -3  -2 -13  179.00   22.04
  -3  -2 -12   85.78   17.28
  -3  -2 -12  133.62   21.25
  -3  -2 -12   92.20   18.25
  -3  -2 -11   12.66    7.82
  -3  -2 -11   16.75    9.97
  -3  -2 -11   15.72    7.51
  -3  -2 -10   91.15   15.73
  -3  -2 -10  117.57   17.69
  -3  -2 -10   89.54   16.30
  -3  -2  -9  161.58   19.21
  -3  -2  -9  143.02   18.64
  -3  -2  -9  152.94   18.35
  -3  -2  -8 1430.66   50.95
  -3  -2  -8 1373.08   50.88
  -3  -2  -7   16.51    5.85
  -3  -2  -7   21.60    7.89
  -3  -2  -6  331.17   21.68
  -3  -2  -6  382.40   24.36
  -3  -2  -5   97.68   11.91
  -3  -2  -5   97.73   12.99
  -3  -2  -5  100.05   12.27
  -3  -2  -4 4020.91   76.16
  -3  -2  -4 3989.42   72.76
  -3  -2  -4 3888.80   68.67
  -3  -2  -3 2207.92   53.48
  -3  -2  -3 2069.15   44.93
  -3  -2  -3 2250.31   56.74
  -3  -2  -3 2116.45   49.47
  -3  -2  -2 1388.34   41.79
  -3  -2  -2 1363.25   40.24
  -3  -2  -2 1345.52   42.61
  -3  -2  -2 1240.77   32.72
  -3  -2  -1  694.51   30.96
  -3  -2  -1  630.70   22.22
  -3  -2  -1  723.58   30.87
  -3  -2  -1  686.15   28.99
  -3  -2   0  291.17   20.27
  -3  -2   0  295.16   19.91
  -3  -2   0  266.35   13.70
  -3  -2   0  303.11   19.88
  -3  -2   1  824.91   33.05
  -3  -2   1  775.27   22.42
  -3  -2   1  814.75   33.64
  -3  -2   2  675.93   30.61
  -3  -2   2  652.74   31.92
  -3  -2   3   63.59   11.26
  -3  -2   3   69.75   11.33
  -3  -2   4   38.51   10.08
  -3  -2   4   42.78   10.19
  -3  -2   5   42.07    4.25
  -3  -2   5   41.08   10.10
  -3  -2   5   39.81   10.51
  -3  -2   6  264.91   21.30
  -3  -2   6  233.02   22.43
  -3  -2   6  239.64   24.55
  -3  -2   7   27.32    7.94
  -3  -2   7   24.47   10.32
  -3  -2   7   22.28    9.40
  -3  -2   8  108.56   14.24
  -3  -2   8  100.78   17.45
  -3  -2   8  137.38   20.74
  -3  -2   9   78.62   16.74
  -3  -2   9   71.49   16.02
  -3  -2   9  102.17   14.29
  -3  -2  10   13.01   10.91
  -3  -2  11    7.48    9.58
  -3  -2  12    5.74    9.53
  -3  -2  13    8.65    9.79
  -3  -2  14   30.62   15.44
  -3  -2  15   -6.38    9.08
  -3  -1 -19   40.41   16.84
  -3  -1 -18   30.76   15.72
  -3  -1 -18   33.35   16.32
  -3  -1 -17   28.95   13.82
  -3  -1 -17   56.45   19.36
  -3  -1 -16   27.60   12.92
  -3  -1 -16   13.13   12.25
  -3  -1 -16    8.14   10.46
  -3  -1 -15  218.60   30.31
  -3  -1 -15  218.30   26.69
  -3  -1 -15  210.95   26.95
  -3  -1 -14   20.62   10.32
  -3  -1 -14   23.75   12.44
  -3  -1 -14   22.24   11.10
  -3  -1 -13   21.05   11.32
  -3  -1 -13   12.81   11.09
  -3  -1 -13   18.84   10.61
  -3  -1 -12   25.12   10.62
  -3  -1 -12   14.32    9.01
  -3  -1 -12   20.76   10.46
  -3  -1 -12   12.46    8.49
  -3  -1 -11  146.79   21.14
  -3  -1 -11  115.24   17.71
  -3  -1 -11  134.87   19.76
  -3  -1 -10  288.86   25.13
  -3  -1 -10  277.70   26.25
  -3  -1 -10  257.30   26.21
  -3  -1  -9  155.94   19.61
  -3  -1  -9  160.47   17.96
  -3  -1  -9  164.89   20.15
  -3  -1  -8   26.84    8.89
  -3  -1  -8   34.97    9.29
  -3  -1  -8   36.42    9.52
  -3  -1  -7  111.52   15.40
  -3  -1  -7  135.20   16.34
  -3  -1  -6   94.36   13.29
  -3  -1  -6   76.91    5.54
  -3  -1  -6   83.43   12.85
  -3  -1  -5   73.61   11.43
  -3  -1  -4   33.95    7.81
  -3  -1  -4   48.54    8.49
  -3  -1  -4   46.86    8.46
  -3  -1  -3  522.00   25.98
  -3  -1  -3  491.31   24.18
  -3  -1  -3  482.84   25.11
  -3  -1  -2  630.51   15.83
  -3  -1  -2  664.09   27.15
  -3  -1  -2  694.85   29.74
  -3  -1  -2  669.39   29.05
  -3  -1  -1  106.49   11.05
  -3  -1  -1  122.23    8.73
  -3  -1  -1   85.98   11.04
  -3  -1  -1  114.10   12.40
  -3  -1   0 1087.55   38.27
  -3  -1   0 1053.93   36.96
  -3  -1   0 1068.96   33.29
  -3  -1   1 1061.56   34.00
  -3  -1   1 1108.49   39.74
  -3  -1   2  265.99   18.45
  -3  -1   2  262.78   20.66
  -3  -1   3  224.41   18.29
  -3  -1   3  258.71   21.39
  -3  -1   4  157.23    9.80
  -3  -1   4  142.84   15.78
  -3  -1   4  161.84   18.33
  -3  -1   5  323.86   24.30
  -3  -1   5  324.36   15.75
  -3  -1   5  336.06   26.96
  -3  -1   6  770.54   31.43
  -3  -1   6  804.94   27.43
  -3  -1   6  784.38   39.81
  -3  -1   6  824.92   44.15
  -3  -1   7   84.92   10.09
  -3  -1   7   97.90   11.69
  -3  -1   7   77.39   14.61
  -3  -1   7   75.04   14.97
  -3  -1   8  125.12   12.90
  -3  -1   8  134.76   19.32
  -3  -1   8  111.71   18.76
  -3  -1   9  100.89   18.96
  -3  -1  10  193.36   26.29
  -3  -1  11   44.07   13.77
  -3  -1  12   24.67   12.41
  -3  -1  12   25.64   13.01
  -3  -1  12   15.31    9.61
  -3  -1  13   83.79   20.27
  -3  -1  13   85.52   19.23
  -3  -1  14   -0.21    9.37
  -3  -1  14    9.56   10.97
  -3  -1  15   35.29   15.75
  -3  -1  15   31.79   16.42
  -3  -1  16    3.41   10.58
  -3  -1  16    7.73    8.79
  -3   0 -18   21.09   14.13
  -3   0 -18    3.37    8.54
  -3   0 -17    7.49   11.28
  -3   0 -17  -33.07   13.71
  -3   0 -16   33.90   13.25
  -3   0 -16   35.16   13.48
  -3   0 -16   25.29   11.30
  -3   0 -15   65.25   18.36
  -3   0 -15   30.75   11.80
  -3   0 -15   42.56   13.73
  -3   0 -14   49.80   13.95
  -3   0 -14   80.88   19.60
  -3   0 -14   76.44   16.54
  -3   0 -13   23.33   11.77
  -3   0 -13   -5.95   10.45
  -3   0 -13    2.17    6.84
  -3   0 -12   35.64   11.13
  -3   0 -12   33.49   12.73
  -3   0 -12   27.56   12.01
  -3   0 -12   45.94   13.10
  -3   0 -11  195.25   24.95
  -3   0 -11  207.08   25.27
  -3   0 -11  161.04   21.21
  -3   0 -11  189.43   20.66
  -3   0 -10  211.90   22.48
  -3   0 -10  249.51   26.52
  -3   0 -10  232.98   25.72
  -3   0 -10  200.42   20.01
  -3   0  -9   24.40   10.01
  -3   0  -9   11.98    8.36
  -3   0  -9   24.79    7.98
  -3   0  -9   20.72    6.01
  -3   0  -9   28.27    9.64
  -3   0  -8    7.78    5.87
  -3   0  -8   13.44    6.18
  -3   0  -8   20.13    8.52
  -3   0  -8   15.42    6.40
  -3   0  -7  383.32   22.05
  -3   0  -7  348.70   22.66
  -3   0  -7  407.24   28.33
  -3   0  -7  408.61   28.85
  -3   0  -6 1170.82   38.28
  -3   0  -6 1060.12   23.98
  -3   0  -6 1199.92   46.68
  -3   0  -5  241.73   12.81
  -3   0  -5  259.82   20.77
  -3   0  -4  295.48   17.37
  -3   0  -4  267.09   14.31
  -3   0  -4  290.17   21.05
  -3   0  -3   24.14    5.33
  -3   0  -3   28.47    5.79
  -3   0  -3   31.20    7.17
  -3   0  -3   28.46    7.09
  -3   0  -3   26.92    4.23
  -3   0  -2  126.76   14.19
  -3   0  -2  133.94   11.99
  -3   0  -2  118.06    8.82
  -3   0  -2  108.31    9.68
  -3   0  -2  127.64   12.96
  -3   0  -1 3880.45   54.73
  -3   0  -1 3827.63   64.72
  -3   0  -1 4056.42   74.19
  -3   0  -1 3814.92   53.25
  -3   0  -1 3904.98   70.07
  -3   0   0   17.36    4.28
  -3   0   0   34.74    8.80
  -3   0   0   15.74    4.94
  -3   0   0   18.73    5.87
  -3   0   0   23.66    7.08
  -3   0   1  792.39   28.79
  -3   0   1  794.37   33.24
  -3   0   1  803.79   34.69
  -3   0   1  819.29   27.51
  -3   0   2  986.87   34.68
  -3   0   2  998.16   32.95
  -3   0   2 1023.73   40.38
  -3   0   3 1081.04   38.83
  -3   0   3 1088.93   36.86
  -3   0   3 1171.86   45.29
  -3   0   4  947.66   31.62
  -3   0   4  909.18   34.78
  -3   0   4  939.66   36.91
  -3   0   4  904.25   37.99
  -3   0   4  916.52   41.57
  -3   0   5  150.38   14.81
  -3   0   5  108.87   14.72
  -3   0   5  117.51   15.14
  -3   0   5  139.75   13.01
  -3   0   5  117.78   16.54
  -3   0   6   -2.07    7.82
  -3   0   6    9.24    5.86
  -3   0   6    2.23    6.64
  -3   0   6    3.98    3.54
  -3   0   6    9.21    6.62
  -3   0   6    1.82    2.09
  -3   0   7  229.65   18.76
  -3   0   7  207.81   16.42
  -3   0   7  222.14   23.40
  -3   0   7  195.01   21.39
  -3   0   7  207.49   23.62
  -3   0   8  287.05   21.72
  -3   0   8  296.24   26.82
  -3   0   8  248.29   25.99
  -3   0   8  257.66   27.72
  -3   0   9  320.65   24.22
  -3   0   9  285.53   28.25
  -3   0   9  293.84   29.12
  -3   0   9  326.25   32.11
  -3   0  10   34.95   11.88
  -3   0  10   55.45   14.55
  -3   0  11  127.90   20.33
  -3   0  11  133.80   23.75
  -3   0  11  122.67   21.90
  -3   0  12   -7.94    8.03
  -3   0  12  -28.21   13.37
  -3   0  13   31.04   14.00
  -3   0  13   15.75   12.54
  -3   0  14   25.41   14.07
  -3   0  14   34.37   14.32
  -3   0  15   15.67   10.01
  -3   0  15   -0.90    8.57
  -3   0  16   25.62   13.33
  -3   0  16    1.20    9.31
  -3   1 -18   33.33   14.40
  -3   1 -17   19.50   11.71
  -3   1 -17    8.93   11.41
  -3   1 -16   41.48   14.95
  -3   1 -16   42.25   15.61
  -3   1 -15   42.36   16.02
  -3   1 -15    6.05    9.47
  -3   1 -14   29.55   13.64
  -3   1 -14   10.12    7.75
  -3   1 -13  104.80   20.76
  -3   1 -13  138.08   22.01
  -3   1 -12   28.72   13.00
  -3   1 -12   11.60    9.12
  -3   1 -12   21.26   10.64
  -3   1 -12    5.19    7.21
  -3   1 -11   26.42    9.91
  -3   1 -11   27.44   11.26
  -3   1 -11   28.50   10.39
  -3   1 -11   37.00   10.11
  -3   1 -10   62.00   10.63
  -3   1 -10   39.91   13.60
  -3   1 -10   46.51   12.99
  -3   1 -10   38.46   12.00
  -3   1  -9  194.26   23.29
  -3   1  -9  155.76   15.82
  -3   1  -9  165.54   21.18
  -3   1  -9  188.39   21.22
  -3   1  -9  171.46   16.52
  -3   1  -8  248.64   18.27
  -3   1  -8  238.47   22.65
  -3   1  -8  203.97   17.58
  -3   1  -8  203.73   22.90
  -3   1  -7   -8.94    7.22
  -3   1  -7    3.84    2.70
  -3   1  -7    3.12    3.43
  -3   1  -7   -7.73    6.64
  -3   1  -7    6.62    8.13
  -3   1  -6  379.52   18.78
  -3   1  -6  395.22   24.13
  -3   1  -6  411.58   27.13
  -3   1  -6  417.88   20.03
  -3   1  -6  427.48   29.59
  -3   1  -5   37.05    8.25
  -3   1  -5   45.75   10.26
  -3   1  -5   39.31    9.06
  -3   1  -5   50.28    7.70
  -3   1  -4  436.89   21.64
  -3   1  -4  472.15   26.60
  -3   1  -4  449.08   27.44
  -3   1  -4  440.55   17.55
  -3   1  -3  236.43   15.81
  -3   1  -3  236.00   11.46
  -3   1  -3  265.97   17.41
  -3   1  -3  276.16   21.03
  -3   1  -3  288.56   21.29
  -3   1  -3  255.11   19.17
  -3   1  -2  345.07   20.41
  -3   1  -2  363.17   22.04
  -3   1  -2  329.20   18.59
  -3   1  -2  338.28   12.84
  -3   1  -2  324.97   22.38
  -3   1  -2  370.13   24.40
  -3   1  -1  393.23   14.41
  -3   1  -1  350.93   21.40
  -3   1  -1  358.63   21.76
  -3   1  -1  409.21   26.26
  -3   1  -1  373.52   20.37
  -3   1  -1  372.42   23.55
  -3   1   0  878.28   32.15
  -3   1   0  941.77   36.13
  -3   1   0  975.10   24.95
  -3   1   0  974.12   39.21
  -3   1   0  930.16   34.22
  -3   1   0  927.45   36.92
  -3   1   1  189.22   17.34
  -3   1   1  201.47   18.26
  -3   1   1  207.75   13.46
  -3   1   1  206.13   16.66
  -3   1   1  184.21   15.76
  -3   1   1  176.44   17.13
  -3   1   2   82.12   12.10
  -3   1   2   85.24   10.22
  -3   1   2   78.39   11.09
  -3   1   2   83.46   11.95
  -3   1   2   94.90   13.28
  -3   1   3 1182.21   46.46
  -3   1   3 1219.33   42.80
  -3   1   3 1267.26   47.19
  -3   1   3 1207.21   43.43
  -3   1   3 1192.98   38.04
  -3   1   3 1280.41   41.79
  -3   1   4  213.52   20.85
  -3   1   4  194.54   17.44
  -3   1   4  232.08   18.71
  -3   1   4  218.76   19.75
  -3   1   4  237.24   21.73
  -3   1   5  170.29   16.75
  -3   1   5  135.86   17.91
  -3   1   5  122.97   13.79
  -3   1   5  142.80   17.22
  -3   1   5  154.22   18.55
  -3   1   6  105.73   13.13
  -3   1   6   99.76   15.40
  -3   1   6  124.23   17.74
  -3   1   6  107.94   17.17
  -3   1   6  148.17   16.66
  -3   1   7   61.57   11.10
  -3   1   7   47.24   11.78
  -3   1   7   73.86   14.51
  -3   1   7   52.58   11.49
  -3   1   7   69.40   10.60
  -3   1   8  921.31   43.14
  -3   1   8  899.53   47.33
  -3   1   8  863.55   36.79
  -3   1   8  824.57   46.15
  -3   1   8  920.57   50.99
  -3   1   9  170.55   19.59
  -3   1   9  149.11   20.46
  -3   1   9  174.79   23.14
  -3   1   9  170.79   24.32
  -3   1  10   28.09   12.72
  -3   1  10    5.30    5.13
  -3   1  10    1.96    6.91
  -3   1  10   17.70   10.19
  -3   1  11   31.07   11.33
  -3   1  11   22.48   11.39
  -3   1  11   30.15   12.47
  -3   1  12   91.32   17.92
  -3   1  12  112.29   20.84
  -3   1  12  135.07   24.81
  -3   1  13   29.94   12.18
  -3   1  13   22.09   13.21
  -3   1  14   10.83    8.48
  -3   1  14   12.27   11.70
  -3   1  15   -9.24   10.92
  -3   1  15   -2.29    9.50
  -3   1  16    2.03    9.95
  -3   1  16   21.57   12.61
  -3   2 -17   24.15   15.12
  -3   2 -17   22.38   14.08
  -3   2 -16   38.87   15.76
  -3   2 -16   50.61   16.18
  -3   2 -15    1.31    9.41
  -3   2 -15   -0.02    9.77
  -3   2 -14   19.79    9.75
  -3   2 -14   21.20   11.47
  -3   2 -13   20.14   11.50
  -3   2 -13   -0.96   12.60
  -3   2 -12   30.64   13.64
  -3   2 -12   -1.66   11.04
  -3   2 -12   35.73   13.20
  -3   2 -11   69.21   16.12
  -3   2 -11  108.45   18.42
  -3   2 -10   11.66    8.74
  -3   2 -10    8.49    7.80
  -3   2  -9   46.98   12.91
  -3   2  -9   58.25   13.39
  -3   2  -9   62.11   11.45
  -3   2  -8  216.52   23.16
  -3   2  -8  262.90   22.93
  -3   2  -8  233.85   25.08
  -3   2  -7  145.94   18.71
  -3   2  -7  145.58   16.81
  -3   2  -7  141.95   18.64
  -3   2  -6  155.68   14.99
  -3   2  -6  158.98    9.92
  -3   2  -6  184.60   18.82
  -3   2  -6  195.42   21.11
  -3   2  -6  160.00   18.71
  -3   2  -5   13.51    6.93
  -3   2  -5   16.03    3.11
  -3   2  -5   21.11    6.69
  -3   2  -5   15.98    2.98
  -3   2  -5   17.85    7.40
  -3   2  -5   32.10    8.49
  -3   2  -4  449.40   27.25
  -3   2  -4  420.70   24.97
  -3   2  -4  389.43   10.16
  -3   2  -4  450.43   28.74
  -3   2  -4  463.63   29.10
  -3   2  -3   81.04   12.31
  -3   2  -3   89.99   12.71
  -3   2  -3   59.25   10.24
  -3   2  -3   83.22   11.96
  -3   2  -2 1513.75   48.18
  -3   2  -2 1473.50   52.66
  -3   2  -2 1517.28   47.87
  -3   2  -2 1474.15   45.15
  -3   2  -2 1484.46   49.00
  -3   2  -2 1459.78   44.77
  -3   2  -1  286.05   21.56
  -3   2  -1  251.92   18.34
  -3   2  -1  253.65   22.38
  -3   2  -1  296.00   18.97
  -3   2  -1  245.75   19.98
  -3   2  -1  263.88   20.56
  -3   2   0  357.39   24.78
  -3   2   0  325.11   20.48
  -3   2   0  314.93   24.89
  -3   2   0  365.92   19.72
  -3   2   0  345.71   23.68
  -3   2   0  302.64   21.91
  -3   2   1 2013.10   59.34
  -3   2   1 1981.78   49.94
  -3   2   1 1919.64   40.38
  -3   2   1 1912.99   55.67
  -3   2   1 2028.52   61.49
  -3   2   1 1980.43   56.27
  -3   2   2   12.10    6.40
  -3   2   2    7.13    6.21
  -3   2   2    4.49    5.27
  -3   2   2    7.66    3.27
  -3   2   2   14.75    6.88
  -3   2   3  737.94   38.47
  -3   2   3  747.78   37.35
  -3   2   3  732.01   18.75
  -3   2   3  798.45   38.32
  -3   2   3  767.14   37.35
  -3   2   3  751.42   36.66
  -3   2   4  132.01   16.57
  -3   2   4  134.98   17.24
  -3   2   4  131.59   17.25
  -3   2   4  131.65   16.67
  -3   2   4  118.01   15.71
  -3   2   5  109.48   15.33
  -3   2   5  129.06   17.13
  -3   2   5   91.39   15.64
  -3   2   5  114.81   15.87
  -3   2   5  114.47   16.24
  -3   2   6  579.29   35.28
  -3   2   6  479.49   35.06
  -3   2   6  497.08   31.01
  -3   2   6  536.36   35.55
  -3   2   6  544.48   35.68
  -3   2   7  108.52   16.30
  -3   2   7   84.71   15.20
  -3   2   7   83.33   13.21
  -3   2   7   84.07   16.01
  -3   2   7   96.78   16.40
  -3   2   8   55.93   13.49
  -3   2   8   38.46   11.49
  -3   2   8   47.40   13.78
  -3   2   8   58.31   12.50
  -3   2   8   49.24   10.64
  -3   2   9  120.98   19.11
  -3   2   9  115.59   18.08
  -3   2   9  164.19   22.54
  -3   2   9  135.22   21.39
  -3   2  10  180.80   23.00
  -3   2  10  162.97   24.25
  -3   2  10  160.90   22.85
  -3   2  10  136.10   21.45
  -3   2  11   72.71   17.18
  -3   2  11  110.14   18.74
  -3   2  11   83.83   16.81
  -3   2  11   43.31   14.20
  -3   2  12   65.97   15.66
  -3   2  12   30.28   11.67
  -3   2  12   41.47   14.14
  -3   2  13  117.56   20.43
  -3   2  13   79.09   19.19
  -3   2  13   83.42   20.19
  -3   2  14    8.22    8.76
  -3   2  14   27.41   14.06
  -3   2  15   42.84   17.60
  -3   2  15   36.85   15.54
  -3   2  16   37.01   16.30
  -3   3 -16    3.56    7.99
  -3   3 -15   41.21   15.51
  -3   3 -14   39.06   15.52
  -3   3 -13  139.01   24.27
  -3   3 -12   34.12   13.27
  -3   3 -12   33.79   13.06
  -3   3 -11   24.49   11.29
  -3   3 -11   41.91   14.15
  -3   3 -10  130.52   21.15
  -3   3 -10  153.97   23.27
  -3   3  -9  125.25   19.72
  -3   3  -9   86.28   15.50
  -3   3  -9  152.32   22.45
  -3   3  -8  312.83   29.83
  -3   3  -8  282.96   27.19
  -3   3  -8  305.37   29.15
  -3   3  -7   51.79   12.62
  -3   3  -7   35.95    9.47
  -3   3  -7   38.34   10.27
  -3   3  -6   21.16    9.80
  -3   3  -6   16.98    6.02
  -3   3  -6   20.00    7.19
  -3   3  -6   13.79    6.86
  -3   3  -5   34.87   10.31
  -3   3  -5   36.78    9.52
  -3   3  -5   26.18    7.52
  -3   3  -5   43.51   11.20
  -3   3  -4  308.10   24.93
  -3   3  -4  287.16   26.32
  -3   3  -4  324.15   25.78
  -3   3  -4  309.78   25.13
  -3   3  -3  183.29   18.65
  -3   3  -3  181.49   19.34
  -3   3  -3  200.87   22.12
  -3   3  -3  190.11   18.99
  -3   3  -2  249.22   22.84
  -3   3  -2  253.51   19.21
  -3   3  -2  200.02   21.80
  -3   3  -2  245.08   19.97
  -3   3  -2  267.04   23.69
  -3   3  -2  270.85   22.26
  -3   3  -1  177.42   15.47
  -3   3  -1  158.06   19.46
  -3   3  -1  157.67   15.27
  -3   3  -1  148.74   18.37
  -3   3  -1  167.54   17.06
  -3   3  -1  141.13   17.93
  -3   3   0   42.13    9.09
  -3   3   0   43.72   10.39
  -3   3   0   37.76    7.28
  -3   3   0   54.74    8.54
  -3   3   0   47.45   10.58
  -3   3   0   46.25   11.80
  -3   3   1  276.21   24.37
  -3   3   1  270.15   18.26
  -3   3   1  312.29   27.10
  -3   3   1  267.74   23.98
  -3   3   1  306.38   22.86
  -3   3   1  293.25   17.84
  -3   3   2   89.53   13.00
  -3   3   2  111.29   16.77
  -3   3   2   83.31   14.40
  -3   3   2  106.65   10.07
  -3   3   2   93.36   15.16
  -3   3   3  134.18   18.37
  -3   3   3  126.58   17.34
  -3   3   3  125.91   17.76
  -3   3   3  132.58   16.05
  -3   3   4   40.12   10.49
  -3   3   4   44.55   10.21
  -3   3   4   41.04   10.67
  -3   3   4   22.38    9.28
  -3   3   4   38.04   11.12
  -3   3   5 1012.22   51.15
  -3   3   5  983.21   45.98
  -3   3   5  967.45   49.87
  -3   3   5 1034.80   50.59
  -3   3   5 1050.49   50.41
  -3   3   6  115.18   17.00
  -3   3   6   92.15   16.42
  -3   3   6  105.24   18.23
  -3   3   6   85.82   15.49
  -3   3   6  108.56   16.78
  -3   3   7  752.49   45.61
  -3   3   7  750.32   46.89
  -3   3   7  698.01   42.43
  -3   3   7  653.11   43.26
  -3   3   7  797.15   44.84
  -3   3   8  100.35   17.37
  -3   3   8  132.96   21.14
  -3   3   8   99.03   18.21
  -3   3   8  109.04   17.30
  -3   3   8  100.39   17.77
  -3   3   9   54.22   15.04
  -3   3   9   37.57   10.68
  -3   3   9   55.48   15.02
  -3   3   9   27.41   10.27
  -3   3  10   19.39    9.92
  -3   3  10   37.63   11.99
  -3   3  10   25.91   12.64
  -3   3  10   48.77   14.73
  -3   3  11   30.23   11.56
  -3   3  11   41.63   13.31
  -3   3  11   33.67   12.26
  -3   3  11   36.42   13.41
  -3   3  12   53.63   16.76
  -3   3  12   39.43   14.00
  -3   3  12   48.82   14.64
  -3   3  12   50.38   15.72
  -3   3  13   33.29   13.83
  -3   3  13   54.20   15.46
  -3   3  13   69.85   18.30
  -3   3  14   33.32   15.16
  -3   3  14   11.41   10.48
  -3   3  15   25.67   13.21
  -3   3  15   22.06   12.57
  -3   4 -15   37.58   16.25
  -3   4 -14   39.83   15.76
  -3   4 -13    9.33   10.62
  -3   4 -12   32.12   14.00
  -3   4 -11    7.64   10.04
  -3   4 -11   16.99   10.99
  -3   4 -10   20.41   10.33
  -3   4 -10   35.46   15.08
  -3   4  -9   80.84   16.82
  -3   4  -9  121.37   20.62
  -3   4  -9  149.05   23.50
  -3   4  -8   61.35   14.81
  -3   4  -8   74.87   15.66
  -3   4  -8   68.66   15.67
  -3   4  -7   11.13    8.35
  -3   4  -7   17.89    9.55
  -3   4  -7   31.65   11.77
  -3   4  -6   22.13    9.94
  -3   4  -6    5.56    7.18
  -3   4  -6   12.56    6.83
  -3   4  -5  221.61   23.61
  -3   4  -5  214.69   26.00
  -3   4  -5  220.35   24.66
  -3   4  -5  232.84   23.85
  -3   4  -4  315.22   31.21
  -3   4  -4  317.16   28.59
  -3   4  -4  343.94   27.64
  -3   4  -4  300.74   27.31
  -3   4  -3    6.97    5.03
  -3   4  -3    4.87    5.75
  -3   4  -3   10.81    7.85
  -3   4  -3    1.84    7.01
  -3   4  -3    3.13    2.91
  -3   4  -2  142.92   17.48
  -3   4  -2  143.37   19.77
  -3   4  -2  141.96   14.73
  -3   4  -2  126.55   19.70
  -3   4  -2  122.00   16.01
  -3   4  -1   28.81    6.47
  -3   4  -1   37.93   11.67
  -3   4  -1   46.51    9.65
  -3   4  -1   49.45   12.87
  -3   4  -1   46.66    9.91
  -3   4  -1   23.46   10.07
  -3   4   0  518.90   36.63
  -3   4   0  508.69   37.06
  -3   4   0  539.60   31.29
  -3   4   0  519.21   39.69
  -3   4   0  491.74   28.54
  -3   4   0  457.56   23.78
  -3   4   1  259.91   19.44
  -3   4   1  233.97   24.93
  -3   4   1  242.15   21.05
  -3   4   1  258.26   28.28
  -3   4   1  238.47   16.89
  -3   4   1  256.69   27.19
  -3   4   2   59.76   10.93
  -3   4   2   67.92   14.01
  -3   4   2   58.09   13.59
  -3   4   2   61.83   14.34
  -3   4   3  426.35   34.49
  -3   4   3  413.50   33.53
  -3   4   3  402.31   35.04
  -3   4   3  410.81   27.91
  -3   4   4  316.19   30.06
  -3   4   4  283.77   29.86
  -3   4   4  288.27   28.63
  -3   4   4  287.77   29.15
  -3   4   4  286.97   24.20
  -3   4   5  206.66   21.39
  -3   4   5  173.72   23.57
  -3   4   5  192.88   25.01
  -3   4   5  224.83   26.67
  -3   4   5  206.86   25.86
  -3   4   6   35.51   12.01
  -3   4   6   35.98    9.74
  -3   4   6   55.88   14.74
  -3   4   6   25.93    9.99
  -3   4   6   35.73   11.99
  -3   4   7    4.84    6.71
  -3   4   7   19.50    9.41
  -3   4   7   12.26    7.31
  -3   4   7   14.66    9.93
  -3   4   7   13.29    8.28
  -3   4   8  137.35   21.90
  -3   4   8  123.07   19.40
  -3   4   8  105.16   19.23
  -3   4   8  137.01   22.49
  -3   4   8  147.20   22.93
  -3   4   9   42.87   12.88
  -3   4   9   32.37   12.96
  -3   4   9   40.02   14.20
  -3   4   9   49.16   12.94
  -3   4  10   12.53    8.56
  -3   4  10   10.50    8.33
  -3   4  10   19.31   10.02
  -3   4  10   14.21    9.42
  -3   4  11   13.39    9.38
  -3   4  11   13.73   10.89
  -3   4  11    9.52    7.75
  -3   4  12   56.13   15.87
  -3   4  12   26.25   11.77
  -3   4  12   40.18   15.46
  -3   4  13   25.15   12.54
  -3   4  13   -6.66    9.32
  -3   4  13   36.27   14.89
  -3   4  14   21.21   15.10
  -3   5 -13    8.57   11.82
  -3   5 -12   30.93   15.16
  -3   5 -11  113.83   24.23
  -3   5 -10   10.98   11.10
  -3   5 -10   -2.67    8.21
  -3   5  -9   20.12   13.10
  -3   5  -9   10.69    8.38
  -3   5  -9   36.67   12.92
  -3   5  -8   61.06   16.89
  -3   5  -8  119.33   20.60
  -3   5  -8   93.48   19.73
  -3   5  -7   33.47   12.89
  -3   5  -7   24.20    9.98
  -3   5  -7   26.53   11.78
  -3   5  -6  341.43   34.02
  -3   5  -6  269.58   33.30
  -3   5  -6  330.25   30.55
  -3   5  -5  110.21   21.20
  -3   5  -5   86.46   15.45
  -3   5  -5   95.62   17.65
  -3   5  -5  110.81   18.81
  -3   5  -4   52.46   15.34
  -3   5  -4   42.86   12.64
  -3   5  -4   55.20   12.32
  -3   5  -4   45.50   11.62
  -3   5  -3   59.81   16.25
  -3   5  -3   76.83   13.71
  -3   5  -3   76.15   16.42
  -3   5  -3   63.58   13.78
  -3   5  -2   39.49   13.51
  -3   5  -2   46.27   10.66
  -3   5  -2   65.66   14.95
  -3   5  -2   57.45   12.70
  -3   5  -1  137.80   23.76
  -3   5  -1  141.17   17.91
  -3   5  -1  155.85   17.83
  -3   5  -1  154.53   22.33
  -3   5   0  196.71   20.65
  -3   5   0  157.81   24.59
  -3   5   0  194.72   25.80
  -3   5   0  170.94   23.94
  -3   5   0  216.11   20.36
  -3   5   1   62.55   15.88
  -3   5   1   99.30   18.63
  -3   5   1   77.01   16.68
  -3   5   1   67.45   11.80
  -3   5   2  131.31   22.52
  -3   5   2  104.44   18.79
  -3   5   2  135.92   22.67
  -3   5   3   34.17   13.71
  -3   5   3   42.42   12.58
  -3   5   3   50.75   13.75
  -3   5   4  497.80   43.47
  -3   5   4  540.72   42.40
  -3   5   4  484.32   40.14
  -3   5   5  206.57   28.57
  -3   5   5  170.17   25.09
  -3   5   5  192.90   26.37
  -3   5   5  153.39   23.34
  -3   5   6  100.13   20.38
  -3   5   6   80.19   17.69
  -3   5   6   84.53   18.97
  -3   5   6  105.91   21.40
  -3   5   7   23.78   13.13
  -3   5   7   50.50   14.43
  -3   5   7   45.32   14.54
  -3   5   7   24.23    9.40
  -3   5   8   15.33   10.85
  -3   5   8  -11.48   11.39
  -3   5   8   10.42    9.35
  -3   5   8    4.57    7.03
  -3   5   9  146.24   25.12
  -3   5   9  166.96   26.64
  -3   5   9  191.81   29.32
  -3   5  10   27.05   12.11
  -3   5  10   45.75   15.41
  -3   5  10   64.22   17.17
  -3   5  11  -17.08   11.01
  -3   5  11  -14.09   10.17
  -3   5  11  -15.76   11.56
  -3   5  12   61.62   17.68
  -3   5  12   44.65   15.51
  -3   5  12   34.27   11.69
  -3   5  13   13.61   10.67
  -3   5  13   -2.99    8.38
  -3   5  14   14.13   10.36
  -3   6 -12   37.02   16.73
  -3   6 -11   18.19   12.61
  -3   6 -10  -22.21   13.34
  -3   6  -9   40.57   15.51
  -3   6  -8   14.68   11.01
  -3   6  -8   43.67   16.81
  -3   6  -7  148.76   26.91
  -3   6  -7  151.19   25.91
  -3   6  -6    8.49    7.32
  -3   6  -6   18.01   12.79
  -3   6  -5   59.78   18.00
  -3   6  -5   59.77   15.98
  -3   6  -4    0.71    8.14
  -3   6  -4    8.43    8.90
  -3   6  -4    4.09    6.63
  -3   6  -3   69.48   16.93
  -3   6  -3   49.73   13.31
  -3   6  -2  278.44   32.88
  -3   6  -2  287.75   37.07
  -3   6  -2  251.85   27.59
  -3   6  -1    4.39    8.98
  -3   6  -1   12.80    8.65
  -3   6  -1   18.22    9.58
  -3   6   0    7.96    8.98
  -3   6   0   26.28   11.56
  -3   6   1   12.06   11.01
  -3   6   1   -4.98    8.63
  -3   6   1    4.16    7.06
  -3   6   2  119.99   23.76
  -3   6   2  100.28   20.31
  -3   6   2  112.20   21.46
  -3   6   3  216.48   28.65
  -3   6   3  230.01   30.71
  -3   6   3  220.78   32.08
  -3   6   4   15.74   10.44
  -3   6   4   25.20   11.01
  -3   6   4   41.25   14.18
  -3   6   5    7.13    7.66
  -3   6   5    5.15    6.94
  -3   6   5  -10.10   10.66
  -3   6   6   14.48   11.39
  -3   6   6    8.74    9.87
  -3   6   6    4.50    6.71
  -3   6   7  103.97   22.05
  -3   6   7   67.91   19.56
  -3   6   7   51.11   16.35
  -3   6   7   84.96   19.59
  -3   6   8   25.95   12.61
  -3   6   8   17.35   11.36
  -3   6   8   21.90   12.55
  -3   6   8   43.42   14.17
  -3   6   9   10.43    9.25
  -3   6   9   31.30   14.10
  -3   6   9   48.54   16.33
  -3   6  10   33.70   14.16
  -3   6  10   46.63   17.61
  -3   6  10   25.66   14.66
  -3   6  11   14.46   11.64
  -3   6  11  -17.31   11.26
  -3   6  11   -4.51    8.58
  -3   6  12   29.35   15.92
  -3   6  12   26.51   13.91
  -3   6  12   47.63   17.33
  -3   6  13    5.70    9.09
  -3   7 -10   13.62    9.49
  -3   7  -9   62.80   17.25
  -3   7  -8    9.88   11.95
  -3   7  -8   -7.65   11.71
  -3   7  -7   26.94   15.03
  -3   7  -7   28.05   13.10
  -3   7  -6    2.72    8.85
  -3   7  -6   -0.17   12.92
  -3   7  -5    2.18   10.13
  -3   7  -5   -6.74   10.03
  -3   7  -4   53.54   15.96
  -3   7  -4   30.19   14.55
  -3   7  -3   28.77   14.30
  -3   7  -3   53.97   15.41
  -3   7  -2   11.89   11.58
  -3   7  -2   21.89   11.32
  -3   7  -2   24.09   11.28
  -3   7  -1   48.68   17.39
  -3   7  -1   56.24   17.61
  -3   7   0   14.05   10.82
  -3   7   0    8.76    8.61
  -3   7   1   43.64   15.47
  -3   7   1   37.65   16.28
  -3   7   2  -11.33   10.89
  -3   7   2    3.95    8.42
  -3   7   2   18.67   12.04
  -3   7   3   19.17   12.13
  -3   7   3    1.31    7.82
  -3   7   3   20.42   14.48
  -3   7   4   14.32   12.21
  -3   7   4   -2.78    8.62
  -3   7   4    6.92   10.59
  -3   7   5   48.00   15.89
  -3   7   5   22.88   14.06
  -3   7   5   39.58   16.57
  -3   7   6   97.59   24.79
  -3   7   6   44.68   17.48
  -3   7   6   71.19   19.81
  -3   7   7    3.75    9.31
  -3   7   7   -6.53   11.30
  -3   7   7    1.12    9.46
  -3   7   8   14.81   11.08
  -3   7   8   16.58   12.21
  -3   7   8    4.87    9.24
  -3   7   8    9.76    7.49
  -3   7   9   12.44   12.15
  -3   7   9   23.46   14.01
  -3   7   9   13.13   12.29
  -3   7  10    5.38   10.33
  -3   7  10   -3.18    8.64
  -3   7  10   -0.25   11.47
  -3   7  11   -0.74   12.87
  -3   8  -8   26.34   16.04
  -3   8  -7   11.76   10.41
  -3   8  -7    9.13   11.13
  -3   8  -6   12.40   13.05
  -3   8  -6   23.90   13.28
  -3   8  -5   47.04   16.51
  -3   8  -5   18.31   14.61
  -3   8  -4   32.71   14.19
  -3   8  -4   10.87   15.53
  -3   8  -3   44.71   16.77
  -3   8  -2   37.93   17.75
  -3   8  -1   26.39   18.12
  -3   8  -1   34.86   13.75
  -3   8   0  164.99   32.96
  -3   8   0   87.72   22.32
  -3   8   1   -2.34    9.35
  -3   8   1   15.63   15.80
  -3   8   2   14.32   10.89
  -3   8   2   42.17   21.15
  -3   8   3   14.61   12.94
  -3   8   3   12.38    9.30
  -3   8   4   23.95   13.44
  -3   8   4   39.68   20.41
  -3   8   4   26.35   14.18
  -3   8   5   44.84   18.30
  -3   8   5   41.84   18.96
  -3   8   5   40.21   16.03
  -3   8   6    9.03   13.59
  -3   8   6   -1.55    8.37
  -3   8   6  -18.95   13.78
  -3   8   7   -4.46   11.62
  -3   8   7   -5.46   10.30
  -3   8   7    1.19   11.16
  -3   8   8    4.96    9.88
  -2 -11  -1    6.82    8.88
  -2 -10  -9    5.36   10.75
  -2 -10  -9    1.60    9.32
  -2 -10  -8   31.78   13.12
  -2 -10  -8   15.15   11.21
  -2 -10  -7    3.25   10.93
  -2 -10  -6  -17.89   14.41
  -2 -10  -6    8.68    9.12
  -2 -10  -5   25.83   12.84
  -2 -10  -5    5.65    9.68
  -2 -10  -4   22.83   16.37
  -2 -10  -3    4.87    7.68
  -2 -10  -3   -2.95    8.40
  -2 -10  -2   19.24   11.53
  -2 -10  -2   15.59    9.31
  -2 -10  -1    6.50   10.02
  -2 -10  -1    3.02    7.71
  -2 -10   0   21.97   12.64
  -2 -10   0   25.59   12.58
  -2 -10   1   23.13   11.16
  -2 -10   2    3.71    7.90
  -2 -10   3    8.04    9.33
  -2 -10   4   14.80   11.29
  -2 -10   6   -5.35    9.09
  -2  -9 -13   17.98   14.16
  -2  -9 -13   16.42   12.56
  -2  -9 -12   19.77   11.34
  -2  -9 -12   31.88   17.80
  -2  -9 -12   20.26   12.30
  -2  -9 -11  -23.53   13.68
  -2  -9 -11    3.93   10.21
  -2  -9 -10   -7.73    8.28
  -2  -9 -10    5.71    9.93
  -2  -9 -10    2.80    9.25
  -2  -9  -9    0.42    5.91
  -2  -9  -9   11.42    9.29
  -2  -9  -9    7.47   10.00
  -2  -9  -8  -15.76    9.97
  -2  -9  -8   -6.20    9.88
  -2  -9  -8  -26.04   12.59
  -2  -9  -7   58.76   16.65
  -2  -9  -7   69.57   16.54
  -2  -9  -7   72.17   18.35
  -2  -9  -6   32.43   13.42
  -2  -9  -6   37.84   13.77
  -2  -9  -6   22.12   13.78
  -2  -9  -5    9.05    9.74
  -2  -9  -5    9.61    9.56
  -2  -9  -5   -7.84    7.92
  -2  -9  -4   15.26   10.20
  -2  -9  -4    8.85    8.27
  -2  -9  -3    9.04    7.00
  -2  -9  -3   15.60   11.81
  -2  -9  -3    7.81    8.26
  -2  -9  -2   30.89   11.69
  -2  -9  -2   37.27   13.88
  -2  -9  -2   12.26    9.71
  -2  -9  -1  116.32   20.89
  -2  -9  -1  100.77   20.27
  -2  -9   0    6.17    8.12
  -2  -9   0    1.43    8.35
  -2  -9   1   36.96   12.99
  -2  -9   1   39.47   14.27
  -2  -9   2   14.02   10.90
  -2  -9   3   -5.77    7.32
  -2  -9   3   -5.55    7.76
  -2  -9   4   48.73   15.04
  -2  -9   4   50.43   15.25
  -2  -9   5   20.99   11.05
  -2  -9   5   17.80    9.39
  -2  -9   6    1.97    8.32
  -2  -9   6   25.19   11.91
  -2  -9   7   17.05   10.96
  -2  -9   7    9.02   10.03
  -2  -9   8   -1.70    8.74
  -2  -8 -14   12.55   12.56
  -2  -8 -13   23.32   13.99
  -2  -8 -13   47.35   16.55
  -2  -8 -12   21.13   12.16
  -2  -8 -12   58.57   17.61
  -2  -8 -11   12.75    9.71
  -2  -8 -11    0.04   11.26
  -2  -8 -11    8.28   11.62
  -2  -8 -10   25.24   11.84
  -2  -8 -10    4.61    8.91
  -2  -8 -10   -1.60   10.56
  -2  -8  -9   14.42    9.76
  -2  -8  -9   -4.83   10.51
  -2  -8  -9   -8.81   10.92
  -2  -8  -8    7.67    6.92
  -2  -8  -8   -3.37    9.10
  -2  -8  -8   15.33    9.41
  -2  -8  -7   69.56   16.37
  -2  -8  -7   50.29   13.83
  -2  -8  -7   65.64   16.69
  -2  -8  -6   -4.84    7.76
  -2  -8  -6   -7.11   10.22
  -2  -8  -6    5.92    6.42
  -2  -8  -5   36.03   11.31
  -2  -8  -5   59.09   15.70
  -2  -8  -5   45.73   14.74
  -2  -8  -4   77.77   15.71
  -2  -8  -4   81.31   17.58
  -2  -8  -4   59.10   14.79
  -2  -8  -4   62.57   14.50
  -2  -8  -3  171.57   23.19
  -2  -8  -3  176.32   23.41
  -2  -8  -3  197.72   26.67
  -2  -8  -3  157.39   22.25
  -2  -8  -2  434.02   34.36
  -2  -8  -2  424.77   35.73
  -2  -8  -2  410.72   33.93
  -2  -8  -2  409.00   34.31
  -2  -8  -1   18.97    9.19
  -2  -8  -1    4.43    6.30
  -2  -8  -1   -2.25    8.55
  -2  -8   0   74.08   14.78
  -2  -8   0   61.78   15.24
  -2  -8   0   66.84   16.76
  -2  -8   1   12.33    9.36
  -2  -8   1    3.70    7.44
  -2  -8   1   -1.21    7.74
  -2  -8   2   75.04   16.44
  -2  -8   3   19.22   10.25
  -2  -8   4    0.89    8.37
  -2  -8   5    8.97    7.20
  -2  -8   6  -19.36   10.48
  -2  -8   7   32.76   12.79
  -2  -8   8   25.57   10.03
  -2  -8   9    5.78    8.99
  -2  -8   9   14.11    8.84
  -2  -8  10   22.38   13.78
  -2  -7 -15   45.14   18.82
  -2  -7 -14   18.88   14.75
  -2  -7 -13    0.47   11.16
  -2  -7 -12   44.15   14.96
  -2  -7 -12    8.80   11.25
  -2  -7 -11  122.81   21.57
  -2  -7 -11   81.74   20.71
  -2  -7 -10   87.38   19.30
  -2  -7 -10   92.87   18.92
  -2  -7  -9   73.16   16.32
  -2  -7  -9   63.10   16.06
  -2  -7  -8   65.91   14.29
  -2  -7  -8   62.48   15.99
  -2  -7  -8   32.70   14.22
  -2  -7  -7   35.12   11.82
  -2  -7  -7   10.65    9.09
  -2  -7  -6   86.12   16.73
  -2  -7  -6   80.44   16.61
  -2  -7  -6   77.83   15.86
  -2  -7  -5  227.20   24.97
  -2  -7  -5  187.60   22.95
  -2  -7  -5  227.49   26.14
  -2  -7  -4   72.73   14.94
  -2  -7  -4   62.24   13.18
  -2  -7  -4   43.95   12.07
  -2  -7  -3  257.81   25.24
  -2  -7  -3  282.99   27.22
  -2  -7  -3  248.02   26.64
  -2  -7  -3  262.11   26.16
  -2  -7  -2   23.80    7.95
  -2  -7  -2   26.82    8.52
  -2  -7  -2    9.57    5.87
  -2  -7  -1  158.02   19.08
  -2  -7  -1  144.53   19.20
  -2  -7  -1  112.44   17.73
  -2  -7   0   31.16   10.01
  -2  -7   0   46.24   10.87
  -2  -7   0   26.72    9.23
  -2  -7   1  297.33   29.51
  -2  -7   1  268.49   24.91
  -2  -7   1  278.20   28.21
  -2  -7   2   97.29   15.15
  -2  -7   2  126.38   20.40
  -2  -7   3   55.39   12.27
  -2  -7   3   49.63   12.96
  -2  -7   4   19.83    9.23
  -2  -7   4   40.96   11.74
  -2  -7   5   66.72   14.98
  -2  -7   5   58.10   15.06
  -2  -7   6  157.80   24.39
  -2  -7   6  185.33   23.23
  -2  -7   7  145.13   24.68
  -2  -7   8   12.03   10.17
  -2  -7   9    6.13    9.31
  -2  -7  10   -5.70   10.57
  -2  -7  11   -3.33    8.04
  -2  -7  12   12.92   10.29
  -2  -6 -16    0.39   12.36
  -2  -6 -15   26.43   14.10
  -2  -6 -14   13.82   11.53
  -2  -6 -13   25.16   12.95
  -2  -6 -12   20.81   11.16
  -2  -6 -11   25.84   12.70
  -2  -6 -11   26.07   13.19
  -2  -6 -10   71.13   16.94
  -2  -6 -10   80.24   16.79
  -2  -6  -9   10.66    9.82
  -2  -6  -9   25.31   11.58
  -2  -6  -8  461.56   36.02
  -2  -6  -7  161.31   22.00
  -2  -6  -7  146.88   19.54
  -2  -6  -6   90.88   16.17
  -2  -6  -6   79.92   15.13
  -2  -6  -5  458.80   33.81
  -2  -6  -5  467.91   33.97
  -2  -6  -4   16.52    7.23
  -2  -6  -4    8.12    4.60
  -2  -6  -4   22.54   10.26
  -2  -6  -3  328.33   28.53
  -2  -6  -3  346.48   26.49
  -2  -6  -3  335.27   27.62
  -2  -6  -2  135.68   17.63
  -2  -6  -2  133.45   16.09
  -2  -6  -2  139.59   17.10
  -2  -6  -1  262.49   23.32
  -2  -6  -1  300.59   23.64
  -2  -6  -1  279.30   24.25
  -2  -6   0  311.82   25.40
  -2  -6   0  268.93   21.43
  -2  -6   0  282.64   24.75
  -2  -6   1  156.58   15.22
  -2  -6   1  171.86   19.12
  -2  -6   1  147.24   19.15
  -2  -6   1  162.03   17.01
  -2  -6   2   65.44   12.32
  -2  -6   2   34.90    9.43
  -2  -6   3  248.96   26.08
  -2  -6   3  266.91   23.72
  -2  -6   4  358.99   32.42
  -2  -6   4  375.75   27.12
  -2  -6   5  108.42   16.54
  -2  -6   5   73.98   15.44
  -2  -6   5  107.06   16.83
  -2  -6   6    8.62    7.21
  -2  -6   6   22.12   10.15
  -2  -6   6   -5.39    8.84
  -2  -6   7   44.05   12.95
  -2  -6   7   40.55   13.46
  -2  -6   7   33.35   11.39
  -2  -6   8   42.78   13.55
  -2  -6   8   48.58   14.33
  -2  -6   8   32.96   12.25
  -2  -6   9   58.27   15.76
  -2  -6   9   21.21   11.34
  -2  -6   9   72.08   16.83
  -2  -6  10   49.49   14.90
  -2  -6  10   52.16   15.61
  -2  -6  10   40.30   13.19
  -2  -6  11    4.70    9.55
  -2  -6  11   28.29   12.34
  -2  -6  12   -0.11   11.05
  -2  -6  12    6.98    8.31
  -2  -6  13   20.67   13.21
  -2  -6  13   34.65   15.47
  -2  -6  14   11.71   10.52
  -2  -6  14  -22.39   13.99
  -2  -5 -18   -3.09    9.77
  -2  -5 -17    5.31   12.81
  -2  -5 -17    6.07    9.10
  -2  -5 -16    7.78   11.98
  -2  -5 -16   41.49   16.23
  -2  -5 -15  106.67   23.40
  -2  -5 -15  123.04   23.06
  -2  -5 -14   52.14   17.18
  -2  -5 -14   54.59   16.82
  -2  -5 -13    9.64   12.48
  -2  -5 -13    7.23    9.44
  -2  -5 -12   -0.42    6.60
  -2  -5 -12   18.48   12.56
  -2  -5 -11   -0.65    7.87
  -2  -5 -11    6.27    9.99
  -2  -5 -10  146.46   20.73
  -2  -5 -10  133.28   21.15
  -2  -5 -10   88.59   15.36
  -2  -5  -9   91.27   14.34
  -2  -5  -9   91.98   17.27
  -2  -5  -9   93.76   17.46
  -2  -5  -8   78.74   12.16
  -2  -5  -8  105.23   16.40
  -2  -5  -7  300.39   21.11
  -2  -5  -7  312.61   26.81
  -2  -5  -7  312.73   19.01
  -2  -5  -6  154.73   12.52
  -2  -5  -6  119.74   16.01
  -2  -5  -6  139.08   13.26
  -2  -5  -5   37.18    9.37
  -2  -5  -5   37.20    6.08
  -2  -5  -5   41.04    6.39
  -2  -5  -5   51.33   12.34
  -2  -5  -4  130.85   10.34
  -2  -5  -4  120.33   16.15
  -2  -5  -4  130.20    9.70
  -2  -5  -4  156.29   18.14
  -2  -5  -3   27.07    8.05
  -2  -5  -3   34.76   10.87
  -2  -5  -3   23.36    6.52
  -2  -5  -3   31.32    3.67
  -2  -5  -2  111.36   14.93
  -2  -5  -2  120.91   14.18
  -2  -5  -1  259.40   22.25
  -2  -5  -1  265.62   19.05
  -2  -5  -1  255.20   20.56
  -2  -5  -1  257.60   11.51
  -2  -5   0  151.87   17.16
  -2  -5   0  185.97   18.24
  -2  -5   0  193.71   16.10
  -2  -5   0  152.45   10.97
  -2  -5   1  281.46   18.97
  -2  -5   1  300.34   23.50
  -2  -5   1  318.08   24.54
  -2  -5   1  304.46   17.78
  -2  -5   2  517.77   25.81
  -2  -5   2  524.97   30.39
  -2  -5   2  510.20   25.90
  -2  -5   2  505.71   21.62
  -2  -5   3  212.56   19.96
  -2  -5   3  234.55   19.61
  -2  -5   4  585.30   38.45
  -2  -5   4  602.85   33.70
  -2  -5   5  164.33   20.97
  -2  -5   5  183.75   20.22
  -2  -5   5  198.44   21.32
  -2  -5   6  104.04   17.01
  -2  -5   6  106.18   17.53
  -2  -5   6  102.78   16.15
  -2  -5   7    8.11    6.34
  -2  -5   7   19.14    9.83
  -2  -5   7    9.38    7.63
  -2  -5   8   81.33   16.54
  -2  -5   8   89.35   17.58
  -2  -5   8   75.08   15.99
  -2  -5   9  158.42   22.52
  -2  -5   9  141.04   22.50
  -2  -5   9  161.84   23.09
  -2  -5  10    8.52    8.75
  -2  -5  10    8.50    9.45
  -2  -5  10   17.50   11.52
  -2  -5  11   -4.04   10.74
  -2  -5  11   -0.34    7.62
  -2  -5  12   -1.48   10.00
  -2  -5  12    5.31    8.08
  -2  -5  13   63.98   20.88
  -2  -5  13   67.66   16.34
  -2  -5  14   62.45   19.78
  -2  -5  14   43.39   16.08
  -2  -4 -18   32.12   16.19
  -2  -4 -18    8.27   12.17
  -2  -4 -17   28.23   15.15
  -2  -4 -17   12.22   12.77
  -2  -4 -16    1.20    8.62
  -2  -4 -16   -9.32   12.89
  -2  -4 -15   86.91   21.68
  -2  -4 -15   81.69   20.39
  -2  -4 -14   13.47   11.30
  -2  -4 -14    3.35   10.47
  -2  -4 -13    2.93    7.09
  -2  -4 -13   15.70   12.36
  -2  -4 -12    5.90    8.92
  -2  -4 -12   16.84   11.72
  -2  -4 -11  191.18   22.89
  -2  -4 -11  210.23   26.06
  -2  -4 -10  414.89   34.97
  -2  -4 -10  422.94   30.95
  -2  -4  -9   81.40   13.28
  -2  -4  -9   80.53   15.69
  -2  -4  -9  106.24   17.48
  -2  -4  -8  125.52   15.40
  -2  -4  -8  134.83   17.82
  -2  -4  -7  183.42   16.65
  -2  -4  -7  233.42   21.98
  -2  -4  -6 1746.80   55.63
  -2  -4  -6 1662.79   44.26
  -2  -4  -6 1765.29   44.05
  -2  -4  -5   55.43    6.45
  -2  -4  -5   51.18    7.08
  -2  -4  -5   50.14   10.11
  -2  -4  -5   61.97    7.96
  -2  -4  -4  174.73   18.11
  -2  -4  -4  169.11   11.01
  -2  -4  -4  196.50   18.10
  -2  -4  -4  207.12   13.54
  -2  -4  -4  193.68   10.23
  -2  -4  -3  289.37   22.32
  -2  -4  -3  249.29   10.60
  -2  -4  -3  279.73   21.48
  -2  -4  -3  272.38   15.28
  -2  -4  -3  279.83   11.09
  -2  -4  -2  125.55   15.08
  -2  -4  -2  139.12   15.33
  -2  -4  -2  122.28   11.98
  -2  -4  -2  123.07    7.74
  -2  -4  -1 2614.27   64.37
  -2  -4  -1 2746.24   55.40
  -2  -4  -1 2653.31   40.11
  -2  -4   0   35.70    6.24
  -2  -4   0   33.70    8.13
  -2  -4   0   42.49    6.19
  -2  -4   0   30.59    6.99
  -2  -4   1  241.63   19.51
  -2  -4   1  237.54   14.13
  -2  -4   1  250.07   15.92
  -2  -4   2  154.57   15.60
  -2  -4   2  158.51   14.45
  -2  -4   2  151.56    9.60
  -2  -4   3  217.89   18.48
  -2  -4   3  193.83    7.92
  -2  -4   3  234.25   19.65
  -2  -4   4  117.65   15.68
  -2  -4   4   88.00   13.04
  -2  -4   4  108.27   14.39
  -2  -4   5  242.37   22.26
  -2  -4   5  243.45   23.62
  -2  -4   5  253.07   23.27
  -2  -4   6   29.84    9.10
  -2  -4   6   31.39    9.87
  -2  -4   6   28.03    9.65
  -2  -4   7   73.95   15.35
  -2  -4   7   68.54   13.44
  -2  -4   7   48.01   12.46
  -2  -4   8   44.07   12.64
  -2  -4   8   67.65   13.53
  -2  -4   8   47.43   12.15
  -2  -4   9   23.15   12.47
  -2  -4   9   46.71   12.32
  -2  -4   9   56.82   14.22
  -2  -4  10  153.08   21.12
  -2  -4  10  153.45   23.20
  -2  -4  10  153.99   24.10
  -2  -4  11   35.75   11.74
  -2  -4  11   31.58   13.23
  -2  -4  12   15.55    9.44
  -2  -4  12    9.48    7.95
  -2  -4  13  -10.63   10.58
  -2  -4  13   11.25   10.44
  -2  -4  14   10.26   11.59
  -2  -4  15   35.97   14.89
  -2  -3 -18   53.32   19.89
  -2  -3 -18   75.90   20.25
  -2  -3 -17   41.41   16.08
  -2  -3 -17   57.60   17.99
  -2  -3 -16   -4.06   10.60
  -2  -3 -16    3.81   10.83
  -2  -3 -15   23.99   12.12
  -2  -3 -15   18.24   11.65
  -2  -3 -14   47.38   15.65
  -2  -3 -14   34.36   13.90
  -2  -3 -13  280.70   30.41
  -2  -3 -13  283.73   31.53
  -2  -3 -12  109.74   19.76
  -2  -3 -12   93.96   17.38
  -2  -3 -11  295.34   27.46
  -2  -3 -11  309.47   29.73
  -2  -3 -10   67.71   13.49
  -2  -3 -10   65.17   15.24
  -2  -3  -9  706.71   37.31
  -2  -3  -9  753.42   42.07
  -2  -3  -8  783.58   40.69
  -2  -3  -8  688.31   33.93
  -2  -3  -7  251.16   21.02
  -2  -3  -7  259.06   19.58
  -2  -3  -7  260.06   18.73
  -2  -3  -6    7.57    3.84
  -2  -3  -6   11.33    5.60
  -2  -3  -6    3.13    7.48
  -2  -3  -5   61.40    8.17
  -2  -3  -5   73.35   10.96
  -2  -3  -5   63.90    8.15
  -2  -3  -4  611.35   23.86
  -2  -3  -4  582.40   20.70
  -2  -3  -4  544.80   27.05
  -2  -3  -4  595.80   21.07
  -2  -3  -3  213.17   11.50
  -2  -3  -3  227.42   14.14
  -2  -3  -3  200.61    9.99
  -2  -3  -3  199.43   16.95
  -2  -3  -3  244.48   17.72
  -2  -3  -2  282.88   18.47
  -2  -3  -2  316.08   20.96
  -2  -3  -2  268.08   13.69
  -2  -3  -2  285.09   15.95
  -2  -3  -2  286.95   13.21
  -2  -3  -1  372.75   18.21
  -2  -3  -1  375.12   22.54
  -2  -3  -1  360.57   16.09
  -2  -3  -1  337.93   15.18
  -2  -3   0  352.34   21.62
  -2  -3   0  347.54   16.78
  -2  -3   0  323.62   12.56
  -2  -3   1  169.00   15.32
  -2  -3   1  152.53   12.72
  -2  -3   2 1125.25   38.05
  -2  -3   2 1111.24   36.63
  -2  -3   3  629.76   29.81
  -2  -3   3  634.30   30.21
  -2  -3   4  260.19   20.65
  -2  -3   4  231.28   20.08
  -2  -3   5   12.74    5.77
  -2  -3   5   15.90    7.39
  -2  -3   5   25.35    8.35
  -2  -3   6  421.28   28.99
  -2  -3   6  422.06   29.25
  -2  -3   6  424.15   30.96
  -2  -3   7   13.77    6.97
  -2  -3   7   17.14    9.44
  -2  -3   7   32.36   10.26
  -2  -3   8  551.83   37.31
  -2  -3   8  584.55   40.66
  -2  -3   8  563.96   34.22
  -2  -3   9   75.63   13.56
  -2  -3   9   48.16   14.10
  -2  -3   9   58.78   14.39
  -2  -3  10  124.55   17.03
  -2  -3  10  114.01   21.50
  -2  -3  11  114.15   21.44
  -2  -3  11   74.50   14.49
  -2  -3  12   37.01   11.03
  -2  -3  12   38.70   14.68
  -2  -3  13   52.61   16.64
  -2  -3  14    5.60    8.29
  -2  -3  15   13.95   11.76
  -2  -3  16   -4.46    9.91
  -2  -3  17    9.87    9.17
  -2  -2 -19   -2.21   12.36
  -2  -2 -18   15.42   11.61
  -2  -2 -18   16.48   11.04
  -2  -2 -17  -10.09   12.87
  -2  -2 -17   11.30   11.56
  -2  -2 -16   55.28   16.11
  -2  -2 -16   31.60   15.12
  -2  -2 -15   28.21   13.31
  -2  -2 -15   40.37   14.81
  -2  -2 -14   70.82   17.75
  -2  -2 -14   53.48   16.19
  -2  -2 -14   49.91   11.86
  -2  -2 -13  282.50   30.33
  -2  -2 -13  278.74   30.11
  -2  -2 -13  272.44   24.50
  -2  -2 -12   58.54   12.10
  -2  -2 -12   46.06   13.83
  -2  -2 -12   59.79   14.67
  -2  -2 -11  219.94   24.33
  -2  -2 -11  201.22   23.64
  -2  -2 -10   32.05    9.77
  -2  -2 -10   33.18   12.71
  -2  -2  -9  403.87   28.79
  -2  -2  -9  375.73   28.60
  -2  -2  -9  373.18   27.24
  -2  -2  -8  796.49   37.10
  -2  -2  -8  763.85   38.28
  -2  -2  -8  778.66   36.35
  -2  -2  -7    9.96    5.10
  -2  -2  -7   25.30    7.65
  -2  -2  -6   31.32    7.21
  -2  -2  -6   41.00    8.44
  -2  -2  -5   70.60    9.56
  -2  -2  -5   82.12    9.67
  -2  -2  -4 4106.66   59.60
  -2  -2  -4 3971.94   63.87
  -2  -2  -4 3954.78   56.91
  -2  -2  -3 5080.47   68.93
  -2  -2  -3 5193.33   67.20
  -2  -2  -3 5098.65   60.99
  -2  -2  -3 5191.85   76.24
  -2  -2  -2  293.68   18.03
  -2  -2  -2  282.12   15.51
  -2  -2  -2  283.83   15.63
  -2  -2  -2  278.41   14.19
  -2  -2  -1  135.12   10.56
  -2  -2  -1  125.39   12.20
  -2  -2  -1  135.31   11.23
  -2  -2  -1  125.94    9.92
  -2  -2   0  323.94   18.83
  -2  -2   0  298.97   15.94
  -2  -2   1 3614.46   61.70
  -2  -2   1 3688.52   59.49
  -2  -2   2 1251.73   37.16
  -2  -2   2 1263.75   38.09
  -2  -2   3  204.24   16.32
  -2  -2   3  200.46   16.98
  -2  -2   4  124.39   14.20
  -2  -2   4  111.80   13.92
  -2  -2   5  743.52   32.86
  -2  -2   5  677.68   20.35
  -2  -2   5  742.57   35.02
  -2  -2   5  780.44   37.85
  -2  -2   6 1381.70   45.46
  -2  -2   6 1211.50   31.36
  -2  -2   6 1339.70   52.86
  -2  -2   6 1347.15   49.41
  -2  -2   7  139.11   15.04
  -2  -2   7   98.78   10.39
  -2  -2   7  133.48   17.76
  -2  -2   7  126.30   18.39
  -2  -2   8   59.66   10.98
  -2  -2   8   52.42    8.48
  -2  -2   8   65.65   14.16
  -2  -2   8   48.75   11.93
  -2  -2   9   11.51    5.44
  -2  -2   9    1.47    6.08
  -2  -2   9   18.84    9.93
  -2  -2  10   62.94   14.93
  -2  -2  10   57.97   10.94
  -2  -2  11   81.97   17.92
  -2  -2  11   89.58   14.19
  -2  -2  12   53.37   15.83
  -2  -2  13   71.52   18.76
  -2  -2  14   50.94   17.62
  -2  -2  15   26.31   12.74
  -2  -2  16   22.79   14.49
  -2  -1 -19    9.98   11.06
  -2  -1 -18   30.92   16.11
  -2  -1 -18   51.89   16.07
  -2  -1 -17   -4.48   12.38
  -2  -1 -17   25.63   13.61
  -2  -1 -16   47.98   15.58
  -2  -1 -16   57.27   18.95
  -2  -1 -15   49.38   15.40
  -2  -1 -15   23.17    9.41
  -2  -1 -15   42.45   13.57
  -2  -1 -14   30.38   12.81
  -2  -1 -14   20.76   10.57
  -2  -1 -14   31.76   10.69
  -2  -1 -13  122.95   20.79
  -2  -1 -13  131.01   18.41
  -2  -1 -13   94.52   18.61
  -2  -1 -12  543.73   40.03
  -2  -1 -12  511.76   33.74
  -2  -1 -12  523.59   37.87
  -2  -1 -11  388.93   32.58
  -2  -1 -11  367.33   29.98
  -2  -1 -11  378.64   27.24
  -2  -1 -10  244.77   24.46
  -2  -1 -10  289.34   23.11
  -2  -1 -10  278.25   25.17
  -2  -1  -9  100.14   15.33
  -2  -1  -9   93.53   14.43
  -2  -1  -9  124.48   16.62
  -2  -1  -8  390.83   27.32
  -2  -1  -8  359.99   25.76
  -2  -1  -8  411.81   28.11
  -2  -1  -7 1176.37   43.75
  -2  -1  -7 1151.45   42.48
  -2  -1  -7 1152.66   41.39
  -2  -1  -6  652.17   29.81
  -2  -1  -6  700.32   31.42
  -2  -1  -5  518.19   24.82
  -2  -1  -5  528.56   25.44
  -2  -1  -4 1123.80   33.66
  -2  -1  -4 1135.98   33.64
  -2  -1  -3   18.14    5.29
  -2  -1  -3   27.27    5.88
  -2  -1  -2 1330.94   32.76
  -2  -1  -2 1313.39   33.30
  -2  -1  -2 1326.83   33.24
  -2  -1  -1  129.92   10.46
  -2  -1  -1  133.47    8.19
  -2  -1  -1  118.00   10.61
  -2  -1  -1  136.02   10.97
  -2  -1   0  995.38   18.64
  -2  -1   0 1138.07   31.37
  -2  -1   0 1062.61   29.25
  -2  -1   0 1061.85   30.11
  -2  -1   1 1089.66   29.78
  -2  -1   1 1059.43   31.99
  -2  -1   2 1053.05   31.03
  -2  -1   2 1091.99   35.21
  -2  -1   3  119.57    6.67
  -2  -1   3  102.86   11.40
  -2  -1   3  110.46   12.59
  -2  -1   4   -1.64    5.08
  -2  -1   4    3.98    4.89
  -2  -1   4    2.70    2.24
  -2  -1   5 1225.83   35.73
  -2  -1   5 1129.95   28.83
  -2  -1   5 1224.25   42.98
  -2  -1   5 1226.99   45.90
  -2  -1   6  559.41   25.22
  -2  -1   6  523.47   22.30
  -2  -1   6  524.21   30.40
  -2  -1   6  527.76   32.26
  -2  -1   7  198.15   15.32
  -2  -1   7  168.67   14.08
  -2  -1   7  166.46   20.37
  -2  -1   7  139.81   18.42
  -2  -1   8   79.91   10.12
  -2  -1   8   74.40   10.33
  -2  -1   8   79.87   15.47
  -2  -1   9  254.73   18.47
  -2  -1   9  282.28   21.33
  -2  -1   9  274.19   28.43
  -2  -1  10  499.51   30.27
  -2  -1  10  529.07   27.98
  -2  -1  10  589.96   42.94
  -2  -1  11   78.43   17.23
  -2  -1  12   46.76   14.73
  -2  -1  13   33.78   14.11
  -2  -1  14   24.49   13.37
  -2  -1  15   52.30   17.67
  -2  -1  15    8.54   10.25
  -2  -1  16   26.38   12.41
  -2  -1  16   24.07   14.00
  -2  -1  17    2.35   10.95
  -2   0 -19   19.89   13.82
  -2   0 -18   15.34   13.57
  -2   0 -18   -9.13   11.38
  -2   0 -17   13.29   11.17
  -2   0 -17   13.91   10.47
  -2   0 -16    9.42    9.65
  -2   0 -16   -3.55    9.14
  -2   0 -16    2.59    6.61
  -2   0 -15   17.84   12.61
  -2   0 -15    6.91    8.33
  -2   0 -15   -3.48   10.59
  -2   0 -14  377.21   33.02
  -2   0 -14  344.08   35.45
  -2   0 -14  361.08   32.35
  -2   0 -13   36.34   13.16
  -2   0 -13   35.42   12.22
  -2   0 -13   31.36   10.17
  -2   0 -12   17.74   11.96
  -2   0 -12   12.56    8.54
  -2   0 -12   11.92    7.71
  -2   0 -11  151.39   21.27
  -2   0 -11  154.03   19.49
  -2   0 -11  163.10   19.29
  -2   0 -10    6.90    7.55
  -2   0 -10   21.56    8.79
  -2   0 -10   21.44    9.52
  -2   0 -10    2.32    6.32
  -2   0  -9  229.29   23.08
  -2   0  -9  253.49   21.35
  -2   0  -9  208.98   19.90
  -2   0  -9  183.17   11.82
  -2   0  -9  184.55   21.15
  -2   0  -8   13.86    7.42
  -2   0  -8   -1.74    6.01
  -2   0  -8   -0.32    6.04
  -2   0  -8   -0.21    3.20
  -2   0  -8   14.90    7.35
  -2   0  -7  302.97   23.06
  -2   0  -7  305.94   15.59
  -2   0  -7  300.51   20.34
  -2   0  -7  268.24   22.11
  -2   0  -6 3576.67   72.25
  -2   0  -6 3122.36   60.28
  -2   0  -6 3240.01   50.40
  -2   0  -6 3446.20   72.46
  -2   0  -5  613.51   12.87
  -2   0  -5  682.61   30.50
  -2   0  -5  704.29   30.31
  -2   0  -4  681.24   16.17
  -2   0  -4  695.99   28.06
  -2   0  -4  730.35   28.87
  -2   0  -3   38.26    7.13
  -2   0  -3   45.43    4.88
  -2   0  -2 4787.63   52.66
  -2   0  -2 4766.61   51.78
  -2   0  -2 4681.32   41.88
  -2   0  -2 4739.54   63.36
  -2   0  -2 4767.65   65.72
  -2   0  -1 3124.85   40.96
  -2   0  -1 3253.72   46.70
  -2   0  -1 3150.44   51.32
  -2   0  -1 3125.16   37.53
  -2   0  -1 3183.94   53.68
  -2   0   0 1066.97   24.66
  -2   0   0 1054.34   23.94
  -2   0   0 1019.98   29.19
  -2   0   0 1029.00   30.97
  -2   0   1  439.97   17.23
  -2   0   1  425.32   19.60
  -2   0   1  432.48   17.97
  -2   0   1  406.36   20.38
  -2   0   2  205.31   13.30
  -2   0   2  229.01   14.60
  -2   0   2  202.22   11.39
  -2   0   2  212.18   15.85
  -2   0   3  903.31   25.58
  -2   0   3  884.75   30.11
  -2   0   3  926.12   31.57
  -2   0   3  942.42   34.95
  -2   0   4  984.30   28.88
  -2   0   4  956.76   34.41
  -2   0   4  966.81   28.62
  -2   0   4  983.96   38.54
  -2   0   5  322.05   14.28
  -2   0   5  336.90   16.98
  -2   0   5  293.09   21.08
  -2   0   5  300.12   17.46
  -2   0   5  314.74   23.41
  -2   0   6    2.78    4.79
  -2   0   6    0.11    2.91
  -2   0   6    2.08    2.74
  -2   0   6    5.11    2.89
  -2   0   7   58.04    6.79
  -2   0   7   73.43   10.39
  -2   0   7   50.90    6.49
  -2   0   8  188.65   17.43
  -2   0   8  214.04   20.72
  -2   0   8  181.83   12.01
  -2   0   8  176.54   12.33
  -2   0   8  196.31   21.83
  -2   0   9   39.66    9.31
  -2   0   9   51.15   12.92
  -2   0   9   57.26   12.50
  -2   0   9   39.08   11.53
  -2   0  10  195.76   20.29
  -2   0  10  202.87   21.13
  -2   0  10  186.51   23.27
  -2   0  10  168.79   22.95
  -2   0  11  230.29   23.43
  -2   0  11  258.50   24.71
  -2   0  11  290.12   29.53
  -2   0  11  259.46   30.11
  -2   0  12   14.04   10.34
  -2   0  12    4.82    6.49
  -2   0  12   23.48   13.22
  -2   0  13  204.01   27.39
  -2   0  13  217.24   29.97
  -2   0  14   58.87   17.17
  -2   0  14   88.98   20.20
  -2   0  15   43.27   15.14
  -2   0  15   23.77   13.45
  -2   0  16   20.24   12.77
  -2   0  16   12.33   13.45
  -2   0  17    1.05    8.74
  -2   0  17   11.59   12.94
  -2   1 -18  -11.54   11.77
  -2   1 -17   16.92   12.00
  -2   1 -17    7.72   10.35
  -2   1 -16   35.94   14.07
  -2   1 -16   64.45   17.90
  -2   1 -16   51.35   15.36
  -2   1 -15   80.48   19.34
  -2   1 -15   72.82   17.12
  -2   1 -15   64.38   17.17
  -2   1 -14    3.32    8.16
  -2   1 -14   -0.56    7.47
  -2   1 -14   -1.26    7.96
  -2   1 -13  100.74   19.09
  -2   1 -13   85.48   17.59
  -2   1 -13  103.26   16.51
  -2   1 -12   22.19    9.73
  -2   1 -12   33.55   10.42
  -2   1 -12   53.18   14.23
  -2   1 -11  838.21   40.30
  -2   1 -11  878.80   49.97
  -2   1 -11  781.83   43.69
  -2   1 -10  127.31   15.36
  -2   1 -10  135.25   19.32
  -2   1 -10  135.65   18.06
  -2   1 -10  155.30   21.79
  -2   1  -9   89.87   16.51
  -2   1  -9   92.60   12.75
  -2   1  -9   96.67   16.11
  -2   1  -9   84.48   14.15
  -2   1  -9   88.56   10.35
  -2   1  -8  306.53   26.41
  -2   1  -8  295.33   25.52
  -2   1  -8  256.74   18.40
  -2   1  -8  276.68   22.63
  -2   1  -8  264.97   17.10
  -2   1  -7  150.87   12.92
  -2   1  -7  129.91   15.42
  -2   1  -7  126.95   12.34
  -2   1  -7  124.27   16.43
  -2   1  -7  136.98   16.70
  -2   1  -6  649.37   24.18
  -2   1  -6  655.07   26.20
  -2   1  -6  709.38   34.25
  -2   1  -6  630.42   31.29
  -2   1  -6  717.86   34.88
  -2   1  -5  548.55   19.99
  -2   1  -5  555.12   24.16
  -2   1  -5  520.96   19.76
  -2   1  -5  573.08   27.77
  -2   1  -5  569.25   29.02
  -2   1  -4   83.93    8.19
  -2   1  -4   76.31    7.14
  -2   1  -4   93.89   10.30
  -2   1  -4   91.86   11.23
  -2   1  -4  101.17   12.09
  -2   1  -3  188.58   14.68
  -2   1  -3  166.87   11.81
  -2   1  -3  209.29   15.50
  -2   1  -3  197.89   15.61
  -2   1  -2  344.04    9.99
  -2   1  -2  368.99   17.70
  -2   1  -2  394.65   20.98
  -2   1  -2  374.15   17.67
  -2   1  -2  371.79   20.00
  -2   1  -1  261.31   15.06
  -2   1  -1  247.54   14.54
  -2   1  -1  286.38    8.55
  -2   1  -1  262.98   15.71
  -2   1  -1  264.68   17.57
  -2   1  -1  256.19   16.26
  -2   1   0  676.08   16.25
  -2   1   0  655.20   25.29
  -2   1   0  613.39   23.23
  -2   1   0  697.31   27.84
  -2   1   0  625.07   22.77
  -2   1   0  616.30   24.99
  -2   1   1 1899.11   40.08
  -2   1   1 1991.76   43.83
  -2   1   1 2030.58   46.81
  -2   1   1 2016.48   34.73
  -2   1   1 1877.60   44.18
  -2   1   2  251.49   16.49
  -2   1   2  279.59   17.61
  -2   1   2  289.39   19.07
  -2   1   2  272.54   15.08
  -2   1   2  276.82   17.50
  -2   1   2  281.31   18.12
  -2   1   3  816.28   30.61
  -2   1   3  811.52   33.25
  -2   1   3  843.71   29.86
  -2   1   3  781.26   30.94
  -2   1   3  777.47   31.81
  -2   1   4    4.56    4.45
  -2   1   4    2.20    2.99
  -2   1   4   -6.19    5.95
  -2   1   4   -0.76    4.70
  -2   1   4   -0.03    5.77
  -2   1   5  631.81   29.27
  -2   1   5  587.45   31.92
  -2   1   5  616.49   31.77
  -2   1   5  647.48   31.94
  -2   1   5  613.88   26.06
  -2   1   6  349.38   23.00
  -2   1   6  346.61   25.54
  -2   1   6  330.43   19.13
  -2   1   6  320.66   24.62
  -2   1   6  313.29   24.31
  -2   1   7  562.30   30.68
  -2   1   7  569.04   32.73
  -2   1   7  609.51   35.68
  -2   1   7  604.44   34.71
  -2   1   7  612.45   26.06
  -2   1   8  257.40   22.06
  -2   1   8  256.40   22.87
  -2   1   8  263.00   24.38
  -2   1   8  247.49   17.05
  -2   1   8  243.44   24.28
  -2   1   9  105.45   15.38
  -2   1   9  107.83   15.89
  -2   1   9  134.46   19.86
  -2   1   9  135.47   19.54
  -2   1  10  178.25   20.69
  -2   1  10  168.89   19.79
  -2   1  10  179.56   23.24
  -2   1  10  166.13   22.43
  -2   1  11   -8.33    8.16
  -2   1  11    3.47    4.69
  -2   1  11   -7.85    9.00
  -2   1  11    9.27    7.75
  -2   1  12  147.66   24.05
  -2   1  12  164.86   23.87
  -2   1  12  158.97   21.60
  -2   1  12  105.96   17.06
  -2   1  13   -0.58    9.61
  -2   1  13    7.74    6.57
  -2   1  13   17.96   11.00
  -2   1  14   34.40   12.23
  -2   1  14   28.07   12.20
  -2   1  15   21.40   11.47
  -2   1  15   20.19   11.70
  -2   1  16   -0.53    8.57
  -2   1  16   15.19   10.16
  -2   1  17   39.49   16.87
  -2   1  17   29.92   14.48
  -2   2 -18   26.08   14.64
  -2   2 -17   40.36   15.92
  -2   2 -17   19.95   11.85
  -2   2 -16   11.46    8.92
  -2   2 -16   25.32   13.27
  -2   2 -15   22.13   12.41
  -2   2 -15   21.93   13.45
  -2   2 -14   49.40   15.26
  -2   2 -14   50.25   15.89
  -2   2 -13   22.24   10.99
  -2   2 -13   33.70   12.36
  -2   2 -12  163.35   24.50
  -2   2 -12  182.23   24.22
  -2   2 -11    7.12    8.33
  -2   2 -11    1.48    6.61
  -2   2 -10  114.77   19.13
  -2   2 -10  154.85   21.57
  -2   2 -10  122.84   14.64
  -2   2 -10   96.20   15.96
  -2   2  -9  121.01   18.64
  -2   2  -9  122.62   18.56
  -2   2  -9  136.17   15.39
  -2   2  -9  124.74   13.98
  -2   2  -9  113.06   16.80
  -2   2  -8  108.06   16.93
  -2   2  -8  102.57   15.86
  -2   2  -8  123.72   14.49
  -2   2  -8  127.40   12.54
  -2   2  -8  108.82   16.27
  -2   2  -7  725.14   37.75
  -2   2  -7  724.12   33.95
  -2   2  -7  680.27   25.25
  -2   2  -7  684.97   37.42
  -2   2  -6  314.90   24.02
  -2   2  -6  321.68   22.51
  -2   2  -6  341.18   25.41
  -2   2  -6  320.06   15.16
  -2   2  -5  236.94   20.12
  -2   2  -5  242.04   17.15
  -2   2  -5  235.32   10.90
  -2   2  -5  237.68   19.05
  -2   2  -5  234.07   19.83
  -2   2  -4  459.82   26.09
  -2   2  -4  445.95   22.92
  -2   2  -4  464.45   26.21
  -2   2  -4  445.93   11.10
  -2   2  -4  469.46   26.20
  -2   2  -3 2353.85   54.65
  -2   2  -3 2318.72   52.94
  -2   2  -3 2363.18   58.17
  -2   2  -3 2398.30   55.33
  -2   2  -2 5278.49   80.23
  -2   2  -2 5129.62   85.81
  -2   2  -2 5152.36   75.89
  -2   2  -2 5085.49   81.55
  -2   2  -2 5137.80   77.05
  -2   2  -1  784.47   31.61
  -2   2  -1  721.24   25.35
  -2   2  -1  789.34   27.47
  -2   2  -1  780.72   33.42
  -2   2  -1  710.64   30.21
  -2   2  -1  738.79   28.54
  -2   2   0 1104.42   37.85
  -2   2   0  986.64   35.82
  -2   2   0  987.60   37.52
  -2   2   0 1039.51   28.47
  -2   2   0  966.37   28.24
  -2   2   0  964.07   32.43
  -2   2   1  767.80   22.31
  -2   2   1  752.95   32.12
  -2   2   1  782.60   33.63
  -2   2   1  728.71   31.35
  -2   2   1  729.82   24.35
  -2   2   1  743.62   28.69
  -2   2   2  216.73   18.03
  -2   2   2  214.63   18.07
  -2   2   2  168.10   15.69
  -2   2   2  222.85   18.09
  -2   2   2  214.01   15.89
  -2   2   2  198.61   10.13
  -2   2   3 1508.28   48.12
  -2   2   3 1509.57   46.90
  -2   2   3 1448.42   46.52
  -2   2   3 1473.63   47.79
  -2   2   3 1417.53   42.82
  -2   2   4  449.42   27.44
  -2   2   4  459.05   27.88
  -2   2   4  407.45   25.02
  -2   2   4  425.58   26.64
  -2   2   4  424.89   25.06
  -2   2   5   86.48   13.00
  -2   2   5   65.70   12.01
  -2   2   5   72.40   11.26
  -2   2   5   55.04   11.43
  -2   2   5   52.82   10.03
  -2   2   6  354.16   26.02
  -2   2   6  330.24   25.44
  -2   2   6  362.00   26.83
  -2   2   6  338.26   23.14
  -2   2   6  348.62   25.67
  -2   2   7  106.30   15.39
  -2   2   7  112.36   15.69
  -2   2   7  116.71   16.14
  -2   2   7   95.72   15.48
  -2   2   7  109.00   13.48
  -2   2   8   62.64   10.50
  -2   2   8   76.87   13.76
  -2   2   8   65.70   12.52
  -2   2   8   74.37   13.69
  -2   2   8   53.00   11.23
  -2   2   9   55.05   12.33
  -2   2   9   69.80   13.19
  -2   2   9   70.61   14.57
  -2   2   9   62.96   13.38
  -2   2  10   59.83   13.14
  -2   2  10   71.79   14.08
  -2   2  10   73.81   15.41
  -2   2  10   59.20   13.59
  -2   2  11   60.13   14.08
  -2   2  11   76.62   14.47
  -2   2  11   54.67   12.93
  -2   2  11   58.15   13.71
  -2   2  12   99.03   17.51
  -2   2  12   77.95   15.40
  -2   2  12  115.17   20.57
  -2   2  12  106.96   20.20
  -2   2  13   16.78    8.85
  -2   2  13   19.94   10.64
  -2   2  13   12.60    9.66
  -2   2  14    3.62    7.76
  -2   2  14  -13.84   13.57
  -2   2  14  -13.42   10.45
  -2   2  15   33.12   14.18
  -2   2  15   18.45    9.73
  -2   2  16   -8.98   11.88
  -2   2  16  -27.70   13.52
  -2   2  17   15.19   12.80
  -2   2  17   21.36   11.98
  -2   3 -17  -10.36   10.83
  -2   3 -17    5.21   10.26
  -2   3 -16   21.63   12.64
  -2   3 -16  -18.51   13.63
  -2   3 -15    7.27    9.82
  -2   3 -15    2.18    8.18
  -2   3 -14   57.51   17.48
  -2   3 -14   56.01   17.40
  -2   3 -13  135.65   23.47
  -2   3 -13  141.29   24.24
  -2   3 -12   33.82   13.15
  -2   3 -12   42.71   15.61
  -2   3 -11   43.02   14.14
  -2   3 -11   56.26   15.03
  -2   3 -10   71.56   15.47
  -2   3  -9  466.12   36.03
  -2   3  -9  402.72   33.74
  -2   3  -8  110.89   16.02
  -2   3  -8   92.50   16.70
  -2   3  -8  123.40   18.63
  -2   3  -7   17.74    6.79
  -2   3  -7   21.30    8.02
  -2   3  -7   27.83    9.74
  -2   3  -6  208.26   21.02
  -2   3  -6  201.96   21.01
  -2   3  -6  224.48   21.54
  -2   3  -5  317.84   24.17
  -2   3  -5  358.62   27.63
  -2   3  -5  320.98   25.42
  -2   3  -4  935.76   39.68
  -2   3  -4  943.98   43.95
  -2   3  -4  940.83   41.04
  -2   3  -4  980.81   40.18
  -2   3  -3  384.62   25.76
  -2   3  -3  411.31   29.00
  -2   3  -3  378.98   24.97
  -2   3  -3  358.83   22.92
  -2   3  -2 1331.98   41.80
  -2   3  -2 1362.89   44.13
  -2   3  -2 1417.41   48.93
  -2   3  -2 1375.34   52.38
  -2   3  -2 1349.46   48.11
  -2   3  -1  557.39   31.26
  -2   3  -1  515.06   30.84
  -2   3  -1  527.82   32.58
  -2   3  -1  523.05   22.23
  -2   3  -1  564.71   26.81
  -2   3  -1  577.32   32.21
  -2   3  -1  542.74   25.86
  -2   3   0  178.47   17.84
  -2   3   0  171.48   17.89
  -2   3   0  162.22   18.25
  -2   3   0  147.64   11.24
  -2   3   0  153.30   13.32
  -2   3   0  170.66   18.43
  -2   3   0  118.95   12.10
  -2   3   1   18.26    5.50
  -2   3   1   15.00    4.75
  -2   3   1   25.76    8.61
  -2   3   1   18.37    4.37
  -2   3   1   14.35    6.63
  -2   3   1   11.26    5.35
  -2   3   2 1579.42   37.04
  -2   3   2 1628.16   54.33
  -2   3   2 1573.98   55.72
  -2   3   2 1603.42   53.95
  -2   3   2 1566.21   43.69
  -2   3   2 1610.97   55.96
  -2   3   3  503.76   31.72
  -2   3   3  545.89   32.60
  -2   3   3  566.60   33.92
  -2   3   3  530.88   31.84
  -2   3   3  523.32   18.97
  -2   3   3  509.81   25.89
  -2   3   4  218.67   22.03
  -2   3   4  211.66   21.16
  -2   3   4  212.57   21.14
  -2   3   4  215.40   21.43
  -2   3   4  191.28    8.28
  -2   3   4  209.23   17.75
  -2   3   5  173.39   20.06
  -2   3   5  171.05   19.32
  -2   3   5  176.44   17.36
  -2   3   5  151.85   18.47
  -2   3   5  160.43   18.46
  -2   3   6  110.90   16.86
  -2   3   6   94.53   13.67
  -2   3   6  101.00   15.30
  -2   3   6  117.43   16.47
  -2   3   6  116.86   16.66
  -2   3   7  169.75   20.95
  -2   3   7  168.77   20.55
  -2   3   7  192.34   22.41
  -2   3   7  188.32   20.68
  -2   3   7  240.81   22.24
  -2   3   8  418.37   33.43
  -2   3   8  390.31   31.50
  -2   3   8  364.08   30.93
  -2   3   8  436.38   31.39
  -2   3   8  419.08   31.25
  -2   3   9  165.60   21.92
  -2   3   9  134.06   19.64
  -2   3   9  133.22   19.98
  -2   3   9  129.85   18.58
  -2   3  10  113.08   18.98
  -2   3  10   82.86   18.00
  -2   3  10   97.04   18.19
  -2   3  10   86.70   16.28
  -2   3  11  166.54   24.01
  -2   3  11  168.74   23.99
  -2   3  11  146.81   20.76
  -2   3  11  177.22   24.13
  -2   3  12   77.57   17.29
  -2   3  12   65.71   16.00
  -2   3  12   49.76   12.62
  -2   3  12   54.76   15.52
  -2   3  13   42.63   14.18
  -2   3  13   56.54   16.73
  -2   3  13   33.19   13.09
  -2   3  14   26.94   11.71
  -2   3  14   43.34   14.94
  -2   3  14   50.40   15.98
  -2   3  15    0.89    9.74
  -2   3  15   10.36   10.77
  -2   3  15    7.70   10.40
  -2   3  16   32.36   15.20
  -2   3  16   38.99   14.92
  -2   4 -16   29.65   16.23
  -2   4 -15   10.79   10.82
  -2   4 -14  -16.30   15.22
  -2   4 -13    4.25    9.57
  -2   4 -12   36.95   15.19
  -2   4 -11    5.90    9.47
  -2   4 -10   49.76   15.74
  -2   4  -9  227.66   27.85
  -2   4  -9  209.75   25.64
  -2   4  -8   63.21   14.45
  -2   4  -8   84.91   16.39
  -2   4  -8   91.55   17.78
  -2   4  -7   42.01   12.02
  -2   4  -7   73.19   14.31
  -2   4  -7   62.90   14.63
  -2   4  -6  320.18   29.50
  -2   4  -6  306.74   29.49
  -2   4  -6  310.70   26.34
  -2   4  -5  950.10   47.93
  -2   4  -5  973.04   43.71
  -2   4  -5 1016.36   52.63
  -2   4  -4  188.13   21.18
  -2   4  -4  198.93   21.92
  -2   4  -4  169.12   21.72
  -2   4  -4  194.62   18.79
  -2   4  -4  185.36   20.76
  -2   4  -3  191.28   21.05
  -2   4  -3  213.91   22.30
  -2   4  -3  187.46   22.81
  -2   4  -3  215.18   18.68
  -2   4  -3  202.72   20.50
  -2   4  -2  109.05   17.77
  -2   4  -2   85.88   14.87
  -2   4  -2  135.64   18.41
  -2   4  -2  103.04   13.98
  -2   4  -2  107.03   12.88
  -2   4  -1  322.04   27.05
  -2   4  -1  329.91   28.06
  -2   4  -1  297.89   28.40
  -2   4  -1  287.34   17.04
  -2   4  -1  332.26   24.29
  -2   4  -1  321.41   27.57
  -2   4  -1  317.31   20.76
  -2   4   0 1593.38   44.94
  -2   4   0 1631.16   60.30
  -2   4   0 1673.06   60.88
  -2   4   0 1460.34   34.87
  -2   4   0 1479.94   61.82
  -2   4   0 1589.36   61.25
  -2   4   0 1634.60   50.70
  -2   4   1  100.02   16.81
  -2   4   1   80.21   14.43
  -2   4   1   95.96   15.70
  -2   4   1  105.22   11.87
  -2   4   1   71.15    7.29
  -2   4   1   89.85   15.35
  -2   4   1   87.25   11.58
  -2   4   2   82.12   15.08
  -2   4   2  107.32   11.86
  -2   4   2   97.90   16.04
  -2   4   2   96.34   15.37
  -2   4   2  109.98   16.76
  -2   4   2   96.25   11.23
  -2   4   3  539.75   34.92
  -2   4   3  500.68   34.15
  -2   4   3  502.91   35.13
  -2   4   3  534.86   35.66
  -2   4   3  520.05   36.97
  -2   4   3  481.65   23.07
  -2   4   3  506.72   25.99
  -2   4   4   24.68    6.81
  -2   4   4   22.86    9.18
  -2   4   4   25.43    9.71
  -2   4   4   22.60    8.61
  -2   4   4   25.33    9.75
  -2   4   4   42.75   11.65
  -2   4   5 2564.80   82.39
  -2   4   5 2514.96   78.95
  -2   4   5 2516.23   81.57
  -2   4   5 2426.82   77.80
  -2   4   5 2461.27   62.56
  -2   4   6   31.85    9.07
  -2   4   6   47.54   12.09
  -2   4   6   65.86   15.31
  -2   4   6   25.50   10.40
  -2   4   6   30.25   10.02
  -2   4   7   92.37   14.31
  -2   4   7  113.04   18.46
  -2   4   7   85.12   16.63
  -2   4   7   85.46   16.29
  -2   4   7   92.18   16.78
  -2   4   8   67.75   12.89
  -2   4   8   85.66   16.09
  -2   4   8   93.49   18.65
  -2   4   8   46.36   12.25
  -2   4   8   84.16   16.43
  -2   4   9   50.57   14.77
  -2   4   9   40.24   11.63
  -2   4   9   40.37   12.48
  -2   4   9   50.39   12.53
  -2   4   9   27.41    9.78
  -2   4  10   54.26   13.51
  -2   4  10   40.33   12.40
  -2   4  10   45.51   14.14
  -2   4  10   66.40   15.14
  -2   4  11   37.70   12.16
  -2   4  11   30.45   11.67
  -2   4  11   21.80    9.02
  -2   4  11   20.22   10.46
  -2   4  12   18.46    8.92
  -2   4  12   23.56   11.60
  -2   4  12   29.48   10.38
  -2   4  13   71.06   18.04
  -2   4  13   43.68   15.22
  -2   4  14   30.76   12.81
  -2   4  14   28.68   13.97
  -2   4  15    7.00    7.79
  -2   4  15   13.90   10.67
  -2   4  16   19.41   13.17
  -2   5 -14   16.72   11.98
  -2   5 -13   18.86   11.62
  -2   5 -12   17.05   11.49
  -2   5 -11   69.47   18.84
  -2   5 -10   27.19   12.60
  -2   5  -9   35.98   13.15
  -2   5  -8   52.27   14.70
  -2   5  -8   87.74   18.91
  -2   5  -7    4.67    5.67
  -2   5  -7   11.76    9.30
  -2   5  -7    7.58    9.86
  -2   5  -6   93.25   18.26
  -2   5  -6   87.97   15.39
  -2   5  -6   88.86   18.32
  -2   5  -5  168.26   22.66
  -2   5  -5  138.65   20.63
  -2   5  -5  132.84   17.51
  -2   5  -5  177.13   25.02
  -2   5  -4   51.40   15.07
  -2   5  -4   42.28    9.80
  -2   5  -4   44.01   11.54
  -2   5  -4   59.18   16.01
  -2   5  -3  253.04   26.68
  -2   5  -3  232.26   28.38
  -2   5  -3  239.65   24.91
  -2   5  -3  213.26   25.75
  -2   5  -3  260.57   21.41
  -2   5  -2  162.50   22.35
  -2   5  -2  140.07   18.29
  -2   5  -2  171.79   22.48
  -2   5  -2  179.30   25.15
  -2   5  -2  153.21   16.04
  -2   5  -1  157.16   15.50
  -2   5  -1  155.15   23.32
  -2   5  -1  144.95   21.68
  -2   5  -1  184.83   23.62
  -2   5  -1  156.82   19.10
  -2   5   0  260.23   23.19
  -2   5   0  255.10   26.94
  -2   5   0  230.98   27.90
  -2   5   0  237.75   27.05
  -2   5   0  232.20   25.69
  -2   5   0  228.56   17.80
  -2   5   1   26.14   11.50
  -2   5   1   18.26    9.54
  -2   5   1   12.88    4.85
  -2   5   1   10.19    7.33
  -2   5   1    8.85    6.89
  -2   5   1   17.19    7.21
  -2   5   2  291.65   22.47
  -2   5   2  233.36   26.44
  -2   5   2  222.74   27.43
  -2   5   2  265.07   28.67
  -2   5   2  258.69   27.50
  -2   5   3   89.90   17.23
  -2   5   3   68.38   15.76
  -2   5   3  105.44   18.97
  -2   5   3   93.39   18.60
  -2   5   3   87.62   17.87
  -2   5   4   23.73   11.29
  -2   5   4   22.26   10.79
  -2   5   4   10.26    8.13
  -2   5   4   21.36   10.47
  -2   5   4   30.57   11.13
  -2   5   5  340.19   33.80
  -2   5   5  376.83   33.68
  -2   5   5  343.77   31.68
  -2   5   5  370.57   33.70
  -2   5   5  346.28   34.27
  -2   5   6   -0.17    7.47
  -2   5   6    3.34    6.06
  -2   5   6   17.04    9.76
  -2   5   6   -1.19    7.81
  -2   5   6   15.70    9.80
  -2   5   7   98.78   19.07
  -2   5   7   85.16   18.41
  -2   5   7   90.73   18.25
  -2   5   7   97.08   18.22
  -2   5   8   69.76   18.03
  -2   5   8   63.08   16.39
  -2   5   8   63.95   16.16
  -2   5   8  103.51   19.43
  -2   5   9  224.48   29.99
  -2   5   9  212.75   27.71
  -2   5   9  211.39   28.06
  -2   5   9  188.49   26.70
  -2   5  10   73.73   17.56
  -2   5  10   72.25   16.91
  -2   5  10   71.17   17.69
  -2   5  11   17.76   10.80
  -2   5  11   14.53    9.38
  -2   5  11    4.69    8.52
  -2   5  12   18.28   10.87
  -2   5  12   32.11   13.50
  -2   5  12   16.06   11.90
  -2   5  13   26.02   13.88
  -2   5  13   32.29   13.99
  -2   5  14  -20.54   12.36
  -2   5  14   -4.96    9.34
  -2   5  15   10.53    9.51
  -2   5  15   16.90   14.00
  -2   6 -13   33.89   14.27
  -2   6 -12  -12.98   12.04
  -2   6 -11   13.02   10.50
  -2   6 -10   18.13    9.72
  -2   6  -9    5.02    8.88
  -2   6  -8   91.63   21.36
  -2   6  -8  114.49   21.88
  -2   6  -7   46.89   15.89
  -2   6  -7   61.71   18.30
  -2   6  -6   25.38   13.53
  -2   6  -6   51.65   14.81
  -2   6  -5   82.63   20.77
  -2   6  -5   66.31   16.58
  -2   6  -5   96.80   19.90
  -2   6  -4   16.67   12.12
  -2   6  -4   -1.90   10.83
  -2   6  -4    2.94    7.98
  -2   6  -3   95.82   20.91
  -2   6  -3  114.45   19.29
  -2   6  -3  124.95   21.36
  -2   6  -2  120.40   22.20
  -2   6  -2  102.09   20.99
  -2   6  -2   86.90   18.30
  -2   6  -2   93.82   17.15
  -2   6  -1   30.48   12.72
  -2   6  -1   10.73    9.47
  -2   6  -1    9.98    8.77
  -2   6  -1   15.80    8.91
  -2   6   0   33.27   13.29
  -2   6   0   16.86   10.11
  -2   6   0   13.54    9.79
  -2   6   0    7.34    6.97
  -2   6   1   19.51   12.39
  -2   6   1   16.97   10.38
  -2   6   1   11.38    8.91
  -2   6   1   -7.15    9.04
  -2   6   1    2.03    4.80
  -2   6   2  731.03   50.12
  -2   6   2  775.78   55.21
  -2   6   2  779.87   53.03
  -2   6   2  769.26   49.43
  -2   6   3   69.93   17.30
  -2   6   3   54.24   15.66
  -2   6   3   35.04   12.29
  -2   6   3   11.18    8.61
  -2   6   4  291.18   35.27
  -2   6   4  301.49   32.82
  -2   6   4  256.67   31.76
  -2   6   4  268.80   30.83
  -2   6   4  292.87   32.84
  -2   6   5   33.70   13.45
  -2   6   5   20.38   10.05
  -2   6   5   11.60    9.89
  -2   6   5   25.91   12.26
  -2   6   5   18.74   11.52
  -2   6   6    0.41    8.04
  -2   6   6   -0.84    9.40
  -2   6   6   -4.87    9.42
  -2   6   6    5.74    6.30
  -2   6   6   -2.07    7.72
  -2   6   7  137.49   23.42
  -2   6   7  140.09   24.82
  -2   6   7  116.18   21.67
  -2   6   7  177.14   27.89
  -2   6   8   -2.48    7.50
  -2   6   8    8.32    7.89
  -2   6   8   -9.00    8.80
  -2   6   8   13.16    9.49
  -2   6   9   34.60   13.30
  -2   6   9   21.33   11.82
  -2   6   9   30.94   13.56
  -2   6   9   39.70   14.95
  -2   6  10   36.20   14.30
  -2   6  10   55.05   16.53
  -2   6  10   52.81   16.24
  -2   6  11    1.10   10.10
  -2   6  11   20.13   10.37
  -2   6  12   64.21   18.98
  -2   6  12   68.82   17.80
  -2   6  12   49.49   17.23
  -2   6  13   38.73   17.76
  -2   6  13   41.54   15.89
  -2   6  14    4.64    8.86
  -2   6  14   20.11   13.16
  -2   7 -11   56.33   19.62
  -2   7 -10   12.38   11.63
  -2   7  -9   37.48   16.17
  -2   7  -8    2.77    8.97
  -2   7  -8   29.83   15.85
  -2   7  -7   60.28   19.49
  -2   7  -7   82.17   20.55
  -2   7  -6   69.92   20.02
  -2   7  -6   63.09   18.85
  -2   7  -5   21.84   10.56
  -2   7  -5   20.56   13.62
  -2   7  -5   31.27   13.88
  -2   7  -4   16.94   11.20
  -2   7  -4   13.67    9.57
  -2   7  -4   37.06   15.41
  -2   7  -3   27.59   13.20
  -2   7  -3   12.28    9.83
  -2   7  -3    6.86   10.28
  -2   7  -2   73.23   16.48
  -2   7  -2   61.11   19.31
  -2   7  -2   97.63   21.38
  -2   7  -1  124.51   24.64
  -2   7  -1  111.60   22.65
  -2   7  -1   82.63   17.46
  -2   7  -1  107.65   23.63
  -2   7   0   41.74   15.12
  -2   7   0   32.08   11.41
  -2   7   0   21.37   10.25
  -2   7   0   32.91   13.77
  -2   7   1   12.82   13.15
  -2   7   1    2.99   10.66
  -2   7   1    1.98    7.79
  -2   7   2  121.79   23.00
  -2   7   2  113.18   24.09
  -2   7   2  136.32   24.84
  -2   7   2  154.20   26.23
  -2   7   3   67.14   17.32
  -2   7   3   52.57   16.57
  -2   7   3   26.51   13.28
  -2   7   3   37.12   13.44
  -2   7   4   25.22   12.46
  -2   7   4   15.06   10.24
  -2   7   4    0.82    8.17
  -2   7   4   40.15   15.32
  -2   7   5   16.60   11.57
  -2   7   5   14.58    9.44
  -2   7   5   25.85   12.31
  -2   7   5   32.06   12.88
  -2   7   6   69.84   18.90
  -2   7   6   92.19   20.59
  -2   7   6   60.64   18.47
  -2   7   6   77.02   18.91
  -2   7   6   81.78   19.76
  -2   7   7   56.86   17.52
  -2   7   7   43.31   13.98
  -2   7   7   38.66   15.32
  -2   7   7   57.38   17.61
  -2   7   8   30.57   13.66
  -2   7   8    9.99    8.93
  -2   7   8   22.61   12.15
  -2   7   8   25.73   12.17
  -2   7   9   22.94   12.36
  -2   7   9   77.35   20.63
  -2   7   9   42.57   17.87
  -2   7   9   64.73   19.41
  -2   7  10    7.48    8.20
  -2   7  10   17.26   13.36
  -2   7  10   -4.09    8.87
  -2   7  11   17.45   11.90
  -2   7  11  -11.64   11.69
  -2   7  11    0.19    8.38
  -2   7  12   18.19   13.13
  -2   7  12  -14.37   11.49
  -2   7  12    5.05    9.56
  -2   8  -8   58.97   21.67
  -2   8  -7    5.56    9.27
  -2   8  -7   15.76   15.41
  -2   8  -6    3.10    7.60
  -2   8  -6   31.19   16.95
  -2   8  -5   18.80   14.67
  -2   8  -5   -0.54    7.92
  -2   8  -4   -2.59   10.63
  -2   8  -4   -2.11    7.43
  -2   8  -3  119.05   26.68
  -2   8  -3  123.94   23.10
  -2   8  -3  127.57   25.43
  -2   8  -2   23.03   16.23
  -2   8  -2   20.37   11.66
  -2   8  -2   35.67   14.81
  -2   8  -1   34.60   16.35
  -2   8  -1   34.07   13.77
  -2   8   0   39.46   17.26
  -2   8   0   31.23   15.53
  -2   8   1   42.18   16.51
  -2   8   1   46.06   16.88
  -2   8   1   39.00   15.37
  -2   8   2   21.93   12.28
  -2   8   2   34.79   18.16
  -2   8   2   16.41   14.20
  -2   8   3   -4.01    9.55
  -2   8   3   13.92   13.19
  -2   8   3   21.71   13.54
  -2   8   4    1.86    6.84
  -2   8   4   12.45    9.81
  -2   8   4   44.04   15.73
  -2   8   4   29.29   16.77
  -2   8   5   14.03   10.21
  -2   8   5    9.17    9.07
  -2   8   5   31.62   15.65
  -2   8   5   32.67   15.14
  -2   8   6   29.19   16.78
  -2   8   6   29.80   13.63
  -2   8   6   41.18   16.06
  -2   8   6   35.70   17.08
  -2   8   7  -24.81   13.64
  -2   8   7  -17.57   12.70
  -2   8   7    8.48   10.23
  -2   8   8   23.19   12.82
  -2   8   8    2.88   11.62
  -2   8   8    0.31   10.26
  -2   8   8   -3.02    8.43
  -2   8   9   52.45   20.81
  -2   8   9   48.32   17.51
  -2   8   9   42.19   19.36
  -2   8   9   62.77   18.36
  -2   8  10   21.13   12.73
  -2   8  10   19.69   12.68
  -2   8  11   22.57   15.34
  -2   9  -6    6.19   11.29
  -2   9  -6   -4.22    9.37
  -2   9  -5    5.89   13.60
  -2   9  -5   23.43   13.63
  -2   9  -4   39.76   19.49
  -2   9  -4   -2.77   10.15
  -2   9  -3   20.78   14.92
  -2   9  -3   39.94   20.64
  -2   9  -2   11.52   13.14
  -2   9  -2   22.42   13.67
  -2   9  -1   19.97   13.60
  -2   9  -1   35.49   16.06
  -2   9   0   24.31   13.54
  -2   9   0   47.46   19.03
  -2   9   1   24.05   14.52
  -2   9   1   36.82   16.48
  -2   9   2    6.89   11.61
  -2   9   2   10.21   10.52
  -2   9   3   14.08   12.51
  -2   9   3   26.85   15.82
  -2   9   4   14.36   13.36
  -2   9   4    4.54   11.58
  -2   9   5   11.62   13.12
  -2   9   5   18.85   14.03
  -2   9   5   22.05   14.32
  -2   9   6   32.75   17.47
  -2   9   6   24.62   14.70
  -2   9   6   46.72   18.23
  -2   9   7  -17.63   14.22
  -2   9   8   40.62   18.78
  -1 -11  -4  -14.16   10.98
  -1 -11  -3   12.24   11.49
  -1 -11  -2   20.62   12.90
  -1 -10 -10   22.41   13.45
  -1 -10  -9   -5.81   10.15
  -1 -10  -9  -15.69   12.57
  -1 -10  -8   -2.57   10.79
  -1 -10  -8  -10.50   10.75
  -1 -10  -8    1.75    8.51
  -1 -10  -8   11.35   10.79
  -1 -10  -7    3.01    8.75
  -1 -10  -7  -19.52   13.28
  -1 -10  -7   21.29   12.21
  -1 -10  -7   -4.36   10.17
  -1 -10  -6    1.69   11.23
  -1 -10  -6    9.54   12.17
  -1 -10  -6    9.17    9.60
  -1 -10  -6   -3.82    6.91
  -1 -10  -5   58.27   18.91
  -1 -10  -5   71.10   19.43
  -1 -10  -5   69.97   20.47
  -1 -10  -5   27.98   11.76
  -1 -10  -4    7.22    9.14
  -1 -10  -4    6.75   11.69
  -1 -10  -4  -23.15   12.52
  -1 -10  -4    5.44    9.99
  -1 -10  -3   17.08   11.65
  -1 -10  -3    7.28    8.27
  -1 -10  -2   20.86   12.18
  -1 -10  -2    7.76    9.75
  -1 -10  -1   -6.22    7.97
  -1 -10  -1    5.25   11.05
  -1 -10   0   45.39   15.17
  -1 -10   0   44.28   17.78
  -1 -10   1   21.54   11.13
  -1 -10   1   16.78   14.26
  -1 -10   2   -0.15    5.74
  -1 -10   2   19.19   15.40
  -1 -10   3   26.74   12.24
  -1 -10   4  -10.18   11.67
  -1  -9 -13   76.51   20.81
  -1  -9 -12   57.28   17.65
  -1  -9 -11   25.33   14.07
  -1  -9 -10   24.62   12.95
  -1  -9  -9   16.86   10.10
  -1  -9  -9    9.50   10.29
  -1  -9  -8   15.94    9.96
  -1  -9  -8    3.05    8.43
  -1  -9  -7   36.73   13.57
  -1  -9  -7   15.10   10.22
  -1  -9  -7   26.75   12.37
  -1  -9  -6   88.80   20.55
  -1  -9  -6   71.70   17.68
  -1  -9  -6   65.33   17.79
  -1  -9  -6  108.80   23.09
  -1  -9  -5   25.19   11.04
  -1  -9  -5   15.23    7.24
  -1  -9  -5   -2.38   10.22
  -1  -9  -5   16.54    8.76
  -1  -9  -4   36.60   14.75
  -1  -9  -4   33.87   12.96
  -1  -9  -4   37.40   15.10
  -1  -9  -4   22.36   11.32
  -1  -9  -3   26.34   11.78
  -1  -9  -3   21.15   13.14
  -1  -9  -3    3.57    8.38
  -1  -9  -3   15.41    9.14
  -1  -9  -2   26.60   11.29
  -1  -9  -2   36.25   13.87
  -1  -9  -2   39.23   13.36
  -1  -9  -2    9.61    9.67
  -1  -9  -1  100.96   21.23
  -1  -9  -1  127.73   21.33
  -1  -9  -1  110.68   22.45
  -1  -9   0    8.29    7.22
  -1  -9   0   33.38   13.41
  -1  -9   1   29.64   11.69
  -1  -9   1   38.18   15.26
  -1  -9   2    1.42    7.34
  -1  -9   2   10.31   11.18
  -1  -9   3   69.23   17.64
  -1  -9   4   36.09   13.72
  -1  -9   4   42.24   15.14
  -1  -9   5    8.80    8.83
  -1  -9   5   10.22    9.02
  -1  -9   6   -7.32   11.52
  -1  -9   6    4.23    8.40
  -1  -9   7   -9.19   12.88
  -1  -9   7   14.38   12.10
  -1  -9   8   29.40   13.94
  -1  -8 -14   23.81   14.68
  -1  -8 -13   30.03   14.72
  -1  -8 -13   11.51   13.15
  -1  -8 -12    8.62   12.10
  -1  -8 -12    2.55   10.61
  -1  -8 -11   21.19   13.89
  -1  -8 -11   20.39   13.07
  -1  -8 -10   27.45   11.91
  -1  -8 -10    6.40    7.70
  -1  -8  -9   22.04   11.93
  -1  -8  -9   10.31    8.32
  -1  -8  -9   23.74   10.90
  -1  -8  -8  123.88   21.99
  -1  -8  -8  108.77   20.14
  -1  -8  -7   19.53    9.51
  -1  -8  -7   20.91    8.96
  -1  -8  -7   36.45   14.46
  -1  -8  -7   16.51   11.01
  -1  -8  -6  131.80   20.78
  -1  -8  -6  109.23   19.97
  -1  -8  -6  120.92   19.70
  -1  -8  -6  111.47   22.13
  -1  -8  -5    3.67    7.19
  -1  -8  -5    9.47    7.46
  -1  -8  -5    0.41    7.22
  -1  -8  -4   42.78   10.96
  -1  -8  -4   41.50   14.19
  -1  -8  -4   56.21   14.67
  -1  -8  -4   29.08   13.45
  -1  -8  -4   33.12   12.78
  -1  -8  -3  137.12   19.74
  -1  -8  -3  136.79   22.19
  -1  -8  -3  131.61   21.79
  -1  -8  -3  132.48   21.25
  -1  -8  -3  131.83   21.07
  -1  -8  -2   19.08    8.88
  -1  -8  -2   49.99   13.42
  -1  -8  -2   31.85   11.77
  -1  -8  -2   36.88   12.42
  -1  -8  -1   47.51   13.47
  -1  -8  -1   74.42   16.58
  -1  -8  -1   65.88   14.96
  -1  -8  -1   47.58   14.02
  -1  -8   0   90.52   17.81
  -1  -8   0   82.16   16.51
  -1  -8   0   75.08   17.51
  -1  -8   1   33.35   11.87
  -1  -8   1   35.81   10.77
  -1  -8   1   36.69   14.41
  -1  -8   1   22.08    9.36
  -1  -8   2  190.84   25.50
  -1  -8   2  190.77   24.67
  -1  -8   2  178.92   22.98
  -1  -8   2  182.12   27.09
  -1  -8   3    8.36    6.94
  -1  -8   3   13.93    7.61
  -1  -8   4    1.48    7.59
  -1  -8   4    2.89    6.76
  -1  -8   5   17.11    9.02
  -1  -8   5   -4.16    6.99
  -1  -8   6   10.04    7.56
  -1  -8   6    5.65    8.88
  -1  -8   7   54.92   15.53
  -1  -8   7   70.47   17.91
  -1  -8   8   -2.38   11.46
  -1  -8   8   12.21   10.48
  -1  -8   9    0.40    9.37
  -1  -8   9   20.22   11.92
  -1  -8  10    4.97    9.83
  -1  -8  10   -2.08   10.15
  -1  -7 -15   -1.11   10.99
  -1  -7 -14  -14.93   12.56
  -1  -7 -13   47.37   17.14
  -1  -7 -12   28.02   13.64
  -1  -7 -12   24.47   13.33
  -1  -7 -11   57.72   16.15
  -1  -7 -11   30.54   12.64
  -1  -7 -10   53.79   15.52
  -1  -7 -10   54.42   13.43
  -1  -7  -9   11.77   11.19
  -1  -7  -9   -2.93    8.11
  -1  -7  -8   -9.14    9.29
  -1  -7  -8    3.61    7.94
  -1  -7  -7   45.35   12.54
  -1  -7  -7   69.89   15.10
  -1  -7  -7   45.56   12.06
  -1  -7  -6   27.53   10.56
  -1  -7  -6   22.83    9.72
  -1  -7  -6   33.63   10.94
  -1  -7  -5   53.21   11.73
  -1  -7  -5   67.01   14.84
  -1  -7  -5   58.97   13.54
  -1  -7  -4  136.34   20.31
  -1  -7  -4  146.51   21.50
  -1  -7  -4  114.68   16.70
  -1  -7  -4  118.77   18.60
  -1  -7  -3   10.43    7.89
  -1  -7  -3   26.73    9.33
  -1  -7  -3   23.05    9.14
  -1  -7  -3    4.43    6.79
  -1  -7  -2   44.83   12.75
  -1  -7  -2   31.98   11.06
  -1  -7  -2   52.34   10.32
  -1  -7  -2   36.85   10.42
  -1  -7  -2   29.50   10.47
  -1  -7  -1   54.29   12.01
  -1  -7  -1   30.26   10.21
  -1  -7  -1   34.25    9.23
  -1  -7  -1   51.35   13.17
  -1  -7  -1   36.31   11.25
  -1  -7  -1   30.80    7.52
  -1  -7   0   12.80    8.98
  -1  -7   0   12.33    7.22
  -1  -7   0   23.87    8.44
  -1  -7   0   20.16    9.06
  -1  -7   0    8.39    6.44
  -1  -7   0   15.48    6.00
  -1  -7   1  154.73   21.52
  -1  -7   1  197.76   22.70
  -1  -7   1  142.84   16.87
  -1  -7   1  183.46   20.57
  -1  -7   1  202.85   21.35
  -1  -7   1  190.44   24.09
  -1  -7   2    5.10    8.13
  -1  -7   2    4.63    6.25
  -1  -7   2   -0.85    7.51
  -1  -7   2    3.54    8.37
  -1  -7   3  161.79   22.30
  -1  -7   3  181.19   22.27
  -1  -7   3  197.69   23.44
  -1  -7   3  171.48   24.58
  -1  -7   4    7.75    8.70
  -1  -7   4    1.56    6.25
  -1  -7   5   55.22   13.39
  -1  -7   5   59.25   14.21
  -1  -7   6   56.77   14.06
  -1  -7   6   60.05   15.18
  -1  -7   7    2.54    6.83
  -1  -7   7   -9.35   10.94
  -1  -7   8  -19.63   10.68
  -1  -7   8   -6.79    9.26
  -1  -7   9    6.93    8.95
  -1  -7   9   -1.91    8.45
  -1  -7  10   27.28   12.17
  -1  -7  10   40.15   15.01
  -1  -7  11   62.16   17.61
  -1  -7  11   73.58   19.59
  -1  -7  12    9.84    9.09
  -1  -7  12    0.11   10.12
  -1  -6 -17  -19.03   12.70
  -1  -6 -16   16.93   12.10
  -1  -6 -16   -8.63   13.17
  -1  -6 -15    0.67    9.34
  -1  -6 -15  -26.81   15.01
  -1  -6 -14    5.85    8.73
  -1  -6 -14   21.51   12.84
  -1  -6 -13  103.80   22.71
  -1  -6 -13  100.52   20.28
  -1  -6 -12   30.21   14.47
  -1  -6 -12    7.37   10.54
  -1  -6 -11   15.57    9.21
  -1  -6 -11    5.92    7.54
  -1  -6 -11    9.07   10.70
  -1  -6 -10    2.98    6.49
  -1  -6 -10   -0.87    5.95
  -1  -6 -10   13.09   11.09
  -1  -6  -9   76.96   16.62
  -1  -6  -9   65.90   14.69
  -1  -6  -9   68.94   13.03
  -1  -6  -8  117.27   19.29
  -1  -6  -8   94.77   16.09
  -1  -6  -8   82.16   14.17
  -1  -6  -7  116.59   15.41
  -1  -6  -7   70.05   13.28
  -1  -6  -7  102.88   17.59
  -1  -6  -6   72.12   14.65
  -1  -6  -6   59.27   10.26
  -1  -6  -5   70.78   12.70
  -1  -6  -5   66.98   10.35
  -1  -6  -5   81.02   14.55
  -1  -6  -4  167.96   19.00
  -1  -6  -4  161.10   14.05
  -1  -6  -4  138.47   19.54
  -1  -6  -4  144.88   18.63
  -1  -6  -3  267.20   23.24
  -1  -6  -3  290.82   17.60
  -1  -6  -3  281.54   26.00
  -1  -6  -2    9.37    6.58
  -1  -6  -2    0.21    3.68
  -1  -6  -2   16.64    6.65
  -1  -6  -2    5.41    6.61
  -1  -6  -1  177.25   20.35
  -1  -6  -1  177.71   17.95
  -1  -6  -1  167.39   20.51
  -1  -6   0  168.95   19.50
  -1  -6   0  158.96   18.69
  -1  -6   0  160.15   17.16
  -1  -6   0  160.79   17.20
  -1  -6   0  109.26   16.54
  -1  -6   1  341.41   28.63
  -1  -6   1  413.76   26.86
  -1  -6   1  357.96   25.03
  -1  -6   1  367.44   30.60
  -1  -6   1  367.34   28.22
  -1  -6   2   86.96   16.36
  -1  -6   2   86.23   14.29
  -1  -6   2   82.17   14.92
  -1  -6   2   81.00   12.54
  -1  -6   2   91.00   12.47
  -1  -6   3   26.48    9.88
  -1  -6   3   14.24    9.21
  -1  -6   3   10.40    5.93
  -1  -6   3   24.18   10.22
  -1  -6   4  131.52   19.33
  -1  -6   4  132.75   16.27
  -1  -6   5   65.63   14.24
  -1  -6   5   69.16   12.72
  -1  -6   5   57.63   12.33
  -1  -6   6   53.68   13.51
  -1  -6   6   45.35   12.03
  -1  -6   6   73.24   14.04
  -1  -6   7   44.47   12.91
  -1  -6   7   22.20    9.91
  -1  -6   7   28.96   10.31
  -1  -6   8    7.71    8.50
  -1  -6   8   11.93    8.05
  -1  -6   9   26.11    9.91
  -1  -6   9   29.60   11.22
  -1  -6  10   11.41    7.90
  -1  -6  10   17.78   10.90
  -1  -6  10   23.45   11.86
  -1  -6  11   -1.76    8.21
  -1  -6  11  -10.10    9.41
  -1  -6  11   -7.26   10.45
  -1  -6  12   -8.74   10.94
  -1  -6  12  -10.98    9.90
  -1  -6  12   -5.60    8.27
  -1  -6  13  -11.60   11.63
  -1  -6  13    1.10    8.29
  -1  -6  13   -9.25    8.68
  -1  -6  14   -1.76    9.08
  -1  -6  14    2.99    9.18
  -1  -5 -17   -1.80   11.69
  -1  -5 -17   -9.94   13.88
  -1  -5 -16   41.39   15.66
  -1  -5 -16   48.32   15.46
  -1  -5 -15   40.21   15.84
  -1  -5 -15   28.69   15.07
  -1  -5 -14   -4.88   12.54
  -1  -5 -14   17.30   12.18
  -1  -5 -13   11.70   11.32
  -1  -5 -13   46.18   17.15
  -1  -5 -12   41.21   13.90
  -1  -5 -12   33.73   12.39
  -1  -5 -11   63.87   16.46
  -1  -5 -11   68.39   15.14
  -1  -5 -10  206.78   23.28
  -1  -5 -10  191.41   25.13
  -1  -5 -10  201.42   23.59
  -1  -5  -9   75.88   15.61
  -1  -5  -9   70.94   13.58
  -1  -5  -9   74.85   14.60
  -1  -5  -8   41.53   12.08
  -1  -5  -8   38.43   10.62
  -1  -5  -8   25.37    9.01
  -1  -5  -7  196.82   18.87
  -1  -5  -7  224.81   23.69
  -1  -5  -7  200.21   21.81
  -1  -5  -6  147.21   15.27
  -1  -5  -6  133.40   17.76
  -1  -5  -5  399.94   22.67
  -1  -5  -5  462.71   30.70
  -1  -5  -4  549.44   32.95
  -1  -5  -4  433.93   28.16
  -1  -5  -4  520.87   23.67
  -1  -5  -4  459.41   16.85
  -1  -5  -3   55.57   10.13
  -1  -5  -3   65.49   11.88
  -1  -5  -3   44.18    6.43
  -1  -5  -3   51.32   11.14
  -1  -5  -2  118.11   14.17
  -1  -5  -2  109.77    9.51
  -1  -5  -2  131.02   16.21
  -1  -5  -1   56.93   10.62
  -1  -5  -1   60.66    6.52
  -1  -5  -1   52.88    9.17
  -1  -5  -1   56.64   10.77
  -1  -5   0   65.83   11.43
  -1  -5   0   70.78   10.69
  -1  -5   0   53.65    5.05
  -1  -5   0   62.12    5.64
  -1  -5   0   57.38   11.01
  -1  -5   1  167.68   18.56
  -1  -5   1  182.19   16.47
  -1  -5   1  173.60   19.02
  -1  -5   1  187.33   12.64
  -1  -5   1  167.17   15.41
  -1  -5   1  184.77   17.91
  -1  -5   2   29.17    7.81
  -1  -5   2   18.06    6.89
  -1  -5   2   21.24    6.25
  -1  -5   2   39.13   10.69
  -1  -5   2   43.42    8.37
  -1  -5   2   41.21    7.29
  -1  -5   3  111.96   13.48
  -1  -5   3   95.65   12.11
  -1  -5   3   67.63    9.07
  -1  -5   3   64.89   12.52
  -1  -5   4   87.35   13.17
  -1  -5   4   77.72   14.05
  -1  -5   4   68.91   11.74
  -1  -5   5   18.51    6.55
  -1  -5   5   16.16    7.84
  -1  -5   5   22.49    8.27
  -1  -5   6  149.07   19.93
  -1  -5   6  131.39   16.96
  -1  -5   6  150.89   19.25
  -1  -5   7   99.10   16.53
  -1  -5   7   82.09   14.53
  -1  -5   7  108.48   17.40
  -1  -5   8  111.80   18.72
  -1  -5   8   76.58   14.87
  -1  -5   8  123.84   19.85
  -1  -5   9   -6.93    9.17
  -1  -5   9    6.02    7.06
  -1  -5   9   10.52    8.39
  -1  -5  10   36.08   11.87
  -1  -5  10   51.23   15.60
  -1  -5  11   40.58   11.88
  -1  -5  11   48.77   15.81
  -1  -5  12   14.67   10.00
  -1  -5  12   16.94    9.38
  -1  -5  12   34.88   13.81
  -1  -5  13   -1.83    8.84
  -1  -5  13   10.28    8.43
  -1  -5  13   -1.90    8.80
  -1  -5  14    7.25    8.37
  -1  -5  14    9.54    9.20
  -1  -5  14    1.24    9.50
  -1  -5  15    6.84   10.90
  -1  -5  15   33.55   15.73
  -1  -5  15   22.75   11.80
  -1  -4 -18   -1.94    9.58
  -1  -4 -17   -6.42   12.61
  -1  -4 -17   21.71   13.13
  -1  -4 -16   16.36   14.18
  -1  -4 -16    4.76   10.47
  -1  -4 -15   25.04   14.72
  -1  -4 -15   14.02   12.56
  -1  -4 -14   22.63   12.43
  -1  -4 -14   -4.98   11.76
  -1  -4 -13   51.75   15.14
  -1  -4 -13   62.39   17.35
  -1  -4 -12   -1.50    9.29
  -1  -4 -12   13.03   11.69
  -1  -4 -11  192.87   23.74
  -1  -4 -11  201.09   25.47
  -1  -4 -10   41.29   14.47
  -1  -4 -10   33.09   10.42
  -1  -4  -9   34.08    8.95
  -1  -4  -9   22.83   10.35
  -1  -4  -8   20.07    7.64
  -1  -4  -8   13.48    8.98
  -1  -4  -8   28.23    9.21
  -1  -4  -7  103.73   13.81
  -1  -4  -7  103.26   15.92
  -1  -4  -7   98.59   14.09
  -1  -4  -6 1700.62   48.42
  -1  -4  -6 1728.27   54.69
  -1  -4  -5  156.83   13.74
  -1  -4  -5  172.17   17.68
  -1  -4  -4  169.24    8.83
  -1  -4  -4  149.39   12.06
  -1  -4  -4  183.28   17.56
  -1  -4  -3  884.27   35.48
  -1  -4  -3  866.98   25.60
  -1  -4  -3  962.86   38.65
  -1  -4  -2 1546.45   45.46
  -1  -4  -2 1488.90   29.96
  -1  -4  -2 1643.64   47.94
  -1  -4  -1 3079.48   62.76
  -1  -4  -1 3027.83   62.46
  -1  -4  -1 3069.01   65.37
  -1  -4  -1 3016.69   39.40
  -1  -4   0   84.06   10.42
  -1  -4   0   85.09   10.74
  -1  -4   0   91.72    5.38
  -1  -4   0   88.99   11.87
  -1  -4   0   82.98    6.39
  -1  -4   1  502.84   19.86
  -1  -4   1  500.89   24.55
  -1  -4   1  490.42   24.50
  -1  -4   1  502.82   22.73
  -1  -4   1  514.31   28.29
  -1  -4   2  147.06   16.13
  -1  -4   2  156.49   14.20
  -1  -4   2  155.58   14.61
  -1  -4   2  171.73   12.70
  -1  -4   2  146.22   16.64
  -1  -4   2  154.37   12.86
  -1  -4   3 1214.40   46.40
  -1  -4   3 1245.43   39.95
  -1  -4   3 1248.98   40.96
  -1  -4   3 1180.90   29.13
  -1  -4   4 1020.01   44.33
  -1  -4   4 1055.95   38.62
  -1  -4   5  334.93   26.27
  -1  -4   5  261.30   20.49
  -1  -4   6    9.46    7.35
  -1  -4   6   17.54    8.36
  -1  -4   7    3.63    5.77
  -1  -4   7    5.00    7.93
  -1  -4   8  188.07   21.47
  -1  -4   8  163.40   20.49
  -1  -4   8  167.76   22.74
  -1  -4   9   56.15   13.17
  -1  -4   9   53.59   13.84
  -1  -4   9   50.62   11.52
  -1  -4  10   16.98    8.24
  -1  -4  10   24.19   10.91
  -1  -4  11   29.19   11.17
  -1  -4  11   33.78   12.81
  -1  -4  12    1.48    7.43
  -1  -4  12   -5.31    8.77
  -1  -4  13   19.04   10.42
  -1  -4  13   21.65   13.27
  -1  -4  13   14.02    9.15
  -1  -4  14   44.02   15.01
  -1  -4  14   32.15   11.73
  -1  -4  14   40.05   14.38
  -1  -4  15   43.82   15.77
  -1  -4  15   15.95   12.12
  -1  -4  15   29.78   13.57
  -1  -4  16   -2.62    8.01
  -1  -3 -18   39.47   16.95
  -1  -3 -18    6.41   10.16
  -1  -3 -17   32.38   16.46
  -1  -3 -17   60.03   19.03
  -1  -3 -16   12.93   10.81
  -1  -3 -16   17.79   11.94
  -1  -3 -15   21.55   12.39
  -1  -3 -15   33.84   14.57
  -1  -3 -14   88.07   19.26
  -1  -3 -14   78.79   18.52
  -1  -3 -13  166.85   24.57
  -1  -3 -13  118.29   21.14
  -1  -3 -12  130.13   20.74
  -1  -3 -12  171.75   23.64
  -1  -3 -11  137.32   20.03
  -1  -3 -11  159.17   22.52
  -1  -3 -10  147.86   19.87
  -1  -3 -10  162.65   21.62
  -1  -3  -9  199.08   22.12
  -1  -3  -9  165.63   19.53
  -1  -3  -8  578.92   34.96
  -1  -3  -8  580.72   32.47
  -1  -3  -7  168.14   16.56
  -1  -3  -7  172.43   18.24
  -1  -3  -7  181.18   17.52
  -1  -3  -6 1145.94   38.95
  -1  -3  -6 1136.13   40.45
  -1  -3  -6 1095.11   42.46
  -1  -3  -5 2617.89   52.87
  -1  -3  -5 2795.41   61.02
  -1  -3  -4  282.80   15.54
  -1  -3  -4  323.15   20.32
  -1  -3  -3  368.68   15.30
  -1  -3  -3  367.42   13.12
  -1  -3  -3  390.53   21.91
  -1  -3  -2  900.82   31.28
  -1  -3  -2  892.22   32.06
  -1  -3  -2  919.45   20.03
  -1  -3  -2  929.28   19.63
  -1  -3  -1   43.97    7.40
  -1  -3  -1   38.94    3.58
  -1  -3  -1   42.65    7.22
  -1  -3   0  749.48   27.35
  -1  -3   0  717.43   24.59
  -1  -3   0  682.97   26.51
  -1  -3   0  675.85   17.13
  -1  -3   1  129.27   10.94
  -1  -3   1  166.64   13.31
  -1  -3   1  139.63    9.94
  -1  -3   1  142.71   13.06
  -1  -3   2  251.83   15.76
  -1  -3   2  242.45   14.85
  -1  -3   2  235.56   15.63
  -1  -3   2  244.12   11.61
  -1  -3   3 4757.09   82.44
  -1  -3   3 4766.70   72.30
  -1  -3   3 4934.96   77.45
  -1  -3   4 1781.94   52.52
  -1  -3   4 1710.42   46.03
  -1  -3   5  169.40   16.94
  -1  -3   5  152.08   15.53
  -1  -3   6  174.55   18.22
  -1  -3   6  142.00   16.53
  -1  -3   7  300.20   24.22
  -1  -3   7  276.84   23.79
  -1  -3   8  145.91   18.99
  -1  -3   8  129.87   16.16
  -1  -3   8  132.44   19.06
  -1  -3   9  216.85   22.14
  -1  -3   9  208.19   25.03
  -1  -3  10    8.01    7.76
  -1  -3  10   10.79   10.10
  -1  -3  11    7.90    7.24
  -1  -3  11    8.21    8.56
  -1  -3  12   74.64   15.98
  -1  -3  12   89.31   19.45
  -1  -3  13   48.21   13.65
  -1  -3  13   53.12   15.54
  -1  -3  14    7.50    8.88
  -1  -3  14    0.67   10.10
  -1  -3  14    1.12    6.41
  -1  -3  15    4.27    7.81
  -1  -3  15   -1.94    9.80
  -1  -3  16   -4.24    8.24
  -1  -3  16   -7.44   12.20
  -1  -3  17   17.58   11.18
  -1  -2 -18   99.92   24.49
  -1  -2 -18   82.70   21.08
  -1  -2 -17   21.64   14.96
  -1  -2 -17   -0.78   11.16
  -1  -2 -16   30.69   13.35
  -1  -2 -16   44.51   18.02
  -1  -2 -15   12.67    7.89
  -1  -2 -15    2.11   11.06
  -1  -2 -14    6.17    9.44
  -1  -2 -14   23.03   11.79
  -1  -2 -13   15.51    9.12
  -1  -2 -13   23.90   11.75
  -1  -2 -12   76.76   16.48
  -1  -2 -12   47.88   13.21
  -1  -2 -12   64.46   11.19
  -1  -2 -11  237.60   25.84
  -1  -2 -11  269.37   27.58
  -1  -2 -11  275.48   20.41
  -1  -2 -10   33.94   10.92
  -1  -2 -10   40.36   12.66
  -1  -2  -9  226.79   22.49
  -1  -2  -9  229.70   22.67
  -1  -2  -8  250.01   21.19
  -1  -2  -8  247.51   22.22
  -1  -2  -7   40.45    8.65
  -1  -2  -7   35.63    9.09
  -1  -2  -6   41.85    9.98
  -1  -2  -6   50.37    9.17
  -1  -2  -5  123.41   12.29
  -1  -2  -5  118.47   12.20
  -1  -2  -4 9999.00   97.73
  -1  -2  -4 9844.90   80.53
  -1  -2  -3  934.76   23.27
  -1  -2  -3 1017.71   30.03
  -1  -2  -3 1006.10   21.36
  -1  -2  -2 3816.29   36.36
  -1  -2  -2 3962.40   41.70
  -1  -2  -2 4004.74   55.79
  -1  -2  -2 3944.95   33.49
  -1  -2  -1 2546.74   33.22
  -1  -2  -1 2557.49   44.99
  -1  -2  -1 2571.54   37.48
  -1  -2  -1 2551.05   25.99
  -1  -2   0 3325.05   44.37
  -1  -2   0 3267.46   50.11
  -1  -2   0 3264.45   38.10
  -1  -2   0 3170.32   35.67
  -1  -2   1 8281.31   59.13
  -1  -2   1 8266.28   78.61
  -1  -2   1 8069.56   69.82
  -1  -2   2 2142.47   41.41
  -1  -2   2 2202.90   43.21
  -1  -2   3  797.52   30.36
  -1  -2   3  828.15   28.30
  -1  -2   3  805.24   29.77
  -1  -2   4 1257.16   39.08
  -1  -2   4 1272.07   37.78
  -1  -2   4 1261.26   41.18
  -1  -2   5  431.96   23.79
  -1  -2   5  434.70   24.49
  -1  -2   5  448.02   26.93
  -1  -2   6 1311.62   42.53
  -1  -2   6 1227.76   44.40
  -1  -2   6 1290.03   48.99
  -1  -2   7  195.74   17.33
  -1  -2   7  202.98   21.46
  -1  -2   7  194.88   19.67
  -1  -2   8   24.57    6.58
  -1  -2   8   29.87   10.10
  -1  -2   9  194.33   18.81
  -1  -2   9  194.62   24.11
  -1  -2  10  129.23   16.44
  -1  -2  10  152.70   22.59
  -1  -2  11  101.05   15.43
  -1  -2  11   98.93   15.04
  -1  -2  11  100.90   19.67
  -1  -2  12   54.22   12.55
  -1  -2  12   48.38   11.59
  -1  -2  12   67.19   16.47
  -1  -2  13   16.56    9.50
  -1  -2  13   12.16    9.61
  -1  -2  14    9.11    9.67
  -1  -2  15    8.49    8.12
  -1  -2  15    8.88    9.91
  -1  -2  16   19.09   10.31
  -1  -2  16    2.13    8.71
  -1  -2  17   43.66   17.91
  -1  -1 -19  -10.01   11.99
  -1  -1 -18   54.24   18.89
  -1  -1 -18   56.00   19.09
  -1  -1 -17   38.86   15.28
  -1  -1 -17   -6.37   10.46
  -1  -1 -16   12.23   11.18
  -1  -1 -16   -0.56   11.59
  -1  -1 -15   41.94   14.77
  -1  -1 -15   16.79   10.11
  -1  -1 -14   66.07   17.96
  -1  -1 -14   83.72   18.97
  -1  -1 -13  265.59   28.63
  -1  -1 -13  237.53   22.74
  -1  -1 -12   26.58   10.62
  -1  -1 -12   19.39    9.40
  -1  -1 -12   11.06    6.73
  -1  -1 -11  162.56   16.98
  -1  -1 -11  121.47   18.92
  -1  -1 -11  150.06   20.70
  -1  -1 -10  216.10   23.08
  -1  -1 -10  144.46   18.62
  -1  -1 -10  184.59   17.20
  -1  -1  -9  753.62   39.20
  -1  -1  -9  804.35   39.45
  -1  -1  -9  757.57   31.60
  -1  -1  -8  306.36   23.46
  -1  -1  -8  300.65   19.32
  -1  -1  -8  319.24   24.21
  -1  -1  -7  434.74   26.04
  -1  -1  -7  385.15   24.46
  -1  -1  -6   12.01    5.21
  -1  -1  -6    2.64    4.66
  -1  -1  -6   10.87    6.34
  -1  -1  -5    4.19    3.80
  -1  -1  -5    7.30    4.99
  -1  -1  -5    2.89    5.62
  -1  -1  -4 3397.51   53.03
  -1  -1  -4 3331.78   51.53
  -1  -1  -3  774.41   21.80
  -1  -1  -3  791.62   21.92
  -1  -1  -2   82.82    6.21
  -1  -1  -2   94.57    7.54
  -1  -1  -2   82.73    6.26
  -1  -1  -1  942.68   19.82
  -1  -1  -1  933.14   19.62
  -1  -1  -1  882.59   17.81
  -1  -1   0 3789.74   41.38
  -1  -1   0 3667.91   38.51
  -1  -1   1  450.68   15.66
  -1  -1   1  420.59   15.33
  -1  -1   2 4644.55   54.99
  -1  -1   2 4488.96   58.11
  -1  -1   3  234.01   13.46
  -1  -1   3  235.94   14.87
  -1  -1   3  230.03   15.55
  -1  -1   4 1177.11   31.39
  -1  -1   4 1206.68   38.55
  -1  -1   4 1242.50   35.67
  -1  -1   5  867.25   28.77
  -1  -1   5  860.03   35.73
  -1  -1   5  805.48   32.63
  -1  -1   6  525.39   23.00
  -1  -1   6  543.68   29.04
  -1  -1   6  587.82   31.96
  -1  -1   7  351.97   19.89
  -1  -1   7  339.24   20.10
  -1  -1   7  382.49   27.79
  -1  -1   8  651.26   28.55
  -1  -1   8  600.60   28.96
  -1  -1   8  696.20   40.32
  -1  -1   9  191.73   18.00
  -1  -1   9  198.05   17.07
  -1  -1   9  191.27   23.12
  -1  -1  10  634.87   31.40
  -1  -1  10  634.56   34.29
  -1  -1  10  689.78   44.83
  -1  -1  11   36.69    9.47
  -1  -1  11   21.62    7.75
  -1  -1  11   13.24    8.25
  -1  -1  12   70.12   12.64
  -1  -1  12   61.13   13.22
  -1  -1  12   59.75   16.17
  -1  -1  13   57.51   16.34
  -1  -1  13   28.76    9.24
  -1  -1  14  220.99   30.82
  -1  -1  15   51.77   14.70
  -1  -1  15   32.74   15.11
  -1  -1  16   31.56   15.10
  -1  -1  16   27.98   13.42
  -1  -1  17    8.87   11.85
  -1  -1  17   -5.03   11.33
  -1  -1  18    0.21    7.48
  -1   0 -19   15.51   15.47
  -1   0 -18    5.73    9.65
  -1   0 -18  -16.61   11.30
  -1   0 -17   26.90   11.90
  -1   0 -17   10.99   11.44
  -1   0 -16  -11.11   13.64
  -1   0 -16   38.37   15.15
  -1   0 -15   -7.46   11.59
  -1   0 -15   24.46   12.61
  -1   0 -14  120.05   22.24
  -1   0 -14  133.42   19.03
  -1   0 -14  127.34   20.76
  -1   0 -13  187.61   25.83
  -1   0 -13  231.99   25.97
  -1   0 -13  171.21   21.06
  -1   0 -12   85.44   17.01
  -1   0 -12   80.76   15.95
  -1   0 -12   85.29   13.64
  -1   0 -11   73.09   15.00
  -1   0 -11   55.48   11.14
  -1   0 -11   75.17   14.31
  -1   0 -10  106.52   16.90
  -1   0 -10  122.62   17.45
  -1   0 -10  128.40   15.38
  -1   0  -9  351.55   27.40
  -1   0  -9  324.81   24.37
  -1   0  -9  373.46   24.21
  -1   0  -8   21.89    8.72
  -1   0  -8   35.65    8.41
  -1   0  -8   23.31    6.80
  -1   0  -7  125.81   15.33
  -1   0  -7  119.48   13.69
  -1   0  -7  107.86    6.13
  -1   0  -7  125.16   12.95
  -1   0  -6  256.70   19.12
  -1   0  -6  249.88   16.45
  -1   0  -6  240.39   17.24
  -1   0  -6  210.34    8.76
  -1   0  -6  215.73   17.66
  -1   0  -5 1073.26   34.64
  -1   0  -5  991.91   30.60
  -1   0  -5 1015.52   30.20
  -1   0  -5 1052.48   20.02
  -1   0  -5 1058.20   35.01
  -1   0  -4 2393.52   46.26
  -1   0  -4 2199.65   40.86
  -1   0  -4 2291.89   45.86
  -1   0  -3   43.32    6.46
  -1   0  -3   41.32    5.53
  -1   0  -3   59.34    7.41
  -1   0  -2  724.66   19.87
  -1   0  -2  723.97   20.08
  -1   0   1  211.33    8.28
  -1   0   1  219.16    9.43
  -1   0   1  220.11   11.10
  -1   0   2  663.44   16.71
  -1   0   2  694.84   20.15
  -1   0   2  667.69   21.76
  -1   0   3 2009.15   27.79
  -1   0   3 2046.28   34.39
  -1   0   3 2078.71   41.07
  -1   0   3 2017.25   42.63
  -1   0   4  164.16    8.77
  -1   0   4  169.27   11.45
  -1   0   4  166.96    8.64
  -1   0   4  159.25   13.84
  -1   0   4  154.44   13.12
  -1   0   5 2464.78   36.92
  -1   0   5 2521.28   48.57
  -1   0   5 2482.36   31.35
  -1   0   5 2510.05   58.00
  -1   0   6   35.67    6.73
  -1   0   6   28.15    3.33
  -1   0   6   32.78    5.15
  -1   0   6   53.05   10.53
  -1   0   7  111.12   15.06
  -1   0   7  101.07   11.92
  -1   0   7  107.41    9.58
  -1   0   7   93.84    5.56
  -1   0   8  102.36   13.08
  -1   0   8  110.92   10.90
  -1   0   8  115.03   16.29
  -1   0   9   53.46    8.58
  -1   0   9   38.67    9.08
  -1   0   9   53.55   10.52
  -1   0   9   46.48   11.47
  -1   0  10  305.76   25.06
  -1   0  10  321.50   23.15
  -1   0  10  366.55   31.85
  -1   0  10  291.62   19.44
  -1   0  11   45.86    8.93
  -1   0  11   49.66   11.30
  -1   0  11   62.78   11.05
  -1   0  11   48.64   13.81
  -1   0  12  114.11   17.45
  -1   0  12  101.27   17.63
  -1   0  12  108.62   19.67
  -1   0  13   41.37   11.45
  -1   0  13   58.51   15.44
  -1   0  13   59.26   16.55
  -1   0  14   50.97   13.62
  -1   0  14   80.05   18.16
  -1   0  14   78.41   18.94
  -1   0  15   -1.79    7.05
  -1   0  15   14.03   10.69
  -1   0  16   -6.33    9.13
  -1   0  16   -2.92    7.53
  -1   0  17   36.13   15.80
  -1   0  17   27.95   12.62
  -1   0  18   -2.34    9.38
  -1   1 -18   41.47   19.28
  -1   1 -18   14.25   13.55
  -1   1 -17   28.68   15.32
  -1   1 -17   24.14   12.50
  -1   1 -16  216.01   31.69
  -1   1 -16  181.70   25.43
  -1   1 -15   20.47   11.82
  -1   1 -15   19.66   11.88
  -1   1 -15   -1.93    6.54
  -1   1 -14   83.53   19.07
  -1   1 -14   95.64   18.92
  -1   1 -14   66.93   16.85
  -1   1 -13  179.75   25.06
  -1   1 -13  122.33   19.31
  -1   1 -13  146.69   21.21
  -1   1 -12  140.68   21.74
  -1   1 -12  165.95   20.24
  -1   1 -12  168.13   21.20
  -1   1 -11  400.73   33.52
  -1   1 -11  369.86   28.25
  -1   1 -11  405.80   30.52
  -1   1 -10  224.03   24.03
  -1   1 -10  222.05   20.79
  -1   1 -10  192.57   20.39
  -1   1  -9   91.76   15.26
  -1   1  -9   83.79   12.68
  -1   1  -9   52.63   10.96
  -1   1  -8  405.10   28.03
  -1   1  -8  350.67   22.49
  -1   1  -8  351.41   15.91
  -1   1  -8  365.05   24.91
  -1   1  -7  763.73   35.73
  -1   1  -7  730.74   29.33
  -1   1  -7  724.79   23.57
  -1   1  -7  708.64   32.36
  -1   1  -7  782.85   37.33
  -1   1  -6 1037.45   38.68
  -1   1  -6 1030.54   28.11
  -1   1  -6  971.29   30.83
  -1   1  -6  977.57   35.37
  -1   1  -6  978.52   38.65
  -1   1  -5  192.82   16.42
  -1   1  -5  192.45   12.19
  -1   1  -5  175.91   12.37
  -1   1  -5  175.19   14.78
  -1   1  -5  200.31   16.49
  -1   1  -4   82.98    7.53
  -1   1  -4   73.40    9.92
  -1   1  -4   88.94    8.35
  -1   1  -4   74.06    9.93
  -1   1  -4   85.48   10.30
  -1   1  -3  675.30   19.79
  -1   1  -3  680.86   24.39
  -1   1  -3  715.11   22.24
  -1   1  -3  637.76   15.61
  -1   1  -3  688.89   24.11
  -1   1  -3  704.62   24.98
  -1   1  -2  444.13   15.91
  -1   1  -2  436.30   17.68
  -1   1  -2  484.54   18.23
  -1   1  -2  441.17   17.64
  -1   1  -1 1451.17   31.56
  -1   1  -1 1377.11   28.82
  -1   1  -1 1415.49   27.42
  -1   1  -1 1333.47   28.77
  -1   1  -1 1362.38   27.62
  -1   1   0 1054.21   25.93
  -1   1   0  931.17   19.35
  -1   1   0 1051.94   26.32
  -1   1   0 1071.49   19.98
  -1   1   0  949.76   24.31
  -1   1   0  956.89   22.69
  -1   1   1 1304.20   30.70
  -1   1   1 1363.36   30.56
  -1   1   1 1299.19   27.54
  -1   1   1 1334.06   17.97
  -1   1   1 1277.28   23.47
  -1   1   1 1409.96   30.83
  -1   1   2  283.01   15.28
  -1   1   2  270.32   14.90
  -1   1   2  284.20   14.99
  -1   1   2  267.67   13.68
  -1   1   2  256.18   13.62
  -1   1   3  858.20   27.91
  -1   1   3  902.29   28.27
  -1   1   3  888.41   25.06
  -1   1   3  882.51   27.87
  -1   1   3  939.28   29.20
  -1   1   4  642.13   25.76
  -1   1   4  646.95   25.70
  -1   1   4  669.88   27.00
  -1   1   4  635.01   21.18
  -1   1   4  593.44   25.21
  -1   1   5  421.36   22.68
  -1   1   5  394.26   21.93
  -1   1   5  445.20   18.12
  -1   1   5  428.96   23.26
  -1   1   5  437.50   23.76
  -1   1   5  407.59   11.02
  -1   1   6  135.39   14.41
  -1   1   6  125.97   13.38
  -1   1   6  112.27   13.19
  -1   1   6  128.36   10.10
  -1   1   6  142.33   14.62
  -1   1   6  114.06    7.54
  -1   1   7  454.98   27.42
  -1   1   7  429.11   26.09
  -1   1   7  463.74   19.01
  -1   1   7  420.59   24.53
  -1   1   7  455.01   28.13
  -1   1   7  453.47   16.85
  -1   1   8   53.24   11.14
  -1   1   8   50.69    6.88
  -1   1   8   49.15    6.05
  -1   1   8   44.31    9.30
  -1   1   8   65.37   11.21
  -1   1   8   53.65   10.68
  -1   1   9  326.01   25.77
  -1   1   9  329.72   27.64
  -1   1   9  309.62   22.40
  -1   1   9  341.71   27.14
  -1   1   9  278.13   16.28
  -1   1  10  533.53   34.57
  -1   1  10  543.68   30.66
  -1   1  10  538.86   37.56
  -1   1  10  524.75   35.41
  -1   1  11  215.90   23.29
  -1   1  11  188.78   18.60
  -1   1  11  231.10   24.83
  -1   1  11  215.47   25.67
  -1   1  12  100.64   18.44
  -1   1  12  102.91   17.88
  -1   1  12   96.60   18.35
  -1   1  13   64.72   14.45
  -1   1  13   56.55   14.27
  -1   1  13   76.17   17.69
  -1   1  14  183.57   27.80
  -1   1  14  167.46   24.46
  -1   1  14  190.74   26.18
  -1   1  15   73.84   19.62
  -1   1  15   75.26   18.25
  -1   1  15   55.14   15.35
  -1   1  16   13.27   10.85
  -1   1  16    3.64   11.29
  -1   1  17   10.44    9.98
  -1   1  17    3.17    8.48
  -1   1  18    3.06    9.73
  -1   1  18    9.93   10.85
  -1   2 -17    7.62    9.52
  -1   2 -16   65.85   19.22
  -1   2 -16   79.80   19.43
  -1   2 -15   21.16   11.74
  -1   2 -15   -6.99    8.62
  -1   2 -15   16.58    9.76
  -1   2 -14   28.73   14.16
  -1   2 -14   48.30   14.61
  -1   2 -14   32.83   11.60
  -1   2 -13   52.23   14.34
  -1   2 -13   77.36   15.75
  -1   2 -13   50.18   13.83
  -1   2 -12  229.46   27.77
  -1   2 -12  183.91   21.63
  -1   2 -12  253.34   28.19
  -1   2 -11   72.91   15.76
  -1   2 -11   67.32   12.40
  -1   2 -11   85.19   16.83
  -1   2 -10  277.28   26.82
  -1   2 -10  281.51   22.71
  -1   2 -10  280.15   26.70
  -1   2  -9   -9.08    7.41
  -1   2  -9    2.63    5.32
  -1   2  -9    6.62    7.46
  -1   2  -8   68.78   12.92
  -1   2  -8   76.60   13.50
  -1   2  -8   80.21   10.44
  -1   2  -8   53.41    9.71
  -1   2  -7 1741.57   47.27
  -1   2  -7 1861.51   57.31
  -1   2  -7 1811.01   43.80
  -1   2  -7 1838.31   57.84
  -1   2  -7 1774.00   58.50
  -1   2  -6   10.23    4.83
  -1   2  -6   13.22    6.17
  -1   2  -6   17.63    7.08
  -1   2  -6    8.18    5.99
  -1   2  -6   18.66    5.48
  -1   2  -5   14.94    5.41
  -1   2  -5   19.84    6.47
  -1   2  -5   21.72    7.36
  -1   2  -5   28.27    5.05
  -1   2  -5   14.43    5.71
  -1   2  -5   33.81    7.30
  -1   2  -4  274.92   11.48
  -1   2  -4  304.28   19.93
  -1   2  -4  275.50   18.93
  -1   2  -4  276.05   17.26
  -1   2  -4  282.72   18.99
  -1   2  -3 1757.39   42.48
  -1   2  -3 1708.64   21.75
  -1   2  -3 1721.21   45.68
  -1   2  -3 1705.12   41.54
  -1   2  -3 1788.51   44.80
  -1   2  -3 1755.32   41.94
  -1   2  -2 8105.20   90.14
  -1   2  -2 8519.86   93.26
  -1   2  -2 8473.81  100.37
  -1   2  -2 8559.66   90.35
  -1   2  -2 8371.02   83.09
  -1   2  -1  998.88   32.17
  -1   2  -1 1087.45   33.67
  -1   2  -1 1036.86   33.81
  -1   2  -1  994.10   34.34
  -1   2  -1  990.03   28.53
  -1   2  -1  967.64   25.81
  -1   2   0  125.78    5.79
  -1   2   0  120.31    9.43
  -1   2   0  122.52   11.80
  -1   2   0  121.74   12.06
  -1   2   0   89.63   10.83
  -1   2   0  121.23   11.94
  -1   2   0  121.18    7.33
  -1   2   0  119.90    8.76
  -1   2   1  190.61   10.97
  -1   2   1  189.55   14.53
  -1   2   1  187.29    8.43
  -1   2   1  196.69   14.83
  -1   2   1  187.44   14.81
  -1   2   1  185.89   14.96
  -1   2   1  185.70   14.95
  -1   2   1  186.54   11.08
  -1   2   2 3744.27   67.50
  -1   2   2 3901.30   64.48
  -1   2   2 4052.65   66.89
  -1   2   2 3660.67   65.11
  -1   2   2 3687.76   41.64
  -1   2   2 3905.43   66.24
  -1   2   2 3726.00   51.22
  -1   2   3 2486.90   56.67
  -1   2   3 2582.58   54.56
  -1   2   3 2265.94   25.29
  -1   2   3 2437.84   53.83
  -1   2   3 2369.57   49.57
  -1   2   3 2400.01   53.41
  -1   2   3 2413.00   45.22
  -1   2   4   12.30    4.51
  -1   2   4    9.53    3.73
  -1   2   4   16.17    5.68
  -1   2   4   20.90    6.05
  -1   2   4   13.50    5.63
  -1   2   4   11.81    5.35
  -1   2   5    6.23    4.60
  -1   2   5    2.57    3.21
  -1   2   5    4.23    4.78
  -1   2   5    6.99    5.19
  -1   2   5    2.23    4.20
  -1   2   5   11.44    5.36
  -1   2   6  209.66   19.41
  -1   2   6  214.94   18.19
  -1   2   6  189.05   17.78
  -1   2   6  224.08   17.12
  -1   2   6  222.72   18.13
  -1   2   7 1382.48   51.45
  -1   2   7 1429.99   47.15
  -1   2   7 1408.94   50.01
  -1   2   7 1487.86   43.93
  -1   2   7 1467.40   49.41
  -1   2   8  231.37   22.38
  -1   2   8  231.47   21.65
  -1   2   8  267.38   21.70
  -1   2   8  221.98   16.94
  -1   2   8  249.65   22.12
  -1   2   9  202.66   21.88
  -1   2   9  176.23   18.21
  -1   2   9  168.40   19.45
  -1   2   9  169.68   19.88
  -1   2  10   83.00   14.77
  -1   2  10  109.06   14.84
  -1   2  10   89.51   15.76
  -1   2  10   84.12   15.20
  -1   2  11   32.25   11.10
  -1   2  11   35.87   11.43
  -1   2  11   33.68    8.78
  -1   2  11   25.59    9.91
  -1   2  12  173.01   23.23
  -1   2  12  157.18   22.51
  -1   2  12  159.70   22.68
  -1   2  13   16.03    9.32
  -1   2  13    4.22    6.81
  -1   2  13    5.09    7.18
  -1   2  14   63.51   16.63
  -1   2  14   51.60   14.80
  -1   2  14   42.65   14.08
  -1   2  15   60.71   17.58
  -1   2  15   63.22   17.12
  -1   2  15   58.53   14.80
  -1   2  16    7.47   10.30
  -1   2  16   10.24    6.73
  -1   2  16   -0.98   10.30
  -1   2  17   -9.07    9.94
  -1   2  17   22.14   11.49
  -1   2  18   15.08   13.65
  -1   2  18   -2.12   10.44
  -1   3 -17   15.67   13.02
  -1   3 -17   55.24   17.95
  -1   3 -16   50.87   16.48
  -1   3 -16   38.36   17.81
  -1   3 -15   13.31   10.01
  -1   3 -15   27.62   13.86
  -1   3 -14   41.16   13.66
  -1   3 -14   22.55   12.19
  -1   3 -13    2.89    8.07
  -1   3 -13   -9.03   12.35
  -1   3 -12   89.64   18.27
  -1   3 -12   95.11   18.93
  -1   3 -11   11.71    7.96
  -1   3 -11   25.98   10.22
  -1   3 -11   34.57    9.63
  -1   3 -10  250.49   26.53
  -1   3 -10  250.87   21.32
  -1   3 -10  250.12   27.76
  -1   3  -9  569.28   37.15
  -1   3  -9  549.35   28.35
  -1   3  -9  588.01   39.79
  -1   3  -8  206.05   21.71
  -1   3  -8  217.99   16.84
  -1   3  -8  207.50   20.06
  -1   3  -8  215.69   23.26
  -1   3  -7  294.03   24.44
  -1   3  -7  298.61   20.65
  -1   3  -7  309.87   17.81
  -1   3  -7  304.90   24.03
  -1   3  -7  320.62   27.55
  -1   3  -6  487.81   26.52
  -1   3  -6  505.73   30.92
  -1   3  -6  524.85   20.66
  -1   3  -6  567.44   34.23
  -1   3  -6  510.38   30.85
  -1   3  -5  188.81   19.12
  -1   3  -5  225.17   20.77
  -1   3  -5  226.03   12.15
  -1   3  -5  210.25   17.97
  -1   3  -5  214.21   19.07
  -1   3  -4   91.32   12.39
  -1   3  -4   96.83    7.19
  -1   3  -4  109.78   14.65
  -1   3  -4  104.11   14.03
  -1   3  -4  105.36   12.34
  -1   3  -3   20.14    7.10
  -1   3  -3   25.27    7.46
  -1   3  -3   16.52    5.51
  -1   3  -3   25.60    6.94
  -1   3  -3   20.89    3.80
  -1   3  -2   56.35   10.55
  -1   3  -2   44.98    7.33
  -1   3  -2   50.98    9.92
  -1   3  -2   45.82    4.72
  -1   3  -2   43.40    8.77
  -1   3  -2   55.39    9.01
  -1   3  -1  127.40   14.44
  -1   3  -1  127.30   15.50
  -1   3  -1  134.47   14.99
  -1   3  -1  111.94   12.04
  -1   3  -1  114.70    6.83
  -1   3  -1  118.37   10.10
  -1   3   0  395.94   24.47
  -1   3   0  425.96   25.35
  -1   3   0  355.85   23.51
  -1   3   0  371.39   25.62
  -1   3   0  399.22   21.22
  -1   3   0  330.94   12.31
  -1   3   0  375.03   16.49
  -1   3   1  159.63   16.30
  -1   3   1  174.68   16.51
  -1   3   1  118.43   14.74
  -1   3   1  139.81    6.88
  -1   3   1  119.03   14.09
  -1   3   1  162.80   16.00
  -1   3   1  142.81    9.33
  -1   3   1  141.83   12.26
  -1   3   1  150.10   10.43
  -1   3   2  410.26   25.88
  -1   3   2  325.27   23.97
  -1   3   2  387.05   17.09
  -1   3   2  412.70   25.33
  -1   3   2  366.35   18.11
  -1   3   2  400.38   24.89
  -1   3   2  353.29   23.85
  -1   3   3  196.34   18.49
  -1   3   3  193.69   17.82
  -1   3   3  198.70   18.79
  -1   3   3  195.75   17.75
  -1   3   3  174.75   17.16
  -1   3   3  168.06   12.20
  -1   3   3  181.11   11.49
  -1   3   4  146.74   16.93
  -1   3   4  147.80   16.00
  -1   3   4  124.33   14.71
  -1   3   4  140.26   16.04
  -1   3   4  110.97   14.55
  -1   3   4  130.15   11.62
  -1   3   5  111.17   13.79
  -1   3   5   71.74   12.34
  -1   3   5  103.97   13.64
  -1   3   5   97.91   13.69
  -1   3   5  100.65   13.77
  -1   3   5  105.22   11.72
  -1   3   6  160.95   18.71
  -1   3   6  142.71   16.63
  -1   3   6  151.20   17.04
  -1   3   6  138.28   14.98
  -1   3   6  143.15   16.75
  -1   3   6  146.23   14.79
  -1   3   7  652.23   38.26
  -1   3   7  632.15   34.56
  -1   3   7  659.05   36.72
  -1   3   7  664.55   35.16
  -1   3   7  645.04   30.59
  -1   3   7  646.16   32.62
  -1   3   8  116.49   16.88
  -1   3   8  129.02   17.58
  -1   3   8  112.99   15.74
  -1   3   8  121.57   15.99
  -1   3   8  115.74   15.03
  -1   3   9   25.19    7.55
  -1   3   9   36.64   11.04
  -1   3   9   27.36    8.66
  -1   3   9   53.15   12.06
  -1   3   9   21.79    7.70
  -1   3  10   16.31    8.09
  -1   3  10   46.26   13.24
  -1   3  10   36.90   10.28
  -1   3  10   28.80    9.82
  -1   3  11  275.22   29.43
  -1   3  11  241.75   23.86
  -1   3  11  290.05   28.47
  -1   3  11  239.81   26.91
  -1   3  12  226.62   27.77
  -1   3  12  192.29   25.41
  -1   3  12  220.43   26.28
  -1   3  13    3.31    7.77
  -1   3  13   10.54    9.67
  -1   3  13   14.64   11.49
  -1   3  14   -3.94    7.93
  -1   3  14   15.67   11.00
  -1   3  14   14.31   10.28
  -1   3  15   10.83    9.89
  -1   3  15   -2.40    6.96
  -1   3  15   15.80   10.87
  -1   3  16   26.18   12.52
  -1   3  16   20.39   11.18
  -1   3  16   31.65   13.65
  -1   3  17    9.77    8.24
  -1   3  17   35.44   16.47
  -1   3  17   29.09   13.44
  -1   3  18   18.17   10.78
  -1   4 -16  -12.37    8.78
  -1   4 -16   -6.35   10.48
  -1   4 -15   37.90   15.64
  -1   4 -15   25.29    9.80
  -1   4 -14   21.51   12.50
  -1   4 -14   20.73   11.88
  -1   4 -13   21.76   11.64
  -1   4 -13   20.12   12.05
  -1   4 -12   54.91   16.03
  -1   4 -12   26.56   14.45
  -1   4 -11    6.51    7.09
  -1   4 -11    2.63    7.86
  -1   4 -10   38.30   12.40
  -1   4 -10   39.38   13.83
  -1   4  -9   32.11   11.32
  -1   4  -8   64.64   13.11
  -1   4  -8   86.23   17.04
  -1   4  -8   95.97   14.31
  -1   4  -7  543.97   37.08
  -1   4  -7  600.33   40.75
  -1   4  -7  526.94   31.74
  -1   4  -6  232.93   24.27
  -1   4  -6  208.58   23.81
  -1   4  -6  192.11   19.65
  -1   4  -5 1609.72   61.45
  -1   4  -5 1600.66   40.54
  -1   4  -5 1597.42   62.51
  -1   4  -5 1577.09   54.84
  -1   4  -5 1675.52   54.15
  -1   4  -4  158.41   20.15
  -1   4  -4  169.74   12.18
  -1   4  -4  162.24   19.07
  -1   4  -4  172.80   19.57
  -1   4  -4  164.44   16.21
  -1   4  -3  681.18   22.07
  -1   4  -3  741.02   38.00
  -1   4  -3  725.51   41.77
  -1   4  -3  745.67   38.34
  -1   4  -3  754.86   31.62
  -1   4  -2   29.21    4.74
  -1   4  -2   32.79    9.70
  -1   4  -2   38.19    6.87
  -1   4  -2   22.05    7.92
  -1   4  -2   32.56    9.43
  -1   4  -2   30.28    8.24
  -1   4  -1  365.12   29.71
  -1   4  -1  369.38   27.84
  -1   4  -1  412.34   28.75
  -1   4  -1  391.08   25.74
  -1   4  -1  357.73   14.88
  -1   4  -1  366.33   18.85
  -1   4   0 1413.55   53.03
  -1   4   0 1309.83   25.62
  -1   4   0 1530.42   54.49
  -1   4   0 1487.02   55.66
  -1   4   0 1432.18   57.79
  -1   4   0 1347.89   29.33
  -1   4   0 1412.47   47.35
  -1   4   0 1360.41   33.42
  -1   4   1  192.64   20.11
  -1   4   1  156.01    6.37
  -1   4   1  194.62   20.03
  -1   4   1  204.68   20.85
  -1   4   1  164.68   19.97
  -1   4   1  182.14   11.70
  -1   4   1  188.40   16.60
  -1   4   1  170.24   11.39
  -1   4   1  185.13   19.76
  -1   4   2  751.71   39.65
  -1   4   2  759.95   39.14
  -1   4   2  850.52   40.86
  -1   4   2  789.54   40.54
  -1   4   2  697.06   40.42
  -1   4   2  745.72   25.85
  -1   4   2  756.55   31.65
  -1   4   2  738.74   23.70
  -1   4   3   44.91    6.46
  -1   4   3   43.79   10.91
  -1   4   3   41.15   10.62
  -1   4   3   45.00   10.52
  -1   4   3   40.60    9.79
  -1   4   3   45.94    7.92
  -1   4   3   50.48   12.25
  -1   4   4  131.03   17.90
  -1   4   4  106.91   10.27
  -1   4   4  128.69   17.26
  -1   4   4  115.32   16.17
  -1   4   4  103.50   15.61
  -1   4   4  114.94   16.91
  -1   4   4  112.33   10.53
  -1   4   5  528.23   36.20
  -1   4   5  609.44   38.07
  -1   4   5  591.15   35.48
  -1   4   5  543.66   34.48
  -1   4   5  529.96   32.11
  -1   4   5  520.57   24.53
  -1   4   6   42.18    7.78
  -1   4   6   40.39   10.22
  -1   4   6   45.62   11.13
  -1   4   6   26.75    9.19
  -1   4   6   20.71    8.22
  -1   4   6   49.45   12.15
  -1   4   7   49.63    9.43
  -1   4   7   65.41   12.53
  -1   4   7   69.22   13.79
  -1   4   7   45.52   11.38
  -1   4   7   56.18   12.44
  -1   4   7   64.32   13.43
  -1   4   8   35.45    8.60
  -1   4   8   46.91   12.46
  -1   4   8   47.09   12.92
  -1   4   8   52.49   12.10
  -1   4   8   40.93    9.96
  -1   4   8   51.18   11.48
  -1   4   9  192.21   24.81
  -1   4   9  185.46   19.23
  -1   4   9  163.10   20.29
  -1   4   9  168.30   21.58
  -1   4   9  204.17   23.10
  -1   4   9  179.25   19.80
  -1   4  10   82.30   14.85
  -1   4  10   91.85   18.66
  -1   4  10   64.50   14.19
  -1   4  10   88.14   16.77
  -1   4  11   43.18   11.47
  -1   4  11   24.16    9.45
  -1   4  11   22.72    8.34
  -1   4  11   25.48   10.29
  -1   4  12   35.23   12.50
  -1   4  12   23.14    9.72
  -1   4  12   23.70    9.99
  -1   4  12   51.17   14.80
  -1   4  13    1.58    7.84
  -1   4  13   10.47    9.13
  -1   4  14   57.99   17.20
  -1   4  14   38.65   15.56
  -1   4  15   45.50   16.16
  -1   4  15   44.37   16.79
  -1   4  16   80.06   21.50
  -1   4  16   65.50   18.68
  -1   4  17   30.30   12.85
  -1   4  17   69.68   19.87
  -1   5 -15   22.33   12.81
  -1   5 -14   28.37   14.34
  -1   5 -13  -12.25   11.02
  -1   5 -12   24.88   12.15
  -1   5 -11    3.18   10.77
  -1   5 -10  174.60   27.71
  -1   5  -9  278.08   33.14
  -1   5  -8   49.90   13.98
  -1   5  -8   79.56   17.07
  -1   5  -8   38.63   11.45
  -1   5  -7  101.36   18.37
  -1   5  -7  107.49   19.40
  -1   5  -7  138.35   19.35
  -1   5  -6  151.53   19.75
  -1   5  -6  109.01   19.24
  -1   5  -6  133.30   21.19
  -1   5  -5  567.50   40.53
  -1   5  -5  576.22   37.62
  -1   5  -4  354.79   30.56
  -1   5  -4  360.76   34.38
  -1   5  -4  408.28   33.23
  -1   5  -4  368.10   25.23
  -1   5  -3   40.55    8.62
  -1   5  -3   43.17   11.83
  -1   5  -3   30.43   10.68
  -1   5  -2   99.02   16.51
  -1   5  -2   91.28   14.74
  -1   5  -2   98.42   18.40
  -1   5  -2  111.33   11.88
  -1   5  -1   29.24    5.85
  -1   5  -1   25.40   10.10
  -1   5  -1   30.06    9.74
  -1   5  -1   29.56   10.17
  -1   5  -1   52.20   11.09
  -1   5   0   81.73   16.62
  -1   5   0   93.74   15.96
  -1   5   0   73.87   14.74
  -1   5   0   97.48    9.02
  -1   5   0  119.65   15.85
  -1   5   0   96.59    9.50
  -1   5   1  104.76   14.44
  -1   5   1  101.45   16.59
  -1   5   1  106.63   16.97
  -1   5   1  124.70   20.44
  -1   5   1  111.56   17.72
  -1   5   1  109.25   10.20
  -1   5   1  102.40    9.18
  -1   5   2  640.11   40.56
  -1   5   2  731.83   43.61
  -1   5   2  667.59   44.34
  -1   5   2  682.95   40.94
  -1   5   2  686.42   34.92
  -1   5   2  653.59   26.58
  -1   5   2  743.13   44.40
  -1   5   3  295.19   28.27
  -1   5   3  223.27   25.90
  -1   5   3  254.58   25.95
  -1   5   3  306.83   28.86
  -1   5   3  284.05   26.34
  -1   5   3  265.72   18.39
  -1   5   3  245.56   19.95
  -1   5   4   76.08   14.25
  -1   5   4   58.65   13.72
  -1   5   4   73.56   15.05
  -1   5   4   71.89   15.11
  -1   5   4   65.48   13.56
  -1   5   4   57.36    9.53
  -1   5   5   60.90   13.35
  -1   5   5   53.65   13.26
  -1   5   5   69.18   14.70
  -1   5   5   37.85   12.15
  -1   5   5   59.72   13.24
  -1   5   6  113.47   17.63
  -1   5   6  114.71   19.87
  -1   5   6  113.09   17.89
  -1   5   6  111.49   19.12
  -1   5   6  135.64   20.02
  -1   5   7   73.76   14.14
  -1   5   7   90.62   17.19
  -1   5   7   58.47   15.65
  -1   5   7   78.15   15.96
  -1   5   7   92.45   16.62
  -1   5   8   58.21   13.37
  -1   5   8  105.04   19.23
  -1   5   8  109.32   18.83
  -1   5   8   77.81   15.50
  -1   5   8   68.80   14.73
  -1   5   9  198.75   27.30
  -1   5   9  233.23   27.18
  -1   5   9  223.08   27.08
  -1   5   9  243.01   28.15
  -1   5   9  241.35   24.67
  -1   5  10   26.86   11.97
  -1   5  10   37.94   11.98
  -1   5  10   27.90   11.21
  -1   5  11   18.01   10.31
  -1   5  11   37.98   11.48
  -1   5  11   15.28    7.55
  -1   5  12   19.60   10.44
  -1   5  12   28.46   10.69
  -1   5  12   15.74    9.80
  -1   5  13   34.13   14.16
  -1   5  13   24.08   11.77
  -1   5  14   41.20   15.30
  -1   5  14   74.13   20.21
  -1   5  15   35.95   15.09
  -1   5  15   51.07   16.04
  -1   5  16   -2.00   11.82
  -1   5  16   10.35    9.89
  -1   6 -13   -0.18   11.59
  -1   6 -12   10.09   13.62
  -1   6 -11  -12.46   12.77
  -1   6 -10  -12.07   12.76
  -1   6  -9   -8.55   13.27
  -1   6  -8   30.29   11.88
  -1   6  -8   23.23   11.02
  -1   6  -8   25.91   10.85
  -1   6  -7   40.92   12.41
  -1   6  -7   45.22   13.62
  -1   6  -7   35.21   12.67
  -1   6  -6   94.36   18.14
  -1   6  -6   91.05   18.79
  -1   6  -6   90.79   18.85
  -1   6  -5   72.97   15.78
  -1   6  -5   98.64   20.18
  -1   6  -5   86.10   17.79
  -1   6  -4   95.16   19.32
  -1   6  -4   51.91   15.65
  -1   6  -4   80.51   16.05
  -1   6  -3   24.93   11.07
  -1   6  -3   23.28   10.95
  -1   6  -3   31.48   11.40
  -1   6  -2  118.57   19.78
  -1   6  -2   80.51   18.64
  -1   6  -2  123.85   19.60
  -1   6  -1  981.71   60.45
  -1   6  -1 1104.86   57.03
  -1   6  -1 1063.91   52.97
  -1   6   0  -12.54   10.18
  -1   6   0    4.83    7.14
  -1   6   0   11.94    9.15
  -1   6   0   -2.35    5.83
  -1   6   1  106.09   18.58
  -1   6   1  127.99   21.54
  -1   6   1  153.42   24.29
  -1   6   1  174.67   20.72
  -1   6   2   59.14   15.04
  -1   6   2   80.16   18.08
  -1   6   2   95.94   18.33
  -1   6   2   82.76   17.21
  -1   6   2   84.36   13.81
  -1   6   3   67.24   12.58
  -1   6   3   61.53   14.88
  -1   6   3   57.66   14.02
  -1   6   3   74.88   16.49
  -1   6   3   50.44   15.30
  -1   6   3   78.01   16.42
  -1   6   4  441.70   38.09
  -1   6   4  383.37   35.76
  -1   6   4  347.38   32.52
  -1   6   4  383.69   37.33
  -1   6   4  414.61   36.85
  -1   6   5  154.85   24.60
  -1   6   5  177.00   24.63
  -1   6   5  182.18   23.25
  -1   6   5  172.02   25.37
  -1   6   5  159.83   23.60
  -1   6   6   13.71    9.65
  -1   6   6   -6.16    6.90
  -1   6   6   -5.91    7.47
  -1   6   6   12.15    9.51
  -1   6   6   12.01    6.87
  -1   6   7  130.15   20.33
  -1   6   7  124.47   21.92
  -1   6   7  124.80   21.96
  -1   6   7  144.53   22.30
  -1   6   7  132.91   22.14
  -1   6   8   18.43    9.91
  -1   6   8   14.48    9.46
  -1   6   8   11.01    8.05
  -1   6   8   28.61   12.76
  -1   6   8   17.60   10.41
  -1   6   9  108.23   18.70
  -1   6   9  129.07   23.34
  -1   6   9  110.18   21.46
  -1   6   9  106.46   20.58
  -1   6   9   93.02   19.53
  -1   6  10    8.80   10.53
  -1   6  10    2.08    7.51
  -1   6  10   10.82    9.03
  -1   6  11    6.89    6.57
  -1   6  11   11.55    7.35
  -1   6  11   12.67    9.39
  -1   6  12   26.15   12.78
  -1   6  12   40.80   13.45
  -1   6  12   30.91   13.96
  -1   6  13   -0.08    9.36
  -1   6  13   14.27   13.99
  -1   6  14    7.37    9.01
  -1   6  14  -14.07   11.24
  -1   6  15   -0.24    7.78
  -1   6  15   34.91   16.29
  -1   7 -11   20.90   13.72
  -1   7 -10  -25.84   13.89
  -1   7  -9   45.00   17.30
  -1   7  -8   32.37   15.65
  -1   7  -7   87.47   19.19
  -1   7  -7   57.42   16.63
  -1   7  -7   73.06   20.22
  -1   7  -6   -4.33    7.85
  -1   7  -6   27.48   13.02
  -1   7  -6   22.91   12.20
  -1   7  -5   25.59   11.52
  -1   7  -5   41.43   14.99
  -1   7  -5   33.51   13.17
  -1   7  -4   86.47   19.57
  -1   7  -4   78.28   19.92
  -1   7  -4   75.13   17.96
  -1   7  -3   71.43   17.59
  -1   7  -3   77.23   18.99
  -1   7  -3   48.88   17.13
  -1   7  -2  136.54   23.47
  -1   7  -2  116.45   23.61
  -1   7  -2  123.68   21.33
  -1   7  -1  136.14   21.42
  -1   7  -1  121.77   21.61
  -1   7  -1   92.62   21.24
  -1   7   0  137.99   23.44
  -1   7   0  100.10   23.14
  -1   7   0  139.72   21.14
  -1   7   1   24.75   12.93
  -1   7   1   49.90   15.14
  -1   7   1   45.98   13.17
  -1   7   1   62.97   17.08
  -1   7   2  171.01   24.89
  -1   7   2  180.85   28.74
  -1   7   2  164.13   25.89
  -1   7   2  208.59   24.37
  -1   7   3   24.25   11.17
  -1   7   3   38.73   13.78
  -1   7   3   41.99   14.93
  -1   7   3   41.05   14.14
  -1   7   4   64.31   16.87
  -1   7   4  110.69   21.46
  -1   7   4  101.07   21.88
  -1   7   4  112.11   22.63
  -1   7   4   96.29   20.50
  -1   7   5   33.73   13.27
  -1   7   5   28.12   13.78
  -1   7   5   30.00   12.79
  -1   7   5   42.35   15.09
  -1   7   5   45.61   16.06
  -1   7   6   -0.87    6.78
  -1   7   6    2.42    8.42
  -1   7   6    5.16    7.35
  -1   7   6    5.02    8.71
  -1   7   6   -5.46    8.93
  -1   7   7    1.98    7.16
  -1   7   7   16.82   10.37
  -1   7   7    7.81   10.63
  -1   7   7   18.30    9.83
  -1   7   7   19.07   11.41
  -1   7   8   55.00   15.38
  -1   7   8   60.73   17.75
  -1   7   8   55.58   16.29
  -1   7   8   45.30   15.10
  -1   7   8   67.17   17.65
  -1   7   9   71.03   17.67
  -1   7   9   49.83   17.94
  -1   7   9   40.94   13.94
  -1   7   9   63.61   17.91
  -1   7   9   26.01   12.45
  -1   7  10   98.08   23.61
  -1   7  10   73.04   19.70
  -1   7  10   56.06   16.03
  -1   7  11   20.98   12.57
  -1   7  11   52.21   16.74
  -1   7  11   28.03   12.61
  -1   7  12   42.96   17.26
  -1   7  12   26.55   12.10
  -1   7  13   31.09   13.40
  -1   7  13   35.54   17.04
  -1   7  14    2.74    7.53
  -1   8  -9   34.44   11.99
  -1   8  -8   59.40   19.25
  -1   8  -7   10.83   12.79
  -1   8  -7    7.34    9.97
  -1   8  -7   -1.60    8.52
  -1   8  -6    1.59    8.84
  -1   8  -6   -3.60    8.64
  -1   8  -5    7.04   11.19
  -1   8  -5  -19.03   12.92
  -1   8  -5    2.71    7.94
  -1   8  -4   50.70   16.06
  -1   8  -4   33.24   18.10
  -1   8  -4   49.31   17.32
  -1   8  -3   53.81   16.51
  -1   8  -3   46.42   19.98
  -1   8  -3   54.68   16.15
  -1   8  -2   23.73   11.98
  -1   8  -2   -0.75   10.46
  -1   8  -2  -10.76    9.59
  -1   8  -1   20.93   12.64
  -1   8  -1   23.91   10.71
  -1   8  -1   18.64    9.05
  -1   8   0   20.00   14.42
  -1   8   0    7.78    9.26
  -1   8   0   15.63    9.23
  -1   8   1  132.30   23.95
  -1   8   1  120.49   25.53
  -1   8   2  108.71   22.02
  -1   8   2   82.67   23.77
  -1   8   3   31.78   14.29
  -1   8   3   24.76   13.46
  -1   8   3   28.02   12.38
  -1   8   4   24.02   12.58
  -1   8   4    7.24   11.52
  -1   8   4    5.00   11.26
  -1   8   5    1.86    9.36
  -1   8   5   -1.89    8.72
  -1   8   5   20.08   12.50
  -1   8   5   23.61   12.12
  -1   8   5   -3.55    9.09
  -1   8   6   96.69   21.73
  -1   8   6  135.98   25.70
  -1   8   6   77.08   21.41
  -1   8   6  107.81   23.86
  -1   8   6   99.07   22.85
  -1   8   7   63.95   18.69
  -1   8   7   68.11   19.09
  -1   8   7   69.09   20.67
  -1   8   7   49.84   17.12
  -1   8   7   61.54   19.17
  -1   8   8   15.05   11.30
  -1   8   8   -8.45   10.84
  -1   8   8   23.39   14.90
  -1   8   8   -9.12   10.69
  -1   8   8   10.49    9.04
  -1   8   9   18.83   13.45
  -1   8   9   -3.85    8.85
  -1   8   9   10.82   12.50
  -1   8   9    4.15   12.08
  -1   8   9   10.80    9.31
  -1   8  10    4.62    9.40
  -1   8  10   -3.59    9.37
  -1   8  10   -2.78    8.52
  -1   8  11    9.05   11.28
  -1   8  11   -8.77   11.11
  -1   8  11   11.97   10.29
  -1   8  12   -0.54    9.14
  -1   9  -7   24.09   14.57
  -1   9  -6   27.15   15.43
  -1   9  -6   28.42   17.43
  -1   9  -6    8.60   11.70
  -1   9  -5   12.95   12.36
  -1   9  -5    1.99   10.48
  -1   9  -5   23.60   14.66
  -1   9  -4   -8.86   10.69
  -1   9  -4   27.00   13.45
  -1   9  -4   15.00   12.92
  -1   9  -3   14.34   12.12
  -1   9  -3   14.89   12.25
  -1   9  -3    2.57    7.60
  -1   9  -2   25.29   14.06
  -1   9  -2    2.88    7.87
  -1   9  -2   12.81   11.96
  -1   9  -1   10.47    9.40
  -1   9  -1   21.41   13.87
  -1   9  -1   37.44   14.19
  -1   9   0   26.80   14.64
  -1   9   0   40.95   17.58
  -1   9   1   17.35   15.72
  -1   9   1   32.44   16.83
  -1   9   2   -7.45   11.53
  -1   9   2   18.32   11.36
  -1   9   3    9.34   10.35
  -1   9   3   29.38   17.25
  -1   9   4   18.64   12.35
  -1   9   4   53.71   21.24
  -1   9   5   12.80    9.72
  -1   9   5   19.54   13.03
  -1   9   6   18.95   14.58
  -1   9   6   21.39   14.10
  -1   9   7    7.51   10.60
  -1   9   7   13.22   13.16
  -1   9   7   26.15   13.92
  -1   9   7   -2.23   13.84
  -1   9   7   13.81   11.38
  -1   9   8   12.06   13.00
  -1   9   8  -10.32   11.17
  -1   9   8    9.46   13.11
  -1   9   8  -27.48   15.13
  -1   9   8    9.28    9.63
  -1   9   9   10.28   14.02
  -1   9   9   14.92   12.92
  -1   9   9   26.63   13.74
  -1   9   9   28.93   16.54
  -1   9  10    2.41    9.44
  -1  10  -3  -35.29   16.07
   0 -10  -7   17.74   12.76
   0 -10  -7   16.26   12.63
   0 -10  -7    9.09   10.18
   0 -10  -7    9.20   10.54
   0 -10  -6   26.87   14.74
   0 -10  -6    7.39   11.84
   0 -10  -6    3.38    9.46
   0 -10  -5   -4.03    9.28
   0 -10  -5   40.83   15.37
   0 -10  -5   27.03   14.52
   0 -10  -5   30.99   17.19
   0 -10  -4   14.57   13.08
   0 -10  -4    3.00    9.16
   0 -10  -4  -15.04   10.67
   0 -10  -4  -11.55   11.14
   0 -10  -3   -3.65   11.10
   0 -10  -3   -2.41    6.48
   0 -10  -3   19.84   12.55
   0 -10  -3   -2.09   10.68
   0 -10  -2   16.77    9.66
   0 -10  -2   28.05   10.33
   0 -10  -2    4.23    9.81
   0 -10  -1   28.28   13.62
   0 -10  -1   14.37    9.90
   0 -10   0   18.40   13.82
   0 -10   0   10.32    9.13
   0 -10   1  -12.24   12.22
   0 -10   1   27.45   14.17
   0 -10   2   -2.02    7.94
   0 -10   2    7.88   11.57
   0 -10   3    1.21    9.70
   0 -10   3   20.58   15.91
   0 -10   4   13.83   10.72
   0  -9 -12   24.78   12.34
   0  -9 -11   13.09   10.59
   0  -9 -10   11.20   12.02
   0  -9 -10   10.76   12.06
   0  -9  -9    6.05   10.84
   0  -9  -9   -3.13   10.36
   0  -9  -8   -5.39    9.42
   0  -9  -8   -8.58   11.01
   0  -9  -8    1.31    9.63
   0  -9  -8   -1.29    7.49
   0  -9  -7    7.00   10.49
   0  -9  -7   -8.76   12.62
   0  -9  -7   14.62   11.83
   0  -9  -7   11.78    9.76
   0  -9  -6    0.26    7.82
   0  -9  -6   -4.89    8.57
   0  -9  -6  -13.22   10.12
   0  -9  -6   -1.10    8.77
   0  -9  -5    8.47    9.08
   0  -9  -5   14.24   10.35
   0  -9  -5    7.57    9.41
   0  -9  -5   10.97   10.80
   0  -9  -4   33.08   14.33
   0  -9  -4   25.16   13.49
   0  -9  -4   11.81    8.13
   0  -9  -4   38.56   15.63
   0  -9  -3   13.83   11.78
   0  -9  -3    9.74   10.00
   0  -9  -3   -2.66    9.08
   0  -9  -3    3.01    7.73
   0  -9  -2   -2.40    9.50
   0  -9  -2   -2.28    8.46
   0  -9  -2    3.07   10.63
   0  -9  -1   16.87    9.42
   0  -9  -1    4.69    9.28
   0  -9  -1   -0.88   11.00
   0  -9   0    8.32    8.95
   0  -9   0   -2.84    8.74
   0  -9   0   -2.76    8.63
   0  -9   1   51.53   14.54
   0  -9   1   31.21   15.09
   0  -9   1   39.00   14.23
   0  -9   2    7.21    9.77
   0  -9   2   -0.21    8.06
   0  -9   2   14.38   10.95
   0  -9   3   -9.41   10.54
   0  -9   3    3.61   11.63
   0  -9   4    6.48    9.12
   0  -9   4   22.59   12.32
   0  -9   5    4.66    9.03
   0  -9   5   49.29   15.77
   0  -9   6  -22.29   12.14
   0  -9   6    9.34   10.20
   0  -9   7   28.19   13.16
   0  -9   7   -1.31    8.27
   0  -9   8   25.99   13.80
   0  -8 -14    7.57   12.17
   0  -8 -13   14.09   14.31
   0  -8 -13   77.02   20.00
   0  -8 -12    9.84   12.27
   0  -8 -12   20.50   12.59
   0  -8 -11   42.33   14.05
   0  -8 -11   37.59   16.76
   0  -8 -10   21.48   12.38
   0  -8  -9   -7.02    8.23
   0  -8  -8   -2.91   10.49
   0  -8  -7   -3.87    7.68
   0  -8  -7   -3.95   10.75
   0  -8  -6   27.50   14.66
   0  -8  -6   70.96   17.59
   0  -8  -6   64.28   15.75
   0  -8  -6   65.22   17.36
   0  -8  -5   23.52   11.81
   0  -8  -5   27.31   12.09
   0  -8  -5   19.67    9.34
   0  -8  -5   16.66   10.23
   0  -8  -4   10.71    5.71
   0  -8  -4   -0.41    9.70
   0  -8  -4   -0.09    9.62
   0  -8  -3   58.64   16.00
   0  -8  -3   74.17   17.00
   0  -8  -3   60.13   16.34
   0  -8  -2    9.65    9.68
   0  -8  -2    2.93    5.90
   0  -8  -2    5.97    8.26
   0  -8  -2   10.48    9.61
   0  -8  -1   78.10   18.03
   0  -8  -1   82.46   16.06
   0  -8  -1   72.28   17.58
   0  -8  -1   59.05   14.75
   0  -8   0   13.71    9.24
   0  -8   0   34.14   10.99
   0  -8   0    6.19    8.82
   0  -8   0   28.80   10.79
   0  -8   1    0.20    8.63
   0  -8   1    7.87    5.67
   0  -8   1   19.64   11.36
   0  -8   1    1.59    8.27
   0  -8   2   44.73   15.06
   0  -8   2   57.43   15.41
   0  -8   2   39.40   15.53
   0  -8   2   52.94   13.45
   0  -8   3   47.49   13.89
   0  -8   3   31.76   13.94
   0  -8   3   32.05   15.06
   0  -8   3   45.05   13.10
   0  -8   4   93.76   18.12
   0  -8   4  109.25   23.69
   0  -8   4  119.43   20.19
   0  -8   5   23.30   10.30
   0  -8   5   29.15   11.98
   0  -8   6   -3.78    9.84
   0  -8   6    2.95    7.19
   0  -8   7  -16.41   12.47
   0  -8   7    5.43    8.17
   0  -8   8    2.80    7.55
   0  -8   8    2.48    7.99
   0  -8   9   13.40   10.52
   0  -8   9   12.30   10.29
   0  -8  10   11.38    9.59
   0  -7 -15  -10.34   13.28
   0  -7 -14   64.08   19.54
   0  -7 -13   83.78   21.52
   0  -7 -12  -12.92   12.16
   0  -7 -12   63.17   17.37
   0  -7 -11   10.48   12.54
   0  -7 -11    2.55    7.04
   0  -7 -10    5.64   10.35
   0  -7 -10   14.95    9.68
   0  -7  -9   52.45   16.62
   0  -7  -9   14.33    9.20
   0  -7  -8  140.10   20.90
   0  -7  -8  119.66   20.45
   0  -7  -7   28.07   11.61
   0  -7  -7   29.46   11.03
   0  -7  -6  100.05   17.28
   0  -7  -6   81.84   15.30
   0  -7  -6   84.36   16.56
   0  -7  -5   24.88    8.14
   0  -7  -5   25.48    9.91
   0  -7  -5   44.66   12.87
   0  -7  -4   12.63    7.06
   0  -7  -4   19.26    9.87
   0  -7  -4   20.69    8.76
   0  -7  -4   26.83    9.43
   0  -7  -3  134.22   21.19
   0  -7  -3  116.89   16.03
   0  -7  -3  145.11   21.89
   0  -7  -3  129.16   21.37
   0  -7  -2  100.70   18.34
   0  -7  -2  102.36   15.07
   0  -7  -2  115.24   20.11
   0  -7  -2   91.09   16.08
   0  -7  -1   19.99   10.13
   0  -7  -1   20.17    8.47
   0  -7  -1   19.68    9.40
   0  -7  -1   16.60   10.23
   0  -7   0    4.97    9.47
   0  -7   0   30.55    9.86
   0  -7   0   18.43    9.02
   0  -7   0   19.93    8.18
   0  -7   0   12.58    6.75
   0  -7   1   19.25   10.14
   0  -7   1   21.24    9.27
   0  -7   1   35.74   12.38
   0  -7   1    9.30    9.39
   0  -7   1   16.57    7.40
   0  -7   2   10.53   10.03
   0  -7   2    4.45    5.80
   0  -7   2   -3.39    7.77
   0  -7   2    4.30    9.55
   0  -7   2   -4.19    6.97
   0  -7   3  255.68   27.13
   0  -7   3  253.12   26.18
   0  -7   3  192.38   25.35
   0  -7   3  234.00   30.25
   0  -7   4   11.34    9.28
   0  -7   4    0.80    6.61
   0  -7   5   12.51    7.71
   0  -7   5   38.43   11.71
   0  -7   6   25.78   10.18
   0  -7   6   59.51   14.68
   0  -7   7   66.01   16.57
   0  -7   7   54.52   14.41
   0  -7   8   43.56   12.34
   0  -7   8   78.21   17.60
   0  -7   9   30.40   12.07
   0  -7   9   47.19   16.04
   0  -7  10    4.95    9.56
   0  -7  10    9.42    8.69
   0  -7  11   29.69   15.67
   0  -7  11   20.74   12.74
   0  -7  12   12.10   10.68
   0  -7  12  -10.95   11.31
   0  -6 -16   22.59   14.30
   0  -6 -16   14.76   12.79
   0  -6 -15   14.02   12.89
   0  -6 -15    4.05    9.00
   0  -6 -14  -13.98   13.56
   0  -6 -14   24.21   12.72
   0  -6 -13    4.82   10.95
   0  -6 -13   34.46   12.68
   0  -6 -12   12.79   13.51
   0  -6 -12   19.05   11.06
   0  -6 -11   20.58   10.43
   0  -6 -11    6.59    8.42
   0  -6 -11   13.42   10.05
   0  -6 -10    7.67    8.19
   0  -6 -10    2.18   10.11
   0  -6 -10   -7.02    7.18
   0  -6  -9  177.98   22.72
   0  -6  -9  178.82   23.16
   0  -6  -9  170.99   23.34
   0  -6  -8  142.04   20.59
   0  -6  -8  139.13   19.33
   0  -6  -8  118.34   18.64
   0  -6  -7   81.32   14.07
   0  -6  -7  115.60   18.14
   0  -6  -7  109.12   17.66
   0  -6  -6    0.26    5.39
   0  -6  -6    3.86    8.15
   0  -6  -6   -0.17    4.34
   0  -6  -5    8.59    5.30
   0  -6  -5   15.66    7.30
   0  -6  -5   10.60    7.53
   0  -6  -5    7.46    5.83
   0  -6  -4  408.41   26.91
   0  -6  -4  419.06   32.06
   0  -6  -4  430.24   29.02
   0  -6  -4  422.59   26.45
   0  -6  -4  508.25   30.94
   0  -6  -4  465.04   29.62
   0  -6  -3  215.76   20.06
   0  -6  -3  193.42   22.92
   0  -6  -3  215.96   19.92
   0  -6  -3  216.73   18.79
   0  -6  -3  216.85   19.19
   0  -6  -3  215.58   24.39
   0  -6  -3  230.91   24.23
   0  -6  -2   18.38    8.89
   0  -6  -2   12.58    5.15
   0  -6  -2   20.19    6.37
   0  -6  -2    7.68    4.79
   0  -6  -2    0.18    7.85
   0  -6  -2    5.58    7.71
   0  -6  -2   24.06    6.27
   0  -6  -1   62.85   13.48
   0  -6  -1   60.36   11.51
   0  -6  -1   43.90    8.37
   0  -6  -1   48.87   12.05
   0  -6  -1   69.41   14.74
   0  -6  -1   69.27   10.45
   0  -6   0  222.46   21.79
   0  -6   0  244.23   24.91
   0  -6   0  227.41   18.41
   0  -6   0  247.29   20.46
   0  -6   0  257.52   24.45
   0  -6   0  230.80   25.45
   0  -6   1  880.34   44.07
   0  -6   1  956.77   48.34
   0  -6   1  859.48   34.04
   0  -6   1  930.68   41.84
   0  -6   1  937.76   44.50
   0  -6   1  890.70   49.84
   0  -6   2  114.67   17.17
   0  -6   2   99.87   14.52
   0  -6   2   95.69   16.76
   0  -6   2   81.05   15.86
   0  -6   2   97.81   14.91
   0  -6   3  181.07   21.34
   0  -6   3  171.11   18.79
   0  -6   3  159.82   20.01
   0  -6   3  187.88   24.50
   0  -6   3  235.98   25.19
   0  -6   4   58.89   12.95
   0  -6   4   39.64   11.26
   0  -6   5  106.36   17.72
   0  -6   5  103.02   17.79
   0  -6   6  448.72   35.63
   0  -6   6  465.26   38.28
   0  -6   7   -3.90    8.15
   0  -6   7   25.54    8.88
   0  -6   8   -0.62    7.89
   0  -6   8   -5.25    7.50
   0  -6   9   40.27   13.46
   0  -6   9   59.98   16.89
   0  -6  10    2.33    8.84
   0  -6  10   13.41    9.18
   0  -6  11  127.93   23.43
   0  -6  11  134.19   24.53
   0  -6  12   45.63   14.92
   0  -6  12   49.78   16.68
   0  -6  12   59.57   17.82
   0  -6  13   22.88   13.83
   0  -6  13   13.97   12.29
   0  -6  13   16.66   14.14
   0  -6  14    6.98    9.75
   0  -5 -17   16.37   12.07
   0  -5 -16   41.37   17.31
   0  -5 -16   12.99   11.33
   0  -5 -15   18.23   11.81
   0  -5 -15   29.30   15.62
   0  -5 -14   -7.64   11.32
   0  -5 -14    5.03   10.80
   0  -5 -13   18.77   11.75
   0  -5 -13   53.82   16.10
   0  -5 -12   31.28   14.35
   0  -5 -12   50.43   14.35
   0  -5 -11  183.12   24.78
   0  -5 -11  233.14   28.39
   0  -5 -10   28.83   11.64
   0  -5 -10   28.26   12.06
   0  -5 -10   12.78    8.32
   0  -5  -9  126.58   20.17
   0  -5  -9  103.40   16.20
   0  -5  -9   92.15   16.29
   0  -5  -8   10.12    9.70
   0  -5  -8    8.31    6.54
   0  -5  -8    3.52    5.65
   0  -5  -7  187.49   19.96
   0  -5  -7  208.44   21.53
   0  -5  -7  190.79   21.92
   0  -5  -6  274.87   22.60
   0  -5  -6  306.14   25.90
   0  -5  -6  293.25   24.45
   0  -5  -5  130.73   14.87
   0  -5  -5  166.86   18.21
   0  -5  -5  161.02   18.51
   0  -5  -4   33.33    8.21
   0  -5  -4   29.51    8.56
   0  -5  -4   23.16    6.63
   0  -5  -3  384.29   24.38
   0  -5  -3  388.66   22.62
   0  -5  -3  380.69   17.38
   0  -5  -2   40.24   10.24
   0  -5  -2   30.48    6.74
   0  -5  -2   42.10    8.51
   0  -5  -2   27.22    6.53
   0  -5  -2   28.43    8.52
   0  -5  -2   38.95    6.42
   0  -5  -1  151.52   15.66
   0  -5  -1  174.74   19.34
   0  -5  -1  157.63   14.42
   0  -5  -1  176.20   18.28
   0  -5  -1  171.80   14.37
   0  -5  -1  150.42   13.27
   0  -5  -1  183.69   20.30
   0  -5   0  267.01   21.69
   0  -5   0  261.77   21.87
   0  -5   0  269.18   23.66
   0  -5   0  265.18   18.15
   0  -5   0  273.65   19.43
   0  -5   0  240.48   23.72
   0  -5   0  267.76   16.69
   0  -5   1   63.83   12.34
   0  -5   1   65.80   11.76
   0  -5   1   62.02    8.87
   0  -5   1   66.82    8.37
   0  -5   1   78.76   12.74
   0  -5   1   69.04   13.41
   0  -5   1   66.76   10.87
   0  -5   2  227.98   21.23
   0  -5   2  219.90   22.92
   0  -5   2  232.20   21.90
   0  -5   2  206.21   15.17
   0  -5   2  200.29   18.07
   0  -5   2  250.36   21.45
   0  -5   2  213.99   13.94
   0  -5   3  112.93   17.28
   0  -5   3   95.04   14.50
   0  -5   3  105.28   11.52
   0  -5   3   99.35   15.03
   0  -5   3   81.86   15.87
   0  -5   3   98.67   13.40
   0  -5   3   96.47    9.67
   0  -5   4  337.64   27.46
   0  -5   4  296.47   19.64
   0  -5   4  325.76   26.88
   0  -5   4  312.09   29.23
   0  -5   4  328.92   21.77
   0  -5   5  691.39   39.62
   0  -5   5  589.08   29.16
   0  -5   5  671.70   40.60
   0  -5   6   74.92   14.11
   0  -5   6   74.50   11.60
   0  -5   6   86.82   15.77
   0  -5   7   72.74   14.73
   0  -5   7   70.71   12.09
   0  -5   7   96.17   18.62
   0  -5   8   57.13   13.63
   0  -5   8   53.08   13.36
   0  -5   9  114.75   19.06
   0  -5   9  122.41   20.98
   0  -5  10  169.12   23.90
   0  -5  10  144.62   23.72
   0  -5  11   79.35   18.52
   0  -5  11   93.74   19.34
   0  -5  12   56.98   16.28
   0  -5  12   41.61   14.91
   0  -5  13    8.35   11.06
   0  -5  13   37.46   13.78
   0  -5  14   50.94   16.52
   0  -5  14   40.84   17.03
   0  -5  14   27.87   15.92
   0  -5  15  110.85   24.65
   0  -5  15   72.24   19.13
   0  -5  15   70.17   21.37
   0  -4 -17   13.11   10.22
   0  -4 -17   20.19   14.66
   0  -4 -16   25.12   14.24
   0  -4 -16   42.26   16.57
   0  -4 -15    1.01    9.31
   0  -4 -15   -1.24   12.43
   0  -4 -14   29.91   12.90
   0  -4 -14   61.86   17.75
   0  -4 -13    2.62    9.49
   0  -4 -13    5.87    8.79
   0  -4 -12   38.42   14.80
   0  -4 -12   26.27   11.87
   0  -4 -11   82.17   17.55
   0  -4 -11   83.71   17.08
   0  -4 -10   52.62   14.36
   0  -4 -10   19.25    9.36
   0  -4  -9  141.51   20.47
   0  -4  -9  131.24   17.79
   0  -4  -9  127.60   18.04
   0  -4  -8    7.52    9.97
   0  -4  -8   -3.16    7.08
   0  -4  -8   10.42    6.93
   0  -4  -7  231.38   21.12
   0  -4  -7  218.13   21.65
   0  -4  -7  244.29   21.18
   0  -4  -6  355.31   24.61
   0  -4  -6  344.74   24.71
   0  -4  -6  359.87   25.57
   0  -4  -5   64.14   10.61
   0  -4  -5   49.84    9.87
   0  -4  -5   55.98   10.16
   0  -4  -4  291.93   20.66
   0  -4  -4  311.33   19.95
   0  -4  -4  282.27    9.73
   0  -4  -4  303.27   22.16
   0  -4  -3    1.67    3.41
   0  -4  -3   -0.66    1.76
   0  -4  -2  951.72   32.94
   0  -4  -2  988.37   26.59
   0  -4  -1 1404.54   42.30
   0  -4  -1 1624.03   50.85
   0  -4  -1 1454.21   39.27
   0  -4  -1 1528.47   37.17
   0  -4  -1 1581.56   52.14
   0  -4  -1 1563.35   38.33
   0  -4   0  420.88   24.28
   0  -4   0  469.52   25.63
   0  -4   0  461.39   27.30
   0  -4   0  445.89   21.01
   0  -4   0  431.42   21.68
   0  -4   0  444.77   19.56
   0  -4   0  450.67   28.10
   0  -4   1  101.91   12.52
   0  -4   1  103.86   13.12
   0  -4   1   88.67    9.24
   0  -4   1   92.12   11.14
   0  -4   1   78.98   12.21
   0  -4   1   97.10   12.01
   0  -4   1  103.04    9.06
   0  -4   2  129.17   14.41
   0  -4   2  125.48   14.99
   0  -4   2  132.01   11.11
   0  -4   2  126.34   12.96
   0  -4   2  137.24   10.47
   0  -4   2  134.43   16.75
   0  -4   3  935.10   39.86
   0  -4   3  924.56   38.97
   0  -4   3  847.07   26.62
   0  -4   3  953.17   43.45
   0  -4   3  880.42   31.45
   0  -4   4  370.76   25.96
   0  -4   4  327.36   19.42
   0  -4   4  311.27   17.44
   0  -4   5   53.34   11.51
   0  -4   5   48.39    9.36
   0  -4   5   42.35    7.26
   0  -4   6  285.57   24.39
   0  -4   6  284.57   21.09
   0  -4   7  106.65   15.64
   0  -4   7  118.31   15.18
   0  -4   8  655.65   39.42
   0  -4   8  828.78   47.31
   0  -4   9   47.57   13.15
   0  -4   9   46.84   12.10
   0  -4  10    3.02    7.08
   0  -4  10  -10.23    9.42
   0  -4  11   44.01   13.39
   0  -4  11   35.96   10.74
   0  -4  12   14.85   10.25
   0  -4  12    2.14    7.68
   0  -4  13   59.31   16.21
   0  -4  13   41.31   13.76
   0  -4  14    5.72   11.08
   0  -4  14   18.89   11.03
   0  -4  14    2.62    8.66
   0  -4  15   15.29   12.14
   0  -4  15   32.09   13.55
   0  -4  15   29.33   12.49
   0  -4  16   48.17   16.43
   0  -4  16   44.06   16.19
   0  -4  16   39.34   15.52
   0  -3 -18   27.70   14.61
   0  -3 -17    1.02   11.45
   0  -3 -17    0.56   11.79
   0  -3 -16  106.18   23.06
   0  -3 -16   88.45   21.44
   0  -3 -15   36.86   14.75
   0  -3 -15    8.39   13.70
   0  -3 -14   11.67    9.55
   0  -3 -14   15.83   10.77
   0  -3 -13   -0.98    9.81
   0  -3 -13    4.37    9.18
   0  -3 -12   21.59    9.86
   0  -3 -12   61.04   15.59
   0  -3 -11  301.09   29.21
   0  -3 -11  243.29   27.06
   0  -3 -10  122.90   19.06
   0  -3 -10  108.65   19.03
   0  -3  -9  129.27   17.74
   0  -3  -9  123.37   18.53
   0  -3  -8   23.99    9.96
   0  -3  -8   40.34   10.23
   0  -3  -8    6.20    5.80
   0  -3  -7    4.49    6.49
   0  -3  -7   -6.54    6.15
   0  -3  -6  547.81   30.38
   0  -3  -6  573.68   29.66
   0  -3  -6  557.45   27.96
   0  -3  -5  431.14   25.27
   0  -3  -5  439.26   24.39
   0  -3  -5  437.43   23.94
   0  -3  -4 2185.63   49.09
   0  -3  -4 2223.01   52.51
   0  -3  -4 2355.98   53.34
   0  -3  -3   21.59    2.72
   0  -3  -3   14.33    4.68
   0  -3  -3   20.68    5.36
   0  -3  -2  554.37   16.04
   0  -3  -1  355.34   16.15
   0  -3  -1  327.96   16.40
   0  -3  -1  331.70   14.58
   0  -3   0  426.16   20.84
   0  -3   0  492.42   24.33
   0  -3   0  475.87   24.84
   0  -3   0  460.84   18.68
   0  -3   0  454.66   19.29
   0  -3   0  468.84   17.14
   0  -3   0  455.34   22.34
   0  -3   1  319.84   19.17
   0  -3   1  369.37   20.82
   0  -3   1  355.51   15.87
   0  -3   1  350.58   14.27
   0  -3   1  357.97   18.97
   0  -3   1  386.01   22.94
   0  -3   2  610.26   27.60
   0  -3   2  678.42   24.27
   0  -3   2  680.19   28.48
   0  -3   2  647.59   21.40
   0  -3   2  642.64   19.81
   0  -3   2  659.22   30.79
   0  -3   3  142.88   14.40
   0  -3   3  138.38   11.41
   0  -3   3  124.61   10.07
   0  -3   3  158.28   17.30
   0  -3   3  129.40   11.10
   0  -3   4    5.13    5.41
   0  -3   4    8.29    4.73
   0  -3   4    5.97    3.11
   0  -3   5  186.17   17.37
   0  -3   5  174.06   14.77
   0  -3   6  255.28   21.42
   0  -3   6  270.24   19.82
   0  -3   7  749.17   37.49
   0  -3   7  695.95   33.47
   0  -3   8  104.78   15.16
   0  -3   9   18.83    9.07
   0  -3  10   33.46   11.11
   0  -3  10   27.61   11.03
   0  -3  11  136.47   20.27
   0  -3  11  119.16   19.73
   0  -3  12  356.27   32.25
   0  -3  12  402.24   36.34
   0  -3  13   86.72   17.73
   0  -3  13   49.03   13.76
   0  -3  14    5.46    8.13
   0  -3  14    7.60    7.93
   0  -3  15    8.06    8.82
   0  -3  15   30.93   12.88
   0  -3  15   35.89   15.89
   0  -3  16   60.15   18.32
   0  -3  16   72.67   20.69
   0  -3  16   71.30   18.84
   0  -3  17   35.90   14.55
   0  -2 -18   25.59   15.50
   0  -2 -18   37.88   17.96
   0  -2 -17   67.38   20.69
   0  -2 -17   70.37   21.04
   0  -2 -16   -9.40   10.03
   0  -2 -16    1.45   10.45
   0  -2 -15    5.31   12.13
   0  -2 -15   11.40   14.36
   0  -2 -14   16.25   10.39
   0  -2 -14   10.03   12.75
   0  -2 -13   31.56   13.92
   0  -2 -13   46.28   16.45
   0  -2 -12   22.05    9.89
   0  -2 -12   33.33   13.75
   0  -2 -11   84.39   16.10
   0  -2 -11   80.59   16.56
   0  -2 -10    9.96    7.58
   0  -2 -10    0.41    9.22
   0  -2  -9   17.88    8.36
   0  -2  -9    6.73    3.49
   0  -2  -8  316.00   25.38
   0  -2  -8  291.21   23.97
   0  -2  -8  266.07   14.33
   0  -2  -7 2071.31   58.19
   0  -2  -7 2093.14   58.91
   0  -2  -6  473.35   25.99
   0  -2  -6  463.52   23.20
   0  -2  -6  449.23   26.15
   0  -2  -5 1061.35   35.52
   0  -2  -5 1052.29   36.55
   0  -2  -5 1026.99   32.08
   0  -2  -4 1477.44   38.08
   0  -2  -4 1521.37   40.33
   0  -2  -4 1574.59   37.83
   0  -2  -3  211.98   13.21
   0  -2  -3  228.85   14.55
   0  -2  -3  231.66   14.17
   0  -2  -2 7663.70   68.51
   0  -2  -2 7450.80   38.86
   0  -2  -1 1082.12   20.05
   0  -2   0 1443.17   33.17
   0  -2   0 1314.52   25.56
   0  -2   0 1425.86   34.47
   0  -2   0 1359.52   23.88
   0  -2   1 2361.35   43.15
   0  -2   1 2517.53   43.40
   0  -2   1 2418.97   33.65
   0  -2   1 2664.91   40.20
   0  -2   1 2555.36   47.43
   0  -2   1 2516.13   31.04
   0  -2   2  748.50   25.91
   0  -2   2  741.82   19.66
   0  -2   2  793.83   25.76
   0  -2   2  802.11   20.76
   0  -2   2  774.57   28.09
   0  -2   2  708.08   18.65
   0  -2   3 6978.14   83.20
   0  -2   3 6999.51   69.02
   0  -2   3 6808.14   66.82
   0  -2   4  268.14   17.45
   0  -2   4  259.01   15.42
   0  -2   4  279.69   15.91
   0  -2   5   -0.08    5.79
   0  -2   5    1.02    4.28
   0  -2   6   89.06   11.40
   0  -2   7  317.67   22.02
   0  -2   8  119.89   14.76
   0  -2   9   35.28    9.70
   0  -2  10   62.78   12.64
   0  -2  11   22.43    9.95
   0  -2  11   -0.79    5.68
   0  -2  12   38.04   11.87
   0  -2  12   34.55   10.00
   0  -2  13   97.72   16.96
   0  -2  13  122.51   19.69
   0  -2  14   35.95   12.86
   0  -2  14   35.03   11.10
   0  -2  14   36.31   11.81
   0  -2  15    8.48    9.19
   0  -2  15   -5.60   10.23
   0  -2  15   -1.92    7.80
   0  -2  16   21.38   10.71
   0  -2  16   38.61   16.60
   0  -2  17   10.19   11.32
   0  -2  17   25.31   12.13
   0  -1 -18   15.35   11.76
   0  -1 -18   30.22   15.38
   0  -1 -17   11.81   10.62
   0  -1 -17   -3.80   12.52
   0  -1 -16   -8.50   11.97
   0  -1 -16    9.61   12.57
   0  -1 -15   10.98   10.22
   0  -1 -15   18.79   11.45
   0  -1 -14  299.52   34.24
   0  -1 -14  242.61   29.86
   0  -1 -13   73.81   17.60
   0  -1 -13   89.29   18.99
   0  -1 -12   22.23   11.91
   0  -1 -12   26.17   11.75
   0  -1 -11  107.50   18.28
   0  -1 -11  105.64   17.65
   0  -1 -11   95.78   12.43
   0  -1 -10  249.78   25.63
   0  -1 -10  278.44   25.80
   0  -1 -10  245.85   18.02
   0  -1  -9  896.21   44.18
   0  -1  -9  830.87   41.28
   0  -1  -9  823.59   30.41
   0  -1  -8  561.73   32.99
   0  -1  -8  550.20   31.80
   0  -1  -8  553.28   22.86
   0  -1  -7  962.71   39.38
   0  -1  -7  837.22   36.11
   0  -1  -7  856.15   25.83
   0  -1  -6  747.41   32.42
   0  -1  -6  681.46   20.94
   0  -1  -6  709.11   31.23
   0  -1  -5 2229.27   49.89
   0  -1  -5 2095.73   48.31
   0  -1  -4 2028.18   42.72
   0  -1  -4 1918.86   42.02
   0  -1  -3 7053.06   68.99
   0  -1  -3 6962.05   70.79
   0  -1  -2  872.37   20.41
   0  -1  -2  943.53   20.69
   0  -1  -2  885.23   21.74
   0  -1   2 1096.21   24.57
   0  -1   2 1166.33   21.93
   0  -1   2 1101.64   21.40
   0  -1   3 8034.68   71.77
   0  -1   3 7445.70   68.72
   0  -1   4  702.24   23.39
   0  -1   4  708.67   24.40
   0  -1   5 1473.85   36.32
   0  -1   6  408.72   20.85
   0  -1   7  903.49   32.79
   0  -1   8  672.45   30.21
   0  -1   9  176.67   17.07
   0  -1  10   81.79   12.75
   0  -1  11  121.44   16.92
   0  -1  11  127.50   16.38
   0  -1  12   79.55   13.67
   0  -1  12   88.98   15.59
   0  -1  12   86.04   15.16
   0  -1  13   57.67   13.08
   0  -1  13   39.08   12.03
   0  -1  13   44.16   11.09
   0  -1  14   76.43   15.89
   0  -1  14   74.35   16.30
   0  -1  14   85.67   16.61
   0  -1  15    6.95    7.15
   0  -1  15    1.21    7.87
   0  -1  15    8.10   10.74
   0  -1  16   23.72   11.55
   0  -1  17   27.16   17.82
   0  -1  17   45.34   15.59
   0   0 -18    9.08   12.59
   0   0 -18   35.05   15.22
   0   0 -17   23.29   12.86
   0   0 -17   16.35   14.96
   0   0 -16   37.86   15.51
   0   0 -16   69.45   19.78
   0   0 -15   -2.98   10.51
   0   0 -15   16.25   12.47
   0   0 -14   12.32   11.05
   0   0 -14   21.09   11.12
   0   0 -13   -6.69    8.56
   0   0 -13   -9.94    9.08
   0   0 -12   39.18   13.50
   0   0 -12   31.35    9.38
   0   0 -12   32.12   13.26
   0   0 -11  188.00   23.32
   0   0 -11  153.54   20.50
   0   0 -11  144.78   16.77
   0   0 -10  288.62   26.98
   0   0 -10  320.92   26.65
   0   0 -10  305.53   22.61
   0   0  -9  372.02   28.89
   0   0  -9  365.90   26.62
   0   0  -9  342.97   22.18
   0   0  -8  419.98   28.81
   0   0  -8  422.10   26.88
   0   0  -8  448.31   23.51
   0   0  -7   50.42   10.21
   0   0  -7   43.68    9.30
   0   0  -7   42.07    7.08
   0   0  -6  226.62   18.56
   0   0  -6  201.94   16.35
   0   0  -6  207.56   13.98
   0   0  -5 4855.03   69.23
   0   0  -5 4990.64   59.31
   0   0  -4  754.43   26.43
   0   0  -4  726.29   24.45
   0   0  -4  749.23   20.78
   0   0  -3   94.57    8.32
   0   0  -3   73.20    7.33
   0   0  -3   86.17    6.37
   0   0   3   96.40    6.71
   0   0   4  768.79   20.43
   0   0   5 5157.84   58.45
   0   0   6  219.71   13.96
   0   0   7   46.53    7.83
   0   0   7   47.25    8.60
   0   0   8  400.56   25.09
   0   0   8  423.17   22.45
   0   0   9  324.99   24.17
   0   0   9  327.26   18.34
   0   0   9  337.56   21.50
   0   0  10  274.81   23.69
   0   0  10  287.10   17.93
   0   0  10  260.26   20.02
   0   0  11  153.23   17.43
   0   0  11  154.66   19.08
   0   0  11  140.15   16.60
   0   0  12   13.01    7.17
   0   0  12   21.09    8.42
   0   0  12   21.99    7.61
   0   0  13    6.83    6.34
   0   0  13    3.89    6.57
   0   0  13   -0.35    5.30
   0   0  14    5.24    5.94
   0   0  14   24.61   10.77
   0   0  14    5.39    5.05
   0   0  14   12.65   11.26
   0   0  15    6.72    7.21
   0   0  15   16.33   11.47
   0   0  15   -8.95   10.10
   0   0  16   42.53   13.50
   0   0  16   65.18   16.88
   0   0  16   44.44   15.81
   0   0  17   28.86   12.79
   0   0  17   18.99   12.05
   0   0  18    5.73    9.78
   0   1 -18  -20.30   13.15
   0   1 -18    5.84   11.42
   0   1 -17   26.11   15.13
   0   1 -17   -1.88    8.35
   0   1 -16    9.27   10.27
   0   1 -16   28.97   14.10
   0   1 -15   -4.57   11.16
   0   1 -15   24.97   12.85
   0   1 -14   59.40   16.26
   0   1 -14   75.38   17.35
   0   1 -14   83.31   16.51
   0   1 -13   67.19   16.96
   0   1 -13   39.63   13.23
   0   1 -13   33.60   10.84
   0   1 -12   88.56   17.93
   0   1 -12   72.23   15.39
   0   1 -12   59.74   13.41
   0   1 -11  131.59   19.80
   0   1 -11  153.14   19.49
   0   1 -11  102.91   16.15
   0   1 -10   99.13   16.84
   0   1 -10   85.03   14.85
   0   1 -10   89.45   14.08
   0   1  -9  144.55   19.13
   0   1  -9  146.22   16.75
   0   1  -9  145.89   16.86
   0   1  -8  675.74   36.01
   0   1  -8  662.90   32.36
   0   1  -8  662.43   32.05
   0   1  -7  909.74   38.75
   0   1  -7  929.98   34.94
   0   1  -7  900.07   35.23
   0   1  -6  448.44   25.40
   0   1  -6  394.95   21.44
   0   1  -6  461.16   23.77
   0   1  -5 1467.73   39.29
   0   1  -5 1449.49   41.04
   0   1  -5 1434.89   35.84
   0   1  -5 1308.31   21.64
   0   1  -5 1377.67   25.77
   0   1  -4  730.02   26.09
   0   1  -4  763.96   23.55
   0   1  -4  690.78   16.70
   0   1  -4  732.62   19.48
   0   1  -4  710.41   24.86
   0   1  -3 7777.77   73.17
   0   1  -3 7800.22   63.52
   0   1  -3 7538.89   56.44
   0   1  -3 7654.25   63.89
   0   1  -3 7876.85   75.71
   0   1  -2 1178.11   22.53
   0   1  -2 1181.09   24.23
   0   1  -2 1216.46   20.40
   0   1  -2 1152.33   24.81
   0   1  -2 1218.67   26.90
   0   1  -1  868.58   21.38
   0   1   2  934.29   24.05
   0   1   2  943.63   20.64
   0   1   2  886.48   21.77
   0   1   2  881.16   19.90
   0   1   2  938.07   21.07
   0   1   2  966.56   21.66
   0   1   3 6922.09   72.32
   0   1   3 6885.37   58.90
   0   1   3 7042.23   64.85
   0   1   3 6791.82   53.45
   0   1   3 6853.52   60.42
   0   1   3 6922.88   47.94
   0   1   4 1941.13   42.82
   0   1   4 1939.41   33.59
   0   1   4 1933.62   28.35
   0   1   4 1968.77   38.40
   0   1   4 1941.40   31.96
   0   1   4 1987.99   29.41
   0   1   5 2132.15   48.62
   0   1   5 2107.40   38.03
   0   1   5 2081.19   32.03
   0   1   5 2069.66   28.29
   0   1   5 2179.00   44.89
   0   1   5 2140.39   35.17
   0   1   6  723.13   30.95
   0   1   6  676.33   23.41
   0   1   6  722.68   28.49
   0   1   6  681.44   17.33
   0   1   6  661.43   14.99
   0   1   6  691.52   22.83
   0   1   7  874.06   36.04
   0   1   7  861.38   27.85
   0   1   7  872.60   34.06
   0   1   7  814.94   27.43
   0   1   8  510.56   29.70
   0   1   8  521.15   22.96
   0   1   8  518.24   28.40
   0   1   8  510.49   23.62
   0   1   9  801.71   39.55
   0   1   9  741.74   28.45
   0   1   9  806.77   37.59
   0   1   9  737.84   30.29
   0   1  10  296.60   25.61
   0   1  10  231.24   16.82
   0   1  10  279.88   24.15
   0   1  10  242.80   18.62
   0   1  11   78.74   12.13
   0   1  11   95.84   16.20
   0   1  11   94.52   15.59
   0   1  11   86.62   11.97
   0   1  12   23.91    9.57
   0   1  12   41.45   11.47
   0   1  12   15.96    6.23
   0   1  12   38.61   12.62
   0   1  13   56.84   14.56
   0   1  13   71.78   17.48
   0   1  13   87.48   16.82
   0   1  14  263.90   30.12
   0   1  14  225.27   26.51
   0   1  14  268.97   33.36
   0   1  15   11.33    8.71
   0   1  15    9.31    8.98
   0   1  15    9.78   10.75
   0   1  16   -5.02    7.08
   0   1  16   -0.99    6.65
   0   1  16    5.30   11.55
   0   1  17    5.89    8.04
   0   1  17   -1.33    8.96
   0   1  17   26.76   16.43
   0   1  18   38.74   16.22
   0   2 -17   20.17   13.26
   0   2 -17   38.01   15.00
   0   2 -16   30.17   13.55
   0   2 -16   23.76   11.32
   0   2 -15    1.69    8.36
   0   2 -15   -6.11    7.66
   0   2 -15   16.78    9.84
   0   2 -14   21.22   12.71
   0   2 -14   27.80   11.76
   0   2 -14   12.08    8.74
   0   2 -13  111.37   20.74
   0   2 -13  118.70   20.38
   0   2 -13  136.90   20.76
   0   2 -12   45.46   13.99
   0   2 -12   38.53   11.14
   0   2 -12   37.98   11.60
   0   2 -11   16.56    8.27
   0   2 -11   14.26   10.14
   0   2 -11   14.39    8.15
   0   2 -10   39.63   11.54
   0   2 -10   57.88   13.14
   0   2 -10   39.42   11.69
   0   2  -9   29.13    8.55
   0   2  -9   28.81    9.28
   0   2  -9   37.43    9.72
   0   2  -8  124.20   16.41
   0   2  -8  115.04   14.15
   0   2  -8  112.12   15.62
   0   2  -7  300.17   22.79
   0   2  -7  282.39   20.06
   0   2  -7  301.51   17.23
   0   2  -7  325.28   24.73
   0   2  -7  277.78   14.57
   0   2  -6   96.89   13.10
   0   2  -6   86.77   10.43
   0   2  -6   72.46    7.91
   0   2  -6   78.33    9.16
   0   2  -6   71.17   11.48
   0   2  -5    3.43    3.52
   0   2  -5    0.32    3.23
   0   2  -5    4.11    5.21
   0   2  -5    1.04    4.11
   0   2  -5    3.28    6.02
   0   2  -4  280.05   19.51
   0   2  -4  284.85   17.36
   0   2  -4  260.55   13.83
   0   2  -4  261.04   15.28
   0   2  -4  273.12   17.24
   0   2  -3 6988.98   75.13
   0   2  -3 6905.14   77.01
   0   2  -3 6959.07   62.15
   0   2  -3 6680.99   86.71
   0   2  -3 7173.35   89.47
   0   2  -2  740.55   27.18
   0   2  -2  784.39   22.58
   0   2  -2  756.78   18.98
   0   2  -2  753.94   25.81
   0   2  -2  783.91   28.98
   0   2  -1 2537.60   52.45
   0   2  -1 2576.98   47.43
   0   2  -1 2509.77   46.68
   0   2  -1 2499.84   35.19
   0   2  -1 2431.50   34.19
   0   2   0 1309.62   31.94
   0   2   0 1370.11   34.25
   0   2   0 1293.71   31.72
   0   2   0 1386.44   38.56
   0   2   0 1336.32   34.05
   0   2   0 1290.37   25.07
   0   2   0 1292.83   18.53
   0   2   1 1086.93   30.83
   0   2   1 1154.38   31.52
   0   2   1 1120.94   30.92
   0   2   1 1119.05   34.46
   0   2   1 1067.25   26.56
   0   2   1 1042.96   23.23
   0   2   1 1214.72   32.17
   0   2   2 7841.27   85.73
   0   2   2 7959.32   83.06
   0   2   2 8065.96   83.56
   0   2   2 7949.09   91.28
   0   2   2 8293.25   83.50
   0   2   2 7663.24   69.04
   0   2   2 7659.74   66.28
   0   2   2 7775.36   47.26
   0   2   3  236.40   16.41
   0   2   3  260.81   15.73
   0   2   3  238.87   15.18
   0   2   3  231.95   16.44
   0   2   3  222.20   13.47
   0   2   3  220.59   13.98
   0   2   3  210.08   10.52
   0   2   4 1495.03   43.49
   0   2   4 1514.92   37.86
   0   2   4 1511.00   38.92
   0   2   4 1542.79   36.45
   0   2   4 1526.04   40.48
   0   2   4 1458.92   37.40
   0   2   4 1424.77   32.03
   0   2   5 1054.49   38.61
   0   2   5 1050.75   32.33
   0   2   5 1029.48   33.20
   0   2   5 1026.82   29.69
   0   2   5 1061.84   34.25
   0   2   5  974.88   30.73
   0   2   6  439.65   26.75
   0   2   6  418.39   21.19
   0   2   6  430.54   18.94
   0   2   6  446.50   23.78
   0   2   6  458.94   21.82
   0   2   6  422.44   22.86
   0   2   7 2102.47   60.92
   0   2   7 1970.81   47.30
   0   2   7 2060.95   40.17
   0   2   7 2100.91   54.43
   0   2   7 2069.24   45.36
   0   2   7 2015.65   54.39
   0   2   7 1905.06   39.06
   0   2   8  306.20   24.92
   0   2   8  263.41   18.19
   0   2   8  301.27   22.34
   0   2   8  253.34   13.84
   0   2   8  254.68   13.51
   0   2   8  261.74   15.59
   0   2   8  262.28   21.49
   0   2   8  262.25   15.61
   0   2   9    3.38    4.04
   0   2   9   20.74    7.81
   0   2   9   17.83    5.59
   0   2   9    5.85    5.63
   0   2   9   11.47    4.07
   0   2   9    7.58    5.34
   0   2  10    4.28    3.80
   0   2  10    9.67    6.93
   0   2  10    6.95    4.56
   0   2  10    4.81    6.70
   0   2  10    8.76    4.02
   0   2  10   14.76    6.97
   0   2  11   69.94   14.54
   0   2  11   54.05   11.78
   0   2  11   70.73   14.17
   0   2  12   26.07    9.91
   0   2  12   17.90    7.52
   0   2  12   15.71    8.84
   0   2  13   46.83   13.08
   0   2  13   24.12   10.16
   0   2  13   32.42   11.50
   0   2  14   11.84    9.62
   0   2  14   -0.58    7.63
   0   2  14   20.51   11.83
   0   2  15   23.90   11.85
   0   2  15   20.53    9.10
   0   2  15   17.57   11.44
   0   2  16    8.31    9.41
   0   2  16   -2.78    9.52
   0   2  16   -5.06    9.80
   0   2  17   27.50   12.51
   0   2  17   19.17    8.92
   0   2  17   37.14   15.93
   0   2  18    8.57   11.74
   0   2  18   24.24   12.01
   0   3 -17   46.26   15.82
   0   3 -16   76.10   19.83
   0   3 -16   79.92   20.42
   0   3 -15   28.00   14.46
   0   3 -15   15.11    7.90
   0   3 -14    4.62    8.31
   0   3 -14    1.30    9.44
   0   3 -14   17.71   13.06
   0   3 -13   50.43   15.14
   0   3 -13   58.66   13.75
   0   3 -13   72.08   18.06
   0   3 -12  414.82   36.52
   0   3 -12  332.83   28.70
   0   3 -12  402.52   37.24
   0   3 -11  111.94   16.21
   0   3 -11  140.64   20.85
   0   3 -11  144.85   21.68
   0   3 -10   30.97   10.96
   0   3 -10   13.38    7.86
   0   3 -10   27.88   10.62
   0   3  -9   20.41    8.51
   0   3  -9    5.38    7.94
   0   3  -9   13.84    5.68
   0   3  -8  117.98   16.52
   0   3  -8   97.66   11.18
   0   3  -8  101.02   13.01
   0   3  -8  100.66   12.75
   0   3  -8  114.30   17.24
   0   3  -7  820.56   38.00
   0   3  -7  716.14   29.75
   0   3  -7  722.87   30.67
   0   3  -7  712.68   33.81
   0   3  -7  755.60   41.25
   0   3  -6  299.87   21.91
   0   3  -6  281.86   17.75
   0   3  -6  245.15   18.01
   0   3  -6  281.57   21.39
   0   3  -6  290.39   24.30
   0   3  -5  183.55   15.92
   0   3  -5  177.66   13.15
   0   3  -5  164.11   14.99
   0   3  -5  169.81   17.07
   0   3  -5  165.62   17.83
   0   3  -4    3.48    4.62
   0   3  -4    4.68    4.62
   0   3  -4    1.96    4.82
   0   3  -4    9.16    3.76
   0   3  -4   11.73    5.56
   0   3  -3  130.23    9.99
   0   3  -3  148.57   14.64
   0   3  -3  143.01   15.60
   0   3  -3  144.04   15.51
   0   3  -3  141.01   11.39
   0   3  -2  647.09   29.36
   0   3  -2  659.63   33.13
   0   3  -2  644.26   22.73
   0   3  -2  643.04   30.08
   0   3  -1  418.80   23.56
   0   3  -1  373.63   24.83
   0   3  -1  371.45   22.14
   0   3  -1  353.34   16.34
   0   3  -1  383.61   15.35
   0   3   0  456.60   25.00
   0   3   0  480.57   25.13
   0   3   0  424.26   17.97
   0   3   0  464.50   23.37
   0   3   0  417.77   26.29
   0   3   0  452.07   13.35
   0   3   0  434.98   22.92
   0   3   1  337.44   20.98
   0   3   1  376.30   22.33
   0   3   1  369.78   22.13
   0   3   1  363.89   21.86
   0   3   1  340.89   16.34
   0   3   1  353.93   19.54
   0   3   1  349.44    8.96
   0   3   1  333.42   23.65
   0   3   2  615.44   29.10
   0   3   2  622.33   29.18
   0   3   2  600.08   28.29
   0   3   2  635.69   28.94
   0   3   2  577.31   23.48
   0   3   2  583.48   22.20
   0   3   2  597.26   30.86
   0   3   2  587.97   11.83
   0   3   3   18.31    3.09
   0   3   3   21.55    6.94
   0   3   3   17.53    5.98
   0   3   3   19.59    6.71
   0   3   3   12.57    5.03
   0   3   3   14.70    4.32
   0   3   3   22.42    7.07
   0   3   3   15.56    4.47
   0   3   4 2329.19   61.04
   0   3   4 2306.73   56.13
   0   3   4 2233.60   55.60
   0   3   4 2330.41   54.98
   0   3   4 2266.47   60.16
   0   3   4 2184.65   48.91
   0   3   4 2154.95   37.23
   0   3   5  409.29   26.85
   0   3   5  406.51   23.98
   0   3   5  414.60   23.16
   0   3   5  390.09   23.15
   0   3   5  436.74   25.18
   0   3   5  406.56   26.00
   0   3   5  372.08   18.13
   0   3   6  576.62   33.44
   0   3   6  585.66   29.30
   0   3   6  564.99   26.97
   0   3   6  568.56   30.20
   0   3   6  566.16   30.72
   0   3   6  528.86   24.22
   0   3   7   -0.36    3.29
   0   3   7   -3.50    5.47
   0   3   7    2.56    4.36
   0   3   7   -1.19    4.75
   0   3   7    0.25    4.75
   0   3   7   -0.73    3.82
   0   3   8    1.16    4.88
   0   3   8    7.31    4.70
   0   3   8   17.00    6.24
   0   3   8   14.22    5.46
   0   3   8   15.68    5.70
   0   3   8   10.67    5.38
   0   3   9  130.40   19.03
   0   3   9   83.61   12.18
   0   3   9  108.56   13.16
   0   3   9  110.04   15.71
   0   3   9  116.54   12.27
   0   3   9  117.98   15.09
   0   3  10  134.32   19.50
   0   3  10  116.00   14.62
   0   3  10  133.41   17.90
   0   3  10  128.01   16.97
   0   3  11  204.98   25.60
   0   3  11  230.73   20.77
   0   3  11  266.17   26.21
   0   3  11  231.75   24.38
   0   3  12   38.09   12.26
   0   3  12   46.20   12.79
   0   3  12   37.27   12.15
   0   3  13    5.67    7.75
   0   3  13    2.74    6.48
   0   3  14   32.69   12.37
   0   3  14   31.13   12.27
   0   3  14   18.77   11.87
   0   3  15   24.41   12.80
   0   3  15   25.97   11.91
   0   3  15   16.27   12.65
   0   3  16   77.95   19.88
   0   3  16   68.99   18.12
   0   3  16   92.10   19.55
   0   3  17  -18.38   12.02
   0   3  17   17.97   11.40
   0   3  18    6.95   10.14
   0   3  18   -4.97    8.29
   0   4 -16    5.66   10.38
   0   4 -16   25.56   14.82
   0   4 -15   64.49   20.38
   0   4 -15   74.22   18.64
   0   4 -14   -9.65   11.59
   0   4 -14    6.80    8.76
   0   4 -13   29.70   10.63
   0   4 -13   52.44   17.70
   0   4 -12    0.91    9.27
   0   4 -12    6.04    8.18
   0   4 -11   18.20    9.03
   0   4 -11   46.61   14.17
   0   4 -10    1.05    6.27
   0   4 -10    6.33    6.61
   0   4 -10   -4.75    8.04
   0   4  -9   59.55   13.09
   0   4  -9   42.02   12.29
   0   4  -9   60.12   11.75
   0   4  -8  649.84   32.95
   0   4  -8  661.27   38.08
   0   4  -8  727.26   33.74
   0   4  -8  625.56   36.51
   0   4  -8  656.59   43.76
   0   4  -7   96.37   13.75
   0   4  -7  142.54   17.81
   0   4  -7  108.26   17.65
   0   4  -7  128.93   13.73
   0   4  -7  107.77   16.27
   0   4  -6  314.28   23.58
   0   4  -6  316.51   20.13
   0   4  -6  240.28   21.15
   0   4  -6  287.06   25.52
   0   4  -6  302.80   27.94
   0   4  -5   39.68   10.32
   0   4  -5   56.66   11.10
   0   4  -5   44.39    7.38
   0   4  -5   52.89   11.37
   0   4  -4  300.85   23.69
   0   4  -4  310.94   26.02
   0   4  -4  329.07   26.60
   0   4  -4  347.84   20.72
   0   4  -3  914.04   42.97
   0   4  -3  914.49   40.09
   0   4  -3  960.12   45.69
   0   4  -3  908.36   32.08
   0   4  -2  147.03   17.04
   0   4  -2  142.60   18.00
   0   4  -2  119.48   11.54
   0   4  -2  137.69   16.15
   0   4  -1  100.37   14.65
   0   4  -1  117.61   16.34
   0   4  -1   93.64    9.77
   0   4  -1   99.07   13.57
   0   4   0  428.88   30.70
   0   4   0  494.09   29.47
   0   4   0  481.88   28.19
   0   4   0  448.52   21.21
   0   4   1 1568.31   51.47
   0   4   1 1620.94   53.70
   0   4   1 1508.71   57.33
   0   4   1 1564.34   53.14
   0   4   1 1650.20   53.65
   0   4   1 1557.98   48.18
   0   4   1 1496.79   39.09
   0   4   1 1481.10   20.90
   0   4   2 1012.55   42.60
   0   4   2 1082.49   44.35
   0   4   2 1059.94   43.52
   0   4   2 1064.06   43.27
   0   4   2 1014.47   47.03
   0   4   2  980.25   37.08
   0   4   2  958.86   31.97
   0   4   3    2.69    1.41
   0   4   3   -2.61    5.49
   0   4   3    1.15    5.52
   0   4   3    5.78    6.47
   0   4   3    0.99    5.60
   0   4   3    1.28    5.15
   0   4   3    2.76    3.28
   0   4   3   -0.59    2.77
   0   4   4  322.65   25.55
   0   4   4  374.72   26.47
   0   4   4  337.49   25.22
   0   4   4  323.34   23.90
   0   4   4  297.30   25.67
   0   4   4  324.10   19.28
   0   4   4  291.71   19.95
   0   4   4  289.89   12.03
   0   4   5   40.84    5.72
   0   4   5   58.75   11.97
   0   4   5   51.04   11.32
   0   4   5   55.21   10.92
   0   4   5   58.55   10.78
   0   4   5   61.52   11.57
   0   4   5   52.97    9.43
   0   4   6  410.37   31.03
   0   4   6  394.29   27.76
   0   4   6  349.26   25.02
   0   4   6  386.27   27.74
   0   4   6  336.33   27.48
   0   4   6  332.35   23.61
   0   4   6  348.21   18.92
   0   4   7  247.49   24.82
   0   4   7  243.90   22.14
   0   4   7  224.08   22.46
   0   4   7  202.78   19.08
   0   4   7  229.65   21.91
   0   4   7  227.93   16.88
   0   4   8   -1.95    4.49
   0   4   8   -2.17    5.97
   0   4   8   -1.67    6.12
   0   4   8    6.64    6.15
   0   4   8    6.64    5.05
   0   4   8    0.93    4.42
   0   4   9  145.61   21.20
   0   4   9  128.21   16.99
   0   4   9  115.98   14.55
   0   4   9  109.37   16.22
   0   4   9  114.96   16.21
   0   4   9  113.77   14.59
   0   4  10   21.89    7.41
   0   4  10   28.67   10.76
   0   4  10   26.73    8.79
   0   4  10   36.92   10.28
   0   4  11   77.11   14.21
   0   4  11   99.91   18.58
   0   4  11   99.27   15.08
   0   4  11  104.82   17.09
   0   4  12   31.19   10.20
   0   4  12   19.37   10.76
   0   4  12   34.10   11.47
   0   4  13    4.51    7.26
   0   4  13    1.46    8.79
   0   4  13   13.54    8.11
   0   4  14   49.16   14.99
   0   4  14   46.87   15.75
   0   4  15    9.29   10.89
   0   4  15    3.27    7.64
   0   4  16   21.08   11.45
   0   4  16    8.17    8.75
   0   4  17    2.65    9.11
   0   4  18   12.27   11.21
   0   5 -15   40.78   15.82
   0   5 -15   72.85   20.31
   0   5 -14   48.50   16.81
   0   5 -14   66.16   20.04
   0   5 -13   34.31   12.54
   0   5 -13   33.19   15.86
   0   5 -12   22.94   11.19
   0   5 -12   27.03   11.78
   0   5 -11   69.82   15.45
   0   5 -11   39.37   15.02
   0   5 -10  192.53   24.72
   0   5 -10  153.32   26.26
   0   5  -9  107.25   20.52
   0   5  -8   21.33    7.78
   0   5  -8   19.90    7.01
   0   5  -8   39.38   13.44
   0   5  -7   62.51   13.24
   0   5  -7   84.77   16.36
   0   5  -7   88.72   14.18
   0   5  -7   51.85   14.55
   0   5  -6   72.04   13.57
   0   5  -6   89.91   16.46
   0   5  -6   56.80   13.83
   0   5  -6   73.05   11.86
   0   5  -5  560.06   36.26
   0   5  -5  626.10   42.20
   0   5  -5  597.59   31.23
   0   5  -5  615.97   41.64
   0   5  -4  350.88   28.90
   0   5  -4  319.56   30.37
   0   5  -4  322.17   29.52
   0   5  -4  326.96   22.22
   0   5  -3  106.04   17.81
   0   5  -3   86.63   15.16
   0   5  -3  109.26   16.90
   0   5  -3  121.29   12.98
   0   5  -2  247.57   24.08
   0   5  -2  242.73   26.88
   0   5  -2  237.75   24.32
   0   5  -2  246.78   17.63
   0   5  -1   62.71   13.73
   0   5  -1   51.52   11.15
   0   5  -1   64.14   12.82
   0   5  -1   48.98    8.25
   0   5   0  277.75   25.48
   0   5   0  248.54   26.48
   0   5   0  250.54   17.88
   0   5   0  258.25   23.42
   0   5   1  188.19   19.69
   0   5   1  180.74   20.90
   0   5   1  175.15   20.51
   0   5   1  189.14   23.16
   0   5   1  179.20   15.09
   0   5   1  165.55   19.32
   0   5   2   34.95    9.72
   0   5   2   31.39    9.90
   0   5   2   29.05   10.77
   0   5   2   28.85    9.43
   0   5   2   32.88   10.10
   0   5   2   30.51    8.85
   0   5   2   39.12    7.76
   0   5   3  431.73   32.01
   0   5   3  407.94   31.06
   0   5   3  461.98   33.13
   0   5   3  439.91   31.47
   0   5   3  424.05   34.25
   0   5   3  370.43   23.35
   0   5   3  422.43   26.84
   0   5   4   26.34    8.83
   0   5   4   31.39   10.41
   0   5   4   34.73    9.84
   0   5   4   35.42   10.74
   0   5   4   52.17   11.59
   0   5   4   32.21    7.65
   0   5   4   34.21    7.54
   0   5   5  160.49   21.32
   0   5   5  168.81   21.08
   0   5   5  142.62   18.79
   0   5   5  160.64   20.06
   0   5   5  131.12   19.29
   0   5   5  151.23   16.49
   0   5   6  313.62   29.86
   0   5   6  299.08   27.15
   0   5   6  307.05   26.43
   0   5   6  271.93   26.13
   0   5   6  281.24   29.00
   0   5   6  296.76   23.25
   0   5   7  172.63   23.13
   0   5   7  169.64   20.75
   0   5   7  192.91   24.42
   0   5   7  202.09   22.04
   0   5   7  188.24   22.17
   0   5   7  185.26   19.63
   0   5   8    3.12    5.83
   0   5   8   11.29    7.59
   0   5   8   10.11    7.53
   0   5   8    4.47    6.59
   0   5   8   13.39    7.08
   0   5   9  133.70   21.77
   0   5   9   88.80   14.99
   0   5   9   94.48   16.72
   0   5   9  133.50   20.14
   0   5   9  116.67   18.22
   0   5  10   17.53    7.92
   0   5  10   18.84   11.30
   0   5  10   18.49    9.62
   0   5  10   14.91    6.71
   0   5  10   13.56    7.51
   0   5  11  221.97   29.02
   0   5  11  205.50   24.23
   0   5  11  165.27   22.85
   0   5  12   45.90   15.24
   0   5  12   23.28    9.77
   0   5  13   34.82   11.95
   0   5  13   43.07   13.03
   0   5  14   -6.24    8.40
   0   5  14   -6.59    7.57
   0   5  15   29.35   13.29
   0   5  15   13.79    9.24
   0   5  16   25.62   10.53
   0   5  16   10.42    9.59
   0   5  17   24.35   14.20
   0   6 -14   -6.41   10.94
   0   6 -13   34.48   16.03
   0   6 -12   78.39   21.46
   0   6 -11   96.60   23.71
   0   6 -10    4.36    9.99
   0   6  -9   74.36   18.59
   0   6  -8    4.67    9.58
   0   6  -7   18.19    7.72
   0   6  -7   13.47    9.51
   0   6  -7   24.25   11.49
   0   6  -6  400.45   34.05
   0   6  -6  481.80   41.61
   0   6  -6  490.80   42.22
   0   6  -5  111.34   19.13
   0   6  -5   82.75   19.05
   0   6  -5   81.66   17.87
   0   6  -4   52.72   14.31
   0   6  -4   37.86   11.20
   0   6  -4   52.90   14.98
   0   6  -3  151.08   21.17
   0   6  -3  176.13   25.19
   0   6  -3  172.72   22.90
   0   6  -2   78.44   17.50
   0   6  -2  100.57   17.48
   0   6  -2   88.59   16.90
   0   6  -1  926.90   50.53
   0   6  -1  898.07   55.84
   0   6  -1  942.91   50.64
   0   6  -1  891.56   36.06
   0   6   0  265.94   27.68
   0   6   0  221.81   27.95
   0   6   0  236.74   18.75
   0   6   0  200.70   23.15
   0   6   1   77.41   16.82
   0   6   1   80.69   16.40
   0   6   1   62.43   12.96
   0   6   1   71.25   10.66
   0   6   2   22.04    9.20
   0   6   2    6.79    7.68
   0   6   2   15.29    8.89
   0   6   2   32.45    9.07
   0   6   2   20.62    6.40
   0   6   3  213.19   25.48
   0   6   3  271.49   29.17
   0   6   3  244.10   26.55
   0   6   3  235.36   26.40
   0   6   3  195.16   25.65
   0   6   3  237.11   23.41
   0   6   3  214.72   19.11
   0   6   4  512.27   39.39
   0   6   4  504.34   39.06
   0   6   4  465.02   36.06
   0   6   4  454.27   36.80
   0   6   4  459.95   30.71
   0   6   4  476.13   29.08
   0   6   4  410.17   37.17
   0   6   5   14.02    9.69
   0   6   5   13.28    9.06
   0   6   5    4.68    8.24
   0   6   5   -5.34   10.16
   0   6   5   17.00    6.95
   0   6   5   10.75    7.68
   0   6   5    0.04    3.91
   0   6   6    9.51    9.20
   0   6   6    3.04    7.79
   0   6   6  -10.37    9.58
   0   6   6    7.38    7.32
   0   6   6   -4.03    7.92
   0   6   6    5.65    6.63
   0   6   7  153.49   23.75
   0   6   7  113.99   18.77
   0   6   7  114.76   20.22
   0   6   7  117.92   19.56
   0   6   7  117.70   19.77
   0   6   7  128.10   17.66
   0   6   8  122.12   22.16
   0   6   8  123.46   19.48
   0   6   8  117.08   20.71
   0   6   8   88.04   17.91
   0   6   8  129.20   20.86
   0   6   9  184.81   27.12
   0   6   9  168.98   23.28
   0   6   9  155.24   21.95
   0   6   9  150.42   22.72
   0   6   9  159.42   24.45
   0   6  10   -1.81    6.60
   0   6  10    8.22    8.30
   0   6  10   -3.76    7.53
   0   6  10    5.99    9.63
   0   6  10    6.04    7.65
   0   6  11    3.21    8.01
   0   6  11    5.41    7.65
   0   6  11    1.91    6.92
   0   6  12    9.70    9.52
   0   6  12   -0.92    8.22
   0   6  13   21.84   11.15
   0   6  13   39.14   14.51
   0   6  14    8.64   10.17
   0   6  14   22.81   12.90
   0   6  15   20.31   12.79
   0   6  15    2.32    7.64
   0   6  16   20.85   13.06
   0   7 -12   17.46   12.94
   0   7 -11   33.07   15.95
   0   7 -10   24.28   14.65
   0   7  -9   43.03   16.13
   0   7  -8   95.44   22.10
   0   7  -7   26.92   11.05
   0   7  -7   55.91   16.08
   0   7  -7   55.72   17.37
   0   7  -6   15.77    8.67
   0   7  -6   45.12   16.47
   0   7  -6   37.71   14.02
   0   7  -5   19.22    9.38
   0   7  -5   12.89    8.90
   0   7  -5   44.50   14.96
   0   7  -4   -7.36    8.67
   0   7  -4    2.10    7.40
   0   7  -4   13.87    9.39
   0   7  -3  175.76   24.85
   0   7  -3  237.61   32.01
   0   7  -3  204.13   27.60
   0   7  -2   -7.27   10.92
   0   7  -2   17.62   10.66
   0   7  -2    4.34    8.66
   0   7  -1   22.27   11.92
   0   7  -1   -6.03   10.35
   0   7  -1   35.02   13.40
   0   7   0    8.96   11.71
   0   7   0    6.42    5.96
   0   7   1   13.09   11.02
   0   7   1    8.90    8.08
   0   7   1   -4.88    7.62
   0   7   2  114.26   22.13
   0   7   2  118.27   21.20
   0   7   2  141.53   20.43
   0   7   3  140.54   19.91
   0   7   3  146.19   22.27
   0   7   3  127.04   23.19
   0   7   3  114.00   19.67
   0   7   4   22.94   12.42
   0   7   4   12.49   11.17
   0   7   4   23.35   11.22
   0   7   4   25.07   11.39
   0   7   4   18.61    8.13
   0   7   4   26.95   10.60
   0   7   5   23.64   13.04
   0   7   5   21.93   10.13
   0   7   5   25.04   10.63
   0   7   5   47.05   14.46
   0   7   5   37.90   12.60
   0   7   5   28.40    8.98
   0   7   6   99.55   21.15
   0   7   6   66.46   16.10
   0   7   6   61.64   17.54
   0   7   6   84.89   18.84
   0   7   6   88.68   18.57
   0   7   6  117.80   17.05
   0   7   7   30.85   13.97
   0   7   7   22.97   10.29
   0   7   7   61.80   15.90
   0   7   7   27.76   12.43
   0   7   7   26.29   10.16
   0   7   7   52.80   12.30
   0   7   8  139.53   25.48
   0   7   8  122.56   20.31
   0   7   8  150.60   24.58
   0   7   8  141.27   25.27
   0   7   8  111.33   20.87
   0   7   9    7.63    7.52
   0   7   9   30.45   14.49
   0   7   9   -4.72    8.33
   0   7   9   21.85   10.87
   0   7   9   15.71    8.08
   0   7  10   -6.55    8.65
   0   7  10    7.56    7.97
   0   7  10    4.95    8.01
   0   7  10   -7.71    7.75
   0   7  10    2.50    7.17
   0   7  11   22.53   12.41
   0   7  11    7.86    9.38
   0   7  11   -0.39    6.43
   0   7  12   43.91   17.72
   0   7  12    2.69    6.81
   0   7  13  105.47   24.88
   0   7  13   75.38   20.67
   0   7  14   88.85   22.82
   0   7  14   36.82   17.12
   0   7  15   -0.05    7.51
   0   8 -10   26.05   14.91
   0   8  -9   10.72   15.61
   0   8  -8   15.22   13.25
   0   8  -7   15.25   11.88
   0   8  -7    4.96   12.30
   0   8  -7   17.16   13.88
   0   8  -6   -1.55    9.00
   0   8  -6    0.70   11.25
   0   8  -6   -1.84   10.13
   0   8  -5   21.04   10.94
   0   8  -5   34.35   18.98
   0   8  -5   27.77   13.72
   0   8  -4  124.35   22.74
   0   8  -4   78.36   20.82
   0   8  -4  114.06   23.45
   0   8  -3   23.31   11.96
   0   8  -3   49.75   18.00
   0   8  -3   34.39   14.48
   0   8  -2   22.27   12.43
   0   8  -2   55.18   18.18
   0   8  -2   39.66   13.37
   0   8  -1   -1.20    9.08
   0   8  -1    4.38   10.15
   0   8  -1    3.24    6.72
   0   8   0   21.72    9.11
   0   8   0   48.74   16.18
   0   8   0   47.36   13.01
   0   8   1  108.56   20.74
   0   8   1   76.78   21.36
   0   8   1   73.25   17.09
   0   8   2    3.22    8.91
   0   8   2    5.78    9.02
   0   8   2    6.20    7.89
   0   8   3   33.19   11.90
   0   8   3   39.28   14.91
   0   8   4    8.41   10.15
   0   8   4   -4.45   10.15
   0   8   4   -3.81    8.90
   0   8   5    6.38   11.60
   0   8   5   18.60   10.75
   0   8   5    7.11    8.61
   0   8   6   70.70   19.63
   0   8   6   22.87   11.95
   0   8   6   58.81   18.19
   0   8   6   62.46   18.53
   0   8   7    2.40    9.97
   0   8   7  -17.33   11.57
   0   8   7    3.45    8.67
   0   8   7  -16.91   12.00
   0   8   7   -7.32   10.18
   0   8   8   11.61    8.85
   0   8   8    7.37   10.28
   0   8   8   -1.09    7.75
   0   8   8   43.57   17.10
   0   8   8   30.41   13.03
   0   8   9  -11.44   10.51
   0   8   9   12.97    8.41
   0   8   9   -6.19   10.82
   0   8   9    1.77   10.42
   0   8   9    1.95    8.38
   0   8  10   27.38   13.03
   0   8  10    8.81   10.99
   0   8  10    4.00    7.43
   0   8  10    5.63    9.61
   0   8  10   28.37   12.64
   0   8  11   62.91   19.94
   0   8  11   34.35   14.98
   0   8  11   63.94   18.19
   0   8  12   15.04   11.94
   0   8  12   -2.09    7.97
   0   8  13   50.19   17.56
   0   8  14   13.55    8.25
   0   9  -7   -3.39   11.80
   0   9  -6    6.90   10.18
   0   9  -6    8.14   11.39
   0   9  -6   28.18   14.84
   0   9  -5   24.29   12.72
   0   9  -5   48.32   16.43
   0   9  -5   46.95   17.72
   0   9  -4   12.51    9.34
   0   9  -4   -7.81   11.21
   0   9  -4   29.01   14.03
   0   9  -3   -8.56   12.43
   0   9  -3   12.47   11.71
   0   9  -3    9.29    9.02
   0   9  -2   -3.04   12.48
   0   9  -2    1.19    8.07
   0   9  -2   -8.33   11.52
   0   9  -1   15.89   11.63
   0   9  -1   32.64   15.86
   0   9  -1   26.94   12.29
   0   9   0   -2.28   12.80
   0   9   0   15.81   12.25
   0   9   0   -4.89    8.40
   0   9   1   12.29   11.48
   0   9   1    4.06   13.35
   0   9   1   13.70    8.19
   0   9   2   -0.43   10.27
   0   9   2    6.19    9.83
   0   9   3    8.26   10.45
   0   9   3   -5.28   10.28
   0   9   4    5.29    9.92
   0   9   4   11.40   11.75
   0   9   5   11.78   12.64
   0   9   5    5.22   11.12
   0   9   6   -0.28    9.19
   0   9   6   -3.48   10.20
   0   9   6   -4.60   10.27
   0   9   7   16.89   11.14
   0   9   7   11.76    8.61
   0   9   7    0.03   10.53
   0   9   8   -1.38    8.71
   0   9   8  -20.96   13.53
   0   9   8   -7.69    9.73
   0   9   8   -1.30    7.50
   0   9   9   15.82   11.49
   0   9   9   -7.11    9.60
   0   9   9    7.85   10.58
   0   9   9    6.80   10.99
   0   9  10    4.20    9.78
   0   9  10   20.73   14.77
   0   9  10    5.02   10.44
   0   9  10    1.83    7.92
   0   9  11   21.62   12.44
   0  10  -4   14.34   14.73
   0  10  -4   17.72   14.87
   0  10  -4   39.92   17.35
   0  10  -3   19.92   15.68
   0  10  -3    5.13   10.70
   0  10  -3  -12.46   11.93
   0  10  -2    6.25   11.42
   0  10  -2  -17.30   13.90
   0  10  -2    7.23    9.56
   0  10  -1    8.74   11.92
   0  10  -1  -10.55   10.18
   0  10  -1   13.23   10.63
   0  10   0    8.70    9.16
   0  10   0   -7.94   11.24
   0  10   1   39.06   16.43
   0  10   1   45.76   14.91
   0  10   2   18.76   14.70
   0  10   2    7.31   10.14
   0  10   3   16.70   11.93
   0  10   3   18.74   14.06
   0  10   4  -31.21   15.90
   0  10   4   -1.85   13.40
   0  10   5    6.12   10.23
   0  10   5   20.64   16.63
   0  10   6   12.26   10.33
   0  10   6    4.03   12.49
   0  10   7   -0.87   10.52
   0  10   7    7.63   11.18
   0  10   8   -9.88   13.36
   1 -10  -5   -4.18    7.42
   1 -10  -4   12.51   10.03
   1 -10  -4   23.15   17.09
   1 -10  -4  -12.63   13.17
   1 -10  -3   10.96   12.64
   1 -10  -3   10.21   11.59
   1 -10  -3    4.44    8.50
   1 -10  -3    6.54   14.04
   1 -10  -2    2.34    7.74
   1 -10  -2    5.71   11.36
   1 -10  -2  -26.48   14.55
   1 -10  -2   10.12   11.56
   1 -10  -1  -19.53   14.89
   1 -10  -1    1.07   12.01
   1 -10   0   48.31   18.04
   1 -10   1   23.93   14.31
   1 -10   2   44.20   18.30
   1  -9  -9    1.97    7.39
   1  -9  -9    9.83    9.91
   1  -9  -8  -14.00   11.99
   1  -9  -8  -15.92   10.86
   1  -9  -8    3.54    8.48
   1  -9  -7    2.82   10.40
   1  -9  -7   -3.77   10.14
   1  -9  -7   16.02   10.22
   1  -9  -7   -2.79   11.47
   1  -9  -6   41.31   16.29
   1  -9  -6   15.79   10.61
   1  -9  -6   40.31   16.79
   1  -9  -6    0.87    8.01
   1  -9  -5   34.92   16.14
   1  -9  -5   26.76   13.22
   1  -9  -5   55.60   17.51
   1  -9  -5   20.21   10.68
   1  -9  -4   27.19   13.74
   1  -9  -4   24.89   11.71
   1  -9  -4   42.77   16.41
   1  -9  -4   59.15   18.36
   1  -9  -3   -3.76    9.41
   1  -9  -3    5.12    8.53
   1  -9  -3    6.20   12.58
   1  -9  -3   22.17   14.96
   1  -9  -2  -14.82   13.77
   1  -9  -2   -8.03   13.32
   1  -9  -2  -20.28   15.06
   1  -9  -1   25.72   14.22
   1  -9  -1   49.79   17.42
   1  -9  -1   69.99   18.51
   1  -9   0   17.78   11.69
   1  -9   0   15.95   10.70
   1  -9   1   38.55   16.17
   1  -9   1   23.65   13.26
   1  -9   2    2.51    8.04
   1  -9   2   -1.27   11.45
   1  -9   3    0.97    9.17
   1  -9   3   16.82   13.58
   1  -9   3    8.79   13.56
   1  -9   4    9.20    9.87
   1  -9   4   32.17   19.06
   1  -9   5   14.94   10.73
   1  -9   5   39.03   14.21
   1  -9   6   19.81   15.57
   1  -9   6   20.18   10.79
   1  -9   7   22.70   12.79
   1  -8 -11  -25.44   17.48
   1  -8 -11  -20.95   12.41
   1  -8 -10   -2.95   12.02
   1  -8  -9   -1.56    9.13
   1  -8  -9  -21.71   14.46
   1  -8  -8  -19.47   13.51
   1  -8  -8   -4.63    7.63
   1  -8  -8   11.66   11.14
   1  -8  -7   35.09   14.09
   1  -8  -7   40.68   14.01
   1  -8  -7   66.16   15.50
   1  -8  -6  107.71   22.98
   1  -8  -6   83.18   18.18
   1  -8  -6  102.14   22.18
   1  -8  -6  104.80   22.35
   1  -8  -5    5.64    8.77
   1  -8  -5   18.13   11.82
   1  -8  -5   13.51    9.65
   1  -8  -5   10.64    9.34
   1  -8  -4    9.90    8.40
   1  -8  -4   28.29   11.19
   1  -8  -4   32.86   13.37
   1  -8  -4   21.59   12.17
   1  -8  -3    7.97   10.93
   1  -8  -3   30.03   13.95
   1  -8  -3   38.81   15.53
   1  -8  -2  105.08   22.19
   1  -8  -2  114.96   21.97
   1  -8  -2  125.28   24.15
   1  -8  -1  122.09   22.73
   1  -8  -1  132.95   24.84
   1  -8  -1   96.08   18.90
   1  -8   0   -5.20    8.46
   1  -8   0   11.35    8.62
   1  -8   0   -1.65    9.14
   1  -8   0    1.42   11.78
   1  -8   1   -9.00   10.13
   1  -8   1    4.78    9.39
   1  -8   1   -2.50    9.43
   1  -8   1    1.85    9.59
   1  -8   2    3.53    7.08
   1  -8   2   15.66   13.77
   1  -8   2   -5.62    9.39
   1  -8   2    4.42    8.61
   1  -8   3   25.82   10.66
   1  -8   3   67.44   19.47
   1  -8   3   46.07   17.80
   1  -8   3   46.29   12.82
   1  -8   4   34.16   12.59
   1  -8   4   69.46   19.66
   1  -8   4   58.33   15.82
   1  -8   5   22.28   10.61
   1  -8   5   13.72   10.62
   1  -8   6   -5.90    9.05
   1  -8   6   24.25   11.47
   1  -8   7   -0.37    8.81
   1  -8   7   12.11   11.56
   1  -8   8   45.82   15.36
   1  -8   8   59.77   17.51
   1  -8   9   32.77   14.94
   1  -8   9   24.12   15.20
   1  -7 -14  -16.88   11.73
   1  -7 -14   11.28   13.63
   1  -7 -13   47.28   17.20
   1  -7 -13   56.97   18.98
   1  -7 -12   10.57   10.36
   1  -7 -12   36.48   15.15
   1  -7 -11   41.01   14.39
   1  -7 -11   24.35   12.83
   1  -7 -10   57.95   16.07
   1  -7 -10   47.26   14.35
   1  -7 -10   61.51   22.17
   1  -7 -10   43.10   14.31
   1  -7  -9   43.25   12.45
   1  -7  -9   48.01   13.97
   1  -7  -9   16.85   14.32
   1  -7  -8   38.90   12.72
   1  -7  -8   34.80   12.33
   1  -7  -8   32.51   13.03
   1  -7  -7   13.50    8.46
   1  -7  -7    1.58    6.38
   1  -7  -7   -5.13    9.49
   1  -7  -6   10.26    7.17
   1  -7  -6    8.64    8.10
   1  -7  -6   13.27    7.56
   1  -7  -6   17.47   11.36
   1  -7  -5   35.63   10.09
   1  -7  -5    5.30    7.82
   1  -7  -5   22.68   10.49
   1  -7  -5   38.87   11.27
   1  -7  -5   27.81   10.11
   1  -7  -4   83.36   17.23
   1  -7  -4   96.43   19.58
   1  -7  -4   94.47   15.09
   1  -7  -4   92.82   19.02
   1  -7  -4   91.34   19.24
   1  -7  -3   47.22   13.85
   1  -7  -3   32.21   13.32
   1  -7  -3   47.52   13.96
   1  -7  -2  215.23   28.39
   1  -7  -2  180.01   26.13
   1  -7  -2  182.66   24.70
   1  -7  -1   77.94   17.33
   1  -7  -1   68.15   13.05
   1  -7  -1   59.22   16.21
   1  -7  -1   54.08   14.26
   1  -7   0  101.69   21.12
   1  -7   0  110.54   16.73
   1  -7   0   87.93   18.50
   1  -7   0  104.49   18.56
   1  -7   1   97.35   16.59
   1  -7   1  122.02   21.56
   1  -7   1  109.94   19.18
   1  -7   1   91.34   20.69
   1  -7   1  115.07   16.79
   1  -7   2  108.01   17.28
   1  -7   2  122.69   22.28
   1  -7   2  138.63   20.22
   1  -7   2  131.71   19.02
   1  -7   2   93.06   19.49
   1  -7   3   68.53   15.00
   1  -7   3   56.67   16.71
   1  -7   3   73.03   18.18
   1  -7   3   74.61   15.32
   1  -7   3   64.27   14.63
   1  -7   4   74.19   16.00
   1  -7   4   62.47   17.39
   1  -7   4  101.75   18.49
   1  -7   5   27.73   12.24
   1  -7   5   30.69   15.91
   1  -7   5   35.44   11.41
   1  -7   6   28.48   11.95
   1  -7   6   22.87   11.59
   1  -7   7   75.94   17.31
   1  -7   7   78.80   19.14
   1  -7   8   44.02   16.91
   1  -7   8   38.25   15.32
   1  -7   9   34.90   14.70
   1  -7   9   27.93   12.96
   1  -7  10   -3.19    9.55
   1  -7  10    4.48    9.56
   1  -7  11    1.41    9.15
   1  -7  11   10.95   10.84
   1  -6 -15   -0.82   12.22
   1  -6 -15   10.57   10.38
   1  -6 -14   -4.07   10.83
   1  -6 -14   -6.15    8.83
   1  -6 -13   10.20   11.00
   1  -6 -13   -5.76   12.49
   1  -6 -12   19.38   12.75
   1  -6 -12   40.16   14.25
   1  -6 -11    7.65   10.23
   1  -6 -11   15.91   10.89
   1  -6 -11   44.15   13.56
   1  -6 -10   -6.21   11.66
   1  -6 -10    6.82    6.87
   1  -6 -10   -1.98    7.18
   1  -6  -9   67.49   15.09
   1  -6  -9  104.71   17.81
   1  -6  -9  122.41   20.42
   1  -6  -8   13.95    9.95
   1  -6  -8   15.68    7.98
   1  -6  -8   28.61   11.52
   1  -6  -7  143.43   20.51
   1  -6  -7  127.33   18.87
   1  -6  -7  132.66   19.50
   1  -6  -6  -13.61   13.33
   1  -6  -6   14.33    9.22
   1  -6  -6    8.84    7.50
   1  -6  -6    2.97    5.64
   1  -6  -5  178.20   20.29
   1  -6  -5  151.22   19.92
   1  -6  -5  151.85   20.08
   1  -6  -5  176.29   19.15
   1  -6  -5  123.12   20.83
   1  -6  -4  397.90   35.42
   1  -6  -4  343.50   27.03
   1  -6  -4  360.80   29.36
   1  -6  -4  369.99   30.49
   1  -6  -4  399.64   35.24
   1  -6  -3   64.13   15.20
   1  -6  -3   71.32   11.42
   1  -6  -3   70.00   13.10
   1  -6  -3   64.78   14.69
   1  -6  -3   59.80   15.07
   1  -6  -2   81.80   16.82
   1  -6  -2   71.88   11.65
   1  -6  -2   88.53   13.42
   1  -6  -2   70.68   15.57
   1  -6  -2   95.23   17.11
   1  -6  -1  149.48   17.19
   1  -6  -1  136.96   21.09
   1  -6  -1  138.05   15.11
   1  -6  -1  145.86   16.57
   1  -6  -1  181.46   22.63
   1  -6  -1  133.76   21.10
   1  -6   0    7.00    8.97
   1  -6   0    6.95    6.28
   1  -6   0   -2.59    4.83
   1  -6   0   -0.53    4.39
   1  -6   0    6.80    7.93
   1  -6   0    4.82    8.52
   1  -6   1 1009.88   45.88
   1  -6   1 1057.65   55.29
   1  -6   1 1087.06   51.14
   1  -6   1 1067.34   45.56
   1  -6   1 1047.78   57.38
   1  -6   2   91.62   15.17
   1  -6   2   74.11   16.48
   1  -6   2  102.27   16.41
   1  -6   2  118.56   16.64
   1  -6   2   99.22   18.95
   1  -6   3   33.85    9.49
   1  -6   3   45.13   14.30
   1  -6   3   17.16    9.61
   1  -6   3   50.53   12.32
   1  -6   3   54.69   12.46
   1  -6   4  118.73   17.85
   1  -6   4  138.52   22.00
   1  -6   4  109.90   21.27
   1  -6   4  100.58   16.23
   1  -6   4   95.90   16.01
   1  -6   5   88.64   16.16
   1  -6   5   97.50   20.40
   1  -6   5   88.37   16.63
   1  -6   6  106.88   18.40
   1  -6   6  121.19   19.49
   1  -6   7   45.65   13.80
   1  -6   7   65.59   16.41
   1  -6   8   36.05   12.13
   1  -6   8   23.22   10.39
   1  -6   9    9.80    8.76
   1  -6   9   17.98   11.80
   1  -6  10   24.80   11.42
   1  -6  10  -17.68   10.64
   1  -6  11   15.89   10.45
   1  -6  11   -2.30    9.38
   1  -6  12   27.24   13.48
   1  -6  12   46.83   15.98
   1  -6  13   -3.10   10.17
   1  -6  13  -17.66   12.00
   1  -5 -16   23.40   17.61
   1  -5 -16   19.52   12.26
   1  -5 -15   43.84   17.77
   1  -5 -15   30.51   14.69
   1  -5 -14   32.99   14.41
   1  -5 -14   92.12   22.80
   1  -5 -13   58.33   17.40
   1  -5 -13   37.74   15.10
   1  -5 -12    8.04   11.43
   1  -5 -12   25.25   12.27
   1  -5 -11   39.83   14.38
   1  -5 -11   44.30   13.72
   1  -5 -10   34.34   12.45
   1  -5 -10   43.88   12.02
   1  -5 -10   23.68   11.02
   1  -5  -9  291.70   29.37
   1  -5  -9  249.66   24.61
   1  -5  -9  244.23   26.83
   1  -5  -8   59.65   14.36
   1  -5  -8   75.32   13.76
   1  -5  -7   57.69   12.26
   1  -5  -7   68.85   14.43
   1  -5  -7   61.77   12.58
   1  -5  -6  109.83   16.02
   1  -5  -6  125.36   16.78
   1  -5  -6   89.09   14.90
   1  -5  -5   41.07   10.18
   1  -5  -5   60.23   11.95
   1  -5  -5   41.22   10.44
   1  -5  -4   72.85    9.31
   1  -5  -4   62.61   11.27
   1  -5  -4   82.16   12.35
   1  -5  -4   63.25   12.26
   1  -5  -4   67.94   13.06
   1  -5  -4   50.05   12.25
   1  -5  -3  304.28   19.71
   1  -5  -3  228.84   24.54
   1  -5  -3  275.26   16.54
   1  -5  -3  266.46   23.10
   1  -5  -3  285.96   20.16
   1  -5  -3  298.92   27.23
   1  -5  -2  645.88   29.84
   1  -5  -2  709.18   41.56
   1  -5  -2  624.23   27.79
   1  -5  -2  681.29   28.34
   1  -5  -2  716.92   43.40
   1  -5  -2  673.81   27.57
   1  -5  -2  687.08   39.19
   1  -5  -2  684.54   34.56
   1  -5  -1   96.87   12.22
   1  -5  -1  105.52   16.70
   1  -5  -1   81.46    9.56
   1  -5  -1   90.39   12.65
   1  -5  -1  100.53   15.68
   1  -5  -1  115.79   10.99
   1  -5  -1  113.93   12.45
   1  -5  -1  106.40   17.15
   1  -5   0   92.73   12.65
   1  -5   0   90.49   16.18
   1  -5   0   97.21    9.56
   1  -5   0   96.74   12.05
   1  -5   0   86.59   12.04
   1  -5   0  110.72   16.68
   1  -5   0   91.28   15.77
   1  -5   1   28.09    9.36
   1  -5   1   41.53    8.52
   1  -5   1   28.30    9.16
   1  -5   1   44.53    9.44
   1  -5   1   26.73   10.35
   1  -5   1   29.03    7.53
   1  -5   2  102.29   16.27
   1  -5   2   93.83   13.77
   1  -5   2  123.97   15.34
   1  -5   2  122.40   13.80
   1  -5   2   97.02   14.93
   1  -5   2  114.01   18.16
   1  -5   3   37.79    9.19
   1  -5   3   77.74   15.34
   1  -5   3   55.20   14.14
   1  -5   3   82.69   14.04
   1  -5   3   72.84   10.78
   1  -5   3   55.03   11.06
   1  -5   4  360.15   28.11
   1  -5   4  380.51   32.31
   1  -5   4  397.85   30.09
   1  -5   4  394.72   34.21
   1  -5   4  350.95   22.68
   1  -5   4  404.54   27.55
   1  -5   5  612.88   37.60
   1  -5   5  581.20   42.28
   1  -5   5  642.79   39.63
   1  -5   5  578.57   29.76
   1  -5   6  110.89   17.64
   1  -5   6  117.29   18.90
   1  -5   7   94.00   17.01
   1  -5   7  130.61   20.01
   1  -5   8   86.29   17.05
   1  -5   8  127.44   20.64
   1  -5   9  273.36   29.24
   1  -5   9  371.30   36.45
   1  -5  10  167.46   24.53
   1  -5  10  197.04   27.27
   1  -5  11   15.03   12.16
   1  -5  11    4.35    7.02
   1  -5  12   43.43   14.48
   1  -5  12   46.19   14.45
   1  -5  13    9.25   11.82
   1  -5  13   13.04    9.44
   1  -5  14   18.32   12.95
   1  -5  14   19.79   12.27
   1  -5  15    2.57   13.19
   1  -4 -16   94.28   22.99
   1  -4 -16   81.24   23.18
   1  -4 -15   39.65   18.08
   1  -4 -15   78.71   21.21
   1  -4 -14   54.76   18.06
   1  -4 -14   21.82   12.54
   1  -4 -13   -7.36   11.41
   1  -4 -13   18.05   12.65
   1  -4 -12   -2.20   10.12
   1  -4 -12   38.03   13.80
   1  -4 -11   49.99   14.21
   1  -4 -11   36.91   13.09
   1  -4 -10   85.73   16.85
   1  -4 -10   39.54   13.93
   1  -4  -9  191.74   23.36
   1  -4  -9  176.04   22.34
   1  -4  -9  169.05   18.98
   1  -4  -8   52.04   13.23
   1  -4  -8   45.10   11.41
   1  -4  -8   41.80   10.22
   1  -4  -7   47.93   10.83
   1  -4  -7   49.52   12.54
   1  -4  -7   63.50   11.30
   1  -4  -6   37.51    9.93
   1  -4  -6   19.48    7.46
   1  -4  -6   46.76   11.20
   1  -4  -5  468.57   17.70
   1  -4  -5  527.61   31.23
   1  -4  -5  448.15   15.98
   1  -4  -5  588.51   31.05
   1  -4  -5  576.57   30.69
   1  -4  -4  101.00    9.14
   1  -4  -4  110.03   13.12
   1  -4  -4  106.55   13.66
   1  -4  -4   88.78    8.03
   1  -4  -4  100.45   13.50
   1  -4  -3   39.76    6.28
   1  -4  -3   29.95    9.02
   1  -4  -3   45.72    8.43
   1  -4  -3   36.75    8.57
   1  -4  -3   39.58    5.90
   1  -4  -2  739.42   27.60
   1  -4  -2  759.62   33.75
   1  -4  -2  861.51   41.69
   1  -4  -2  745.84   25.65
   1  -4  -2  818.77   28.59
   1  -4  -2  819.43   39.57
   1  -4  -1  179.59   14.39
   1  -4  -1  197.30   20.61
   1  -4  -1  160.44   11.93
   1  -4  -1  189.21   16.47
   1  -4  -1  177.99   12.25
   1  -4  -1  180.32   13.78
   1  -4  -1  195.63   19.20
   1  -4  -1  167.54   18.78
   1  -4   0 1396.48   41.49
   1  -4   0 1481.06   53.46
   1  -4   0 1297.23   30.90
   1  -4   0 1412.33   40.41
   1  -4   0 1422.26   30.35
   1  -4   0 1527.20   51.10
   1  -4   0 1537.59   56.07
   1  -4   0 1471.43   43.91
   1  -4   1  387.04   23.08
   1  -4   1  424.05   28.85
   1  -4   1  378.79   14.86
   1  -4   1  350.10   21.72
   1  -4   1  391.36   29.24
   1  -4   1  356.39   21.41
   1  -4   1  392.66   25.45
   1  -4   2   32.70    9.21
   1  -4   2   21.63    5.81
   1  -4   2   38.33    5.03
   1  -4   2   34.47    7.56
   1  -4   2   39.19    9.18
   1  -4   2   29.92    9.62
   1  -4   2   31.54    8.02
   1  -4   3  695.06   33.56
   1  -4   3  723.90   38.52
   1  -4   3  668.40   20.24
   1  -4   3  702.00   29.70
   1  -4   3  755.63   35.61
   1  -4   3  742.15   33.99
   1  -4   3  759.72   41.18
   1  -4   4  155.43   17.05
   1  -4   4  137.99   10.74
   1  -4   4  154.77   14.78
   1  -4   4  152.20   17.25
   1  -4   4  157.73   20.56
   1  -4   5 1546.66   54.41
   1  -4   5 1698.26   59.07
   1  -4   5 1576.86   47.49
   1  -4   6  185.53   20.57
   1  -4   6  188.64   17.65
   1  -4   6  210.51   23.14
   1  -4   7  612.67   37.78
   1  -4   7  619.11   39.56
   1  -4   7  541.20   31.34
   1  -4   8   71.85   14.70
   1  -4   8   97.71   14.44
   1  -4   8   91.21   16.22
   1  -4   9   56.67   14.11
   1  -4   9   62.17   14.10
   1  -4  10   50.77   13.85
   1  -4  10   41.95   12.86
   1  -4  11    5.65    9.44
   1  -4  11    6.98    7.19
   1  -4  12   44.71   14.04
   1  -4  12   45.73   13.22
   1  -4  13   25.26   13.45
   1  -4  13   15.75    8.48
   1  -4  14   37.23   15.74
   1  -4  14   19.62   11.14
   1  -4  15   30.31   14.27
   1  -4  15   46.19   15.65
   1  -4  16   15.87   12.96
   1  -4  16    2.80    9.18
   1  -3 -17   30.38   14.91
   1  -3 -17   40.98   19.13
   1  -3 -16   35.72   16.38
   1  -3 -16   26.31   14.42
   1  -3 -15    1.14   10.39
   1  -3 -15   14.09   10.91
   1  -3 -14   21.12   13.88
   1  -3 -14    8.44    9.44
   1  -3 -13   18.62   11.20
   1  -3 -13   25.32   13.60
   1  -3 -12  204.06   26.97
   1  -3 -12  240.02   28.69
   1  -3 -11  244.88   28.76
   1  -3 -11  235.79   26.82
   1  -3 -10   47.08   12.71
   1  -3 -10   38.56   12.02
   1  -3  -9   36.33   11.56
   1  -3  -9   37.89   11.14
   1  -3  -8  115.01   17.46
   1  -3  -8  115.71   17.10
   1  -3  -8  136.77   15.07
   1  -3  -7  672.28   36.98
   1  -3  -7  630.62   34.71
   1  -3  -7  662.27   30.72
   1  -3  -6  134.56   16.06
   1  -3  -6  175.96   18.38
   1  -3  -6  147.63   14.74
   1  -3  -5   85.13    5.17
   1  -3  -5  111.60   13.76
   1  -3  -5  109.05   13.93
   1  -3  -5  125.51   13.05
   1  -3  -5   80.59    6.92
   1  -3  -4  125.58    7.60
   1  -3  -4  143.25   14.74
   1  -3  -4  164.74   14.97
   1  -3  -4  142.75   13.63
   1  -3  -4  133.50    8.90
   1  -3  -3  173.39   10.05
   1  -3  -3  207.27   15.20
   1  -3  -3  211.93   11.65
   1  -3  -2  366.69   15.82
   1  -3  -2  404.04   22.91
   1  -3  -2  391.74   18.24
   1  -3  -2  406.71   16.75
   1  -3  -2  407.29   25.18
   1  -3  -1  158.55   11.37
   1  -3  -1  161.37   16.45
   1  -3  -1  159.08   10.27
   1  -3  -1  153.51   11.14
   1  -3  -1  171.56   14.64
   1  -3  -1  168.90   16.02
   1  -3   0  366.68   18.25
   1  -3   0  373.00   24.17
   1  -3   0  300.23   12.94
   1  -3   0  364.41   13.08
   1  -3   0  379.60   20.60
   1  -3   0  373.43   18.28
   1  -3   0  388.72   23.29
   1  -3   0  386.91   25.30
   1  -3   1  152.78   12.70
   1  -3   1  118.13   13.95
   1  -3   1  125.22    7.21
   1  -3   1  134.99   13.73
   1  -3   1  159.57   12.96
   1  -3   1  164.53   13.62
   1  -3   1  130.60   15.99
   1  -3   2   42.77    7.60
   1  -3   2   48.89   10.49
   1  -3   2   58.09    5.09
   1  -3   2   62.84    8.78
   1  -3   2   67.79    9.67
   1  -3   2   58.07   11.19
   1  -3   2   43.30    8.93
   1  -3   3   27.04    6.43
   1  -3   3   22.37    5.90
   1  -3   3   38.16   10.51
   1  -3   3   29.17    4.40
   1  -3   3   29.41    8.86
   1  -3   3   45.40    8.94
   1  -3   3   20.24    6.21
   1  -3   4   75.93    9.83
   1  -3   4   67.87   10.14
   1  -3   4   57.81    6.89
   1  -3   4   87.15   12.17
   1  -3   4   76.39   13.48
   1  -3   5  240.46   20.27
   1  -3   5  240.34   18.00
   1  -3   5  274.63   22.33
   1  -3   6  504.13   30.37
   1  -3   6  529.27   32.19
   1  -3   6  527.36   28.56
   1  -3   7  255.89   22.89
   1  -3   7  333.30   26.70
   1  -3   7  291.66   23.08
   1  -3   8  230.54   22.55
   1  -3   8  237.18   24.10
   1  -3   9  587.77   37.01
   1  -3   9  635.48   40.18
   1  -3  10  264.00   27.30
   1  -3  10  255.74   27.15
   1  -3  11   23.93   10.98
   1  -3  11   15.92    9.75
   1  -3  12  127.31   20.65
   1  -3  12  118.74   20.80
   1  -3  13   -2.59    8.42
   1  -3  13  -11.79    8.66
   1  -3  14   55.73   16.55
   1  -3  14   45.69   14.69
   1  -3  15   48.88   15.42
   1  -3  15   43.88   13.87
   1  -3  16   61.79   18.95
   1  -3  16   89.57   20.38
   1  -3  17   34.96   15.27
   1  -3  17   30.75   13.59
   1  -2 -17   21.67   14.94
   1  -2 -17   34.91   16.09
   1  -2 -16    6.82    9.39
   1  -2 -16   31.61   15.86
   1  -2 -15   68.41   18.27
   1  -2 -15   95.17   21.14
   1  -2 -14   36.31   14.63
   1  -2 -14   62.78   17.69
   1  -2 -13    0.11    8.68
   1  -2 -13   17.07   12.80
   1  -2 -12  189.93   26.02
   1  -2 -12  154.29   23.00
   1  -2 -11   41.54   14.51
   1  -2 -11   31.97   11.31
   1  -2 -10   86.83   16.66
   1  -2 -10   94.30   17.36
   1  -2  -9  191.48   22.54
   1  -2  -9  196.48   22.07
   1  -2  -8  212.81   22.24
   1  -2  -8  223.15   22.39
   1  -2  -7 1564.66   54.64
   1  -2  -7 1446.30   50.44
   1  -2  -6  211.09   19.38
   1  -2  -6  189.69   17.85
   1  -2  -6  201.12   15.08
   1  -2  -5    8.68    5.24
   1  -2  -5    8.91    4.80
   1  -2  -5    4.39    4.53
   1  -2  -4    7.53    6.05
   1  -2  -4    9.86    3.36
   1  -2  -4    4.83    3.37
   1  -2  -4    7.83    4.53
   1  -2  -3 2462.43   51.95
   1  -2  -3 2370.67   36.12
   1  -2  -3 2458.40   44.75
   1  -2  -3 2427.95   46.36
   1  -2  -2 3783.56   50.98
   1  -2  -2 3898.69   46.22
   1  -2  -2 4054.06   68.77
   1  -2  -1  174.77    9.17
   1  -2  -1  191.77   10.75
   1  -2  -1  199.65   10.12
   1  -2  -1  178.87   13.58
   1  -2  -1  173.09   14.22
   1  -2   0  107.45    8.15
   1  -2   0  127.03   12.54
   1  -2   0  132.30    6.38
   1  -2   0  111.35    9.03
   1  -2   0  133.87   12.58
   1  -2   0  109.76   11.83
   1  -2   0  123.88   10.78
   1  -2   1 1037.82   27.31
   1  -2   1 1050.88   34.11
   1  -2   1  993.66   29.63
   1  -2   1 1078.97   32.13
   1  -2   1 1007.95   28.22
   1  -2   1 1064.35   34.98
   1  -2   2 8680.46   85.80
   1  -2   2 8734.98   98.59
   1  -2   2 8342.29   84.46
   1  -2   2 8600.64   88.57
   1  -2   2 8493.40  100.05
   1  -2   2 8416.84   85.93
   1  -2   3 1753.32   41.69
   1  -2   3 1747.94   43.53
   1  -2   3 1741.51   48.20
   1  -2   3 1632.39   39.05
   1  -2   4  267.99   17.94
   1  -2   4  276.94   17.37
   1  -2   4  264.42   18.64
   1  -2   5   23.17    7.34
   1  -2   5   24.93    6.71
   1  -2   5   23.04    6.33
   1  -2   6    2.20    3.78
   1  -2   6    8.00    5.07
   1  -2   7 1779.21   53.35
   1  -2   7 1810.13   55.02
   1  -2   7 1934.60   58.70
   1  -2   8   62.05   11.49
   1  -2   8   53.67   11.20
   1  -2   9    0.97    6.81
   1  -2   9    5.98    5.22
   1  -2  10  286.04   26.37
   1  -2  10  259.50   24.25
   1  -2  11   70.99   14.58
   1  -2  11  105.52   16.63
   1  -2  12  239.00   26.07
   1  -2  12  204.49   24.08
   1  -2  13   51.18   14.59
   1  -2  13   78.38   15.93
   1  -2  14   23.82   11.06
   1  -2  14   47.52   13.53
   1  -2  15   32.49   13.02
   1  -2  15    2.89    7.43
   1  -2  16   36.13   13.96
   1  -2  16   46.55   14.93
   1  -2  16   62.50   17.84
   1  -2  17   -5.62    6.92
   1  -1 -17    1.39    8.55
   1  -1 -17   52.83   18.57
   1  -1 -16    9.71   10.63
   1  -1 -16   24.23   13.27
   1  -1 -15   99.41   22.14
   1  -1 -15   78.82   18.64
   1  -1 -14  220.45   30.14
   1  -1 -14  193.27   27.20
   1  -1 -13   33.50   12.92
   1  -1 -13   50.30   16.45
   1  -1 -12  112.36   19.64
   1  -1 -12  111.99   20.30
   1  -1 -11  220.01   26.41
   1  -1 -11  207.57   24.72
   1  -1 -10  570.41   39.04
   1  -1 -10  577.38   37.03
   1  -1  -9  288.32   26.41
   1  -1  -9  330.25   28.17
   1  -1  -9  284.70   16.99
   1  -1  -8   59.13   11.83
   1  -1  -8   41.71    6.11
   1  -1  -8   58.28   12.61
   1  -1  -7  469.11   29.87
   1  -1  -7  481.54   28.88
   1  -1  -7  446.20   17.22
   1  -1  -6  125.83   15.54
   1  -1  -6  150.48   15.98
   1  -1  -6  139.52    8.46
   1  -1  -5  427.52   22.97
   1  -1  -5  375.34   23.49
   1  -1  -5  390.24   11.33
   1  -1  -4  642.34   27.11
   1  -1  -4  564.04   23.91
   1  -1  -3  867.70   26.25
   1  -1  -3  835.43   28.28
   1  -1  -3  783.48   22.65
   1  -1  -3  933.72   21.39
   1  -1  -2  260.78   12.70
   1  -1  -2  258.68   10.60
   1  -1  -2  262.59   11.92
   1  -1  -1 1349.03   31.87
   1  -1  -1 1380.32   23.22
   1  -1  -1 1344.82   25.58
   1  -1  -1 1310.18   31.11
   1  -1  -1 1414.47   18.18
   1  -1   0 1041.71   19.50
   1  -1   0  944.33   25.41
   1  -1   0  926.40   25.42
   1  -1   0 1013.97   14.34
   1  -1   0  978.80   22.07
   1  -1   0 1004.33   26.42
   1  -1   1 1386.19   26.44
   1  -1   1 1345.98   31.35
   1  -1   1 1372.55   29.73
   1  -1   1 1362.53   27.71
   1  -1   1 1268.01   30.05
   1  -1   1 1435.86   29.73
   1  -1   2  477.09   17.70
   1  -1   2  452.86   18.02
   1  -1   2  473.67   18.01
   1  -1   2  468.13   19.58
   1  -1   3  697.24   23.46
   1  -1   3  652.26   23.04
   1  -1   3  709.05   24.24
   1  -1   4   95.82   10.30
   1  -1   4   99.69   10.35
   1  -1   4   92.00    9.97
   1  -1   5  195.58   15.31
   1  -1   5  217.33   16.02
   1  -1   5  213.01   16.37
   1  -1   6  947.24   33.74
   1  -1   6  986.11   37.18
   1  -1   6  989.73   35.98
   1  -1   7  741.84   33.51
   1  -1   7  713.28   31.83
   1  -1   8  360.04   24.75
   1  -1   8  360.12   24.07
   1  -1   9   84.57   13.28
   1  -1   9   69.25   12.14
   1  -1  10  242.33   22.28
   1  -1  10  204.68   20.43
   1  -1  11  399.60   30.17
   1  -1  11  393.66   29.43
   1  -1  12  130.51   18.89
   1  -1  12  181.71   20.91
   1  -1  13   99.60   17.25
   1  -1  13  116.04   17.78
   1  -1  14   43.52   13.01
   1  -1  14   71.03   16.24
   1  -1  14   74.00   15.61
   1  -1  15    1.65    8.01
   1  -1  15    6.69    7.96
   1  -1  15    1.05    7.73
   1  -1  16  190.51   25.32
   1  -1  16  153.08   25.34
   1  -1  17   10.15    8.96
   1  -1  18    6.89   14.78
   1   0 -17   18.82   13.64
   1   0 -17   20.51   16.00
   1   0 -16  -15.00   11.04
   1   0 -16   23.15   13.31
   1   0 -15   15.21   12.63
   1   0 -15   -1.49   11.38
   1   0 -14   73.84   18.26
   1   0 -14   47.82   16.85
   1   0 -13   33.58   13.53
   1   0 -13   61.96   16.13
   1   0 -12  123.94   21.55
   1   0 -12  100.52   18.65
   1   0 -11   55.85   14.91
   1   0 -11   36.90   11.98
   1   0 -10  349.81   30.43
   1   0 -10  363.42   29.79
   1   0 -10  346.15   23.44
   1   0  -9   36.07   11.54
   1   0  -9   43.28   11.85
   1   0  -9   49.06    8.89
   1   0  -8  121.49   17.25
   1   0  -8  111.62   15.77
   1   0  -8   90.28   10.88
   1   0  -7  118.25   15.08
   1   0  -7  104.00   14.10
   1   0  -7  104.41   10.59
   1   0  -6   62.38   10.72
   1   0  -6   41.05    6.57
   1   0  -6   37.36    8.80
   1   0  -5 2628.49   57.24
   1   0  -5 2567.76   53.46
   1   0  -5 2612.91   42.97
   1   0  -4  138.97   12.66
   1   0  -4  169.66   13.36
   1   0  -4  160.54    9.74
   1   0  -3 2060.98   41.79
   1   0  -3 1984.84   37.92
   1   0  -3 1975.64   28.89
   1   0  -2  702.20   21.46
   1   0  -2  696.43   19.86
   1   0  -2  682.01   21.07
   1   0  -2  639.83   14.27
   1   0  -1  215.86    9.56
   1   0  -1  213.08   10.29
   1   0  -1  201.92    9.12
   1   0   2  734.71   20.11
   1   0   2  733.00   18.57
   1   0   2  739.74   15.94
   1   0   2  736.21   20.00
   1   0   3   46.63    6.36
   1   0   3   49.09    5.91
   1   0   3   48.27    5.32
   1   0   3   58.35    7.01
   1   0   4 2361.90   46.62
   1   0   4 2260.45   39.76
   1   0   4 2302.68   43.41
   1   0   5  995.00   29.59
   1   0   5 1076.48   35.46
   1   0   5 1014.72   31.49
   1   0   6  218.23   14.97
   1   0   6  236.60   16.92
   1   0   7  105.42   11.30
   1   0   7  121.64   13.16
   1   0   8   26.50    7.33
   1   0   8   17.39    2.24
   1   0   8   23.89    3.97
   1   0   8   15.47    5.60
   1   0   9  304.39   12.65
   1   0   9  352.28   23.04
   1   0   9  343.54   24.00
   1   0  10  107.77   13.95
   1   0  10  108.82   15.27
   1   0  11   58.60   12.30
   1   0  11   61.51   11.45
   1   0  12   72.04   13.71
   1   0  12   74.52   15.59
   1   0  12   75.09   12.83
   1   0  13  246.41   27.66
   1   0  13  229.05   22.81
   1   0  13  201.57   22.41
   1   0  14   94.42   16.46
   1   0  14  102.60   18.95
   1   0  14  117.14   17.18
   1   0  15   -0.94    7.25
   1   0  15   15.57    9.13
   1   0  16   20.38   10.61
   1   0  17    7.37    8.10
   1   0  18   -3.49    7.83
   1   0  18   18.50   15.13
   1   1 -18    9.02   12.61
   1   1 -17   33.22   14.73
   1   1 -17    7.66   13.00
   1   1 -16   12.66   15.18
   1   1 -16   19.47   13.67
   1   1 -15   62.50   18.65
   1   1 -15   47.61   15.33
   1   1 -14  197.98   28.92
   1   1 -14  197.41   27.12
   1   1 -13   53.52   16.13
   1   1 -13   65.19   17.10
   1   1 -12   70.83   17.20
   1   1 -12   66.44   16.52
   1   1 -12   66.87   13.53
   1   1 -11   12.08   10.04
   1   1 -11   38.25   11.99
   1   1 -11   20.34    7.94
   1   1 -10  645.96   40.83
   1   1 -10  681.40   38.73
   1   1 -10  665.14   36.66
   1   1  -9  188.34   21.16
   1   1  -9  219.13   21.52
   1   1  -9  199.95   19.45
   1   1  -8  720.39   38.35
   1   1  -8  642.06   32.37
   1   1  -8  642.69   33.43
   1   1  -7  348.98   24.67
   1   1  -7  319.64   22.46
   1   1  -7  295.43   10.54
   1   1  -6  570.56   28.96
   1   1  -6  523.06   26.36
   1   1  -6  552.86   26.17
   1   1  -6  461.42   14.51
   1   1  -5  915.48   33.76
   1   1  -5  836.99   30.68
   1   1  -5  786.96   19.55
   1   1  -5  824.71   30.13
   1   1  -4 1203.67   35.17
   1   1  -4 1212.35   33.31
   1   1  -4 1224.90   34.27
   1   1  -4 1121.92   23.94
   1   1  -3  226.13   13.64
   1   1  -3  243.35   14.04
   1   1  -3  256.87   14.86
   1   1  -3  249.00   11.22
   1   1  -2 4219.40   48.54
   1   1  -2 4450.92   52.61
   1   1  -2 4395.26   46.57
   1   1  -2 4348.49   54.98
   1   1  -1  395.53   11.61
   1   1  -1  409.86   14.99
   1   1  -1  395.00   15.74
   1   1  -1  423.09   14.38
   1   1   0 3727.07   44.23
   1   1   0 3660.21   29.36
   1   1   0 3816.68   45.68
   1   1   0 3880.56   42.45
   1   1   1  955.97   19.62
   1   1   1  957.71   23.07
   1   1   1  921.09   17.05
   1   1   1 1014.43   21.73
   1   1   2   94.70    7.19
   1   1   2  108.44    7.74
   1   1   2   97.98    7.26
   1   1   2   89.32    4.76
   1   1   2   86.67    5.69
   1   1   2   90.62    7.50
   1   1   3  848.32   24.59
   1   1   3  893.64   25.11
   1   1   3  845.94   18.06
   1   1   3  855.36   16.53
   1   1   3  853.58   23.64
   1   1   3  826.65   20.10
   1   1   3  883.25   24.19
   1   1   4 3401.77   54.91
   1   1   4 3334.39   31.26
   1   1   4 3165.44   39.98
   1   1   4 3422.88   39.33
   1   1   4 3353.80   52.32
   1   1   4 3182.32   39.82
   1   1   4 3422.35   50.72
   1   1   5    7.82    3.60
   1   1   5    4.16    4.02
   1   1   5    2.32    4.49
   1   1   5    2.54    1.64
   1   1   5    3.59    2.66
   1   1   5    3.18    2.98
   1   1   5    9.26    4.42
   1   1   6   10.74    5.40
   1   1   6    8.12    2.21
   1   1   6   10.83    5.73
   1   1   6    8.81    4.36
   1   1   6    3.87    2.25
   1   1   6    8.86    3.47
   1   1   7  401.50   24.83
   1   1   7  355.76   12.41
   1   1   7  404.37   18.95
   1   1   7  387.45   20.05
   1   1   7  371.91   13.59
   1   1   7  381.73   21.86
   1   1   8  284.27   22.46
   1   1   8  282.36   11.98
   1   1   8  300.58   17.76
   1   1   8  318.69   20.18
   1   1   8  277.74   10.81
   1   1   8  316.15   21.69
   1   1   9  749.91   38.40
   1   1   9  705.65   20.22
   1   1   9  782.87   30.24
   1   1   9  811.19   34.14
   1   1   9  716.29   34.02
   1   1  10  160.98   19.77
   1   1  10  197.23   16.33
   1   1  10  200.69   18.54
   1   1  10  211.22   19.76
   1   1  11  165.08   20.76
   1   1  11  164.56   15.77
   1   1  11  145.91   17.03
   1   1  11  185.34   19.78
   1   1  12   34.19   10.35
   1   1  12   17.06    8.94
   1   1  12   21.91    8.34
   1   1  12   24.86    6.97
   1   1  13  265.11   29.06
   1   1  13  283.30   25.93
   1   1  13  280.87   25.60
   1   1  14   86.28   17.53
   1   1  14   69.57   14.00
   1   1  15   27.93   11.43
   1   1  15   22.91    8.79
   1   1  16   15.44   10.05
   1   1  17   12.11    8.85
   1   1  17   15.52   13.31
   1   1  18   23.65   13.16
   1   1  18   11.65   13.13
   1   1  19   11.95   10.60
   1   2 -17   35.18   13.55
   1   2 -17   46.99   16.58
   1   2 -16    7.40    9.77
   1   2 -16   16.93   11.99
   1   2 -15   19.28   13.27
   1   2 -15   23.51   12.40
   1   2 -14    1.41    8.88
   1   2 -14   15.29   10.18
   1   2 -13    9.70    8.91
   1   2 -13    1.45    9.38
   1   2 -13   11.12    8.79
   1   2 -12   56.22   15.22
   1   2 -12   44.08   13.83
   1   2 -12   62.50   14.63
   1   2 -11   96.35   18.05
   1   2 -11   94.49   16.59
   1   2 -11   82.61   16.07
   1   2 -10  133.97   18.99
   1   2 -10  127.81   18.00
   1   2 -10  121.20   17.79
   1   2  -9  150.30   19.51
   1   2  -9  191.86   20.07
   1   2  -9  190.27   21.15
   1   2  -8   37.82   10.17
   1   2  -8   33.59   10.67
   1   2  -8   17.69    7.93
   1   2  -7  192.40   18.77
   1   2  -7  200.77   18.06
   1   2  -7  170.24   11.57
   1   2  -7  194.66   19.07
   1   2  -6 1358.96   44.08
   1   2  -6 1255.14   40.67
   1   2  -6 1360.03   47.31
   1   2  -5  398.11   21.98
   1   2  -5  400.11   21.63
   1   2  -5  349.28   17.25
   1   2  -5  391.35   24.61
   1   2  -4 1225.67   34.67
   1   2  -4 1285.19   35.61
   1   2  -4 1258.17   41.93
   1   2  -4 1187.20   31.77
   1   2  -3  773.98   23.93
   1   2  -3  807.27   26.35
   1   2  -3  786.16   25.85
   1   2  -3  801.67   31.30
   1   2  -2 2077.14   32.93
   1   2  -2 2123.19   40.67
   1   2  -2 2164.79   48.59
   1   2  -2 2071.89   41.58
   1   2  -1 8144.16   89.28
   1   2  -1 8129.65   48.50
   1   2  -1 8348.01   81.12
   1   2  -1 8437.28   83.41
   1   2   0 3212.06   41.93
   1   2   0 3231.44   57.04
   1   2   0 3397.67   53.13
   1   2   0 3287.26   50.31
   1   2   0 3221.81   53.64
   1   2   1 2491.55   40.00
   1   2   1 2478.67   45.55
   1   2   1 2427.61   49.75
   1   2   1 2507.71   44.22
   1   2   1 2640.18   46.87
   1   2   2 4033.34   56.69
   1   2   2 3974.41   51.67
   1   2   2 3819.02   62.23
   1   2   2 3869.70   56.01
   1   2   2 4097.91   58.28
   1   2   3 1040.08   31.59
   1   2   3 1028.31   26.48
   1   2   3 1001.29   31.69
   1   2   3  964.79   29.37
   1   2   3 1048.04   30.10
   1   2   3 1040.18   18.70
   1   2   4 9899.82  105.92
   1   2   4 9874.45   86.05
   1   2   4 9903.66   85.28
   1   2   4 9732.94   92.51
   1   2   4 9392.94   95.56
   1   2   5  141.71   14.03
   1   2   5  131.22   10.24
   1   2   5  117.86    6.55
   1   2   5  111.37   10.01
   1   2   5  117.52   11.87
   1   2   5  123.06   11.10
   1   2   6   39.38    6.81
   1   2   6   45.74    6.75
   1   2   6   53.20    6.75
   1   2   6   50.24    9.59
   1   2   6   39.99    4.74
   1   2   6   49.06    7.15
   1   2   6   55.89    9.57
   1   2   7   49.05    8.17
   1   2   7   45.54    6.48
   1   2   7   45.57    9.99
   1   2   7   46.28    5.38
   1   2   7   42.02    6.95
   1   2   7   44.32    6.53
   1   2   7   61.90   10.66
   1   2   8  231.36   21.31
   1   2   8  229.84   14.12
   1   2   8  222.02   12.85
   1   2   8  215.36   16.68
   1   2   8  249.03   14.38
   1   2   8  223.24   17.60
   1   2   9  172.05   19.48
   1   2   9  211.92   13.87
   1   2   9  208.40   18.02
   1   2   9  201.62   12.29
   1   2   9  207.04   13.45
   1   2   9  183.64   16.88
   1   2  10   27.73    8.07
   1   2  10   27.68    9.37
   1   2  10   23.07    7.41
   1   2  10   37.76    6.82
   1   2  11  256.54   26.34
   1   2  11  280.00   24.05
   1   2  11  251.88   21.95
   1   2  12   52.51   11.71
   1   2  12   51.13   13.25
   1   2  12   43.26   10.23
   1   2  13   25.63    9.74
   1   2  13    3.82    6.10
   1   2  14   20.07   10.63
   1   2  14   21.42    8.18
   1   2  15    8.90    6.74
   1   2  15    3.53    5.75
   1   2  16   32.39   12.71
   1   2  16   17.28   13.10
   1   2  17   15.41   10.66
   1   2  17   14.76   13.22
   1   2  18   56.36   18.14
   1   2  18   51.62   18.99
   1   2  19    9.99   10.23
   1   2  19   23.56   15.14
   1   3 -17   16.14   12.67
   1   3 -17  -19.13   14.48
   1   3 -16    4.88   10.22
   1   3 -16  -58.99   17.35
   1   3 -15  -18.84   12.18
   1   3 -15   -3.76   11.70
   1   3 -14   14.69   10.51
   1   3 -14   -6.87   11.24
   1   3 -14   -7.75    8.07
   1   3 -13   34.39   12.76
   1   3 -13   29.74   10.96
   1   3 -13   31.29   11.57
   1   3 -12   60.95   14.94
   1   3 -12   57.72   14.00
   1   3 -12  104.05   20.13
   1   3 -11   14.13    9.38
   1   3 -11    4.18    7.62
   1   3 -11    1.12    7.65
   1   3 -10   19.52   10.10
   1   3 -10   -3.92    8.82
   1   3 -10    6.58    6.59
   1   3  -9  187.34   23.24
   1   3  -9  214.96   22.60
   1   3  -9  195.98   20.74
   1   3  -8  166.13   18.84
   1   3  -8  139.45   16.21
   1   3  -8  129.14   18.59
   1   3  -7  310.42   23.56
   1   3  -7  305.46   22.46
   1   3  -7  277.19   18.52
   1   3  -7  328.09   27.38
   1   3  -6  198.30   17.30
   1   3  -6  165.66   16.01
   1   3  -6  163.77   14.58
   1   3  -6  189.27   20.13
   1   3  -5  161.45   14.50
   1   3  -5  157.85   14.36
   1   3  -5  183.84   15.79
   1   3  -5  161.66   18.19
   1   3  -4 1750.38   41.97
   1   3  -4 1712.51   43.95
   1   3  -4 1630.97   50.58
   1   3  -4 1819.56   47.54
   1   3  -4 1740.36   55.60
   1   3  -3 4760.29   61.21
   1   3  -3 4711.95   69.92
   1   3  -3 4630.25   83.67
   1   3  -3 4811.57   77.34
   1   3  -3 4886.04   88.38
   1   3  -2  272.53   13.04
   1   3  -2  247.95   20.04
   1   3  -2  261.64   18.37
   1   3  -2  243.80   16.45
   1   3  -2  269.81   20.36
   1   3  -1  123.25   13.31
   1   3  -1  137.78   12.31
   1   3  -1  122.61   13.71
   1   3  -1  122.97   14.70
   1   3   0  710.46   25.84
   1   3   0  727.29   31.07
   1   3   0  688.55   26.47
   1   3   0  698.56   33.02
   1   3   0  787.58   31.59
   1   3   1   50.39    8.65
   1   3   1   42.41    6.92
   1   3   1   44.15    9.25
   1   3   1   44.20    8.12
   1   3   1   45.86    7.30
   1   3   2  941.71   32.70
   1   3   2  945.76   32.56
   1   3   2  959.60   38.36
   1   3   2  952.06   33.38
   1   3   2  974.36   35.14
   1   3   2  889.64   30.85
   1   3   3  388.66   22.32
   1   3   3  397.71   21.34
   1   3   3  366.26   24.06
   1   3   3  404.97   22.97
   1   3   3  342.28   19.50
   1   3   4  363.85   23.17
   1   3   4  317.62   19.94
   1   3   4  290.38   18.48
   1   3   4  302.51   22.08
   1   3   4  340.12   21.03
   1   3   4  317.57   19.70
   1   3   5 2617.86   65.54
   1   3   5 2765.27   58.45
   1   3   5 2576.79   62.94
   1   3   5 2801.85   57.81
   1   3   5 2762.26   59.25
   1   3   5 2636.96   58.19
   1   3   6 1173.63   45.93
   1   3   6 1165.21   37.66
   1   3   6 1197.77   39.03
   1   3   6 1125.37   40.52
   1   3   6 1211.57   39.31
   1   3   6 1151.00   41.52
   1   3   7  205.91   20.62
   1   3   7  194.92   15.88
   1   3   7  174.20   15.65
   1   3   7  192.68   16.05
   1   3   7  174.27   17.13
   1   3   8  599.72   36.32
   1   3   8  574.05   27.31
   1   3   8  499.46   12.58
   1   3   8  572.84   29.35
   1   3   8  573.13   26.82
   1   3   8  606.31   33.18
   1   3   9  131.26   18.02
   1   3   9  185.21   15.90
   1   3   9  184.68   17.74
   1   3   9  165.97   14.26
   1   3  10  156.37   21.13
   1   3  10  108.10   12.40
   1   3  10  140.70   16.44
   1   3  11  163.63   22.68
   1   3  11  135.19   17.19
   1   3  12  166.02   24.02
   1   3  12  136.07   18.45
   1   3  13  160.66   23.58
   1   3  13  159.89   21.21
   1   3  14   68.81   16.52
   1   3  14   61.92   14.70
   1   3  14   83.96   18.97
   1   3  15   49.57   15.72
   1   3  15   28.61   13.28
   1   3  16   39.16   13.91
   1   3  16   18.81   10.70
   1   3  17   49.15   16.74
   1   3  17   35.41   15.42
   1   3  18   59.99   19.89
   1   3  18   51.47   19.59
   1   3  19   14.61   11.98
   1   4 -16   -5.83   12.62
   1   4 -15   35.10   14.68
   1   4 -15   -1.48    8.00
   1   4 -14   41.47   15.12
   1   4 -14   43.43   15.50
   1   4 -13   27.18   12.99
   1   4 -13   16.16    9.18
   1   4 -13   23.20   13.12
   1   4 -12   -2.63    8.31
   1   4 -12    6.86    8.48
   1   4 -12    4.66    8.07
   1   4 -11   16.31    7.72
   1   4 -11   28.61    9.89
   1   4 -11   16.66    9.41
   1   4 -10   17.50    9.29
   1   4 -10   28.02   10.41
   1   4 -10   26.05   11.54
   1   4  -9   79.01   14.46
   1   4  -9   67.28   13.25
   1   4  -9   76.18   16.53
   1   4  -8  170.43   19.18
   1   4  -8  192.91   19.75
   1   4  -8  156.66   22.56
   1   4  -7    0.27    5.38
   1   4  -7   12.60    6.34
   1   4  -7   16.18    9.67
   1   4  -7   -3.33    5.00
   1   4  -6   15.23    6.93
   1   4  -6   10.82    4.98
   1   4  -6    7.40    4.66
   1   4  -6   14.78    5.96
   1   4  -6    9.20    6.08
   1   4  -5  307.32   20.55
   1   4  -5  297.80   21.16
   1   4  -5  307.17   23.20
   1   4  -5  258.34   23.64
   1   4  -5  349.33   29.50
   1   4  -4 1106.40   35.49
   1   4  -4 1037.17   41.85
   1   4  -4 1034.99   47.42
   1   4  -4 1032.21   39.90
   1   4  -4 1054.78   48.07
   1   4  -3 1241.08   46.26
   1   4  -3 1267.95   51.31
   1   4  -3 1173.04   50.14
   1   4  -3 1206.85   41.72
   1   4  -2  158.20   18.49
   1   4  -2  151.73   16.54
   1   4  -2  175.33   19.17
   1   4  -2  167.12   15.09
   1   4  -1  520.61   26.17
   1   4  -1  496.67   29.89
   1   4  -1  528.02   31.67
   1   4  -1  524.41   33.22
   1   4   0   76.02   10.58
   1   4   0   74.18   13.09
   1   4   0   79.69   10.37
   1   4   0   79.93   12.70
   1   4   0   88.25   12.98
   1   4   1 3005.07   65.63
   1   4   1 2987.68   79.10
   1   4   1 3131.52   72.75
   1   4   1 3058.85   70.52
   1   4   1 2921.31   61.32
   1   4   2 1604.43   49.58
   1   4   2 1608.37   57.76
   1   4   2 1668.45   53.13
   1   4   2 1623.57   49.51
   1   4   2 1581.38   45.53
   1   4   3  899.00   38.67
   1   4   3  965.64   39.21
   1   4   3  894.69   43.31
   1   4   3  932.56   36.37
   1   4   3 1015.35   41.43
   1   4   3  926.13   35.75
   1   4   4  184.24   18.65
   1   4   4  176.32   17.89
   1   4   4  189.45   17.90
   1   4   4  174.27   19.37
   1   4   4  166.39   17.31
   1   4   4  168.44   15.97
   1   4   5  161.87   17.98
   1   4   5  189.07   18.51
   1   4   5  164.23   18.69
   1   4   5  173.57   17.27
   1   4   5  148.04   16.42
   1   4   5  173.87   16.74
   1   4   5  154.35    9.25
   1   4   6 1688.79   60.12
   1   4   6 1794.60   55.34
   1   4   6 1638.21   52.94
   1   4   6 1672.39   54.26
   1   4   6 1644.63   57.93
   1   4   6 1683.99   53.37
   1   4   6 1509.11   35.15
   1   4   7  123.83   17.43
   1   4   7  114.08   14.45
   1   4   7   89.37   14.24
   1   4   7  124.24   15.28
   1   4   7  100.88   14.03
   1   4   7  113.92   14.80
   1   4   7  122.67   11.88
   1   4   8   18.71    8.22
   1   4   8   28.36    8.51
   1   4   8   17.30    6.54
   1   4   8   21.22    7.17
   1   4   8   11.29    5.29
   1   4   8   13.53    6.16
   1   4   8   24.68    6.51
   1   4   9   43.35   12.09
   1   4   9   37.57    8.96
   1   4   9   27.13    7.91
   1   4   9   27.81    8.43
   1   4   9   22.02    8.95
   1   4   9   28.95    7.69
   1   4  10   35.62   11.52
   1   4  10   19.51    6.56
   1   4  10   22.41    7.67
   1   4  10   24.63    7.79
   1   4  10   15.82    6.62
   1   4  11  184.16   25.00
   1   4  11  204.40   22.15
   1   4  11  189.91   20.95
   1   4  12    4.71    6.58
   1   4  12    1.65    6.41
   1   4  12   -4.73    5.70
   1   4  13   78.93   17.28
   1   4  13   57.76   13.41
   1   4  13   63.13   14.17
   1   4  14    5.21    7.75
   1   4  14   15.05    8.40
   1   4  14    9.59   11.26
   1   4  15    9.24    9.93
   1   4  16    0.13    9.93
   1   4  17   37.94   15.69
   1   4  18   -5.04    9.30
   1   5 -15   33.05   15.92
   1   5 -14   20.51   13.34
   1   5 -13    9.13   11.51
   1   5 -12   45.84   13.36
   1   5 -12   13.54   10.91
   1   5 -11   35.04   11.61
   1   5 -11   41.69   17.27
   1   5 -10   44.22   12.72
   1   5 -10   28.56   11.83
   1   5  -9    4.01    8.38
   1   5  -9    0.88    5.72
   1   5  -9   13.75   10.17
   1   5  -8   73.44   13.66
   1   5  -8   63.24   11.66
   1   5  -8   81.12   17.86
   1   5  -7  100.17   14.86
   1   5  -7   98.04   15.95
   1   5  -7   82.21   14.93
   1   5  -7   94.01   14.63
   1   5  -7   86.56   14.61
   1   5  -7   80.40   18.04
   1   5  -6  139.82   18.06
   1   5  -6  136.25   19.58
   1   5  -6  138.20   17.90
   1   5  -6  151.46   22.31
   1   5  -5   38.94   11.41
   1   5  -5   10.10    7.21
   1   5  -5   18.26    9.20
   1   5  -5   32.67    9.17
   1   5  -4   82.18   15.63
   1   5  -4  100.73   15.16
   1   5  -4  109.11   17.88
   1   5  -4   95.35   13.49
   1   5  -3   97.22   16.80
   1   5  -3   79.60   13.68
   1   5  -3   97.83   13.45
   1   5  -3   88.38   15.84
   1   5  -2   24.89    8.96
   1   5  -2   13.37    7.07
   1   5  -2   26.90    7.87
   1   5  -2   30.45    7.73
   1   5  -1  206.30   21.77
   1   5  -1  180.43   22.24
   1   5  -1  191.86   17.57
   1   5  -1  188.09   21.12
   1   5   0   71.32   14.51
   1   5   0   66.74   12.51
   1   5   0   87.95   14.42
   1   5   0   68.41   10.34
   1   5   1   65.14   11.56
   1   5   1   62.46   13.78
   1   5   1   56.02   11.58
   1   5   1   70.36   12.59
   1   5   1   61.39   10.24
   1   5   2  120.01   15.76
   1   5   2  119.26   16.48
   1   5   2  126.97   18.95
   1   5   2  126.25   15.83
   1   5   2  125.66   14.27
   1   5   3   55.97   11.33
   1   5   3   76.95   15.17
   1   5   3   60.10   12.03
   1   5   3   61.71   11.18
   1   5   3   68.29   10.91
   1   5   4  515.99   33.77
   1   5   4  538.54   33.96
   1   5   4  569.95   35.26
   1   5   4  552.91   38.36
   1   5   4  509.02   29.61
   1   5   4  547.91   31.20
   1   5   5  422.51   32.09
   1   5   5  440.02   31.54
   1   5   5  409.45   29.97
   1   5   5  439.23   30.81
   1   5   5  398.57   32.97
   1   5   5  396.83   27.13
   1   5   6  119.71   17.88
   1   5   6  167.72   20.01
   1   5   6  147.73   18.71
   1   5   6  145.80   19.17
   1   5   6  148.16   20.33
   1   5   6  128.38   16.69
   1   5   7  209.01   24.27
   1   5   7  236.42   23.30
   1   5   7  212.06   22.32
   1   5   7  181.83   20.70
   1   5   7  219.78   24.21
   1   5   7  205.76   21.05
   1   5   8   34.07   11.05
   1   5   8   48.25   11.45
   1   5   8   42.38   12.78
   1   5   8   33.27   10.11
   1   5   8   28.52    9.61
   1   5   8   36.40   10.36
   1   5   9   63.75   14.86
   1   5   9   69.40   14.12
   1   5   9   47.11   11.61
   1   5   9   74.65   14.37
   1   5   9   79.60   14.14
   1   5   9   84.77   15.29
   1   5  10  184.15   25.52
   1   5  10  183.32   21.16
   1   5  10  204.35   21.79
   1   5  10  220.98   23.86
   1   5  11   63.36   15.93
   1   5  11   66.48   14.53
   1   5  12   30.33   13.73
   1   5  12   38.78   11.50
   1   5  13   17.76   10.85
   1   5  13   17.25    8.34
   1   5  14    9.44    8.11
   1   5  14   14.44    7.76
   1   5  15   23.23   11.56
   1   5  16   36.19   14.48
   1   5  17  -23.42   13.26
   1   6 -14    8.47    9.78
   1   6 -13    1.66    9.53
   1   6 -12   17.81   11.79
   1   6 -11   -6.60   12.65
   1   6 -10   14.58   11.94
   1   6  -9   31.37   13.57
   1   6  -8    8.32    6.78
   1   6  -8   11.56   10.73
   1   6  -7   20.93    9.32
   1   6  -7   39.81   14.27
   1   6  -7   18.51    7.35
   1   6  -7   19.55    9.09
   1   6  -6   62.08   14.16
   1   6  -6   43.27   13.85
   1   6  -6   45.06   10.87
   1   6  -6   60.91   16.39
   1   6  -5   55.13   14.49
   1   6  -5   57.79   13.55
   1   6  -5   53.07   14.43
   1   6  -5   60.39   12.27
   1   6  -4  170.40   24.00
   1   6  -4  140.71   22.14
   1   6  -4  144.95   20.97
   1   6  -4  169.67   19.70
   1   6  -3   15.00    9.41
   1   6  -3   10.31    7.30
   1   6  -3   12.66    8.21
   1   6  -3   12.53    7.01
   1   6  -2   64.70   14.90
   1   6  -2   84.85   16.11
   1   6  -2  100.82   18.11
   1   6  -2   91.73   13.63
   1   6  -1  384.77   32.84
   1   6  -1  404.98   32.82
   1   6  -1  353.32   34.66
   1   6  -1  349.65   25.64
   1   6   0  144.19   22.20
   1   6   0  149.78   20.51
   1   6   0  185.50   18.72
   1   6   0  182.40   23.01
   1   6   1  239.27   25.41
   1   6   1  201.90   25.48
   1   6   1  201.35   19.30
   1   6   1  235.62   24.87
   1   6   1  217.10   22.70
   1   6   2   11.42    6.21
   1   6   2    9.85    8.50
   1   6   2   11.09    9.00
   1   6   2    7.99    5.35
   1   6   2    7.90    6.94
   1   6   3  298.16   27.81
   1   6   3  291.96   28.19
   1   6   3  317.71   32.10
   1   6   3  324.14   27.44
   1   6   3  300.23   24.31
   1   6   4  184.75   22.62
   1   6   4  141.20   21.61
   1   6   4  173.10   22.09
   1   6   4  156.78   18.74
   1   6   4  175.92   19.17
   1   6   5   93.86   16.79
   1   6   5   97.28   19.09
   1   6   5   79.29   15.18
   1   6   5   99.42   16.95
   1   6   5   78.58   13.64
   1   6   6   80.98   16.60
   1   6   6   60.45   14.34
   1   6   6   81.26   15.44
   1   6   6   75.57   16.10
   1   6   6   69.76   13.37
   1   6   7  114.53   20.10
   1   6   7  115.63   18.54
   1   6   7   92.81   18.31
   1   6   7  100.96   17.60
   1   6   7  118.80   18.44
   1   6   7   87.76   15.51
   1   6   8   98.91   19.71
   1   6   8  110.67   18.77
   1   6   8   64.67   15.79
   1   6   8  107.43   17.80
   1   6   8   86.71   16.35
   1   6   8  103.01   16.64
   1   6   9   66.53   17.76
   1   6   9   65.31   15.04
   1   6   9   68.55   15.05
   1   6   9   76.00   16.54
   1   6   9   72.64   15.03
   1   6   9   56.03   13.37
   1   6  10    9.14    8.66
   1   6  10   17.24    8.89
   1   6  10    6.36    6.36
   1   6  10   10.71    7.31
   1   6  10    7.04    7.80
   1   6  11   -2.71    9.03
   1   6  11    5.96    6.81
   1   6  12    7.68    8.46
   1   6  12    5.74    5.86
   1   6  13   99.23   21.75
   1   6  13  106.53   20.12
   1   6  14   41.04   15.10
   1   6  15  -14.83   10.73
   1   6  16  -14.83   11.23
   1   7 -12    4.72    9.47
   1   7 -11   89.46   23.11
   1   7 -10   43.14   15.94
   1   7  -9   -4.16    9.86
   1   7  -8    3.60    9.07
   1   7  -7   -4.07   10.66
   1   7  -7   -2.09    8.06
   1   7  -7  -10.25    7.46
   1   7  -6   30.79   11.31
   1   7  -6   59.58   16.79
   1   7  -6   59.84   17.14
   1   7  -5   70.10   16.42
   1   7  -5   77.70   18.69
   1   7  -5   51.66   15.60
   1   7  -4    6.05    7.07
   1   7  -4   21.74   11.36
   1   7  -4    9.83    8.47
   1   7  -3  177.62   25.52
   1   7  -3  200.57   28.67
   1   7  -3  225.09   29.21
   1   7  -2    3.02    6.96
   1   7  -2    5.27    6.87
   1   7  -2    4.92    8.73
   1   7  -2    2.51    5.48
   1   7  -1  209.85   26.46
   1   7  -1  196.52   27.81
   1   7  -1  188.04   25.64
   1   7  -1  180.33   19.99
   1   7   0   16.82   10.63
   1   7   0   38.81   13.27
   1   7   0    9.65    7.05
   1   7   0   18.75    7.07
   1   7   1   17.31   10.43
   1   7   1   46.06   13.22
   1   7   1   45.65   10.18
   1   7   1   33.66   11.26
   1   7   2   36.86   11.39
   1   7   2   41.76   12.32
   1   7   2   51.85   15.72
   1   7   2   48.69   13.44
   1   7   2   47.60   10.31
   1   7   3   18.47    8.61
   1   7   3    9.65    7.73
   1   7   3   11.66    8.10
   1   7   3   38.60   11.74
   1   7   3   12.68    6.85
   1   7   4  155.12   22.69
   1   7   4  114.38   22.38
   1   7   4  128.31   21.07
   1   7   4  129.23   17.64
   1   7   4  114.70   17.92
   1   7   5   40.66   13.60
   1   7   5   65.76   17.16
   1   7   5   42.11   13.61
   1   7   5   63.46   13.04
   1   7   6   28.25   11.95
   1   7   6   23.07   12.63
   1   7   6   49.55   14.36
   1   7   6   31.03   11.54
   1   7   6   18.82    8.36
   1   7   7   69.40   18.22
   1   7   7   60.12   16.76
   1   7   7   71.73   15.61
   1   7   7   71.29   15.71
   1   7   7   50.41   12.83
   1   7   8  -10.89   10.21
   1   7   8   18.22   10.85
   1   7   8    3.16    7.64
   1   7   8   -8.44    7.46
   1   7   8    1.81    6.75
   1   7   9    0.06    8.00
   1   7   9    6.57    7.35
   1   7   9   -4.34    8.72
   1   7   9   -1.46    7.56
   1   7   9   -0.23    6.49
   1   7  10   53.11   16.20
   1   7  10   46.37   14.14
   1   7  10   73.29   17.94
   1   7  10   50.62   14.46
   1   7  11   59.33   18.14
   1   7  11   47.58   14.94
   1   7  12   -6.52    8.72
   1   7  12   -2.56    6.19
   1   7  13    7.36    9.93
   1   7  13   14.99    8.99
   1   7  14  -15.40   11.69
   1   7  15    2.74    9.58
   1   8 -10    6.07    9.13
   1   8  -9   28.62   15.30
   1   8  -8    3.82   10.12
   1   8  -7  105.38   22.50
   1   8  -7   67.94   19.80
   1   8  -6   -9.86    9.95
   1   8  -6   17.85   11.45
   1   8  -6   19.62   10.87
   1   8  -5  -10.21   11.52
   1   8  -5    5.44    8.86
   1   8  -5    6.59    7.42
   1   8  -4   12.70    8.73
   1   8  -4   12.04    8.52
   1   8  -4   19.39   13.29
   1   8  -3   20.98   11.11
   1   8  -3   10.17    9.38
   1   8  -3   13.54   11.13
   1   8  -2  199.46   31.46
   1   8  -2  190.01   28.19
   1   8  -2  197.59   29.26
   1   8  -1   19.70   12.13
   1   8  -1   31.35   12.94
   1   8  -1   20.81   10.02
   1   8   0   65.73   18.78
   1   8   0  107.21   21.16
   1   8   0   62.30   16.00
   1   8   1   78.63   23.33
   1   8   1   46.09   13.73
   1   8   1   65.10   16.16
   1   8   2   12.56    9.64
   1   8   2   29.74   11.89
   1   8   2   20.40   10.43
   1   8   3  161.14   24.33
   1   8   3  158.37   27.26
   1   8   3  148.68   24.84
   1   8   3  131.61   21.43
   1   8   4   50.01   15.36
   1   8   4   41.18   13.70
   1   8   4   38.10   13.34
   1   8   4   51.38   13.30
   1   8   5    3.96    7.08
   1   8   5   14.16   10.29
   1   8   5    2.00    4.73
   1   8   6  141.40   25.54
   1   8   6  140.17   24.96
   1   8   6  136.12   25.34
   1   8   6  117.69   18.88
   1   8   7   25.29   11.53
   1   8   7   32.19   12.81
   1   8   7   38.43   16.51
   1   8   7   25.38   11.24
   1   8   7   20.62    9.71
   1   8   8   67.55   18.92
   1   8   8   78.99   19.01
   1   8   8   97.10   21.76
   1   8   8  103.03   22.01
   1   8   8  108.39   19.57
   1   8   9   32.13   14.76
   1   8   9   27.77   11.53
   1   8   9    5.29   10.14
   1   8   9   -0.88    6.70
   1   8   9   16.22    8.78
   1   8  10   28.78   14.25
   1   8  10    8.54   10.78
   1   8  10   36.56   13.18
   1   8  10   47.09   16.63
   1   8  11   20.38   13.07
   1   8  11   29.27   13.82
   1   8  12    3.43    8.57
   1   8  12   10.31    9.48
   1   8  13  -31.62   15.88
   1   9  -7    6.58   10.67
   1   9  -6   -3.03   10.95
   1   9  -6   12.36   11.00
   1   9  -6  -23.36   13.57
   1   9  -5   -8.84   10.54
   1   9  -5   10.70   10.44
   1   9  -5   11.94   11.32
   1   9  -4   10.18   11.74
   1   9  -4   33.33   14.80
   1   9  -4   38.75   15.59
   1   9  -3   34.07   14.44
   1   9  -3   75.58   20.83
   1   9  -3   45.25   17.68
   1   9  -2  -34.02   14.93
   1   9  -2   -9.96   14.28
   1   9  -2   -7.22    8.35
   1   9  -1   12.72   11.24
   1   9  -1   34.93   14.90
   1   9  -1   23.06   11.99
   1   9   0   -6.87    9.95
   1   9   0   15.12   11.79
   1   9   0    6.88    9.50
   1   9   1  106.66   23.05
   1   9   1   90.51   23.33
   1   9   1  112.91   22.25
   1   9   2   49.32   16.84
   1   9   2   36.95   14.57
   1   9   2   31.63   13.06
   1   9   3   22.59   10.75
   1   9   3   24.85   10.36
   1   9   4   26.59   11.97
   1   9   4   24.35   11.77
   1   9   4   21.03   11.65
   1   9   5    5.18    8.72
   1   9   5   14.59   11.63
   1   9   5   23.40   15.52
   1   9   6   59.53   18.12
   1   9   6   41.77   16.95
   1   9   6   93.80   23.68
   1   9   7   28.42   15.26
   1   9   7   -5.10   11.95
   1   9   7    9.54    9.39
   1   9   8   10.02   10.49
   1   9   8   13.67   11.29
   1   9   8   17.47   11.47
   1   9   9   23.10   14.13
   1   9   9   -5.26   11.16
   1   9   9   39.79   15.92
   1   9  10   32.74   14.15
   1   9  10   19.79   12.35
   1   9  10   21.08   14.04
   1   9  10   35.56   16.80
   1   9  11   15.88   14.25
   1   9  11   19.93   12.91
   1   9  12   39.59   16.05
   1  10  -5   -7.47   10.59
   1  10  -5   36.72   15.70
   1  10  -4   -9.94   11.58
   1  10  -4    7.27   10.82
   1  10  -4   -2.55   10.59
   1  10  -3  -14.85   12.29
   1  10  -3  -26.43   15.63
   1  10  -3   -1.99    8.41
   1  10  -2  -12.05   13.70
   1  10  -2  -14.33   13.24
   1  10  -2   -8.64   10.14
   1  10  -1   11.12   11.17
   1  10  -1   20.93   13.80
   1  10  -1   12.73   10.19
   1  10   0   21.38   11.74
   1  10   0   28.58   15.26
   1  10   1    9.52   10.38
   1  10   1   20.23   14.14
   1  10   1   -6.71    8.95
   1  10   2  -33.94   16.22
   1  10   2   17.57   14.38
   1  10   3   -3.03   10.87
   1  10   3   10.08   10.84
   1  10   4   10.91   11.98
   1  10   4   27.74   17.19
   1  10   5   37.02   15.55
   1  10   5   14.48   10.47
   1  10   6    6.13   10.27
   1  10   6  -14.24   12.13
   1  10   6   -8.68   10.15
   1  10   7    1.66    9.74
   1  10   7    3.01   12.30
   1  10   7   11.12   12.88
   1  10   8   30.13   16.12
   1  10   8    3.80    9.85
   1  10   8   34.77   17.88
   1  10   9  -11.24   12.27
   1  10   9   16.25   14.03
   1  10  10    3.81    9.40
   2  -9  -6   23.55   16.28
   2  -9  -6   13.10   14.18
   2  -9  -6   34.97   16.03
   2  -9  -5   25.12   14.77
   2  -9  -5   -2.78    7.16
   2  -9  -4   22.08   14.13
   2  -9  -4   18.85   10.94
   2  -9  -4   21.25   14.19
   2  -9  -4  -10.21   14.22
   2  -9  -3   34.10   16.71
   2  -9  -3   22.88   11.45
   2  -9  -3   39.48   17.59
   2  -9  -3   11.73   12.38
   2  -9  -2  -40.51   17.34
   2  -9  -2  -10.70   15.87
   2  -9  -2   -4.79   11.48
   2  -9  -1   16.60   14.32
   2  -9  -1   31.22   14.98
   2  -9  -1   15.98   13.86
   2  -9   0   53.30   18.13
   2  -9   0   38.84   15.49
   2  -9   0   33.06   14.69
   2  -9   1   21.18   13.48
   2  -9   1   11.29   11.46
   2  -9   1    9.43   13.49
   2  -9   2   17.73   13.97
   2  -9   2    4.61    9.93
   2  -9   3   27.57   16.70
   2  -9   3   37.40   17.48
   2  -9   4   43.61   15.52
   2  -9   4   42.79   19.49
   2  -9   5   15.13   12.67
   2  -9   6    9.73   10.20
   2  -8 -11   52.32   17.93
   2  -8 -10    1.93   10.72
   2  -8  -9   39.49   18.56
   2  -8  -9   81.29   24.50
   2  -8  -8   -6.33   14.53
   2  -8  -8   11.45   11.42
   2  -8  -7    9.65    9.63
   2  -8  -7   -5.35   12.18
   2  -8  -6   49.21   19.29
   2  -8  -6   24.88   12.42
   2  -8  -6   57.40   19.06
   2  -8  -6   35.72   16.08
   2  -8  -5    9.44   13.37
   2  -8  -5   19.01   13.00
   2  -8  -5   30.48   15.88
   2  -8  -5    3.60    8.05
   2  -8  -4   -1.82    9.19
   2  -8  -4   10.76    9.91
   2  -8  -4   12.65   12.05
   2  -8  -4   17.69   11.04
   2  -8  -3   10.91   12.48
   2  -8  -3   13.66    9.62
   2  -8  -3   -1.83   13.10
   2  -8  -2   28.12   13.65
   2  -8  -2   22.64   12.35
   2  -8  -2    9.09   10.06
   2  -8  -1   23.48   15.82
   2  -8  -1   50.73   18.11
   2  -8  -1   49.26   16.56
   2  -8   0   52.00   17.20
   2  -8   0   34.59   14.26
   2  -8   0   39.26   16.14
   2  -8   1   36.61   16.64
   2  -8   1   24.93   14.50
   2  -8   1   30.88   16.09
   2  -8   2   35.58   13.80
   2  -8   2   39.91   17.07
   2  -8   2   47.01   17.78
   2  -8   2   17.07   14.97
   2  -8   3  108.19   20.99
   2  -8   3  163.29   28.33
   2  -8   3  106.02   24.53
   2  -8   3  130.70   23.40
   2  -8   4    6.36    9.14
   2  -8   4    8.54   14.20
   2  -8   4    6.57    9.06
   2  -8   5    0.62    8.04
   2  -8   5   13.59   12.35
   2  -8   5    9.11    7.76
   2  -8   6   27.07   12.78
   2  -8   6   12.86   10.94
   2  -8   7    6.47   10.08
   2  -8   7   17.06   11.65
   2  -8   8   44.41   16.78
   2  -8   8   59.64   18.31
   2  -8   9    7.26   12.16
   2  -7 -13  -19.43   12.37
   2  -7 -12  -20.77   12.61
   2  -7 -12   11.52   13.17
   2  -7 -11   10.26   10.19
   2  -7 -11  -16.24   12.50
   2  -7 -11   -0.37   11.68
   2  -7 -10   -0.07   11.67
   2  -7 -10   -4.83    9.60
   2  -7 -10    3.07    8.37
   2  -7  -9   55.81   16.63
   2  -7  -9   51.09   17.86
   2  -7  -9   48.52   17.91
   2  -7  -8   21.27   10.99
   2  -7  -8   21.86   11.07
   2  -7  -8   33.02   13.86
   2  -7  -7   66.32   18.78
   2  -7  -7   54.48   15.04
   2  -7  -7   63.71   15.92
   2  -7  -7   47.69   15.81
   2  -7  -7   62.64   21.37
   2  -7  -6   51.93   15.03
   2  -7  -6   72.52   20.69
   2  -7  -6   65.45   15.40
   2  -7  -6   73.08   16.37
   2  -7  -6   60.90   18.42
   2  -7  -5   25.45   13.81
   2  -7  -5   12.09    9.75
   2  -7  -5   10.58    7.67
   2  -7  -5   13.10   11.57
   2  -7  -5   -1.54    6.04
   2  -7  -4   42.85   13.81
   2  -7  -4   25.81   13.24
   2  -7  -4   18.88    9.36
   2  -7  -4   33.78   10.43
   2  -7  -4   38.08   15.45
   2  -7  -4   47.49   15.40
   2  -7  -3   59.39   18.17
   2  -7  -3   46.68   13.13
   2  -7  -3   31.62   12.93
   2  -7  -3   41.44   15.39
   2  -7  -2  135.79   24.50
   2  -7  -2  114.53   21.69
   2  -7  -2  107.64   22.02
   2  -7  -1    9.73   11.60
   2  -7  -1    1.64    9.03
   2  -7   0   17.04   11.25
   2  -7   0   19.29   10.93
   2  -7   0   19.64   11.21
   2  -7   1  100.77   17.18
   2  -7   1   84.97   20.35
   2  -7   1  120.70   23.06
   2  -7   1   85.91   15.43
   2  -7   1   80.71   17.72
   2  -7   2   53.26   13.20
   2  -7   2   68.10   14.53
   2  -7   2   66.64   16.79
   2  -7   2   63.89   17.32
   2  -7   2   69.06   18.31
   2  -7   3   11.68    8.59
   2  -7   3   43.01   16.54
   2  -7   3   17.23   10.77
   2  -7   3   17.63   11.11
   2  -7   3   16.95   11.10
   2  -7   4   25.82   11.66
   2  -7   4   39.06   15.80
   2  -7   4   35.47   17.46
   2  -7   4   10.92    8.33
   2  -7   5   35.10   12.42
   2  -7   5   56.69   19.54
   2  -7   5   30.17   12.36
   2  -7   6   59.82   16.17
   2  -7   6   63.06   16.28
   2  -7   7   71.05   17.98
   2  -7   7   61.27   17.72
   2  -7   8   28.18   12.88
   2  -7   8    9.24    9.47
   2  -7   9   25.29   13.74
   2  -7   9   27.24   13.83
   2  -7  10   17.45   10.35
   2  -7  10   18.14   12.25
   2  -7  11   44.03   18.02
   2  -7  11   71.76   20.39
   2  -6 -14   22.56   14.93
   2  -6 -14   21.25   14.48
   2  -6 -13   33.40   13.61
   2  -6 -13   44.46   16.40
   2  -6 -13   44.29   16.60
   2  -6 -12   22.70   12.25
   2  -6 -12   31.71   14.97
   2  -6 -12   32.23   18.49
   2  -6 -11   17.53   12.19
   2  -6 -11   -9.18    9.84
   2  -6 -11    8.34   12.06
   2  -6 -10   82.21   18.27
   2  -6 -10   48.63   15.10
   2  -6 -10   61.22   18.91
   2  -6  -9   28.51   12.07
   2  -6  -9   25.18   15.84
   2  -6  -9   32.26   13.91
   2  -6  -8   -1.07    7.22
   2  -6  -8   -1.54    8.22
   2  -6  -8  -15.18   12.76
   2  -6  -7  115.83   18.38
   2  -6  -7  131.47   22.24
   2  -6  -7  139.71   25.87
   2  -6  -7  127.55   20.34
   2  -6  -6    9.04    8.06
   2  -6  -6    0.80    5.71
   2  -6  -6   -2.62    8.18
   2  -6  -6    1.66    9.15
   2  -6  -5    2.47   11.61
   2  -6  -5   27.62   13.94
   2  -6  -5    5.03    6.01
   2  -6  -5   25.47   11.27
   2  -6  -5    4.75    5.96
   2  -6  -4  363.23   36.52
   2  -6  -4  238.66   25.29
   2  -6  -4  306.01   30.02
   2  -6  -4  239.28   25.46
   2  -6  -4  299.29   31.99
   2  -6  -3   28.94   11.77
   2  -6  -3   40.56   12.27
   2  -6  -3   50.33   17.36
   2  -6  -3   28.44   13.27
   2  -6  -2  780.89   52.03
   2  -6  -2  735.95   43.14
   2  -6  -2  742.26   47.77
   2  -6  -2  805.68   53.02
   2  -6  -1    8.93    5.87
   2  -6  -1   13.05   10.63
   2  -6  -1    0.56    5.61
   2  -6  -1    6.40    6.47
   2  -6  -1   14.90    9.87
   2  -6  -1   -2.49   10.73
   2  -6   0   18.88    7.67
   2  -6   0   17.88    9.41
   2  -6   0   27.97    9.95
   2  -6   0    9.74    8.64
   2  -6   0    6.40    5.14
   2  -6   0    6.90    8.51
   2  -6   1    7.09    5.61
   2  -6   1   27.07   12.30
   2  -6   1   17.70    7.55
   2  -6   1   -0.81    9.53
   2  -6   1   17.64    8.56
   2  -6   1   11.72    9.25
   2  -6   2  110.01   17.21
   2  -6   2  119.81   22.28
   2  -6   2   65.63   12.89
   2  -6   2  102.60   16.09
   2  -6   2  100.03   21.35
   2  -6   2   76.95   16.63
   2  -6   3  130.31   19.39
   2  -6   3  112.55   22.67
   2  -6   3  126.61   18.90
   2  -6   3  100.65   19.92
   2  -6   3  120.05   20.19
   2  -6   4   23.88   10.10
   2  -6   4   38.73   16.00
   2  -6   4   20.10   11.22
   2  -6   4    9.85    7.24
   2  -6   5   78.57   16.98
   2  -6   5   68.18   20.98
   2  -6   5   72.25   16.08
   2  -6   6   44.68   13.85
   2  -6   6   39.87   12.61
   2  -6   7   97.32   19.38
   2  -6   7   80.49   18.20
   2  -6   8  115.36   20.89
   2  -6   8  127.55   22.82
   2  -6   9   41.80   14.43
   2  -6   9   24.66   12.51
   2  -6  10   23.84   14.59
   2  -6  10   35.71   13.85
   2  -6  11   12.07   13.32
   2  -6  11    0.52   10.42
   2  -6  12  -18.41   12.68
   2  -6  12    8.60    9.83
   2  -5 -16   41.67   17.36
   2  -5 -15   21.29   12.48
   2  -5 -15   15.29   13.18
   2  -5 -15   -1.87   11.34
   2  -5 -14   -5.53   14.10
   2  -5 -14   18.08   12.96
   2  -5 -14    0.17    7.54
   2  -5 -13    7.28   12.75
   2  -5 -13   19.18   13.27
   2  -5 -13   33.24   13.46
   2  -5 -12   30.24   13.08
   2  -5 -12   24.96   13.00
   2  -5 -12    5.07   11.18
   2  -5 -11   19.30   11.24
   2  -5 -11   16.17   11.05
   2  -5 -11   11.59   12.01
   2  -5 -10   67.32   17.29
   2  -5 -10   79.23   17.84
   2  -5 -10   86.57   22.08
   2  -5  -9  224.50   28.11
   2  -5  -9  206.51   24.90
   2  -5  -9  246.65   33.36
   2  -5  -8  103.33   17.59
   2  -5  -8   61.38   12.60
   2  -5  -8   66.71   15.40
   2  -5  -8   93.12   20.84
   2  -5  -7   67.00   14.41
   2  -5  -7   71.27   13.46
   2  -5  -7   94.75   16.87
   2  -5  -7   74.46   18.53
   2  -5  -6    3.01    6.60
   2  -5  -6    2.26    7.18
   2  -5  -6   12.57    6.87
   2  -5  -6   -2.20    9.61
   2  -5  -6   12.20   10.90
   2  -5  -5  330.73   29.21
   2  -5  -5  402.25   33.49
   2  -5  -5  317.30   25.88
   2  -5  -5  386.31   26.41
   2  -5  -5  339.23   33.74
   2  -5  -4   21.77    9.10
   2  -5  -4   15.39    7.14
   2  -5  -4   19.82    8.02
   2  -5  -4   11.05    6.73
   2  -5  -4   13.82    7.73
   2  -5  -4   11.99   11.06
   2  -5  -3   80.48   17.60
   2  -5  -3   82.91   14.88
   2  -5  -3   91.47   18.07
   2  -5  -2  261.46   18.45
   2  -5  -2  245.45   27.59
   2  -5  -2  231.04   23.67
   2  -5  -2  254.05   19.30
   2  -5  -2  284.55   28.61
   2  -5  -2  271.53   28.95
   2  -5  -1    8.62    5.80
   2  -5  -1    8.19    8.89
   2  -5  -1   21.67    8.80
   2  -5  -1   12.98    6.17
   2  -5  -1   -1.79    9.52
   2  -5  -1    2.42   10.17
   2  -5   0  224.69   19.35
   2  -5   0  209.84   25.55
   2  -5   0  211.34   19.20
   2  -5   0  227.57   22.42
   2  -5   0  228.04   26.28
   2  -5   0  197.85   23.07
   2  -5   1  113.77   15.08
   2  -5   1   95.52   17.95
   2  -5   1  160.08   17.79
   2  -5   1  148.13   17.99
   2  -5   1  151.16   22.37
   2  -5   1  159.17   20.44
   2  -5   2  158.43   17.88
   2  -5   2  174.14   23.07
   2  -5   2  172.91   18.95
   2  -5   2  170.30   18.71
   2  -5   2  127.08   21.12
   2  -5   2  198.88   22.98
   2  -5   3  291.06   25.57
   2  -5   3  260.29   28.95
   2  -5   3  226.75   22.78
   2  -5   3  212.74   21.19
   2  -5   3  232.54   27.53
   2  -5   3  238.47   24.78
   2  -5   4   48.79   12.39
   2  -5   4   81.14   19.21
   2  -5   4   39.41    9.96
   2  -5   4   56.61   15.33
   2  -5   4   55.63   12.46
   2  -5   5  168.43   21.88
   2  -5   5  146.58   19.47
   2  -5   5  165.76   25.28
   2  -5   5  136.45   17.12
   2  -5   6   72.10   14.69
   2  -5   6   90.15   16.98
   2  -5   6   76.45   13.19
   2  -5   7   14.53    7.05
   2  -5   7   11.27    7.55
   2  -5   7   13.05    8.70
   2  -5   8   63.86   15.99
   2  -5   8   79.55   16.24
   2  -5   9   40.29   14.31
   2  -5   9   57.04   15.17
   2  -5  10   41.31   14.42
   2  -5  10   27.87   13.05
   2  -5  11  109.51   21.78
   2  -5  11  125.17   23.15
   2  -5  12   16.42   12.71
   2  -5  12   11.07   10.98
   2  -5  13   28.75   17.01
   2  -5  13   12.65    9.24
   2  -5  14   24.75   14.95
   2  -5  14   20.12   12.69
   2  -4 -15   23.70   13.47
   2  -4 -15   14.60   12.44
   2  -4 -14   21.88   13.99
   2  -4 -14   40.02   15.71
   2  -4 -13   47.72   16.97
   2  -4 -13   79.21   20.34
   2  -4 -12   25.73   12.71
   2  -4 -12    6.53    9.37
   2  -4 -11    8.29    9.74
   2  -4 -11   34.08   13.70
   2  -4 -10   79.11   16.48
   2  -4 -10   54.11   15.46
   2  -4  -9   27.18   10.82
   2  -4  -9   42.47   13.42
   2  -4  -8   66.52   14.62
   2  -4  -8   81.32   16.20
   2  -4  -8   78.61   13.07
   2  -4  -8   62.26   16.31
   2  -4  -7   98.15   16.31
   2  -4  -7   74.81   12.48
   2  -4  -7   81.38   15.40
   2  -4  -7   61.80   15.88
   2  -4  -6   51.49   11.68
   2  -4  -6   30.84    7.86
   2  -4  -6   39.18   13.31
   2  -4  -6   43.85   11.86
   2  -4  -5 2520.26   63.72
   2  -4  -5 2663.65   65.52
   2  -4  -5 2624.21   75.81
   2  -4  -4   18.80    8.71
   2  -4  -4   20.17    6.55
   2  -4  -4   13.94    5.68
   2  -4  -4   16.65    5.32
   2  -4  -4   28.12   10.38
   2  -4  -4   39.34   12.27
   2  -4  -3  510.32   20.19
   2  -4  -3  500.67   24.49
   2  -4  -3  529.02   36.84
   2  -4  -3  568.72   35.05
   2  -4  -3  523.36   24.97
   2  -4  -3  570.34   37.18
   2  -4  -2  113.84   10.85
   2  -4  -2   91.70   16.14
   2  -4  -2  107.78   15.32
   2  -4  -2  115.80   10.76
   2  -4  -2   92.14   11.18
   2  -4  -2  110.11   16.62
   2  -4  -1   97.94   10.72
   2  -4  -1   87.08   16.54
   2  -4  -1  106.99   16.59
   2  -4  -1   87.29   14.13
   2  -4  -1   87.21    8.29
   2  -4  -1   91.14   11.55
   2  -4  -1   89.89   16.33
   2  -4   0 1690.03   45.98
   2  -4   0 1650.96   62.55
   2  -4   0 1652.57   48.24
   2  -4   0 1637.30   54.76
   2  -4   0 1645.91   62.84
   2  -4   0 1672.84   59.18
   2  -4   1  316.89   21.48
   2  -4   1  329.43   28.97
   2  -4   1  281.84   22.92
   2  -4   1  312.95   22.44
   2  -4   1  356.51   30.20
   2  -4   1  342.81   27.34
   2  -4   2  116.00   14.36
   2  -4   2  106.26   17.51
   2  -4   2   99.86   13.50
   2  -4   2   96.74   16.32
   2  -4   2  128.71   18.09
   2  -4   2  109.80   14.90
   2  -4   3  183.73   18.33
   2  -4   3  177.95   21.47
   2  -4   3  182.04   18.75
   2  -4   3  186.55   22.86
   2  -4   3  197.38   20.89
   2  -4   3  196.95   19.09
   2  -4   4  170.15   18.73
   2  -4   4  191.18   23.35
   2  -4   4  172.51   17.65
   2  -4   4  185.07   19.66
   2  -4   4  177.47   22.37
   2  -4   5  964.16   44.26
   2  -4   5  981.89   46.36
   2  -4   5  988.47   52.30
   2  -4   5  971.20   42.32
   2  -4   6  283.19   25.74
   2  -4   6  265.32   23.14
   2  -4   6  328.58   28.41
   2  -4   7   78.98   15.69
   2  -4   7   42.72   10.09
   2  -4   7   90.90   16.71
   2  -4   8   96.47   17.38
   2  -4   8   80.05   14.38
   2  -4   8   80.99   16.20
   2  -4   9  271.02   28.45
   2  -4   9  245.57   27.98
   2  -4   9  212.50   23.32
   2  -4  10   77.80   18.11
   2  -4  10   91.21   16.51
   2  -4  10   76.93   16.71
   2  -4  11   25.50   13.10
   2  -4  11   35.59   13.41
   2  -4  12   30.36   12.87
   2  -4  12   47.16   14.22
   2  -4  13   -9.56   10.21
   2  -4  13   17.22   10.06
   2  -4  14   -2.40   10.06
   2  -4  14  -11.01    8.01
   2  -4  15   25.44   14.88
   2  -4  15   18.46   11.53
   2  -4  16   36.56   16.21
   2  -4  16    5.71    9.83
   2  -3 -16    8.52   10.81
   2  -3 -16   18.71   13.89
   2  -3 -15    0.24    9.71
   2  -3 -15   30.50   15.08
   2  -3 -14   65.79   18.75
   2  -3 -14   56.91   18.43
   2  -3 -13   72.48   18.56
   2  -3 -13   63.70   18.52
   2  -3 -12  101.62   21.73
   2  -3 -12  105.53   20.26
   2  -3 -11  199.62   27.06
   2  -3 -11  163.83   24.91
   2  -3 -10  107.39   20.93
   2  -3 -10   87.89   17.72
   2  -3  -9  146.03   21.47
   2  -3  -9  140.18   19.97
   2  -3  -8  424.97   34.17
   2  -3  -8  412.27   30.90
   2  -3  -7  193.81   21.75
   2  -3  -7  184.40   20.46
   2  -3  -7  184.67   16.52
   2  -3  -6   97.17   15.59
   2  -3  -6   82.50   13.69
   2  -3  -6   93.10   11.61
   2  -3  -6   77.01    9.77
   2  -3  -6   72.15   14.49
   2  -3  -5  164.08   18.53
   2  -3  -5  162.98   14.76
   2  -3  -5  154.64   15.92
   2  -3  -5  142.80   13.12
   2  -3  -5  183.96   21.62
   2  -3  -4  220.16   15.64
   2  -3  -4  228.25   17.37
   2  -3  -4  202.77   20.24
   2  -3  -4  210.17   16.67
   2  -3  -4  220.29   22.62
   2  -3  -4  191.58    7.82
   2  -3  -3  510.70   23.29
   2  -3  -3  593.43   34.99
   2  -3  -3  516.89   31.16
   2  -3  -3  545.70   24.18
   2  -3  -3  509.39   16.57
   2  -3  -2 1565.43   36.03
   2  -3  -2 1558.74   55.20
   2  -3  -2 1546.96   40.96
   2  -3  -2 1698.58   55.94
   2  -3  -2 1606.50   52.73
   2  -3  -2 1563.24   32.76
   2  -3  -1   29.95    5.91
   2  -3  -1   27.49    8.67
   2  -3  -1   23.90    4.99
   2  -3  -1   19.66    5.45
   2  -3  -1   37.88   10.57
   2  -3  -1   20.28    7.25
   2  -3   0  198.36   14.24
   2  -3   0  168.25   18.51
   2  -3   0  155.98   16.66
   2  -3   0  157.85    7.98
   2  -3   0  171.31   14.65
   2  -3   0  150.31   17.02
   2  -3   0  136.74   16.83
   2  -3   1  608.29   26.35
   2  -3   1  539.76   32.15
   2  -3   1  565.75   29.78
   2  -3   1  576.12   27.34
   2  -3   1  578.54   31.64
   2  -3   1  570.30   33.62
   2  -3   2 1314.57   41.26
   2  -3   2 1418.07   52.26
   2  -3   2 1392.68   44.21
   2  -3   2 1272.97   44.49
   2  -3   2 1357.91   51.53
   2  -3   2 1420.30   48.27
   2  -3   3  380.71   23.63
   2  -3   3  369.94   27.94
   2  -3   3  405.27   25.39
   2  -3   3  374.43   27.98
   2  -3   3  394.49   26.03
   2  -3   3  339.95   23.37
   2  -3   4  919.78   38.09
   2  -3   4  940.85   40.07
   2  -3   4  850.96   36.83
   2  -3   4  943.08   44.22
   2  -3   5  319.27   23.81
   2  -3   5  319.54   23.45
   2  -3   5  321.80   24.75
   2  -3   5  331.07   27.88
   2  -3   6  230.73   21.56
   2  -3   6  207.56   21.26
   2  -3   6  171.38   18.14
   2  -3   7   47.80   12.11
   2  -3   7   22.37    7.71
   2  -3   7   40.02   10.51
   2  -3   8  122.91   17.85
   2  -3   8   79.73   13.61
   2  -3   8  135.78   19.14
   2  -3   9  444.47   32.85
   2  -3   9  422.68   33.65
   2  -3   9  461.75   34.49
   2  -3  10   87.59   16.71
   2  -3  10   80.31   15.38
   2  -3  10   77.58   15.63
   2  -3  11   43.67   13.55
   2  -3  11   32.90   11.36
   2  -3  12   26.29   12.48
   2  -3  12   13.53    9.79
   2  -3  13  129.18   22.63
   2  -3  13  162.99   24.96
   2  -3  14   58.66   16.70
   2  -3  14   54.98   14.99
   2  -3  15   -4.43    9.04
   2  -3  15    5.25    8.16
   2  -3  16    2.80    9.62
   2  -3  16    1.70    7.20
   2  -3  17    2.93   15.45
   2  -3  17  -11.23   10.07
   2  -2 -16   12.44   13.09
   2  -2 -16  -13.27   12.03
   2  -2 -15   17.63   13.96
   2  -2 -15   33.80   14.99
   2  -2 -14   21.16   13.56
   2  -2 -14    8.54   11.07
   2  -2 -13   35.81   15.46
   2  -2 -13   38.71   15.34
   2  -2 -12  117.52   21.75
   2  -2 -12   60.22   17.52
   2  -2 -11   50.10   15.26
   2  -2 -11   77.15   18.23
   2  -2 -10   47.37   14.85
   2  -2 -10   64.84   15.40
   2  -2  -9  100.44   17.17
   2  -2  -9   70.33   15.04
   2  -2  -8   85.98   15.80
   2  -2  -8   67.03   14.90
   2  -2  -7   88.44   14.38
   2  -2  -7  129.49   16.90
   2  -2  -6  357.72   27.48
   2  -2  -6  357.64   24.74
   2  -2  -6  340.69   18.39
   2  -2  -5   82.39   13.40
   2  -2  -5   42.92    7.92
   2  -2  -5   73.58   11.72
   2  -2  -5   69.02    8.54
   2  -2  -5   46.34   10.92
   2  -2  -4  433.06   19.21
   2  -2  -4  448.51   27.61
   2  -2  -4  413.35   21.21
   2  -2  -4  433.45   22.93
   2  -2  -4  418.99   27.07
   2  -2  -3 1446.71   38.05
   2  -2  -3 1344.44   33.21
   2  -2  -3 1438.86   37.55
   2  -2  -3 1492.78   48.78
   2  -2  -3 1337.19   20.46
   2  -2  -2  196.48   18.19
   2  -2  -2  203.53   13.30
   2  -2  -2  206.68   14.63
   2  -2  -2  196.33   18.27
   2  -2  -2  214.63   10.53
   2  -2  -1  726.94   33.06
   2  -2  -1  822.87   34.56
   2  -2  -1  769.77   21.32
   2  -2  -1  770.66   27.63
   2  -2  -1  752.99   33.65
   2  -2  -1  768.28   22.18
   2  -2   0 1101.60   40.38
   2  -2   0  956.02   36.59
   2  -2   0  980.63   20.02
   2  -2   0  985.18   31.53
   2  -2   0 1036.32   37.99
   2  -2   0 1013.15   27.87
   2  -2   1  748.86   33.31
   2  -2   1  736.78   31.85
   2  -2   1  753.83   28.44
   2  -2   1  793.40   32.67
   2  -2   1  744.32   33.47
   2  -2   1  788.29   26.83
   2  -2   2 5114.83   86.90
   2  -2   2 5184.28   82.02
   2  -2   2 5372.74   78.53
   2  -2   2 5060.77   86.70
   2  -2   2 5157.49   81.28
   2  -2   2 5200.14   73.46
   2  -2   3 2441.15   61.11
   2  -2   3 2373.94   54.92
   2  -2   3 2298.58   59.51
   2  -2   3 2311.41   55.38
   2  -2   3 2291.99   52.50
   2  -2   4  459.34   25.70
   2  -2   4  434.88   25.14
   2  -2   4  465.85   28.26
   2  -2   4  453.70   24.95
   2  -2   5  237.92   19.73
   2  -2   5  222.57   18.70
   2  -2   5  222.66   18.82
   2  -2   6  325.28   24.35
   2  -2   6  326.84   23.83
   2  -2   6  336.30   24.20
   2  -2   7  660.40   35.33
   2  -2   7  672.30   35.88
   2  -2   7  662.99   35.68
   2  -2   8  104.29   15.78
   2  -2   8  136.78   16.95
   2  -2   8  117.61   16.15
   2  -2   9  133.71   18.04
   2  -2   9  158.93   19.75
   2  -2   9  101.84   16.14
   2  -2  10  139.78   19.56
   2  -2  10  138.60   19.47
   2  -2  11   -1.30    7.77
   2  -2  11    1.49    5.35
   2  -2  12  132.16   20.79
   2  -2  12  168.10   21.86
   2  -2  13   15.40   10.33
   2  -2  13   30.18   11.40
   2  -2  14   55.34   15.86
   2  -2  14   50.96   14.13
   2  -2  15   -7.27   10.37
   2  -2  15   -7.00    8.34
   2  -2  16    3.10   10.24
   2  -2  16   16.54   10.55
   2  -2  17   14.17   11.62
   2  -2  17   40.31   15.13
   2  -2  18   48.87   17.60
   2  -2  18   24.29   11.91
   2  -1 -17   31.13   15.55
   2  -1 -17   36.82   15.68
   2  -1 -16   12.68   10.42
   2  -1 -16   -0.10   12.65
   2  -1 -15   23.00   14.31
   2  -1 -15   37.43   15.86
   2  -1 -14   15.39   11.19
   2  -1 -14   26.93   12.99
   2  -1 -13   29.27   13.33
   2  -1 -13   49.99   15.70
   2  -1 -12  172.88   25.47
   2  -1 -12  163.60   24.33
   2  -1 -11    3.91   10.06
   2  -1 -11    4.00    8.51
   2  -1 -10  181.27   23.37
   2  -1 -10  157.54   21.78
   2  -1  -9   80.72   15.75
   2  -1  -9  113.48   18.11
   2  -1  -8  243.70   25.11
   2  -1  -8  202.46   21.38
   2  -1  -7  648.96   37.00
   2  -1  -7  590.02   33.19
   2  -1  -6  347.00   25.70
   2  -1  -6  318.99   23.08
   2  -1  -5  674.46   33.58
   2  -1  -5  647.49   29.92
   2  -1  -5  631.55   30.94
   2  -1  -4   -2.53    5.01
   2  -1  -4    0.59    3.22
   2  -1  -4   10.07    6.53
   2  -1  -4   -6.56    6.32
   2  -1  -3  739.82   31.05
   2  -1  -3  772.70   28.52
   2  -1  -3  811.26   27.89
   2  -1  -3  799.90   18.64
   2  -1  -3  776.84   30.93
   2  -1  -2  279.72   18.35
   2  -1  -2  270.43   16.54
   2  -1  -2  278.84   15.31
   2  -1  -2  248.10   10.31
   2  -1  -2  256.26   18.84
   2  -1  -1 1990.18   46.29
   2  -1  -1 2055.21   43.64
   2  -1  -1 2026.65   35.67
   2  -1  -1 1935.06   48.13
   2  -1  -1 2027.41   46.97
   2  -1  -1 2004.26   33.11
   2  -1   0  586.24   25.14
   2  -1   0  633.69   24.31
   2  -1   0  588.94   17.25
   2  -1   0  589.97   26.45
   2  -1   0  598.14   25.64
   2  -1   0  634.10   20.73
   2  -1   1  246.83   16.52
   2  -1   1  265.71   17.89
   2  -1   1  258.96   15.76
   2  -1   1  226.16   15.76
   2  -1   1  235.47   16.35
   2  -1   1  232.97    8.66
   2  -1   1  238.52   14.22
   2  -1   2  374.96   20.93
   2  -1   2  316.46   18.22
   2  -1   2  329.19    9.20
   2  -1   2  345.12   20.49
   2  -1   2  341.19   19.07
   2  -1   2  362.31   18.63
   2  -1   3  185.73   14.37
   2  -1   3  200.59   15.66
   2  -1   3  186.10    8.28
   2  -1   3  175.17   14.24
   2  -1   3  183.61   14.73
   2  -1   4   83.98   10.62
   2  -1   4   89.24   11.04
   2  -1   4   96.90   11.55
   2  -1   5  519.52   26.89
   2  -1   5  597.69   28.20
   2  -1   5  562.43   28.18
   2  -1   6  681.68   32.76
   2  -1   6  694.93   31.71
   2  -1   6  680.96   32.69
   2  -1   7  152.55   15.91
   2  -1   7  140.50   16.73
   2  -1   7  114.68   14.73
   2  -1   8  286.82   22.64
   2  -1   8  273.41   23.80
   2  -1   8  237.18   21.52
   2  -1   9  106.07   16.09
   2  -1   9   97.22   14.17
   2  -1   9  119.81   16.38
   2  -1  10  152.58   18.15
   2  -1  10  130.71   18.33
   2  -1  11  867.82   44.54
   2  -1  11  826.86   44.73
   2  -1  12   44.98   12.93
   2  -1  12   40.03   11.22
   2  -1  13  115.19   19.43
   2  -1  13  106.83   17.48
   2  -1  14   11.28   11.11
   2  -1  14   -4.69    7.14
   2  -1  15   71.52   17.48
   2  -1  15   62.61   14.98
   2  -1  16   31.22   12.81
   2  -1  16   36.26   11.89
   2  -1  17    4.77    9.61
   2  -1  17   -0.90    6.50
   2  -1  18    6.67   10.22
   2   0 -17   10.13    8.93
   2   0 -17    7.01   10.48
   2   0 -16   -0.18    8.24
   2   0 -16    2.65    9.79
   2   0 -15   62.58   17.97
   2   0 -15   43.54   17.02
   2   0 -14   57.14   17.08
   2   0 -14   75.85   18.50
   2   0 -13  154.04   25.53
   2   0 -13  242.43   29.60
   2   0 -12   11.89    8.51
   2   0 -12    3.85   10.43
   2   0 -11  288.78   31.06
   2   0 -11  224.88   26.10
   2   0 -10  204.75   25.61
   2   0 -10  177.09   22.53
   2   0  -9   29.11   10.41
   2   0  -9   38.15   12.14
   2   0  -8  199.28   21.76
   2   0  -8  219.69   22.06
   2   0  -8  196.27   15.34
   2   0  -7   86.27   14.31
   2   0  -7   77.64   13.46
   2   0  -7   77.20    9.15
   2   0  -6    1.58    6.02
   2   0  -6   13.74    6.94
   2   0  -6    6.36    3.62
   2   0  -5  319.09   22.31
   2   0  -5  308.46   21.07
   2   0  -5  292.44   17.95
   2   0  -5  288.43   14.59
   2   0  -4  963.90   24.42
   2   0  -4  966.33   35.88
   2   0  -4  921.48   32.53
   2   0  -4  870.58   28.60
   2   0  -3  962.79   33.29
   2   0  -3  894.43   29.98
   2   0  -3  870.49   31.80
   2   0  -3  855.74   27.16
   2   0  -2  206.38   13.53
   2   0  -2  191.99   14.56
   2   0  -2  182.51   12.27
   2   0  -1  401.51   16.79
   2   0  -1  400.07   17.34
   2   0  -1  367.17   16.80
   2   0  -1  398.03   19.94
   2   0  -1  412.77   20.63
   2   0   0 1004.43   25.59
   2   0   0 1050.62   30.98
   2   0   0 1047.02   30.36
   2   0   0  990.94   25.46
   2   0   0 1024.47   25.25
   2   0   0 1035.00   27.08
   2   0   1 3022.39   45.07
   2   0   1 3120.96   51.09
   2   0   1 3116.98   41.89
   2   0   1 3212.32   53.30
   2   0   1 3120.13   42.30
   2   0   1 3221.46   48.91
   2   0   2 4987.15   65.77
   2   0   2 4761.08   65.46
   2   0   2 4748.21   51.36
   2   0   2 4709.73   52.58
   2   0   2 4644.41   62.75
   2   0   3   56.34    8.56
   2   0   3   41.45    5.49
   2   0   3   43.50    7.49
   2   0   3   43.68    6.86
   2   0   4  723.80   28.46
   2   0   4  712.79   26.42
   2   0   4  731.25   22.43
   2   0   4  754.08   29.53
   2   0   5  710.52   27.77
   2   0   5  708.92   24.31
   2   0   5  701.32   30.18
   2   0   5  685.03   29.84
   2   0   6 3381.07   70.26
   2   0   6 3147.45   61.08
   2   0   6 3320.00   57.33
   2   0   6 3119.62   66.96
   2   0   7  307.09   23.92
   2   0   7  270.27   19.38
   2   0   7  261.92   21.73
   2   0   8    8.24    7.02
   2   0   8    4.43    5.12
   2   0   8    8.39    5.10
   2   0   9  221.67   19.56
   2   0   9  215.83   21.22
   2   0  10   17.12    7.87
   2   0  10   21.66    7.62
   2   0  11  178.39   19.15
   2   0  11  162.47   20.63
   2   0  12    9.73    9.00
   2   0  12   21.51    8.65
   2   0  13   25.37   11.38
   2   0  13   51.95   11.79
   2   0  14  301.00   32.61
   2   0  14  333.51   29.05
   2   0  14  323.29   31.08
   2   0  15    6.81    8.86
   2   0  15    8.07    9.11
   2   0  15    3.64    5.23
   2   0  16    1.76    9.50
   2   0  16    7.08    9.39
   2   0  17   -2.06    7.54
   2   0  18   21.12   12.10
   2   0  19   16.03   12.03
   2   1 -17   15.09   14.03
   2   1 -17   18.30   11.08
   2   1 -16   31.66   15.57
   2   1 -16   28.94   14.93
   2   1 -15   35.28   15.40
   2   1 -15   49.22   16.34
   2   1 -14   13.48   10.40
   2   1 -14   27.52   14.04
   2   1 -13   27.42   13.36
   2   1 -13   25.09   13.55
   2   1 -12   72.37   17.19
   2   1 -12   29.34   12.96
   2   1 -11  112.14   18.74
   2   1 -11   89.10   17.50
   2   1 -10  600.26   40.99
   2   1 -10  531.67   36.52
   2   1 -10  568.44   34.03
   2   1  -9  292.34   27.48
   2   1  -9  290.19   25.77
   2   1  -9  277.18   22.90
   2   1  -8   70.99   13.46
   2   1  -8   70.24   13.58
   2   1  -8   75.00   11.89
   2   1  -7  165.65   18.87
   2   1  -7  181.41   18.67
   2   1  -7  160.94   15.98
   2   1  -7  171.61   11.80
   2   1  -6  531.75   30.51
   2   1  -6  555.45   29.43
   2   1  -6  501.04   25.76
   2   1  -6  476.51   19.49
   2   1  -5 1139.88   36.47
   2   1  -5 1243.24   41.71
   2   1  -5 1197.35   40.27
   2   1  -4    4.67    3.88
   2   1  -4    1.54    5.24
   2   1  -4    5.17    4.33
   2   1  -4    6.71    3.17
   2   1  -3  111.65   11.39
   2   1  -3  104.14    7.19
   2   1  -3  128.07   12.28
   2   1  -3  105.63   10.51
   2   1  -2 1008.86   28.99
   2   1  -2 1109.70   32.65
   2   1  -2 1136.48   31.38
   2   1  -2 1078.24   35.39
   2   1  -1  982.74   16.87
   2   1  -1 1014.04   30.04
   2   1  -1 1057.03   33.18
   2   1  -1 1028.70   28.41
   2   1   0 1069.12   31.40
   2   1   0 1083.72   27.29
   2   1   0 1081.03   30.29
   2   1   1  137.08   10.28
   2   1   1  127.30   10.93
   2   1   1  141.02   11.06
   2   1   2 1344.25   32.35
   2   1   2 1382.07   32.35
   2   1   2 1340.19   33.68
   2   1   3   21.57    6.27
   2   1   3   19.54    5.23
   2   1   3   26.39    5.63
   2   1   3   28.37    5.35
   2   1   4 1140.58   30.63
   2   1   4 1146.07   32.04
   2   1   4 1137.35   34.58
   2   1   4 1152.28   35.49
   2   1   5  551.33   26.30
   2   1   5  523.61   21.73
   2   1   5  506.32   12.80
   2   1   5  539.97   23.30
   2   1   5  510.51   25.03
   2   1   6  655.19   25.62
   2   1   6  658.19   18.39
   2   1   6  691.98   28.13
   2   1   6  734.30   32.50
   2   1   6  678.99   30.40
   2   1   7 1112.23   34.75
   2   1   7 1067.88   27.79
   2   1   7 1183.30   39.54
   2   1   7 1124.79   41.22
   2   1   8  371.06   21.31
   2   1   8  346.71   18.19
   2   1   8  347.42   16.89
   2   1   8  374.79   25.83
   2   1   9  104.08   12.29
   2   1   9  102.03   11.10
   2   1   9   87.83    8.54
   2   1   9  124.96   16.26
   2   1  10  265.27   20.17
   2   1  10  259.78   18.91
   2   1  10  283.76   24.95
   2   1  11  347.36   30.64
   2   1  11  380.91   25.12
   2   1  11  359.61   23.50
   2   1  11  391.79   30.18
   2   1  12  518.49   39.12
   2   1  12  566.42   31.84
   2   1  12  521.31   30.08
   2   1  12  540.84   36.50
   2   1  13  105.84   18.30
   2   1  13  120.02   15.85
   2   1  13   98.96   18.77
   2   1  14   37.75   12.73
   2   1  14   20.91    9.45
   2   1  15   58.86   15.33
   2   1  15   51.25   15.24
   2   1  16   50.25   15.77
   2   1  17   40.22   14.88
   2   1  18   25.69   14.34
   2   1  19   19.03   13.18
   2   2 -17   26.48   16.65
   2   2 -17    5.90   13.75
   2   2 -16   18.89   15.89
   2   2 -16   31.55   13.90
   2   2 -15  -15.97   14.76
   2   2 -15    8.68    8.63
   2   2 -14   24.06   11.24
   2   2 -14   42.53   14.40
   2   2 -13   62.23   16.77
   2   2 -13   40.15   14.00
   2   2 -12   71.23   16.94
   2   2 -12   40.38   12.80
   2   2 -11  134.16   21.46
   2   2 -11   84.28   16.93
   2   2 -11  120.09   18.71
   2   2 -10   72.76   15.34
   2   2 -10   66.60   14.21
   2   2 -10   56.22   12.60
   2   2  -9   15.70    8.42
   2   2  -9    6.97    8.26
   2   2  -9    9.20    6.71
   2   2  -8   49.93   11.63
   2   2  -8   48.35    9.93
   2   2  -8   51.15   11.55
   2   2  -7  143.44   17.12
   2   2  -7  127.59   16.38
   2   2  -7  111.00   15.09
   2   2  -7  119.55   11.28
   2   2  -6 1405.30   47.54
   2   2  -6 1361.98   46.68
   2   2  -6 1335.66   48.48
   2   2  -6 1232.92   35.58
   2   2  -5  818.05   33.37
   2   2  -5  785.36   33.80
   2   2  -5  728.47   34.23
   2   2  -5  728.66   27.64
   2   2  -4  118.46   12.50
   2   2  -4  143.92   14.72
   2   2  -4  128.81   14.40
   2   2  -4  113.55   11.39
   2   2  -3  186.15   13.37
   2   2  -3  181.13   15.39
   2   2  -3  181.72   16.08
   2   2  -3  176.87   13.95
   2   2  -2 1225.04   29.00
   2   2  -2 1215.14   36.87
   2   2  -2 1187.32   38.31
   2   2  -2 1250.67   35.46
   2   2  -1 3651.25   42.82
   2   2  -1 3612.54   61.88
   2   2  -1 3570.33   42.93
   2   2  -1 3687.36   64.22
   2   2  -1 3704.80   65.10
   2   2  -1 3729.10   61.15
   2   2   0  271.15    9.90
   2   2   0  292.64   11.79
   2   2   0  288.78   18.44
   2   2   0  288.41   18.37
   2   2   0  278.86   17.78
   2   2   0  268.27   16.75
   2   2   1  126.44    8.64
   2   2   1  135.21   12.85
   2   2   1  125.85    8.34
   2   2   1  113.06   10.79
   2   2   1  150.31   12.46
   2   2   2  302.05   15.05
   2   2   2  296.68   13.98
   2   2   2  302.22   16.30
   2   2   2  300.63   18.44
   2   2   2  291.96   17.35
   2   2   3 5185.32   68.00
   2   2   3 5066.98   74.44
   2   2   3 5093.57   63.78
   2   2   3 5041.51   61.89
   2   2   3 4968.10   70.28
   2   2   4 4022.57   65.99
   2   2   4 4119.90   63.94
   2   2   4 3896.65   44.14
   2   2   4 4091.22   68.14
   2   2   4 4046.07   53.60
   2   2   4 4004.82   62.95
   2   2   5   86.24   11.05
   2   2   5   75.73    7.81
   2   2   5   78.08    6.89
   2   2   5   67.32    9.81
   2   2   5   77.06    9.42
   2   2   6   46.86    8.96
   2   2   6   41.39    8.87
   2   2   6   45.83    5.85
   2   2   6   37.77    6.79
   2   2   6   50.12    6.64
   2   2   6   45.40    8.82
   2   2   7    8.87    5.17
   2   2   7   17.95    5.42
   2   2   7   23.74    4.86
   2   2   7   20.54    4.90
   2   2   7   26.13    7.50
   2   2   7   12.70    6.03
   2   2   8  696.85   37.11
   2   2   8  727.56   27.74
   2   2   8  724.58   26.26
   2   2   8  775.22   27.11
   2   2   8  766.01   35.16
   2   2   8  737.36   35.32
   2   2   9  366.06   28.60
   2   2   9  373.35   20.19
   2   2   9  350.19   20.12
   2   2   9  355.32   19.47
   2   2   9  380.39   26.53
   2   2   9  389.77   26.84
   2   2  10   36.60   10.02
   2   2  10   30.57    9.78
   2   2  10   19.32    6.02
   2   2  10   20.33    5.53
   2   2  11  199.97   23.54
   2   2  11  186.69   15.97
   2   2  11  163.67   16.29
   2   2  11  177.43   20.91
   2   2  12   45.90   12.06
   2   2  12   60.02   14.03
   2   2  12   35.63    8.52
   2   2  13  270.24   30.27
   2   2  13  240.45   25.30
   2   2  14   57.46   13.01
   2   2  14   40.25   13.80
   2   2  15   20.77   11.62
   2   2  16   25.25   11.33
   2   2  17   29.96   15.05
   2   2  18   19.12   12.08
   2   2  19   22.73   13.61
   2   2  19   19.48   16.29
   2   3 -16  -10.50   11.72
   2   3 -16   -6.60   10.20
   2   3 -15    3.66    8.60
   2   3 -15  -18.34   12.44
   2   3 -14   24.98   15.82
   2   3 -14   10.73   12.10
   2   3 -13   41.27   14.59
   2   3 -13   24.13    9.00
   2   3 -12   37.42   12.40
   2   3 -12   18.95    9.70
   2   3 -12   43.87   13.70
   2   3 -11  105.52   19.20
   2   3 -11   81.67   16.25
   2   3 -11   88.67   18.22
   2   3 -10   95.26   16.95
   2   3 -10  124.99   18.84
   2   3 -10  126.76   20.50
   2   3  -9   53.49   13.35
   2   3  -9   39.16   11.82
   2   3  -9   61.27   14.93
   2   3  -8  578.16   34.63
   2   3  -8  605.52   35.85
   2   3  -8  567.76   38.42
   2   3  -7   22.92    6.63
   2   3  -7   28.92   10.33
   2   3  -7   16.40    7.04
   2   3  -7   33.93   10.13
   2   3  -6  396.10   24.97
   2   3  -6  423.26   27.68
   2   3  -6  421.65   30.47
   2   3  -6  381.12   23.11
   2   3  -5   10.00    5.22
   2   3  -5   24.88    6.33
   2   3  -5   15.30    7.02
   2   3  -5   18.19    7.79
   2   3  -4  205.47   15.00
   2   3  -4  216.83   18.46
   2   3  -4  227.37   21.61
   2   3  -4  195.20   17.00
   2   3  -3  565.31   21.55
   2   3  -3  606.40   29.26
   2   3  -3  589.69   30.35
   2   3  -3  606.06   33.17
   2   3  -3  587.65   28.41
   2   3  -2 1142.75   43.07
   2   3  -2 1114.46   25.16
   2   3  -2 1089.63   20.62
   2   3  -2 1131.26   39.86
   2   3  -2 1169.17   39.66
   2   3  -1  132.99    6.73
   2   3  -1  147.73   14.89
   2   3  -1  133.69   14.93
   2   3  -1  144.85   14.67
   2   3   0  321.99   15.19
   2   3   0  338.21    8.57
   2   3   0  352.80   22.25
   2   3   0  324.93   22.32
   2   3   0  340.83   21.64
   2   3   1  339.22   16.83
   2   3   1  327.36   21.40
   2   3   1  351.29   22.39
   2   3   1  380.25   22.73
   2   3   2  304.19   17.44
   2   3   2  266.91   19.58
   2   3   2  298.97   20.17
   2   3   3  258.68   17.82
   2   3   3  243.93   14.75
   2   3   3  230.09   18.21
   2   3   3  236.53   18.05
   2   3   4  645.99   29.67
   2   3   4  594.61   23.92
   2   3   4  600.13   28.58
   2   3   4  586.10   29.17
   2   3   4  590.43   21.96
   2   3   5   65.75   10.61
   2   3   5   62.80    7.12
   2   3   5   50.50    7.39
   2   3   5   69.81   10.59
   2   3   5   56.73   10.01
   2   3   6    5.11    4.57
   2   3   6   11.28    4.54
   2   3   6   15.04    5.80
   2   3   6    6.45    2.95
   2   3   6    9.37    6.00
   2   3   7  256.43   22.77
   2   3   7  246.44   12.77
   2   3   7  275.12   17.49
   2   3   7  251.92   19.01
   2   3   7  243.99   20.61
   2   3   8  715.27   39.17
   2   3   8  635.66   21.17
   2   3   8  743.06   29.73
   2   3   8  688.77   31.37
   2   3   8  733.83   36.75
   2   3   9  669.28   39.97
   2   3   9  615.04   21.92
   2   3   9  682.93   30.24
   2   3   9  708.87   31.76
   2   3   9  680.77   36.97
   2   3  10   66.67   14.29
   2   3  10   73.35   10.87
   2   3  10   74.98   13.75
   2   3  10   73.02   10.62
   2   3  11  313.08   30.26
   2   3  11  288.42   22.47
   2   3  12  103.55   18.95
   2   3  12   82.74   13.23
   2   3  13  270.44   31.22
   2   3  14   26.34   11.43
   2   3  15   21.63   12.34
   2   3  16    7.03   10.09
   2   3  17   55.68   18.95
   2   3  18   68.39   20.79
   2   3  18   62.76   19.46
   2   3  19    5.79   10.65
   2   4 -16   17.30   11.42
   2   4 -15   36.57   15.43
   2   4 -15   48.97   16.21
   2   4 -14   -3.48    8.65
   2   4 -14  -12.23    9.87
   2   4 -13    3.30    8.36
   2   4 -13   24.98   11.93
   2   4 -13   18.36   11.06
   2   4 -12   11.96    9.16
   2   4 -12   25.17   11.90
   2   4 -12    6.31   10.71
   2   4 -11   31.97   11.24
   2   4 -11   44.08   13.53
   2   4 -11   39.21   13.93
   2   4 -10  180.34   22.56
   2   4 -10  164.68   22.23
   2   4 -10  149.12   24.94
   2   4  -9   40.47   11.90
   2   4  -9   40.60   12.60
   2   4  -9   31.90   12.22
   2   4  -8   67.57   12.26
   2   4  -8   66.33   13.69
   2   4  -8   39.99   12.53
   2   4  -7   68.53   12.40
   2   4  -7   72.39   12.95
   2   4  -7   61.12   14.71
   2   4  -7   47.25    9.90
   2   4  -6   28.97    7.72
   2   4  -6   29.01    9.28
   2   4  -6   30.85   10.70
   2   4  -6   26.81    7.75
   2   4  -5  235.82   17.59
   2   4  -5  227.20   20.50
   2   4  -5  201.49   19.59
   2   4  -5  225.14   24.44
   2   4  -4  109.91   10.83
   2   4  -4  101.30   13.80
   2   4  -4   98.44   14.34
   2   4  -4  117.98   14.98
   2   4  -4  108.14   17.16
   2   4  -3  228.14   13.51
   2   4  -3  228.63   20.41
   2   4  -3  210.97   19.96
   2   4  -3  251.72   24.23
   2   4  -2  171.03    9.85
   2   4  -2  183.66   17.79
   2   4  -2  180.23   20.24
   2   4  -2  174.12   18.20
   2   4  -1  231.00   19.67
   2   4  -1  260.78   23.49
   2   4  -1  245.23   20.94
   2   4   0   47.36    7.91
   2   4   0   50.09   10.00
   2   4   0   48.00   11.00
   2   4   0   41.34    8.83
   2   4   1 2565.89   55.13
   2   4   1 2656.45   69.13
   2   4   1 2636.87   64.84
   2   4   1 2807.10   70.02
   2   4   2  125.50   13.22
   2   4   2  150.92   16.41
   2   4   2  131.84   14.64
   2   4   2  147.91   16.64
   2   4   3  312.22   21.74
   2   4   3  333.77   24.52
   2   4   3  296.81   22.19
   2   4   4  198.22   18.42
   2   4   4  197.79   18.99
   2   4   4  197.19   18.30
   2   4   5   57.34   11.07
   2   4   5   63.50   11.80
   2   4   5   62.69    9.77
   2   4   5   57.32   10.57
   2   4   6 1746.21   59.67
   2   4   6 1764.23   51.45
   2   4   6 1743.88   56.42
   2   4   6 1828.94   57.57
   2   4   7  207.65   21.90
   2   4   7  225.67   18.55
   2   4   7  212.19   20.24
   2   4   7  243.53   21.84
   2   4   8  104.28   16.58
   2   4   8  139.60   15.25
   2   4   8  144.15   17.07
   2   4   8  123.62   16.57
   2   4   9   85.30   15.61
   2   4   9  100.22   13.44
   2   4   9   97.92   13.94
   2   4   9  100.02   16.06
   2   4  10  439.33   35.80
   2   4  10  426.34   27.80
   2   4  10  462.44   29.27
   2   4  10  434.41   32.60
   2   4  11  203.91   25.70
   2   4  11  161.28   18.03
   2   4  11  186.20   22.30
   2   4  12   21.61    9.98
   2   4  12    8.75    6.37
   2   4  13   -1.95    5.87
   2   4  14   -5.72    7.55
   2   4  15   52.41   17.44
   2   4  16   11.89    9.32
   2   4  17   19.30   10.47
   2   4  18   15.23   10.84
   2   5 -14   53.38   18.42
   2   5 -13   50.32   19.16
   2   5 -12   -3.97    7.97
   2   5 -12    1.34    7.17
   2   5 -11    1.42    7.39
   2   5 -11   -0.31    7.70
   2   5 -10   11.15    8.18
   2   5 -10    6.90    9.72
   2   5  -9  157.26   21.01
   2   5  -9  171.72   26.78
   2   5  -8   77.75   14.51
   2   5  -8   66.25   16.57
   2   5  -7    9.01    6.54
   2   5  -7   16.61    7.15
   2   5  -7   24.00    8.97
   2   5  -7   14.13    8.30
   2   5  -6  112.43   13.91
   2   5  -6  102.15   15.79
   2   5  -6   88.49   15.37
   2   5  -6   95.88   15.83
   2   5  -6  122.60   21.37
   2   5  -5  156.66   14.74
   2   5  -5  168.90   20.43
   2   5  -5  153.61   19.25
   2   5  -5  169.73   23.59
   2   5  -4  550.69   24.89
   2   5  -4  563.93   35.91
   2   5  -4  548.08   34.97
   2   5  -4  527.10   39.93
   2   5  -3  260.55   24.44
   2   5  -3  237.15   22.21
   2   5  -3  204.00   24.15
   2   5  -2  519.50   33.97
   2   5  -2  519.74   32.40
   2   5  -2  498.81   36.79
   2   5  -1  295.45   25.84
   2   5  -1  306.22   24.45
   2   5  -1  293.85   27.01
   2   5   0  173.45   21.39
   2   5   0  183.59   20.66
   2   5   0  198.13   22.24
   2   5   0  182.51   18.71
   2   5   0  173.25   16.62
   2   5   1  274.41   21.45
   2   5   1  265.70   24.83
   2   5   1  275.06   27.38
   2   5   1  317.18   27.01
   2   5   1  266.45   22.81
   2   5   2  128.53   15.04
   2   5   2  132.21   17.73
   2   5   2  125.79   19.09
   2   5   2  146.31   18.33
   2   5   2  113.90   15.33
   2   5   3   35.52   10.17
   2   5   3   26.15    7.58
   2   5   3   32.72   11.11
   2   5   3   27.13    9.32
   2   5   3   26.07    8.13
   2   5   4  149.68   17.92
   2   5   4  110.47   17.89
   2   5   4  169.72   19.71
   2   5   4  126.98   15.95
   2   5   5   40.67   10.25
   2   5   5   39.01    9.63
   2   5   5   48.58   10.60
   2   5   5   58.54   11.59
   2   5   6  142.64   19.26
   2   5   6  162.62   18.55
   2   5   6  136.75   18.20
   2   5   6  133.82   17.61
   2   5   7  331.97   29.44
   2   5   7  307.60   25.25
   2   5   7  303.69   26.83
   2   5   7  316.14   26.58
   2   5   8   89.24   16.38
   2   5   8   96.74   14.81
   2   5   8  105.23   16.70
   2   5   8  102.52   16.06
   2   5   9  112.04   18.92
   2   5   9  107.15   15.53
   2   5   9   91.40   15.24
   2   5   9  115.72   17.59
   2   5  10  120.66   20.16
   2   5  10  142.45   18.22
   2   5  10  137.13   18.44
   2   5  10  122.68   18.56
   2   5  11   -5.81    7.07
   2   5  11   -0.52    4.36
   2   5  11    4.65    5.91
   2   5  12   16.79    8.57
   2   5  13    2.32    7.78
   2   5  14   42.68   13.69
   2   5  15  123.59   24.98
   2   5  16   33.63   14.83
   2   5  17   20.03   13.32
   2   6 -14   -6.22   11.54
   2   6 -13   41.31   17.30
   2   6 -12   25.87   13.74
   2   6 -12    5.33    8.97
   2   6 -11   22.49   10.55
   2   6 -11    2.74    8.36
   2   6 -10   47.55   16.03
   2   6 -10   53.64   18.24
   2   6  -9   59.35   15.83
   2   6  -9   43.12   16.40
   2   6  -8   38.40   12.58
   2   6  -8   15.37   11.35
   2   6  -7   16.97    7.87
   2   6  -7   28.65   13.44
   2   6  -7   26.52    9.83
   2   6  -6   16.47    9.20
   2   6  -6   15.37   11.05
   2   6  -6   17.12    7.95
   2   6  -5   78.32   15.49
   2   6  -5  103.79   20.90
   2   6  -5   89.50   16.10
   2   6  -4  357.02   31.20
   2   6  -4  379.20   31.08
   2   6  -4  429.08   38.29
   2   6  -3  284.07   28.23
   2   6  -3  324.03   33.07
   2   6  -3  251.71   25.03
   2   6  -2   31.21   11.24
   2   6  -2   44.43   13.21
   2   6  -2   29.89   10.11
   2   6  -2   36.96   11.35
   2   6  -1  165.32   21.66
   2   6  -1  169.25   23.45
   2   6  -1  207.70   25.79
   2   6  -1  185.47   20.90
   2   6   0  319.98   29.54
   2   6   0  279.56   30.04
   2   6   0  272.77   28.15
   2   6   0  252.63   23.60
   2   6   1  262.41   23.46
   2   6   1  250.82   28.65
   2   6   1  279.94   28.00
   2   6   1  279.59   28.01
   2   6   1  278.70   24.54
   2   6   2  141.09   17.71
   2   6   2  146.68   22.37
   2   6   2  183.51   22.37
   2   6   2  127.30   16.85
   2   6   2  142.11   19.43
   2   6   3  335.95   28.01
   2   6   3  322.78   32.30
   2   6   3  315.66   29.99
   2   6   3  334.50   28.74
   2   6   3  314.63   26.46
   2   6   4   19.97    8.76
   2   6   4   18.79   10.68
   2   6   4   12.57    6.87
   2   6   4   18.03   10.03
   2   6   5  474.95   35.50
   2   6   5  498.57   36.76
   2   6   5  496.67   39.79
   2   6   5  471.40   33.11
   2   6   6   70.55   14.53
   2   6   6   65.41   13.94
   2   6   6   59.87   15.00
   2   6   6   79.68   15.32
   2   6   6   76.49   14.28
   2   6   7  169.86   23.29
   2   6   7  139.14   19.72
   2   6   7  169.29   22.62
   2   6   7  180.53   21.63
   2   6   8  444.10   38.24
   2   6   8  460.05   34.73
   2   6   8  480.70   36.90
   2   6   8  498.63   36.74
   2   6   9   16.93    9.25
   2   6   9   38.42   11.92
   2   6   9   20.40    8.44
   2   6   9   27.05    9.21
   2   6  10   88.48   19.36
   2   6  10  102.79   18.33
   2   6  10   92.74   16.51
   2   6  10   99.25   17.97
   2   6  11   26.76   12.01
   2   6  11   28.31    9.36
   2   6  11   31.49   10.89
   2   6  12   21.45   11.79
   2   6  13   72.47   18.89
   2   6  14   10.03    9.88
   2   6  15  -19.76   12.05
   2   6  16    0.46    8.27
   2   7 -12    2.26   11.60
   2   7 -11   43.12   17.75
   2   7 -10   19.09   12.52
   2   7  -9   26.02   14.02
   2   7  -8   46.61   16.57
   2   7  -7  108.24   23.43
   2   7  -7  126.82   21.29
   2   7  -6  145.70   23.18
   2   7  -6  193.25   25.00
   2   7  -6  157.93   26.88
   2   7  -5   80.75   17.86
   2   7  -5   48.17   15.23
   2   7  -5   37.41   12.04
   2   7  -4   41.19   13.39
   2   7  -4   16.65    8.17
   2   7  -4   28.37   10.86
   2   7  -3   47.29   14.18
   2   7  -3   47.26   11.61
   2   7  -3   46.80   14.18
   2   7  -2   79.06   16.98
   2   7  -2   80.89   18.62
   2   7  -2   96.78   19.74
   2   7  -2  109.27   17.62
   2   7  -1  316.16   32.58
   2   7  -1  276.58   33.12
   2   7  -1  315.72   33.75
   2   7  -1  293.69   27.61
   2   7   0   55.20   15.09
   2   7   0   37.84   11.39
   2   7   0   22.24   10.20
   2   7   0   58.44   12.77
   2   7   1  174.36   24.18
   2   7   1  157.99   23.33
   2   7   1  126.82   17.84
   2   7   1  190.95   27.77
   2   7   2   43.70   11.93
   2   7   2   28.65   12.25
   2   7   2   15.40    9.13
   2   7   2   33.63   11.54
   2   7   2   40.34   10.89
   2   7   3  273.59   27.42
   2   7   3  272.67   29.64
   2   7   3  216.98   28.84
   2   7   3  239.50   27.22
   2   7   3  275.58   26.10
   2   7   4   56.69   13.86
   2   7   4   82.36   18.75
   2   7   4   52.64   14.27
   2   7   4   79.19   15.85
   2   7   4   57.03   12.15
   2   7   5  184.92   25.03
   2   7   5  181.70   25.02
   2   7   5  172.18   26.27
   2   7   5  206.86   23.63
   2   7   6   91.63   18.96
   2   7   6   73.98   17.35
   2   7   6   79.32   17.34
   2   7   6   63.84   13.84
   2   7   7   24.69   11.51
   2   7   7   53.72   13.60
   2   7   7   53.92   12.63
   2   7   8   55.22   15.72
   2   7   8   53.26   14.49
   2   7   8   52.11   13.45
   2   7   8   65.09   14.31
   2   7   9   61.96   17.45
   2   7   9   79.72   17.13
   2   7   9   79.59   16.95
   2   7   9   90.84   17.14
   2   7  10   98.70   20.16
   2   7  10   79.49   18.00
   2   7  10  121.18   20.82
   2   7  10   86.89   17.49
   2   7  11  116.70   23.79
   2   7  11   56.75   14.84
   2   7  11   75.67   17.09
   2   7  11   94.53   19.60
   2   7  12   22.64   11.69
   2   7  12   17.12    9.99
   2   7  13   17.18   14.23
   2   7  14   34.17   14.12
   2   7  15   50.21   18.51
   2   8 -10   -4.93   10.74
   2   8  -9  -11.37   11.42
   2   8  -8    2.71    8.47
   2   8  -7   10.96   10.37
   2   8  -6   20.19   11.86
   2   8  -6    8.62    9.21
   2   8  -5    4.67    6.68
   2   8  -5    5.55   10.15
   2   8  -4    1.02    7.30
   2   8  -4  -14.09   14.19
   2   8  -3   29.14   12.72
   2   8  -3   24.90   11.91
   2   8  -2   84.54   20.03
   2   8  -2   89.26   21.29
   2   8  -2   81.53   19.45
   2   8  -1   17.42   12.01
   2   8  -1    7.32   10.05
   2   8  -1    4.91   10.50
   2   8  -1    6.93    6.09
   2   8   0   81.11   18.36
   2   8   0   77.19   19.88
   2   8   0   41.93   13.45
   2   8   0   81.27   15.89
   2   8   1   11.48    9.63
   2   8   1   19.31   12.44
   2   8   1    2.69    7.32
   2   8   1    4.94    6.46
   2   8   2  375.36   38.00
   2   8   2  393.79   42.82
   2   8   2  450.89   41.41
   2   8   2  393.08   32.89
   2   8   3  161.33   23.90
   2   8   3  166.94   28.18
   2   8   3  177.01   26.78
   2   8   3  176.28   22.62
   2   8   3  207.95   28.02
   2   8   4   82.27   17.80
   2   8   4   61.40   18.29
   2   8   4   63.93   17.03
   2   8   4   76.70   16.52
   2   8   4   90.96   16.54
   2   8   5   33.48   11.89
   2   8   5   44.75   15.17
   2   8   5   69.34   17.31
   2   8   5   51.84   13.14
   2   8   6   -8.05    7.09
   2   8   6    2.05    7.64
   2   8   6   -3.36    8.42
   2   8   6    0.50    6.16
   2   8   7   74.23   19.27
   2   8   7   65.53   17.39
   2   8   7   59.45   14.88
   2   8   8   13.17    7.76
   2   8   8   16.60   10.08
   2   8   8    2.24    8.47
   2   8   9    0.21    7.43
   2   8   9    5.87    9.15
   2   8   9    0.98    5.84
   2   8  10   15.90    9.07
   2   8  10   14.33    9.81
   2   8  10    9.20    6.98
   2   8  10   16.80    9.32
   2   8  11    5.53   12.28
   2   8  11    5.07    7.42
   2   8  11   10.54    9.03
   2   8  12   24.31   14.99
   2   8  13    8.91   11.55
   2   8  14   13.36   15.27
   2   9  -7  -10.63   16.02
   2   9  -6  -16.84   12.42
   2   9  -5   15.48   10.90
   2   9  -5   21.50   14.01
   2   9  -4   34.14   16.94
   2   9  -4   41.72   17.45
   2   9  -3    4.66    8.93
   2   9  -3   11.10   12.64
   2   9  -2   -3.49    8.09
   2   9  -2    3.46   10.72
   2   9  -1   46.79   17.76
   2   9  -1   50.16   15.64
   2   9  -1   35.07   15.09
   2   9   0   27.79   14.43
   2   9   0   13.10   10.89
   2   9   0   13.61   11.75
   2   9   1  111.94   24.94
   2   9   1  130.65   25.02
   2   9   1  119.85   24.21
   2   9   2   23.96   13.94
   2   9   2   68.06   19.16
   2   9   2   37.88   15.03
   2   9   3   28.04   15.43
   2   9   3   24.64   13.29
   2   9   3    7.70    8.78
   2   9   4   20.52   13.42
   2   9   4   29.26   12.45
   2   9   4   35.81   16.85
   2   9   5    9.90   10.67
   2   9   5   -0.77    7.50
   2   9   5    7.88    9.57
   2   9   5    3.79    5.87
   2   9   6   42.64   15.45
   2   9   6   25.46   14.24
   2   9   6   28.97   13.83
   2   9   6   24.08   10.19
   2   9   7   69.04   19.16
   2   9   7   36.48   15.78
   2   9   7   70.62   16.04
   2   9   8   -3.77   10.11
   2   9   8  -15.82   10.84
   2   9   8   -0.49    5.92
   2   9   9   13.61   12.31
   2   9   9    4.88   10.20
   2   9   9   13.71    8.00
   2   9  10   -1.87    9.67
   2   9  10    3.00    7.37
   2   9  11    4.66    9.47
   2   9  11   21.05   11.13
   2   9  12   27.05   16.51
   2  10  -5  -24.95   14.20
   2  10  -4  -12.41   11.58
   2  10  -4   -1.03   10.47
   2  10  -3   27.38   13.79
   2  10  -3   23.42   10.99
   2  10  -2   10.12    9.51
   2  10  -2    5.36    9.36
   2  10  -1   17.99   11.56
   2  10  -1   21.15   14.04
   2  10   0   45.25   16.66
   2  10   0   51.75   19.59
   2  10   1   15.86   15.34
   2  10   1   18.72   10.81
   2  10   2   25.10   16.24
   2  10   2   16.05   10.21
   2  10   2   33.36   14.34
   2  10   3   44.21   16.97
   2  10   3    9.69   10.19
   2  10   3   17.30   11.31
   2  10   4   47.36   18.79
   2  10   5   13.16   11.19
   2  10   5   27.41   14.01
   2  10   6   -6.22   10.83
   2  10   6   -5.38    9.52
   2  10   7    1.80   11.59
   2  10   7   26.33   11.79
   2  10   8   28.87   15.36
   2  10   8   24.60   12.01
   2  10   9   14.90   14.39
   2  10   9   -4.09   12.27
   2  10  10   38.48   17.40
   2  11   0   -0.57    7.22
   2  11   1    7.22   10.06
   3  -9  -1   50.89   18.33
   3  -9   0   12.46   12.77
   3  -9   1   58.55   19.50
   3  -8  -9   10.02   11.68
   3  -8  -8    5.58   11.19
   3  -8  -7   13.90   15.06
   3  -8  -7   -3.63   12.70
   3  -8  -7  -29.30   17.37
   3  -8  -6  -15.69   14.35
   3  -8  -6    1.16   10.53
   3  -8  -6  -20.69   18.90
   3  -8  -5   52.37   19.43
   3  -8  -5   32.25   17.35
   3  -8  -5    0.91   14.27
   3  -8  -4   43.16   17.48
   3  -8  -4   36.60   17.70
   3  -8  -4   34.07   17.84
   3  -8  -3    0.49   11.33
   3  -8  -3   -1.29    9.37
   3  -8  -3   -6.54   11.56
   3  -8  -2   15.78   13.30
   3  -8  -2   33.01   16.46
   3  -8  -1  -10.50   15.04
   3  -8  -1    9.68   11.80
   3  -8  -1    0.08   10.69
   3  -8   0  145.61   29.11
   3  -8   0  118.65   26.91
   3  -8   0  175.09   28.84
   3  -8   1   23.12   18.23
   3  -8   1   27.27   15.19
   3  -8   1   32.19   14.59
   3  -8   2   51.59   19.00
   3  -8   2   46.50   18.86
   3  -8   2   75.48   20.16
   3  -8   3   62.38   20.83
   3  -8   3   34.59   15.89
   3  -8   4   16.52   12.93
   3  -8   5   38.59   13.84
   3  -8   5   24.15   12.15
   3  -8   5   30.77   15.93
   3  -8   6   22.23   12.90
   3  -8   6    9.53    8.57
   3  -8   7   -0.39    9.96
   3  -8   7   22.91   13.15
   3  -7 -11  -10.31   10.55
   3  -7 -11   10.39   15.05
   3  -7 -10    3.69   13.37
   3  -7 -10    4.96    7.77
   3  -7 -10  -16.94   12.22
   3  -7 -10  -15.12   14.28
   3  -7  -9   14.35   11.28
   3  -7  -9    7.80   14.10
   3  -7  -9    7.12   10.29
   3  -7  -9   49.97   19.32
   3  -7  -8   -1.14    9.37
   3  -7  -8    4.33   11.27
   3  -7  -8   -7.73   12.20
   3  -7  -8   22.72   14.90
   3  -7  -7    0.53   11.59
   3  -7  -7   17.39   13.49
   3  -7  -7   22.42   16.94
   3  -7  -7   16.28    9.61
   3  -7  -6   44.43   16.41
   3  -7  -6   57.17   16.47
   3  -7  -6   41.72   15.99
   3  -7  -5   41.79   17.58
   3  -7  -5   55.24   15.23
   3  -7  -5   42.82   15.62
   3  -7  -5   29.69   13.71
   3  -7  -5    6.95   12.86
   3  -7  -4   17.99   13.77
   3  -7  -4   11.83    9.81
   3  -7  -4    5.34    6.97
   3  -7  -4   18.77   12.77
   3  -7  -4   -8.55   14.69
   3  -7  -3   24.49   14.62
   3  -7  -3    9.08    8.85
   3  -7  -3    3.07    9.37
   3  -7  -3   -7.20   12.65
   3  -7  -2   -7.96   14.27
   3  -7  -2    8.38    8.70
   3  -7  -2    7.21   10.70
   3  -7  -2  -10.03   12.39
   3  -7  -1   17.39   13.03
   3  -7  -1   36.10   14.54
   3  -7  -1   34.48   13.02
   3  -7   0   14.85   11.26
   3  -7   0    5.21    9.89
   3  -7   0   27.73   14.16
   3  -7   1   45.06   18.11
   3  -7   1   62.49   18.15
   3  -7   1   58.03   17.88
   3  -7   2   25.78   14.74
   3  -7   2    3.89    6.54
   3  -7   2   -4.32   11.23
   3  -7   2    2.71   12.91
   3  -7   3   48.80   15.23
   3  -7   3   91.55   23.48
   3  -7   3   53.52   14.68
   3  -7   3   47.00   16.52
   3  -7   4   43.71   14.80
   3  -7   4   33.70   12.41
   3  -7   4   59.02   18.18
   3  -7   5   15.00   11.16
   3  -7   5    0.96    7.80
   3  -7   5   19.24   12.94
   3  -7   6    9.20   10.22
   3  -7   6   16.12    8.78
   3  -7   6   16.69   15.07
   3  -7   7   46.66   17.41
   3  -7   7   21.70   12.71
   3  -7   8   14.72   12.93
   3  -7   8   22.79   12.49
   3  -7   9   45.74   16.61
   3  -7   9   36.94   13.69
   3  -7  10    2.69   12.63
   3  -7  10   23.03   14.19
   3  -6 -12    9.55   11.02
   3  -6 -12   61.07   18.85
   3  -6 -12   35.66   18.10
   3  -6 -11    5.50   11.56
   3  -6 -11    5.97    9.63
   3  -6 -11   14.98   16.64
   3  -6 -10   20.21   11.69
   3  -6 -10   34.88   14.66
   3  -6 -10   54.53   20.07
   3  -6  -9   19.37   14.94
   3  -6  -9   50.90   19.77
   3  -6  -9   45.23   15.62
   3  -6  -8   42.13   16.03
   3  -6  -8   18.61   12.34
   3  -6  -8   25.25   12.85
   3  -6  -7   79.87   21.75
   3  -6  -7   75.43   18.65
   3  -6  -7   58.48   18.25
   3  -6  -7   92.09   23.87
   3  -6  -6   -2.44   10.56
   3  -6  -6    9.16   10.51
   3  -6  -6   10.90    9.55
   3  -6  -6   11.87   13.61
   3  -6  -5   -6.64   12.78
   3  -6  -5    8.51    8.15
   3  -6  -5   16.75   10.64
   3  -6  -4   24.00   13.76
   3  -6  -4   15.88   10.89
   3  -6  -4   38.28   12.86
   3  -6  -4   32.03   10.87
   3  -6  -4   13.38   11.34
   3  -6  -3  249.82   32.70
   3  -6  -3  256.04   29.23
   3  -6  -3  278.75   35.72
   3  -6  -3  180.10   26.39
   3  -6  -2  101.92   21.62
   3  -6  -2  131.15   21.18
   3  -6  -2  121.42   24.18
   3  -6  -2   60.52   16.64
   3  -6  -1   -3.47   11.57
   3  -6  -1   -5.52    6.74
   3  -6  -1   -1.72   10.10
   3  -6  -1    6.63   10.72
   3  -6   0   19.60   11.49
   3  -6   0   18.55    9.71
   3  -6   0   20.40    7.66
   3  -6   0   14.90   12.73
   3  -6   0   26.89   12.27
   3  -6   1   39.95   12.08
   3  -6   1   -3.91   11.84
   3  -6   1   19.33    9.60
   3  -6   1   18.70    8.74
   3  -6   1   39.22   14.22
   3  -6   1   28.38   15.14
   3  -6   2  327.00   36.55
   3  -6   2  262.64   33.24
   3  -6   2  246.80   26.28
   3  -6   2  282.89   28.59
   3  -6   2  298.04   32.17
   3  -6   2  271.97   26.47
   3  -6   3   71.32   15.11
   3  -6   3  102.72   21.60
   3  -6   3   85.74   16.16
   3  -6   3   94.02   16.30
   3  -6   3   43.13   13.93
   3  -6   3  115.14   21.63
   3  -6   4   23.72   12.26
   3  -6   4   24.72   17.25
   3  -6   4   -1.21    6.22
   3  -6   4    3.93    6.82
   3  -6   4   -0.75    8.89
   3  -6   5   79.88   18.08
   3  -6   5   59.33   19.51
   3  -6   5   65.99   15.52
   3  -6   6   10.68   10.42
   3  -6   6   20.94   11.15
   3  -6   6   37.70   15.12
   3  -6   7  166.89   25.68
   3  -6   7  163.74   25.24
   3  -6   8   41.23   15.64
   3  -6   8   48.20   15.96
   3  -6   9   49.48   13.59
   3  -6   9   32.23   14.26
   3  -6  10    1.79   10.19
   3  -6  10   10.67   10.95
   3  -6  11    9.76   10.38
   3  -6  11   20.15   11.57
   3  -6  12   11.00   12.63
   3  -6  12   17.15   12.54
   3  -5 -14   19.40   13.25
   3  -5 -14   12.03   13.31
   3  -5 -13   33.46   14.89
   3  -5 -13   19.77   12.40
   3  -5 -13  -13.25   12.44
   3  -5 -12   42.26   15.87
   3  -5 -12   42.87   15.70
   3  -5 -12   48.11   18.16
   3  -5 -11  -23.06   12.26
   3  -5 -11   14.20   10.57
   3  -5 -11   12.71   14.14
   3  -5 -10   31.60   13.53
   3  -5 -10   40.94   14.63
   3  -5 -10   47.92   18.61
   3  -5  -9  196.22   28.07
   3  -5  -9  118.69   25.16
   3  -5  -9  163.07   22.85
   3  -5  -9  177.82   28.91
   3  -5  -8    3.90    8.43
   3  -5  -8    9.00    9.02
   3  -5  -8   22.19   13.00
   3  -5  -8    8.55    9.38
   3  -5  -7   57.47   17.69
   3  -5  -7   32.64   12.33
   3  -5  -7   75.29   19.53
   3  -5  -6   96.64   22.26
   3  -5  -6  115.77   20.05
   3  -5  -6   91.53   19.45
   3  -5  -6  134.92   23.44
   3  -5  -5  185.05   27.16
   3  -5  -5  189.59   24.64
   3  -5  -5  174.71   25.91
   3  -5  -5  213.75   27.83
   3  -5  -4  508.96   39.78
   3  -5  -4  506.49   41.75
   3  -5  -4  501.98   32.94
   3  -5  -3   44.38   15.04
   3  -5  -3   44.53   13.69
   3  -5  -3   49.90   14.95
   3  -5  -2  137.27   23.33
   3  -5  -2  134.82   20.51
   3  -5  -2  145.37   16.77
   3  -5  -2  127.90   22.26
   3  -5  -2  111.34   20.15
   3  -5  -1   77.16   15.82
   3  -5  -1   69.17   17.51
   3  -5  -1   87.98   13.90
   3  -5  -1   90.15   18.26
   3  -5  -1   94.84   19.05
   3  -5   0  140.37   22.15
   3  -5   0  187.09   20.10
   3  -5   0  158.90   21.63
   3  -5   0  171.72   25.03
   3  -5   0  174.26   24.61
   3  -5   0  168.47   17.83
   3  -5   1  134.34   22.81
   3  -5   1  136.15   19.61
   3  -5   1  169.05   19.86
   3  -5   1  155.21   24.22
   3  -5   1  165.51   22.80
   3  -5   1  127.29   16.92
   3  -5   2   51.43   11.32
   3  -5   2   72.48   18.38
   3  -5   2   64.63   14.12
   3  -5   2   71.18   13.71
   3  -5   2   38.54   13.79
   3  -5   2   90.30   18.01
   3  -5   3   73.96   14.67
   3  -5   3   68.12   13.98
   3  -5   3   69.93   19.47
   3  -5   3   82.28   15.72
   3  -5   3   65.18   16.45
   3  -5   3  100.29   19.91
   3  -5   4   52.20   13.31
   3  -5   4   76.97   20.31
   3  -5   4   49.64   12.11
   3  -5   4   28.96   12.33
   3  -5   4   54.87   12.78
   3  -5   5  108.77   18.70
   3  -5   5   84.44   15.36
   3  -5   5   89.57   19.95
   3  -5   5  113.91   18.71
   3  -5   6  311.33   28.98
   3  -5   6  285.52   29.85
   3  -5   6  333.98   36.61
   3  -5   6  314.91   30.21
   3  -5   7   22.63    9.39
   3  -5   7   10.92    9.04
   3  -5   8   97.28   18.53
   3  -5   8  105.32   17.80
   3  -5   8  124.89   21.83
   3  -5   9    4.78    9.24
   3  -5   9   13.70    8.27
   3  -5   9   14.08    8.24
   3  -5  10   -7.50   10.96
   3  -5  10    5.11    7.39
   3  -5  11  102.11   21.74
   3  -5  11  111.82   22.86
   3  -5  12    8.13   10.57
   3  -5  12   13.29    8.75
   3  -5  13    0.63   10.21
   3  -5  13   -7.36    9.06
   3  -4 -15   43.68   18.68
   3  -4 -14    8.48   12.31
   3  -4 -14   -2.72   11.11
   3  -4 -14   10.65   13.55
   3  -4 -13   29.17   16.28
   3  -4 -13    4.82   11.02
   3  -4 -12   41.82   14.98
   3  -4 -12   47.46   15.41
   3  -4 -12   32.63   14.31
   3  -4 -11    0.80    8.54
   3  -4 -11   -6.14    9.23
   3  -4 -10   23.87   11.16
   3  -4 -10   42.01   15.36
   3  -4 -10   24.94   12.85
   3  -4  -9   39.48   12.84
   3  -4  -9   49.65   15.52
   3  -4  -9   36.76   14.39
   3  -4  -8  131.24   21.31
   3  -4  -8  150.13   20.47
   3  -4  -8  183.08   25.85
   3  -4  -7   10.59    8.36
   3  -4  -7   13.54    9.39
   3  -4  -7    7.38    9.69
   3  -4  -7    3.55    7.76
   3  -4  -6   45.43   13.71
   3  -4  -6   47.59   14.98
   3  -4  -6   33.30   10.15
   3  -4  -6   39.81   15.52
   3  -4  -5  214.52   24.88
   3  -4  -5  202.48   25.66
   3  -4  -5  224.39   20.01
   3  -4  -5  234.99   27.73
   3  -4  -4  291.76   30.41
   3  -4  -4  263.81   27.54
   3  -4  -4  277.59   20.88
   3  -4  -4  266.13   21.38
   3  -4  -4  268.48   21.06
   3  -4  -4  340.15   32.28
   3  -4  -3  471.92   37.21
   3  -4  -3  407.75   25.89
   3  -4  -3  402.34   34.38
   3  -4  -3  428.91   33.99
   3  -4  -2   82.33   17.16
   3  -4  -2   59.20   13.27
   3  -4  -2   81.53   12.39
   3  -4  -2   43.23   15.00
   3  -4  -1  266.16   28.49
   3  -4  -1  261.72   21.55
   3  -4  -1  241.27   25.33
   3  -4  -1  280.80   29.01
   3  -4  -1  256.53   26.95
   3  -4  -1  237.68   17.83
   3  -4   0  571.37   40.33
   3  -4   0  512.59   34.89
   3  -4   0  534.79   31.09
   3  -4   0  483.96   37.26
   3  -4   0  501.02   36.34
   3  -4   0  520.16   27.52
   3  -4   1   30.19    9.21
   3  -4   1   14.79    9.21
   3  -4   1   35.35    8.78
   3  -4   1   24.62   11.63
   3  -4   1   22.85    8.74
   3  -4   1   50.38   14.86
   3  -4   2  137.04   21.56
   3  -4   2  117.81   17.10
   3  -4   2  134.86   16.93
   3  -4   2  112.57   18.97
   3  -4   2  137.53   19.96
   3  -4   2  120.92   15.69
   3  -4   3    5.18    6.61
   3  -4   3   11.89   13.89
   3  -4   3   -3.21    6.23
   3  -4   3    6.11    6.27
   3  -4   4  314.14   31.86
   3  -4   4  299.15   26.68
   3  -4   4  324.85   31.29
   3  -4   4  302.68   26.74
   3  -4   4  309.21   26.54
   3  -4   5  201.65   22.13
   3  -4   5  225.95   24.23
   3  -4   5  207.94   26.60
   3  -4   5  222.17   23.69
   3  -4   6   11.66    8.86
   3  -4   6   19.66    8.20
   3  -4   6   26.44   12.58
   3  -4   6    2.04    7.29
   3  -4   7   17.78    9.23
   3  -4   7   26.73    8.83
   3  -4   7   33.39   11.12
   3  -4   8   69.44   16.20
   3  -4   8   77.93   15.52
   3  -4   8   57.00   14.66
   3  -4   9  135.81   22.17
   3  -4   9  151.58   21.04
   3  -4   9  118.23   20.41
   3  -4  10   14.71   11.02
   3  -4  10   10.55    9.16
   3  -4  10   15.71   10.67
   3  -4  11   -2.30   10.89
   3  -4  11    4.32    7.14
   3  -4  11    5.13    6.90
   3  -4  12   11.67    9.41
   3  -4  12   14.87    8.08
   3  -4  12   17.94    9.91
   3  -4  13   12.12   10.55
   3  -4  13   14.83   10.34
   3  -4  14   40.65   16.61
   3  -4  14   25.27   13.90
   3  -4  15    3.59   13.76
   3  -4  15   24.02   13.99
   3  -3 -15   -5.84   10.57
   3  -3 -15   15.68   12.47
   3  -3 -14   29.24   16.72
   3  -3 -14   38.07   17.05
   3  -3 -13   28.90   14.63
   3  -3 -13   42.87   16.80
   3  -3 -13   21.83   13.65
   3  -3 -12   65.31   17.70
   3  -3 -12   69.24   18.44
   3  -3 -12   53.75   17.68
   3  -3 -11   48.03   15.89
   3  -3 -11   57.67   17.18
   3  -3 -11   32.54   12.83
   3  -3 -10   12.17   10.94
   3  -3 -10   23.86   11.65
   3  -3 -10   20.71   10.91
   3  -3  -9   34.98   11.85
   3  -3  -9   41.99   14.33
   3  -3  -9   41.81   14.17
   3  -3  -8  118.60   20.17
   3  -3  -8  113.45   17.40
   3  -3  -8  110.89   20.17
   3  -3  -7  802.82   47.84
   3  -3  -7  691.16   38.34
   3  -3  -7  781.12   47.50
   3  -3  -6   84.19   16.46
   3  -3  -6   74.66   11.69
   3  -3  -6  103.85   15.45
   3  -3  -6   82.01   17.06
   3  -3  -5  927.13   38.48
   3  -3  -5 1044.26   50.29
   3  -3  -5 1031.01   52.51
   3  -3  -5  922.89   38.99
   3  -3  -5  962.17   34.22
   3  -3  -5 1047.52   51.21
   3  -3  -4   19.63    9.98
   3  -3  -4   48.94   10.47
   3  -3  -4   38.54    7.29
   3  -3  -4   44.82    9.23
   3  -3  -4   66.34   14.79
   3  -3  -3  104.99   16.84
   3  -3  -3  100.11   16.19
   3  -3  -3  130.45   14.83
   3  -3  -3  115.47   12.65
   3  -3  -3   94.08   17.44
   3  -3  -2  101.29   16.67
   3  -3  -2   86.06    9.88
   3  -3  -2   79.12   14.40
   3  -3  -2   69.18   11.55
   3  -3  -2   66.70   13.69
   3  -3  -2   90.31    9.70
   3  -3  -1  326.24   28.11
   3  -3  -1  330.45   27.37
   3  -3  -1  308.98   22.20
   3  -3  -1  247.78   14.68
   3  -3  -1  296.58   26.37
   3  -3  -1  281.72   17.83
   3  -3   0   47.12    8.93
   3  -3   0   61.64   14.30
   3  -3   0   37.39   10.24
   3  -3   0   53.66    6.16
   3  -3   0   41.53    9.56
   3  -3   0   68.19   13.24
   3  -3   0   48.95   12.72
   3  -3   1  152.54   20.82
   3  -3   1  140.09   15.72
   3  -3   1  150.94   18.09
   3  -3   1  166.21   20.46
   3  -3   1  125.89   19.25
   3  -3   1  172.64   16.17
   3  -3   2  258.69   25.07
   3  -3   2  244.77   21.08
   3  -3   2  247.82   24.92
   3  -3   2  234.93   22.58
   3  -3   2  241.30   24.81
   3  -3   2  237.73   19.87
   3  -3   3  174.33   21.67
   3  -3   3  180.35   19.00
   3  -3   3  203.87   21.53
   3  -3   3  158.89   19.71
   3  -3   3  182.90   18.47
   3  -3   4  335.46   26.54
   3  -3   4  289.31   25.17
   3  -3   4  299.82   27.00
   3  -3   4  256.23   22.54
   3  -3   5   20.12    9.16
   3  -3   5   57.32   14.22
   3  -3   5   30.07    9.60
   3  -3   5   41.40   10.93
   3  -3   6    6.06    6.56
   3  -3   6   10.73    6.77
   3  -3   6   45.98   13.78
   3  -3   6   35.55   10.62
   3  -3   7   51.14   13.71
   3  -3   7   33.58   10.05
   3  -3   7   58.73   13.98
   3  -3   8  319.74   28.82
   3  -3   8  288.90   28.10
   3  -3   8  286.84   27.99
   3  -3   9  125.25   19.71
   3  -3   9  132.58   19.30
   3  -3   9  158.11   22.57
   3  -3  10  107.59   18.78
   3  -3  10  116.45   18.92
   3  -3  10  138.36   21.43
   3  -3  11   18.46   10.45
   3  -3  11    7.88    7.92
   3  -3  12   28.93   13.39
   3  -3  12   53.82   15.29
   3  -3  13  108.55   22.82
   3  -3  13  121.44   21.74
   3  -3  14    2.37   11.90
   3  -3  14   -7.36    8.45
   3  -3  15   26.30   17.31
   3  -3  15   45.65   15.65
   3  -3  16   27.07   17.12
   3  -3  16    3.69    8.81
   3  -2 -15   36.13   15.99
   3  -2 -15   15.89   15.60
   3  -2 -14    8.63    8.90
   3  -2 -14  -19.92   13.33
   3  -2 -13  104.28   21.87
   3  -2 -13  114.99   23.46
   3  -2 -12   38.44   14.64
   3  -2 -12   24.06   14.33
   3  -2 -11   92.90   19.81
   3  -2 -11  107.87   20.38
   3  -2 -11   71.61   17.26
   3  -2 -10  145.04   23.35
   3  -2 -10  165.51   23.19
   3  -2 -10  128.18   21.19
   3  -2  -9  130.52   21.65
   3  -2  -9  151.91   20.55
   3  -2  -9  112.92   18.87
   3  -2  -8   50.55   13.46
   3  -2  -8   54.69   14.17
   3  -2  -8   40.52   12.44
   3  -2  -7   92.56   16.72
   3  -2  -7   84.85   15.05
   3  -2  -7   62.73   13.92
   3  -2  -6  559.16   37.07
   3  -2  -6  494.28   30.34
   3  -2  -6  543.38   35.66
   3  -2  -6  496.61   29.16
   3  -2  -5  109.79   14.42
   3  -2  -5   98.89   15.46
   3  -2  -5  133.76   15.40
   3  -2  -5  107.44    9.66
   3  -2  -5  132.99   17.97
   3  -2  -4  131.30   17.44
   3  -2  -4  157.09   19.84
   3  -2  -4  135.08   14.54
   3  -2  -4  118.13   14.24
   3  -2  -4  106.49    9.43
   3  -2  -4  134.90   18.19
   3  -2  -3  761.92   40.98
   3  -2  -3  802.17   30.86
   3  -2  -3  739.78   24.34
   3  -2  -3  769.32   34.05
   3  -2  -3  724.98   38.31
   3  -2  -2    4.15    3.36
   3  -2  -2    8.45    7.23
   3  -2  -2    5.46    4.01
   3  -2  -2    4.99    4.96
   3  -2  -2    3.51    5.80
   3  -2  -2   -0.78    7.96
   3  -2  -1 1910.59   59.68
   3  -2  -1 1971.87   61.90
   3  -2  -1 2041.53   54.32
   3  -2  -1 1879.96   40.09
   3  -2  -1 1920.13   42.65
   3  -2   0  361.87   26.26
   3  -2   0  394.37   27.60
   3  -2   0  345.83   22.96
   3  -2   0  338.37   15.73
   3  -2   0  347.75   25.81
   3  -2   0  343.49   19.72
   3  -2   1  227.29   20.76
   3  -2   1  266.90   22.58
   3  -2   1  267.66   20.43
   3  -2   1  226.21    8.73
   3  -2   1  259.69   22.01
   3  -2   1  273.34   23.61
   3  -2   1  286.41   19.10
   3  -2   2 1457.91   52.14
   3  -2   2 1455.02   51.12
   3  -2   2 1500.75   47.99
   3  -2   2 1433.32   50.82
   3  -2   2 1432.62   44.38
   3  -2   3   87.68   12.68
   3  -2   3   76.43   13.95
   3  -2   3   74.35   12.84
   3  -2   3   80.51   12.38
   3  -2   3   64.53   11.67
   3  -2   4  481.57   29.95
   3  -2   4  477.08   29.07
   3  -2   4  413.77   28.09
   3  -2   4  441.29   27.76
   3  -2   5   28.48    8.62
   3  -2   5   21.70    7.68
   3  -2   5   17.32    7.00
   3  -2   5   39.72   10.92
   3  -2   6  182.85   19.80
   3  -2   6  161.84   19.03
   3  -2   6  172.02   19.81
   3  -2   7  134.77   18.01
   3  -2   7  125.24   17.28
   3  -2   7  140.82   18.98
   3  -2   8  244.98   24.42
   3  -2   8  230.15   23.47
   3  -2   8  291.75   27.55
   3  -2   9   68.76   14.86
   3  -2   9   51.48   12.81
   3  -2   9   57.66   12.76
   3  -2  10   10.67    9.06
   3  -2  10    4.87    6.59
   3  -2  10    9.60    6.61
   3  -2  11   61.62   15.38
   3  -2  11  112.22   19.91
   3  -2  11  104.87   17.99
   3  -2  12   22.02   11.24
   3  -2  12   27.80    9.95
   3  -2  13   14.13   11.47
   3  -2  13   22.65   11.41
   3  -2  14   20.75   12.11
   3  -2  14   25.99   11.00
   3  -2  15   15.95   11.77
   3  -2  15   16.56   10.01
   3  -2  16   63.73   18.04
   3  -2  16   43.81   15.21
   3  -2  17   -1.79   11.00
   3  -2  17    0.19    7.95
   3  -2  18   -3.37    7.45
   3  -1 -16  -11.13   12.24
   3  -1 -16    6.29   11.83
   3  -1 -15    0.42    8.69
   3  -1 -15   -4.13   10.23
   3  -1 -14   20.21   14.61
   3  -1 -14   30.12   14.52
   3  -1 -13   27.10   13.95
   3  -1 -13   28.50   14.43
   3  -1 -12  144.11   24.73
   3  -1 -12  128.82   22.62
   3  -1 -11   25.14   12.61
   3  -1 -11   33.56   13.03
   3  -1 -10    9.11    6.99
   3  -1 -10   19.44   11.57
   3  -1 -10    0.82    7.04
   3  -1  -9  190.68   24.27
   3  -1  -9  200.07   23.73
   3  -1  -9  152.46   19.46
   3  -1  -8  953.16   50.43
   3  -1  -8  878.59   44.61
   3  -1  -8  874.68   43.15
   3  -1  -7   60.57   12.89
   3  -1  -7   44.07   11.03
   3  -1  -6  140.13   16.81
   3  -1  -6  135.76   16.69
   3  -1  -6  119.89   17.04
   3  -1  -5  156.01   18.37
   3  -1  -5  157.25   17.07
   3  -1  -5  160.71   16.54
   3  -1  -5  144.45   17.19
   3  -1  -4  177.96   19.47
   3  -1  -4  194.94   20.63
   3  -1  -4  222.39   19.09
   3  -1  -4  220.92   18.31
   3  -1  -4  228.15   19.90
   3  -1  -3 1133.30   46.04
   3  -1  -3 1204.83   38.20
   3  -1  -3 1216.11   43.09
   3  -1  -3 1102.00   19.14
   3  -1  -3 1221.93   43.88
   3  -1  -2   66.68   11.05
   3  -1  -2   91.42   13.66
   3  -1  -2   84.27   10.19
   3  -1  -2   73.15   10.98
   3  -1  -2   74.15   11.77
   3  -1  -1  163.17   17.96
   3  -1  -1  197.93   17.54
   3  -1  -1  181.00   16.46
   3  -1  -1  190.20   14.07
   3  -1  -1  193.19   18.01
   3  -1  -1  168.42   12.70
   3  -1   0  902.40   36.09
   3  -1   0  994.31   40.72
   3  -1   0  958.63   36.48
   3  -1   0  876.19   27.55
   3  -1   0  894.09   25.98
   3  -1   0  948.05   37.19
   3  -1   0  950.99   31.37
   3  -1   1  359.30   23.15
   3  -1   1  401.95   26.11
   3  -1   1  350.63   22.44
   3  -1   1  339.03   14.73
   3  -1   1  357.77   22.02
   3  -1   1  379.29   21.14
   3  -1   2  358.40   23.56
   3  -1   2  338.59   23.55
   3  -1   2  329.77   22.06
   3  -1   2  310.53   13.11
   3  -1   2  337.01   21.40
   3  -1   2  308.93   20.61
   3  -1   3  234.25   20.80
   3  -1   3  245.95   19.91
   3  -1   3  250.19   11.30
   3  -1   3  236.43   18.19
   3  -1   3  236.58   18.81
   3  -1   4  433.02   27.67
   3  -1   4  526.36   28.14
   3  -1   4  479.93   16.62
   3  -1   4  425.20   24.69
   3  -1   4  437.01   27.02
   3  -1   5   69.26   12.66
   3  -1   5   48.95   10.17
   3  -1   5   64.37    7.19
   3  -1   5   75.32   12.02
   3  -1   6  462.52   29.80
   3  -1   6  436.99   27.72
   3  -1   6  406.40   28.31
   3  -1   7   13.46    8.22
   3  -1   7   -1.24    4.88
   3  -1   7    0.62    4.86
   3  -1   8  232.77   22.41
   3  -1   8  252.10   23.75
   3  -1   8  195.37   21.47
   3  -1   9  137.60   19.74
   3  -1   9  157.99   20.12
   3  -1   9  168.59   19.78
   3  -1  10   26.89   10.76
   3  -1  10   26.78   11.23
   3  -1  10   36.16   10.34
   3  -1  11   15.13   10.09
   3  -1  11    9.55    7.54
   3  -1  11   28.79   10.13
   3  -1  12   17.80   12.62
   3  -1  12   27.26   10.05
   3  -1  13  141.00   22.90
   3  -1  13  143.56   20.93
   3  -1  14   19.59   11.56
   3  -1  14   12.00    6.69
   3  -1  15   32.23   12.50
   3  -1  15   22.69   10.81
   3  -1  16   37.36   16.17
   3  -1  16   67.37   16.34
   3  -1  17   12.10   12.49
   3  -1  17    0.12    9.36
   3  -1  18   57.47   17.82
   3  -1  18   30.71   13.57
   3   0 -16   40.00   16.71
   3   0 -16    3.20   11.29
   3   0 -15   21.44   12.91
   3   0 -15   16.48   12.64
   3   0 -14   10.84    9.77
   3   0 -14   71.97   18.29
   3   0 -13   23.08   12.75
   3   0 -13   18.49   12.79
   3   0 -12    5.48   10.88
   3   0 -12    3.70    7.57
   3   0 -11  136.49   22.39
   3   0 -11  138.00   22.46
   3   0 -10   49.19   13.68
   3   0 -10   45.98   13.50
   3   0  -9  278.67   28.99
   3   0  -9  309.20   28.72
   3   0  -9  277.28   22.62
   3   0  -8  285.72   27.29
   3   0  -8  286.54   26.14
   3   0  -8  245.60   20.27
   3   0  -7  211.48   23.24
   3   0  -7  189.72   20.40
   3   0  -7  197.87   17.56
   3   0  -6    4.09    5.95
   3   0  -6    4.72    6.50
   3   0  -6    2.93    5.21
   3   0  -5  127.09   16.20
   3   0  -5  121.76   14.94
   3   0  -5  115.46   13.05
   3   0  -4  950.22   40.10
   3   0  -4  925.33   39.63
   3   0  -4  879.60   35.69
   3   0  -4  862.07   32.74
   3   0  -3 1182.08   42.46
   3   0  -3 1166.01   43.96
   3   0  -3 1135.01   41.85
   3   0  -3 1140.83   38.44
   3   0  -3 1068.28   35.28
   3   0  -2 1025.28   33.34
   3   0  -2  986.38   39.41
   3   0  -2 1077.38   36.01
   3   0  -2 1049.83   39.13
   3   0  -2  966.10   32.82
   3   0  -1  778.58   28.49
   3   0  -1  847.31   34.25
   3   0  -1  801.99   29.95
   3   0  -1  888.48   35.99
   3   0  -1  756.36   29.12
   3   0   0    8.00    4.58
   3   0   0   19.61    5.15
   3   0   0   23.56    7.22
   3   0   0   20.43    7.67
   3   0   0   15.46    4.55
   3   0   1 3983.24   71.94
   3   0   1 4167.54   74.78
   3   0   1 4034.79   59.67
   3   0   1 3929.11   66.44
   3   0   2  129.04   13.76
   3   0   2  131.13   13.94
   3   0   2  125.06   10.72
   3   0   2  107.53   10.23
   3   0   2  106.68   12.63
   3   0   3   34.50    9.17
   3   0   3   36.65    8.87
   3   0   3   30.84    7.49
   3   0   3   23.25    5.61
   3   0   3   32.34    5.63
   3   0   4  278.82   19.83
   3   0   4  295.31   21.01
   3   0   4  286.23   15.62
   3   0   4  285.93   20.99
   3   0   5  229.03   19.55
   3   0   5  251.23   19.16
   3   0   5  248.36   15.25
   3   0   5  229.12   20.28
   3   0   6 1191.82   45.14
   3   0   6 1243.47   43.14
   3   0   6 1185.85   35.02
   3   0   6 1210.70   46.64
   3   0   7  403.05   27.74
   3   0   7  408.78   25.96
   3   0   7  420.28   22.58
   3   0   7  357.45   27.05
   3   0   8   15.47    7.83
   3   0   8   17.20    8.50
   3   0   8   17.03    6.94
   3   0   9   28.61   10.27
   3   0   9   15.88    7.63
   3   0   9   29.80    8.87
   3   0  10  191.40   20.10
   3   0  10  239.61   25.26
   3   0  10  231.04   24.65
   3   0  11  181.86   20.26
   3   0  11  181.65   23.26
   3   0  12   26.15   12.19
   3   0  12   29.45    9.25
   3   0  13   18.51   10.78
   3   0  13    5.10    6.27
   3   0  14   80.18   19.03
   3   0  14   72.14   14.34
   3   0  15   45.67   15.59
   3   0  15   53.93   14.05
   3   0  16   38.55   15.36
   3   0  16   57.01   17.60
   3   0  17   16.88    9.07
   3   0  17   14.25   10.72
   3   0  18  -22.00   12.44
   3   1 -16   -9.89   10.26
   3   1 -16   -9.43   16.61
   3   1 -15   39.24   15.87
   3   1 -15   41.08   14.71
   3   1 -14   -3.07   10.07
   3   1 -14  -15.81   14.24
   3   1 -13   32.38   14.05
   3   1 -13   57.71   16.20
   3   1 -12    4.22    7.94
   3   1 -12   20.53   11.71
   3   1 -11   47.93   14.07
   3   1 -11   47.24   14.41
   3   1 -10  217.20   26.65
   3   1 -10  151.63   22.09
   3   1  -9  127.37   19.43
   3   1  -9   97.46   17.34
   3   1  -8  148.26   20.35
   3   1  -8  113.26   17.65
   3   1  -8  123.13   14.57
   3   1  -7   72.14   13.28
   3   1  -7   73.32   10.97
   3   1  -7   88.68   10.14
   3   1  -7   61.44   13.09
   3   1  -6  757.89   38.49
   3   1  -6  795.77   38.83
   3   1  -6  798.31   33.32
   3   1  -6  663.03   25.36
   3   1  -5  309.72   23.39
   3   1  -5  252.84   21.55
   3   1  -5  317.17   20.14
   3   1  -5  246.06   15.05
   3   1  -4  145.63   15.34
   3   1  -4  166.30   16.49
   3   1  -4  132.67   12.80
   3   1  -4  142.55   11.57
   3   1  -3  221.60   17.42
   3   1  -3  224.86   19.24
   3   1  -3  247.98   19.41
   3   1  -3  225.71   20.17
   3   1  -3  215.60   13.74
   3   1  -2  288.79   18.65
   3   1  -2  255.80   19.12
   3   1  -2  280.53   20.00
   3   1  -2  253.64   20.56
   3   1  -1 1008.50   24.17
   3   1  -1 1038.23   36.16
   3   1  -1 1041.59   36.24
   3   1  -1 1031.18   36.03
   3   1  -1 1058.90   39.30
   3   1   0  954.02   22.98
   3   1   0 1024.57   37.72
   3   1   0 1045.28   35.11
   3   1   0 1035.83   34.89
   3   1   1  105.44   11.52
   3   1   1  111.21   12.60
   3   1   1   94.13   11.01
   3   1   2  638.30   27.70
   3   1   2  721.06   30.25
   3   1   2  719.53   28.45
   3   1   2  611.41   15.16
   3   1   3  484.02   24.48
   3   1   3  500.96   24.95
   3   1   3  526.93   24.29
   3   1   3  471.50   25.73
   3   1   4   59.80   10.61
   3   1   4   41.63    8.33
   3   1   4   42.88    8.49
   3   1   4   41.93    7.42
   3   1   5   89.70   12.78
   3   1   5   83.64   11.18
   3   1   5   91.64   12.55
   3   1   5   90.72   10.35
   3   1   6   97.11   14.08
   3   1   6   93.97   13.07
   3   1   6   84.66   11.26
   3   1   6   92.93   11.02
   3   1   7  130.31   13.90
   3   1   7  114.45    6.59
   3   1   7  126.42   13.52
   3   1   7  125.04   15.98
   3   1   7  113.10   15.65
   3   1   8   34.82   10.97
   3   1   8   25.99    9.83
   3   1   8   27.92    4.26
   3   1   8   23.96    7.29
   3   1   8   45.41    9.18
   3   1   9  139.15   18.16
   3   1   9  168.68   20.23
   3   1   9  150.41   15.75
   3   1   9  141.92   10.84
   3   1   9  152.49   16.45
   3   1  10  246.51   20.89
   3   1  10  307.40   28.17
   3   1  11  122.55   15.74
   3   1  11  142.49   20.97
   3   1  12   13.27   10.32
   3   1  12    9.15    5.36
   3   1  13   46.55   13.91
   3   1  13   22.35    7.77
   3   1  14   53.41   13.61
   3   1  14   32.62   12.55
   3   1  14    7.99    6.17
   3   1  15  229.97   31.18
   3   1  15  193.14   26.59
   3   1  16   22.85   12.42
   3   1  16   29.84   13.32
   3   1  17    4.61    9.02
   3   1  17   23.64   13.09
   3   1  18   -4.04    9.15
   3   2 -16   -5.24   10.31
   3   2 -16  -47.55   18.15
   3   2 -15   -1.06    9.49
   3   2 -15   -7.46   13.21
   3   2 -14   18.05   12.07
   3   2 -14   -6.92   14.50
   3   2 -13   25.55   11.99
   3   2 -13  -10.49   13.03
   3   2 -12    5.94    7.77
   3   2 -12   -5.24   13.61
   3   2 -11   -8.35   10.79
   3   2 -11  -10.01   10.55
   3   2 -10   -3.34    8.11
   3   2 -10  -14.73   11.31
   3   2  -9   89.39   16.75
   3   2  -9   75.61   15.55
   3   2  -9   90.14   15.37
   3   2  -8   87.43   15.06
   3   2  -8  124.38   18.17
   3   2  -8  124.04   17.04
   3   2  -7   16.15    7.89
   3   2  -7   30.15    7.44
   3   2  -7   21.98    9.30
   3   2  -7   24.58    8.86
   3   2  -6  225.53   20.99
   3   2  -6  284.26   24.33
   3   2  -6  265.13   22.75
   3   2  -6  243.48   18.60
   3   2  -5   43.12    8.52
   3   2  -5   58.46   11.85
   3   2  -5   42.59    9.55
   3   2  -5   51.79    9.85
   3   2  -4   51.70    9.39
   3   2  -4   41.81    8.51
   3   2  -4   42.47   10.55
   3   2  -4   60.32   10.74
   3   2  -3   59.96    9.25
   3   2  -3   81.63   12.44
   3   2  -3   86.73   12.30
   3   2  -3   71.95    9.78
   3   2  -2  621.18   25.04
   3   2  -2  634.83   26.55
   3   2  -2  694.09   32.45
   3   2  -2  698.05   33.22
   3   2  -2  669.92   30.96
   3   2  -1  883.38   37.74
   3   2  -1  788.13   26.01
   3   2  -1  779.35   27.73
   3   2  -1  837.92   35.03
   3   2   0  285.24   10.24
   3   2   0  275.14   16.29
   3   2   0  275.90   20.64
   3   2   0  263.20   19.56
   3   2   1  709.39   25.85
   3   2   1  748.52   32.35
   3   2   1  744.43   32.34
   3   2   2 1384.71   43.73
   3   2   2 1321.79   36.20
   3   2   2 1310.01   41.05
   3   2   3 2178.40   48.70
   3   2   3 2123.09   50.25
   3   2   3 2193.85   55.31
   3   2   4 4017.85   69.76
   3   2   4 3903.02   66.77
   3   2   4 4146.89   75.53
   3   2   5  101.62   12.20
   3   2   5   89.60   10.72
   3   2   5   97.60   12.12
   3   2   6  364.78   24.20
   3   2   6  329.60   20.09
   3   2   6  369.14   23.75
   3   2   6  353.58   25.55
   3   2   7   20.56    7.78
   3   2   7   29.92    7.67
   3   2   7   28.44    8.03
   3   2   7   26.02    3.54
   3   2   7   23.69    6.46
   3   2   7   33.05    7.75
   3   2   8 1332.74   41.69
   3   2   8 1291.09   27.61
   3   2   8 1454.28   50.07
   3   2   8 1269.25   41.90
   3   2   8 1391.46   52.61
   3   2   9  129.19   17.22
   3   2   9  141.93   18.77
   3   2   9  136.97   14.44
   3   2   9  135.28   10.28
   3   2   9  142.78   17.06
   3   2   9  144.69   14.46
   3   2  10   87.91   15.62
   3   2  10  116.74   17.92
   3   2  10  122.32   14.18
   3   2  10  124.89   16.45
   3   2  10  106.23   12.24
   3   2  11   14.01    9.35
   3   2  11   16.41    8.09
   3   2  11   14.27    5.91
   3   2  12   53.15   14.30
   3   2  12   74.07   15.85
   3   2  12   70.29   11.50
   3   2  13  186.40   26.53
   3   2  13  191.00   25.36
   3   2  14   65.55   15.70
   3   2  14   77.37   18.92
   3   2  15   37.24   13.74
   3   2  15   14.96   10.42
   3   2  16   72.00   19.62
   3   2  17   83.56   21.14
   3   2  18   24.93   13.65
   3   3 -16   32.13   14.69
   3   3 -15   -0.51   11.20
   3   3 -15   64.73   17.97
   3   3 -14   13.20   10.63
   3   3 -14   43.15   15.79
   3   3 -13   31.04   13.23
   3   3 -13   75.02   18.87
   3   3 -12   -7.93    8.76
   3   3 -12   13.88   11.18
   3   3 -11   97.35   18.68
   3   3 -11  122.23   20.51
   3   3 -10   49.59   14.12
   3   3 -10   54.90   14.91
   3   3 -10   31.16   10.74
   3   3  -9   49.38   12.53
   3   3  -9   42.82   12.31
   3   3  -9   35.96   10.81
   3   3  -8   64.40   13.10
   3   3  -8   69.99   14.59
   3   3  -8   57.30   13.56
   3   3  -7   35.21    9.66
   3   3  -7   34.46    8.72
   3   3  -7   37.77   12.08
   3   3  -7   40.07   11.33
   3   3  -6  223.57   20.25
   3   3  -6  215.48   21.87
   3   3  -6  213.93   23.03
   3   3  -6  187.46   18.06
   3   3  -5   80.17   12.43
   3   3  -5   92.27   12.62
   3   3  -5   96.87   14.33
   3   3  -5   96.47   15.39
   3   3  -4   78.42   11.84
   3   3  -4   58.35    9.10
   3   3  -4   81.96   13.29
   3   3  -4   66.30   12.60
   3   3  -3  140.54   12.36
   3   3  -3  147.28   12.37
   3   3  -3  152.62   16.94
   3   3  -3  165.75   18.26
   3   3  -3  142.81   17.06
   3   3  -3  147.91   16.16
   3   3  -2  424.46   18.91
   3   3  -2  418.07   18.68
   3   3  -2  408.47   27.54
   3   3  -2  454.64   28.89
   3   3  -2  434.11   26.67
   3   3  -1  964.44   24.82
   3   3  -1  913.47   25.54
   3   3  -1  934.04   40.10
   3   3  -1  962.06   41.35
   3   3  -1  969.05   38.71
   3   3   0  186.72    9.77
   3   3   0  184.25    9.65
   3   3   0  191.21   11.65
   3   3   0  207.78   18.84
   3   3   0  207.97   19.36
   3   3   0  226.95   19.08
   3   3   1   54.14    6.43
   3   3   1   34.89    8.31
   3   3   1   47.81    6.38
   3   3   1   56.47   10.36
   3   3   1   41.73    8.98
   3   3   2  360.56   18.49
   3   3   2  364.17   17.62
   3   3   2  398.05   25.94
   3   3   2  321.40   22.56
   3   3   2  392.57   23.75
   3   3   3  333.31   19.71
   3   3   3  323.20   20.75
   3   3   3  324.02   17.90
   3   3   3  333.77   24.05
   3   3   3  325.23   22.73
   3   3   4  178.89   15.49
   3   3   4  182.45   14.82
   3   3   4  160.87   16.66
   3   3   4  198.36   18.10
   3   3   4  186.80   15.52
   3   3   5  107.78   12.95
   3   3   5  115.35   12.70
   3   3   5  107.18   11.55
   3   3   5  103.23   13.84
   3   3   5  108.99   13.67
   3   3   6  422.07   26.87
   3   3   6  425.16   21.95
   3   3   6  471.36   28.67
   3   3   6  442.00   26.78
   3   3   7  124.35   12.12
   3   3   7  136.24   16.67
   3   3   7  138.73   10.57
   3   3   7  153.17   17.37
   3   3   7  123.47   14.44
   3   3   8  493.53   33.21
   3   3   8  480.35   23.38
   3   3   8  505.61   20.94
   3   3   8  543.55   32.67
   3   3   8  483.05   28.08
   3   3   9   18.64    5.86
   3   3   9   14.81    7.61
   3   3   9   18.83    5.01
   3   3   9   21.73    5.57
   3   3   9   17.38    7.56
   3   3  10   97.13   16.97
   3   3  10   81.28   10.81
   3   3  10  100.94   13.51
   3   3  10   93.44   15.12
   3   3  11  362.29   32.87
   3   3  11  343.83   29.13
   3   3  12   28.91    9.69
   3   3  12   20.79    9.61
   3   3  13    3.66    9.27
   3   3  13    3.89    6.30
   3   3  14   95.40   18.87
   3   3  14  133.24   23.87
   3   3  15   32.37   12.33
   3   3  16   77.53   20.59
   3   3  17   95.88   23.89
   3   3  18  -13.11   11.33
   3   4 -15    0.34    9.25
   3   4 -14   55.47   19.40
   3   4 -13   47.30   17.72
   3   4 -12   28.47   12.34
   3   4 -12   48.05   14.90
   3   4 -11    4.85    8.07
   3   4 -11   16.26   10.54
   3   4 -11   10.19    7.96
   3   4 -10   12.77    8.38
   3   4 -10   10.07   10.28
   3   4 -10    8.77    7.00
   3   4  -9   11.85    7.76
   3   4  -9   -6.43    6.89
   3   4  -9  -19.36   10.46
   3   4  -8   28.24    9.43
   3   4  -8   12.62    7.61
   3   4  -7  132.39   16.74
   3   4  -7  156.54   20.46
   3   4  -7  135.99   21.24
   3   4  -6   14.65    6.69
   3   4  -6   23.04    6.93
   3   4  -6   33.79   10.17
   3   4  -6   19.33    8.86
   3   4  -5   59.23    9.65
   3   4  -5   68.22   12.48
   3   4  -5   61.29   12.03
   3   4  -5   48.45   12.27
   3   4  -5   40.24   10.77
   3   4  -4   48.84    7.67
   3   4  -4   51.23    7.10
   3   4  -4   62.07   11.99
   3   4  -4   68.31   12.53
   3   4  -4   46.58   11.76
   3   4  -4   37.92   11.01
   3   4  -3   43.48    6.52
   3   4  -3   34.35    5.07
   3   4  -3   28.51    9.26
   3   4  -3   42.45   10.34
   3   4  -3   32.46    9.87
   3   4  -2  208.40   11.49
   3   4  -2  192.22    9.31
   3   4  -2  196.74   20.40
   3   4  -2  215.67   22.51
   3   4  -2  221.81   21.00
   3   4  -1  216.76    8.83
   3   4  -1  230.09    9.27
   3   4  -1  211.66   21.34
   3   4  -1  239.11   22.00
   3   4  -1  226.82   22.30
   3   4   0   91.97    9.13
   3   4   0   95.23   14.14
   3   4   0   95.94    6.12
   3   4   0  118.51   16.41
   3   4   0   85.35   13.79
   3   4   1  760.94   27.40
   3   4   1  760.35   19.75
   3   4   1  786.67   39.41
   3   4   1  855.86   41.45
   3   4   1  775.07   38.39
   3   4   2  186.94   14.95
   3   4   2  183.68   19.25
   3   4   2  186.53   19.41
   3   4   3 1111.04   39.16
   3   4   3 1138.95   46.53
   3   4   3 1095.01   45.68
   3   4   4  126.06   14.44
   3   4   4  139.18   14.17
   3   4   4  147.35   17.38
   3   4   4  123.15   15.88
   3   4   5  322.68   24.21
   3   4   5  321.41   20.19
   3   4   5  353.44   26.66
   3   4   5  328.34   25.33
   3   4   6  153.54   17.92
   3   4   6  116.97   16.13
   3   4   6  109.21   15.95
   3   4   6  122.33   12.15
   3   4   7  813.30   42.08
   3   4   7  783.61   29.43
   3   4   7  849.36   32.59
   3   4   7  861.74   42.75
   3   4   7  824.40   40.14
   3   4   8  408.42   31.62
   3   4   8  357.30   19.40
   3   4   8  400.11   22.71
   3   4   8  447.70   31.66
   3   4   8  375.92   27.38
   3   4   9  714.73   43.37
   3   4   9  791.52   32.74
   3   4   9  708.39   37.47
   3   4   9  814.92   43.67
   3   4  10   45.82   10.13
   3   4  10   65.94   15.21
   3   4  10   45.26   11.61
   3   4  11  136.94   21.44
   3   4  11  170.03   21.69
   3   4  12  105.31   19.55
   3   4  12   92.98   16.75
   3   4  13    5.06    7.84
   3   4  14    5.28    6.98
   3   4  15   55.11   17.20
   3   4  16   11.50    9.35
   3   4  17   11.96   10.21
   3   4  18    8.58   10.48
   3   5 -14   21.32   12.56
   3   5 -13   63.69   18.33
   3   5 -12    2.86    8.21
   3   5 -12  -24.02   12.95
   3   5 -11  -26.21   11.96
   3   5 -11   -1.40   12.14
   3   5 -10   -1.51    9.01
   3   5 -10   -1.36    7.88
   3   5  -9  123.48   20.57
   3   5  -9  122.80   23.66
   3   5  -8  188.10   24.13
   3   5  -8  157.41   23.90
   3   5  -8  172.31   26.46
   3   5  -7   46.10   12.46
   3   5  -7   37.10   12.37
   3   5  -7   24.89   12.47
   3   5  -6   70.69   14.54
   3   5  -6   53.00   13.27
   3   5  -6   51.72   13.31
   3   5  -6   62.82   16.50
   3   5  -5   17.57    8.56
   3   5  -5   22.46    9.46
   3   5  -5   -1.03    8.32
   3   5  -4  282.30   27.19
   3   5  -4  330.62   32.52
   3   5  -4  297.42   27.39
   3   5  -3  236.88   24.58
   3   5  -3  246.74   27.34
   3   5  -3  245.29   25.06
   3   5  -2   35.29   10.89
   3   5  -2   14.93    7.85
   3   5  -1   21.63    8.87
   3   5  -1   46.39   12.96
   3   5  -1   24.11    8.24
   3   5   0  427.08   23.20
   3   5   0  468.54   32.64
   3   5   0  417.83   32.89
   3   5   0  462.88   32.99
   3   5   1  364.35   22.77
   3   5   1  344.02   29.82
   3   5   1  346.52   28.02
   3   5   1  362.09   29.11
   3   5   2   38.98    7.91
   3   5   2   52.78   12.20
   3   5   2   28.94    8.55
   3   5   3   69.27   11.38
   3   5   3   74.45   13.48
   3   5   3   68.58   13.47
   3   5   4  121.12   15.71
   3   5   4  103.77   15.91
   3   5   4  133.34   17.53
   3   5   5  155.31   18.33
   3   5   5  148.46   18.70
   3   5   5  185.09   20.98
   3   5   6  301.75   26.46
   3   5   6  255.42   24.84
   3   5   6  278.98   25.76
   3   5   7  221.28   24.07
   3   5   7  250.32   24.93
   3   5   7  263.47   25.72
   3   5   8  512.17   37.35
   3   5   8  511.23   30.21
   3   5   8  573.68   37.28
   3   5   8  551.07   37.29
   3   5   9   16.32    7.74
   3   5   9   23.35   10.06
   3   5   9   35.18    8.78
   3   5   9   33.82   10.04
   3   5  10   75.73   13.98
   3   5  10   91.17   16.98
   3   5  10  120.10   19.09
   3   5  11   85.63   18.19
   3   5  11   84.54   17.12
   3   5  11   60.80   13.11
   3   5  12  229.47   29.50
   3   5  12  249.46   28.40
   3   5  13  144.99   24.83
   3   5  13  141.72   22.14
   3   5  14   -7.70    9.52
   3   5  15   28.93   13.01
   3   5  16  -31.23   14.38
   3   5  17   40.23   16.50
   3   6 -13    5.48   10.95
   3   6 -13   14.36    8.56
   3   6 -12   18.74   10.34
   3   6 -12   41.43   15.58
   3   6 -11   15.24    9.07
   3   6 -11   25.34   12.03
   3   6 -11   18.02   12.38
   3   6 -10  -10.53    8.89
   3   6 -10    4.61    8.73
   3   6 -10   -5.40    9.96
   3   6  -9   -2.51    7.91
   3   6  -9  -11.97    9.03
   3   6  -8   34.77   12.74
   3   6  -8   -3.00   11.73
   3   6  -7    3.75    7.11
   3   6  -7    4.97    8.50
   3   6  -6   89.55   17.21
   3   6  -6   83.49   19.43
   3   6  -6   94.28   17.50
   3   6  -5  176.53   23.33
   3   6  -5  143.24   21.08
   3   6  -5  173.17   26.17
   3   6  -4   91.15   18.75
   3   6  -4   83.25   16.24
   3   6  -4   73.63   16.18
   3   6  -3   33.84   11.81
   3   6  -3   39.51   12.73
   3   6  -3   42.86   11.84
   3   6  -2   10.34    7.24
   3   6  -2   -0.24    8.54
   3   6  -2    4.22    6.10
   3   6  -1   34.75   10.87
   3   6  -1   28.71   11.32
   3   6  -1   21.18    8.46
   3   6   0  401.67   33.82
   3   6   0  401.25   34.86
   3   6   0  358.10   30.33
   3   6   1   88.41   13.03
   3   6   1  105.33   18.56
   3   6   1   95.41   17.03
   3   6   1   97.15   16.13
   3   6   2   35.90    9.72
   3   6   2   12.19    7.33
   3   6   2   30.58   11.81
   3   6   2   32.11    9.81
   3   6   3   -3.21    8.19
   3   6   3   10.64    6.32
   3   6   3   10.96    7.41
   3   6   4  152.13   18.78
   3   6   4  156.12   21.20
   3   6   4  117.39   17.92
   3   6   5  635.54   39.96
   3   6   5  641.17   43.13
   3   6   5  656.94   41.17
   3   6   6   41.38   12.75
   3   6   6   38.53   11.19
   3   6   6   38.92   11.26
   3   6   7   63.97   14.26
   3   6   7   68.68   15.13
   3   6   7   64.63   13.39
   3   6   8  109.29   18.66
   3   6   8  103.02   18.02
   3   6   8  118.88   19.24
   3   6   9  125.22   20.98
   3   6   9  154.36   22.08
   3   6   9  151.03   21.86
   3   6  10  219.73   28.19
   3   6  10  258.66   27.92
   3   6  10  221.88   26.96
   3   6  11    3.75    9.50
   3   6  11    3.75    6.12
   3   6  11   12.71    6.86
   3   6  12   21.74   10.67
   3   6  12   13.52    8.14
   3   6  13   25.39   12.02
   3   6  13   43.22   14.60
   3   6  14   62.64   18.37
   3   6  15   53.77   18.53
   3   6  16    5.04    9.08
   3   7 -11   28.89   12.79
   3   7 -11   71.54   23.25
   3   7 -10   -0.97    7.50
   3   7 -10  -10.32   11.31
   3   7  -9   50.72   18.47
   3   7  -9   15.73   10.28
   3   7  -8   11.22   11.20
   3   7  -8    4.19    6.79
   3   7  -7    2.80    8.90
   3   7  -7    9.39    9.21
   3   7  -6   45.56   12.26
   3   7  -6   68.65   18.60
   3   7  -6   83.33   17.88
   3   7  -5   18.79    7.06
   3   7  -5   36.14   15.54
   3   7  -5   28.01   11.43
   3   7  -4    5.48    7.62
   3   7  -4   11.96    8.95
   3   7  -3    4.56    8.89
   3   7  -3   14.68    8.84
   3   7  -3   -9.56    8.02
   3   7  -2   54.13   15.56
   3   7  -2   40.86   12.68
   3   7  -2   39.70   13.09
   3   7  -1   -2.68    8.45
   3   7  -1   -1.42    6.80
   3   7  -1   -3.72    8.63
   3   7   0   26.33   11.66
   3   7   0   28.17   10.63
   3   7   0   10.65    8.81
   3   7   1   11.03    7.06
   3   7   1    9.76    9.00
   3   7   1    3.34    5.14
   3   7   1    4.82    6.58
   3   7   2   35.01    9.99
   3   7   2   46.72   13.18
   3   7   2   34.86   10.73
   3   7   2   54.07   14.67
   3   7   3   85.94   15.25
   3   7   3   79.71   15.48
   3   7   3   98.53   18.38
   3   7   4   27.24    9.54
   3   7   4   35.65   10.84
   3   7   4   10.36    7.40
   3   7   5   29.25    9.51
   3   7   5   49.36   13.07
   3   7   5   57.85   14.63
   3   7   6   36.49   12.70
   3   7   6   58.88   15.54
   3   7   6   44.06   13.36
   3   7   7   61.43   15.14
   3   7   7   88.35   18.56
   3   7   7   68.30   15.32
   3   7   8   54.08   14.35
   3   7   8   33.32   11.12
   3   7   8   48.21   13.27
   3   7   9  154.23   24.77
   3   7   9  132.40   22.16
   3   7   9  126.00   21.20
   3   7  10    4.03    7.04
   3   7  10    2.07    6.63
   3   7  10   -2.06    7.27
   3   7  11   50.09   16.09
   3   7  11   37.94   12.68
   3   7  11   46.42   14.33
   3   7  12   18.21   10.51
   3   7  12    3.13    6.74
   3   7  13    1.20    6.70
   3   7  13   -4.12    7.50
   3   7  14   36.51   16.01
   3   7  15   31.80   14.14
   3   8  -9   15.49   14.71
   3   8  -8    1.46   11.65
   3   8  -7   35.10   15.62
   3   8  -6    6.33    7.98
   3   8  -6   16.94   11.45
   3   8  -6   -1.28    6.29
   3   8  -5   42.37   13.65
   3   8  -5   48.84   16.88
   3   8  -5   17.51   10.78
   3   8  -4  105.98   20.72
   3   8  -4   77.17   20.55
   3   8  -4   97.38   20.19
   3   8  -3    5.93    7.92
   3   8  -3    4.07    8.54
   3   8  -3   22.52    8.93
   3   8  -2    1.12    9.60
   3   8  -2    5.91    8.03
   3   8  -2    4.78    6.81
   3   8  -1   11.96    7.84
   3   8  -1   12.74   11.40
   3   8  -1   17.66    8.52
   3   8   0   14.09    9.89
   3   8   0   24.94   12.32
   3   8   0   36.58   11.81
   3   8   1  207.38   29.31
   3   8   1  161.73   23.18
   3   8   1  155.12   25.31
   3   8   2   70.06   15.11
   3   8   2   67.45   17.38
   3   8   2  101.49   21.61
   3   8   2   97.40   17.97
   3   8   3  168.55   23.15
   3   8   3  167.66   26.12
   3   8   3  146.23   24.59
   3   8   3  132.71   21.16
   3   8   4  107.35   19.75
   3   8   4  106.32   22.01
   3   8   4  111.22   19.28
   3   8   5   13.62    9.45
   3   8   5   16.85   10.73
   3   8   5   10.41    6.46
   3   8   6   24.89    9.59
   3   8   6   27.14   11.70
   3   8   6   14.63    8.99
   3   8   7  114.65   22.43
   3   8   7  109.04   21.86
   3   8   7  139.12   22.28
   3   8   8   24.60   11.12
   3   8   8   13.43    9.23
   3   8   8   13.45    9.18
   3   8   9   24.21   12.77
   3   8   9   17.73   11.07
   3   8   9   17.49    8.34
   3   8  10   -8.44   10.27
   3   8  10    4.18    6.68
   3   8  10    7.10    9.67
   3   8  11   17.61   12.63
   3   8  11    8.80    8.30
   3   8  11    9.06    7.72
   3   8  12   72.13   19.31
   3   8  12  102.25   21.82
   3   8  13  -10.69   12.78
   3   8  13   19.63   14.34
   3   8  14   -1.35    8.68
   3   9  -7   60.17   21.12
   3   9  -6   29.37   14.70
   3   9  -5   17.71   11.11
   3   9  -5   -7.30   11.29
   3   9  -4   12.09   11.50
   3   9  -4    2.84    8.47
   3   9  -3   -0.19    8.87
   3   9  -3    0.29   11.23
   3   9  -2   46.69   16.81
   3   9  -2   78.82   21.76
   3   9  -1   26.45   14.14
   3   9  -1   44.32   14.47
   3   9   0   11.01    8.29
   3   9   0   11.94   12.90
   3   9   0   13.84    7.57
   3   9   1   19.26   11.28
   3   9   1   10.78    8.47
   3   9   1   10.92    9.12
   3   9   2   -0.38   10.53
   3   9   2   23.73   12.33
   3   9   2    7.96    8.12
   3   9   3   26.18   11.69
   3   9   3   37.00   12.52
   3   9   4   53.13   16.13
   3   9   4   31.66   14.59
   3   9   4   39.16   11.79
   3   9   5   71.49   18.27
   3   9   5   48.17   16.32
   3   9   5   47.79   13.89
   3   9   6    7.97    8.47
   3   9   6    4.69    8.12
   3   9   6   10.68    9.10
   3   9   7    6.02    9.11
   3   9   7    4.35   10.61
   3   9   7   -5.53    6.02
   3   9   8    6.28   11.01
   3   9   8   -9.43    9.26
   3   9   8   -0.09    6.15
   3   9   9   24.70   14.25
   3   9   9   19.99   13.00
   3   9   9   14.29   10.40
   3   9  10   15.13   12.76
   3   9  10   16.73   12.04
   3   9  10   21.68   10.72
   3   9  11   37.07   15.43
   3   9  11    6.43    9.22
   3   9  11   38.69   15.38
   3   9  12    9.77   11.63
   3   9  12  -15.14   10.13
   3   9  13   16.57   10.72
   3  10  -5   27.84   13.39
   3  10  -4   44.12   16.64
   3  10  -3    2.57    8.96
   3  10  -3    7.44   10.99
   3  10  -2   61.89   21.49
   3  10  -2   46.11   17.50
   3  10  -1   11.11   11.67
   3  10  -1   29.58   14.20
   3  10   0   52.09   17.42
   3  10   0   27.12   14.82
   3  10   1    6.41    9.89
   3  10   1    0.55    8.28
   3  10   2   15.88   12.88
   3  10   2   53.53   18.69
   3  10   3    9.71   10.56
   3  10   4  -12.14   10.98
   3  10   5   -3.12    8.55
   3  10   6   17.07   11.90
   3  10   6   30.42   14.15
   3  10   7   11.94   13.11
   3  10   7   10.88    8.74
   3  10   7   27.65   16.05
   3  10   8    1.48   13.80
   3  10   8   12.74   11.68
   3  10   8  -18.67   10.33
   3  10   9    5.75   10.59
   3  10   9   25.66   16.60
   3  10   9   35.89   14.54
   3  10  10    2.21   10.44
   3  10  10   13.03   12.76
   3  10  10    3.28    6.82
   3  10  11   15.95   12.11
   3  10  11    8.22    8.15
   3  11   1   36.14   16.51
   4  -8  -2   14.63   14.22
   4  -8  -2   18.02   14.06
   4  -8  -2   48.83   19.05
   4  -8  -1  -22.16   18.85
   4  -8  -1    7.95   10.20
   4  -8   0   63.20   23.07
   4  -8   0   61.65   19.65
   4  -8   0   55.38   20.11
   4  -8   1   27.39   18.11
   4  -8   1    2.32   11.42
   4  -8   2   45.88   18.51
   4  -8   2    1.60   12.48
   4  -8   3   37.29   18.99
   4  -8   6   -0.49    9.27
   4  -7  -8   58.51   19.98
   4  -7  -8    8.78    8.45
   4  -7  -7   95.84   27.15
   4  -7  -7   50.45   19.34
   4  -7  -7   27.72   14.74
   4  -7  -7   80.11   20.44
   4  -7  -6   17.60   15.96
   4  -7  -6    6.80    9.19
   4  -7  -6   -1.09   10.48
   4  -7  -6    1.99   12.15
   4  -7  -6  -14.37   15.19
   4  -7  -5   -2.41   14.10
   4  -7  -5  -11.95   11.72
   4  -7  -5   -5.14    9.95
   4  -7  -5    9.30    8.45
   4  -7  -5   -1.59   13.69
   4  -7  -4    8.14   11.49
   4  -7  -4    6.46   10.04
   4  -7  -4   19.68   10.09
   4  -7  -4   15.54   12.99
   4  -7  -4    2.97   12.65
   4  -7  -3  147.90   28.87
   4  -7  -3   96.39   22.24
   4  -7  -3  113.91   26.32
   4  -7  -3  129.77   25.94
   4  -7  -2   76.52   23.27
   4  -7  -2   82.12   21.26
   4  -7  -2   61.93   16.74
   4  -7  -2  107.01   25.49
   4  -7  -1   65.78   19.89
   4  -7  -1   13.42    8.52
   4  -7  -1   64.69   19.35
   4  -7  -1   70.05   20.49
   4  -7   0   17.41   12.14
   4  -7   0   25.39   15.10
   4  -7   0   56.38   20.91
   4  -7   1   49.42   19.62
   4  -7   1   10.45   10.46
   4  -7   1   39.47   17.65
   4  -7   2   -7.24   12.14
   4  -7   2   -0.98    9.52
   4  -7   3   52.93   20.30
   4  -7   3   43.35   14.18
   4  -7   3   23.22   14.44
   4  -7   4   16.42   11.30
   4  -7   4   27.81   17.16
   4  -7   5   11.33   10.91
   4  -7   5   30.77   13.86
   4  -7   5   20.20   14.36
   4  -7   6   15.12   10.04
   4  -7   6   28.58   13.44
   4  -7   6   47.14   17.90
   4  -7   7   33.91   14.08
   4  -7   7   51.29   17.04
   4  -7   8   11.56   10.46
   4  -7   8   35.75   16.19
   4  -6 -10   16.80   16.69
   4  -6 -10   10.56   14.63
   4  -6 -10    7.68    8.82
   4  -6 -10   25.73   16.96
   4  -6  -9    4.44   12.85
   4  -6  -9   -1.23    7.94
   4  -6  -9    0.65    9.28
   4  -6  -9  -28.77   17.23
   4  -6  -8    8.37   12.66
   4  -6  -8   -6.11   10.56
   4  -6  -8   22.69   12.29
   4  -6  -8   24.85   13.15
   4  -6  -7   -7.18   14.17
   4  -6  -7   19.33   13.87
   4  -6  -7    0.48    7.98
   4  -6  -7  -30.38   17.45
   4  -6  -6   28.89   16.79
   4  -6  -6   19.62   12.35
   4  -6  -6    2.82   12.84
   4  -6  -6   10.37   10.04
   4  -6  -5   21.08   13.96
   4  -6  -5    4.66    7.63
   4  -6  -5   11.84   10.95
   4  -6  -5   12.03   13.39
   4  -6  -4   14.61   13.48
   4  -6  -4   28.69   12.47
   4  -6  -4   21.67   11.30
   4  -6  -4   19.79   12.05
   4  -6  -4    1.68   13.16
   4  -6  -3   25.55   14.93
   4  -6  -3   19.37   11.73
   4  -6  -3   28.07   15.83
   4  -6  -3   13.22   14.52
   4  -6  -2   40.60   17.60
   4  -6  -2   53.20   16.91
   4  -6  -2   46.24   17.72
   4  -6  -2   41.61   15.63
   4  -6  -1   42.66   17.49
   4  -6  -1   16.06    9.83
   4  -6  -1   28.37   13.06
   4  -6  -1   62.88   18.86
   4  -6   0   -5.31   11.94
   4  -6   0    4.74    7.48
   4  -6   0   -3.13    9.78
   4  -6   0   23.19   15.00
   4  -6   1   22.04   14.28
   4  -6   1   25.44   10.94
   4  -6   1   32.39   11.24
   4  -6   1   18.88   11.92
   4  -6   1   40.97   15.86
   4  -6   2   98.78   23.79
   4  -6   2  130.96   22.79
   4  -6   2   94.94   18.89
   4  -6   2  106.17   23.30
   4  -6   2  130.52   24.83
   4  -6   3    8.85    9.11
   4  -6   3   21.63   14.17
   4  -6   3   -8.56    7.06
   4  -6   3    1.55    7.17
   4  -6   3   -7.13   12.73
   4  -6   4   74.41   17.05
   4  -6   4  106.73   25.72
   4  -6   4   53.26   14.06
   4  -6   4   64.56   15.90
   4  -6   4   80.82   21.15
   4  -6   5   -3.77    9.06
   4  -6   5   -3.72    7.54
   4  -6   5    7.28    7.42
   4  -6   5   11.30   12.48
   4  -6   6   11.19    9.95
   4  -6   6   17.22   10.67
   4  -6   6   42.45   17.50
   4  -6   7   19.35   10.56
   4  -6   7   29.00   13.12
   4  -6   8    9.11    9.76
   4  -6   8    6.08    8.15
   4  -6   9   53.96   17.31
   4  -6   9   40.10   15.09
   4  -6  10    1.48   10.53
   4  -6  10   -1.21    8.38
   4  -6  11   52.29   18.39
   4  -5 -13   10.75   11.90
   4  -5 -12  -10.34   10.94
   4  -5 -12   55.25   21.58
   4  -5 -11   37.19   17.72
   4  -5 -11    3.83    9.32
   4  -5 -11   27.13   17.11
   4  -5 -10   15.91   14.34
   4  -5 -10   16.07   11.43
   4  -5  -9   13.69    9.58
   4  -5  -9    5.45    9.41
   4  -5  -9    4.47   12.17
   4  -5  -8    4.27   11.98
   4  -5  -8    6.92   11.47
   4  -5  -8   30.39   15.40
   4  -5  -8   22.46   10.91
   4  -5  -7   22.23   12.82
   4  -5  -7   24.93   12.35
   4  -5  -7   10.33    9.85
   4  -5  -7   -8.89   13.88
   4  -5  -6   37.29   15.94
   4  -5  -6   31.95   13.26
   4  -5  -6   35.86   13.13
   4  -5  -6    5.40   12.71
   4  -5  -5   55.80   17.92
   4  -5  -5   64.71   17.52
   4  -5  -5   67.76   16.76
   4  -5  -5   42.08   16.98
   4  -5  -4   -1.05   10.54
   4  -5  -4    5.15   10.19
   4  -5  -4   -6.68   12.03
   4  -5  -3  121.10   23.33
   4  -5  -3   89.49   18.82
   4  -5  -3  116.04   22.74
   4  -5  -2   46.84   15.95
   4  -5  -2   92.51   19.70
   4  -5  -2   54.21   15.43
   4  -5  -2   59.57   17.11
   4  -5  -1   35.44   15.08
   4  -5  -1   43.48   13.11
   4  -5  -1   50.14   11.70
   4  -5  -1   56.36   17.10
   4  -5  -1   72.26   19.52
   4  -5   0  112.96   22.24
   4  -5   0  141.08   22.63
   4  -5   0  150.03   20.05
   4  -5   0  123.58   23.30
   4  -5   0  144.27   24.95
   4  -5   1   11.92   12.39
   4  -5   1    9.38    7.90
   4  -5   1   43.26   14.88
   4  -5   1   27.75   11.35
   4  -5   1   27.85   14.83
   4  -5   2   37.45   10.77
   4  -5   2   31.78   15.60
   4  -5   2   23.67   10.10
   4  -5   2   16.57    8.25
   4  -5   2   15.88    8.57
   4  -5   3   78.57   16.85
   4  -5   3   88.44   21.81
   4  -5   3   75.86   16.74
   4  -5   3  101.98   18.52
   4  -5   3   87.03   19.76
   4  -5   4   36.42   12.50
   4  -5   4   58.79   19.89
   4  -5   4   47.09   14.06
   4  -5   4   79.11   17.27
   4  -5   4   52.23   15.83
   4  -5   5  139.83   21.49
   4  -5   5   88.85   17.66
   4  -5   5  132.45   21.30
   4  -5   5  122.12   23.78
   4  -5   6   84.75   18.91
   4  -5   6   51.51   14.42
   4  -5   6   57.36   15.09
   4  -5   6   55.08   17.99
   4  -5   7   19.47   13.87
   4  -5   7   22.44   10.76
   4  -5   7   13.41    8.46
   4  -5   8   -3.22    9.43
   4  -5   8   19.76    9.49
   4  -5   8   21.19   11.88
   4  -5   9   39.56   15.30
   4  -5   9   38.43   13.16
   4  -5   9   62.80   16.33
   4  -5  10   19.92   11.17
   4  -5  10   47.53   13.98
   4  -5  10   38.62   15.03
   4  -5  11   24.78   14.06
   4  -5  11    5.06    9.53
   4  -5  12   44.97   18.94
   4  -5  12   34.87   16.09
   4  -4 -13   34.46   16.03
   4  -4 -13   17.90   14.11
   4  -4 -12   -0.15   11.88
   4  -4 -12   23.12   12.71
   4  -4 -12   -4.89   11.82
   4  -4 -12   22.00   14.39
   4  -4 -11   -2.84    8.36
   4  -4 -11   12.07   12.33
   4  -4 -11   -3.74   12.61
   4  -4 -11   12.44   12.36
   4  -4 -10  -10.23   12.47
   4  -4 -10   15.03   10.03
   4  -4 -10   17.11   10.85
   4  -4 -10   25.26   13.90
   4  -4  -9   47.25   15.57
   4  -4  -9   21.72   12.94
   4  -4  -9   17.28   10.21
   4  -4  -9   56.64   18.61
   4  -4  -8  129.62   25.52
   4  -4  -8  118.66   22.92
   4  -4  -8  133.62   20.51
   4  -4  -8  103.44   22.09
   4  -4  -7   12.84   11.17
   4  -4  -7   23.18   13.14
   4  -4  -7    2.44    9.99
   4  -4  -6   23.85   11.88
   4  -4  -6   24.12   11.13
   4  -4  -6   34.03   13.06
   4  -4  -6   28.14   13.58
   4  -4  -5   33.57   14.40
   4  -4  -5   26.87   13.05
   4  -4  -5   36.09   12.22
   4  -4  -5   15.53   10.65
   4  -4  -4  152.58   24.60
   4  -4  -4  131.74   22.48
   4  -4  -4  138.11   22.90
   4  -4  -3  149.11   24.15
   4  -4  -3  145.58   23.08
   4  -4  -3  150.52   18.82
   4  -4  -3  129.55   21.94
   4  -4  -2   33.11   12.54
   4  -4  -2   52.08   13.99
   4  -4  -2   48.89   11.44
   4  -4  -2   69.09   18.71
   4  -4  -1   17.47   11.06
   4  -4  -1    7.88    8.66
   4  -4  -1   22.27    8.03
   4  -4  -1   49.56   14.22
   4  -4  -1   29.45   13.09
   4  -4   0  118.72   22.00
   4  -4   0  140.59   18.84
   4  -4   0  171.27   23.74
   4  -4   0  120.46   21.42
   4  -4   0  181.63   25.15
   4  -4   0  145.17   16.91
   4  -4   1  503.13   40.95
   4  -4   1  424.39   35.77
   4  -4   1  431.21   32.28
   4  -4   1  447.98   38.72
   4  -4   1  482.29   38.85
   4  -4   1  382.47   27.69
   4  -4   2   75.75   14.07
   4  -4   2  107.99   20.94
   4  -4   2   92.63   17.41
   4  -4   2   82.91   15.49
   4  -4   2   95.05   18.38
   4  -4   2  116.59   22.97
   4  -4   3    0.07    8.11
   4  -4   3   -4.81   10.14
   4  -4   3   -8.20    8.18
   4  -4   3    9.41    7.02
   4  -4   3  -26.49   11.74
   4  -4   4  112.69   18.71
   4  -4   4  168.66   26.53
   4  -4   4  101.46   18.33
   4  -4   4  123.87   19.38
   4  -4   4  104.06   20.56
   4  -4   5   59.28   14.20
   4  -4   5   46.45   13.24
   4  -4   5   59.46   14.17
   4  -4   5   54.96   14.96
   4  -4   6  230.41   26.90
   4  -4   6  224.62   25.96
   4  -4   6  185.13   26.09
   4  -4   6  166.63   22.66
   4  -4   7    6.23    8.47
   4  -4   7   16.92    8.89
   4  -4   7   21.85   10.77
   4  -4   8   19.98   12.32
   4  -4   8   14.37   10.37
   4  -4   8    3.68    7.93
   4  -4   9  279.44   31.13
   4  -4   9  307.03   33.90
   4  -4   9  226.17   28.93
   4  -4  10   12.92   12.26
   4  -4  10    1.75    7.79
   4  -4  10   12.52   11.26
   4  -4  11   28.08   13.62
   4  -4  11   23.68   11.10
   4  -4  11   30.97   12.84
   4  -4  12   12.36   11.29
   4  -4  12   18.98   10.04
   4  -4  12   10.07    8.77
   4  -4  13    0.75    9.79
   4  -4  13   24.33   12.88
   4  -4  14   10.30   14.12
   4  -4  14    0.78    7.58
   4  -3 -14   14.45   12.62
   4  -3 -13   23.07   14.50
   4  -3 -13    9.59   10.49
   4  -3 -12   22.33   13.57
   4  -3 -12   14.71   12.34
   4  -3 -11   -2.55   10.69
   4  -3 -11   -4.18    9.35
   4  -3 -11   -0.56    8.81
   4  -3 -10   91.85   20.31
   4  -3 -10   77.18   16.69
   4  -3 -10   93.51   20.93
   4  -3  -9  -14.88   12.47
   4  -3  -9   -3.60    9.05
   4  -3  -9   10.96    9.07
   4  -3  -9   -5.06    9.25
   4  -3  -8   -0.02    9.05
   4  -3  -8  -10.41   10.54
   4  -3  -8   -7.59    7.83
   4  -3  -8   15.12   11.00
   4  -3  -7   32.31   13.84
   4  -3  -7   22.59   10.94
   4  -3  -7   27.72   10.69
   4  -3  -7    6.38   10.47
   4  -3  -6   78.01   14.52
   4  -3  -6   98.85   19.13
   4  -3  -6   94.72   19.81
   4  -3  -6   67.93   16.43
   4  -3  -5  159.11   23.73
   4  -3  -5  218.79   26.17
   4  -3  -5  187.55   26.17
   4  -3  -5  157.63   19.26
   4  -3  -5  157.65   17.85
   4  -3  -5  167.22   23.90
   4  -3  -4   42.25   13.77
   4  -3  -4   44.96   13.27
   4  -3  -4   38.86    8.81
   4  -3  -4   50.10   11.47
   4  -3  -4   45.54   12.98
   4  -3  -3  103.21   18.12
   4  -3  -3   84.31   17.70
   4  -3  -3   86.24   11.46
   4  -3  -3   71.05   13.88
   4  -3  -3   64.59   16.11
   4  -3  -2   55.85   15.12
   4  -3  -2   47.58   14.37
   4  -3  -2   59.38   12.50
   4  -3  -2   45.20   13.56
   4  -3  -1  559.56   39.47
   4  -3  -1  571.74   39.80
   4  -3  -1  537.00   33.82
   4  -3  -1  567.51   39.39
   4  -3  -1  493.39   26.38
   4  -3   0  312.41   30.23
   4  -3   0  317.08   29.83
   4  -3   0  320.30   26.51
   4  -3   0  305.71   29.08
   4  -3   0  345.49   31.35
   4  -3   0  293.70   22.22
   4  -3   1   36.56    9.46
   4  -3   1   35.37   12.09
   4  -3   1   30.11    9.43
   4  -3   1   37.01   11.40
   4  -3   1   38.02   12.09
   4  -3   1   52.37   16.85
   4  -3   2  289.67   29.77
   4  -3   2  269.10   27.18
   4  -3   2  233.44   23.44
   4  -3   2  271.98   27.72
   4  -3   2  288.31   24.23
   4  -3   3   40.87   10.91
   4  -3   3   68.81   16.77
   4  -3   3   35.19   11.64
   4  -3   3   33.24   11.15
   4  -3   3   47.61   12.44
   4  -3   4  226.56   24.95
   4  -3   4  200.84   22.88
   4  -3   4  207.80   24.74
   4  -3   4  222.28   23.61
   4  -3   5  212.96   24.45
   4  -3   5  244.80   25.28
   4  -3   5  209.08   24.96
   4  -3   5  204.47   22.89
   4  -3   6  153.52   21.08
   4  -3   6  172.28   22.47
   4  -3   6  153.36   21.10
   4  -3   6  177.69   23.57
   4  -3   7  487.52   37.58
   4  -3   7  491.49   37.80
   4  -3   7  463.20   36.86
   4  -3   8  161.63   23.05
   4  -3   8  149.60   22.10
   4  -3   8  167.04   23.09
   4  -3   9   86.51   18.26
   4  -3   9   97.82   18.69
   4  -3   9   70.80   15.68
   4  -3  10   67.58   18.17
   4  -3  10   53.89   14.00
   4  -3  10   59.22   15.39
   4  -3  11   76.59   19.56
   4  -3  11   53.82   13.80
   4  -3  11   46.43   14.53
   4  -3  12   46.37   16.87
   4  -3  12   62.96   17.74
   4  -3  12   58.39   15.72
   4  -3  13   26.60   15.03
   4  -3  13   21.51   11.27
   4  -3  13   28.66   12.03
   4  -3  14   -7.20   10.92
   4  -3  14   15.20   10.72
   4  -3  15    6.85   11.00
   4  -3  15   33.00   13.67
   4  -3  16   17.05   11.04
   4  -2 -14    4.53    9.91
   4  -2 -14  -10.01   11.30
   4  -2 -13   16.42   11.42
   4  -2 -13   42.26   16.29
   4  -2 -12   64.41   17.78
   4  -2 -12   46.02   14.89
   4  -2 -11   34.96   13.56
   4  -2 -11   29.29   13.79
   4  -2 -10   22.54   11.67
   4  -2 -10   28.43   11.79
   4  -2 -10   53.72   14.96
   4  -2  -9   73.62   18.94
   4  -2  -9   65.16   16.24
   4  -2  -9   74.77   17.36
   4  -2  -8   27.85   11.66
   4  -2  -8   34.45   12.36
   4  -2  -8   34.85   11.82
   4  -2  -7  164.34   23.12
   4  -2  -7  167.56   24.85
   4  -2  -7  158.77   20.67
   4  -2  -7  134.35   20.35
   4  -2  -6   54.20   14.73
   4  -2  -6   25.26    9.26
   4  -2  -6   37.98   10.97
   4  -2  -6   66.38   14.77
   4  -2  -6   16.43    9.49
   4  -2  -5   -6.79    6.67
   4  -2  -5   -0.46    7.51
   4  -2  -5   -1.40    5.11
   4  -2  -5   -2.57    6.77
   4  -2  -5   -0.15    9.60
   4  -2  -4   58.30   13.03
   4  -2  -4   82.89   12.59
   4  -2  -4   51.42   12.30
   4  -2  -4   63.29   14.11
   4  -2  -4   74.73   14.64
   4  -2  -3   91.66   16.44
   4  -2  -3   82.90   11.97
   4  -2  -3   79.30   13.76
   4  -2  -3   73.27   15.51
   4  -2  -3   84.84   15.44
   4  -2  -2  144.69   19.54
   4  -2  -2  170.63   22.17
   4  -2  -2  143.18   17.41
   4  -2  -2  161.13   15.51
   4  -2  -2  144.13   20.56
   4  -2  -2  130.89   12.72
   4  -2  -1  694.93   41.98
   4  -2  -1  732.18   40.94
   4  -2  -1  688.60   37.04
   4  -2  -1  650.60   28.21
   4  -2  -1  651.93   38.74
   4  -2  -1  610.68   28.36
   4  -2   0  204.67   22.89
   4  -2   0  192.84   22.76
   4  -2   0  227.09   21.63
   4  -2   0  185.01   14.33
   4  -2   0  201.40   13.25
   4  -2   0  246.16   25.54
   4  -2   0  205.43   17.90
   4  -2   1   85.80   14.84
   4  -2   1   69.51   14.27
   4  -2   1  118.44   16.33
   4  -2   1   58.47   12.11
   4  -2   1   96.86   13.38
   4  -2   2  151.43   19.86
   4  -2   2  138.33   19.03
   4  -2   2  137.10   17.85
   4  -2   2  117.49   16.72
   4  -2   2  137.34   16.74
   4  -2   3  752.55   42.26
   4  -2   3  793.25   43.22
   4  -2   3  756.99   40.11
   4  -2   3  785.31   41.14
   4  -2   3  764.34   38.29
   4  -2   4  790.13   43.24
   4  -2   4  716.73   40.16
   4  -2   4  793.05   41.50
   4  -2   4  702.48   38.36
   4  -2   5   81.28   14.96
   4  -2   5   79.21   14.59
   4  -2   5   85.84   14.84
   4  -2   5  107.09   16.43
   4  -2   6  225.88   24.03
   4  -2   6  234.72   24.45
   4  -2   6  189.93   22.41
   4  -2   6  220.00   24.00
   4  -2   7   -3.23    9.36
   4  -2   7   11.15    8.78
   4  -2   7    8.33    7.25
   4  -2   8 1004.86   52.72
   4  -2   8  896.95   49.15
   4  -2   8  842.65   48.85
   4  -2   9  159.73   22.42
   4  -2   9  232.83   26.48
   4  -2   9  240.10   26.62
   4  -2  10   21.08   10.65
   4  -2  10   25.89   10.15
   4  -2  10   26.34   11.28
   4  -2  11   56.67   17.87
   4  -2  11   95.07   18.50
   4  -2  11   53.26   14.75
   4  -2  12   55.90   16.44
   4  -2  12   43.25   14.35
   4  -2  12   39.89   13.60
   4  -2  13  114.85   23.11
   4  -2  13  105.38   21.07
   4  -2  13  140.41   23.38
   4  -2  14    5.36   11.14
   4  -2  14   -6.75    8.61
   4  -2  15   23.33   12.11
   4  -2  15   21.77   10.77
   4  -2  16   25.73   13.83
   4  -2  16   31.76   15.02
   4  -2  17   11.59    7.64
   4  -1 -14   -0.34    7.56
   4  -1 -14    8.10   10.55
   4  -1 -13   21.73   12.71
   4  -1 -13   33.19   14.77
   4  -1 -12   12.90    9.75
   4  -1 -12   -0.68   10.01
   4  -1 -11   16.43   11.09
   4  -1 -11   27.20   12.22
   4  -1 -10   -5.25    9.71
   4  -1 -10   -8.19    9.44
   4  -1  -9   38.12   13.96
   4  -1  -9   28.96   11.84
   4  -1  -9   44.35   12.49
   4  -1  -8  344.38   30.01
   4  -1  -8  291.92   26.80
   4  -1  -7  280.54   28.86
   4  -1  -7  225.90   23.36
   4  -1  -7  203.27   21.78
   4  -1  -6  244.67   26.27
   4  -1  -6  202.32   25.40
   4  -1  -6  220.72   23.37
   4  -1  -6  223.80   22.58
   4  -1  -6  208.98   22.32
   4  -1  -5   17.44    9.24
   4  -1  -5   17.38    7.59
   4  -1  -5   27.40    9.55
   4  -1  -5    6.21    6.48
   4  -1  -5    8.86    7.43
   4  -1  -4  428.00   30.54
   4  -1  -4  456.58   33.01
   4  -1  -4  430.15   34.09
   4  -1  -4  424.11   27.72
   4  -1  -4  391.77   28.27
   4  -1  -3  497.50   31.30
   4  -1  -3  508.87   32.49
   4  -1  -3  437.65   33.14
   4  -1  -3  481.89   28.12
   4  -1  -3  535.23   32.33
   4  -1  -2   12.62    6.52
   4  -1  -2   25.47   10.43
   4  -1  -2   19.53    7.46
   4  -1  -2   12.64    6.94
   4  -1  -2   23.96    9.46
   4  -1  -1   96.90   14.50
   4  -1  -1  108.70   16.49
   4  -1  -1   98.57   15.10
   4  -1  -1  104.83   12.44
   4  -1  -1  128.15   17.55
   4  -1   0  170.17   18.35
   4  -1   0  201.10   22.19
   4  -1   0  213.17   20.76
   4  -1   0  204.00   16.30
   4  -1   0  206.03   15.31
   4  -1   0  179.47   16.27
   4  -1   1  618.40   33.70
   4  -1   1  607.11   36.28
   4  -1   1  636.38   35.08
   4  -1   1  605.99   24.31
   4  -1   1  598.88   32.18
   4  -1   1  591.47   30.36
   4  -1   2  495.19   30.52
   4  -1   2  443.75   31.58
   4  -1   2  453.30   29.54
   4  -1   2  432.10   19.37
   4  -1   2  457.20   27.69
   4  -1   2  465.97   28.09
   4  -1   3   71.05   13.13
   4  -1   3   77.65   14.28
   4  -1   3   74.07    7.62
   4  -1   3   69.52   12.38
   4  -1   3   51.13    9.83
   4  -1   4  448.92   31.71
   4  -1   4  465.72   30.72
   4  -1   4  439.90   17.93
   4  -1   4  427.93   26.84
   4  -1   4  421.49   28.94
   4  -1   5  275.37   24.98
   4  -1   5  257.37   23.44
   4  -1   5  263.14   14.50
   4  -1   5  273.20   22.19
   4  -1   5  281.93   25.82
   4  -1   6  206.88   22.06
   4  -1   6  172.04   19.61
   4  -1   6  189.03   13.20
   4  -1   6  155.73   19.49
   4  -1   7   90.53   15.74
   4  -1   7   91.77   15.73
   4  -1   7   88.81   15.16
   4  -1   8   93.28   17.77
   4  -1   8   88.05   15.67
   4  -1   8  100.81   16.40
   4  -1   9  254.27   27.06
   4  -1   9  245.98   25.49
   4  -1   9  219.96   26.37
   4  -1  10    6.18    9.26
   4  -1  10   25.66   11.00
   4  -1  10   26.08    9.14
   4  -1  11   37.19   12.83
   4  -1  11   45.34   14.03
   4  -1  11   27.70   10.65
   4  -1  12  250.04   30.41
   4  -1  12  212.00   25.83
   4  -1  12  248.74   30.36
   4  -1  13  214.15   26.64
   4  -1  13  201.74   28.45
   4  -1  14  134.83   24.54
   4  -1  14  109.13   19.93
   4  -1  15   32.77   16.15
   4  -1  15  -10.25    7.30
   4  -1  16   22.99   16.52
   4  -1  16    5.23    6.76
   4  -1  17   28.98   15.79
   4  -1  17   29.18   12.36
   4   0 -15   -3.33   12.56
   4   0 -15   -0.23   11.22
   4   0 -14  -27.22   13.54
   4   0 -14   -9.49   13.75
   4   0 -13   -2.06    7.59
   4   0 -13   -9.00   10.90
   4   0 -12   30.25   12.63
   4   0 -12   37.23   14.69
   4   0 -11   59.20   16.73
   4   0 -11   42.81   14.14
   4   0 -10   79.59   18.98
   4   0 -10   71.15   16.10
   4   0  -9  192.28   25.76
   4   0  -9  172.50   23.13
   4   0  -8   37.96   12.15
   4   0  -8   51.42   13.74
   4   0  -7   74.99   15.36
   4   0  -7   41.46   11.67
   4   0  -7   41.18   10.16
   4   0  -6   67.65   15.03
   4   0  -6   89.07   16.39
   4   0  -6   48.17   11.57
   4   0  -6   66.09   12.02
   4   0  -5  167.10   19.90
   4   0  -5  153.54   20.70
   4   0  -5  151.99   19.56
   4   0  -5  146.54   18.17
   4   0  -5  166.84   17.26
   4   0  -4  434.53   30.39
   4   0  -4  386.37   30.29
   4   0  -4  407.85   27.61
   4   0  -4  343.42   27.96
   4   0  -4  401.40   25.56
   4   0  -3   53.89    9.86
   4   0  -3   46.43   12.18
   4   0  -3   60.58   12.81
   4   0  -3   88.69   13.61
   4   0  -3   85.81   13.08
   4   0  -2  159.35   15.74
   4   0  -2  185.54   21.00
   4   0  -2  166.10   19.51
   4   0  -2  185.33   17.90
   4   0  -2  212.32   18.75
   4   0  -1   82.75   11.24
   4   0  -1  110.50   15.83
   4   0  -1   79.89   14.05
   4   0  -1   95.00   12.45
   4   0  -1   97.82   12.60
   4   0   0   82.66   11.22
   4   0   0  101.86   14.78
   4   0   0   88.96   13.95
   4   0   0  104.95   12.41
   4   0   1 1617.00   46.20
   4   0   1 1753.79   57.28
   4   0   1 1668.79   55.20
   4   0   1 1591.51   44.27
   4   0   1 1698.62   51.14
   4   0   2   98.31   13.30
   4   0   2  111.43   15.36
   4   0   2  108.95   15.27
   4   0   2  117.01   12.09
   4   0   2   97.60   10.97
   4   0   3   55.04   11.19
   4   0   3   44.62   10.38
   4   0   3   42.29   10.91
   4   0   3   53.87    8.25
   4   0   3   55.17    8.09
   4   0   4   11.65    8.27
   4   0   4    3.06    6.75
   4   0   4    5.12    6.11
   4   0   4    5.87    4.97
   4   0   4    0.50    2.56
   4   0   5 1144.35   47.96
   4   0   5 1154.26   46.51
   4   0   5 1164.61   35.80
   4   0   5 1124.64   46.96
   4   0   6 1507.09   56.31
   4   0   6 1503.52   53.79
   4   0   6 1485.47   41.54
   4   0   6 1491.73   56.21
   4   0   7   59.57   14.32
   4   0   7   45.54   11.36
   4   0   7   55.21   11.34
   4   0   7   54.93    8.64
   4   0   8   28.99   11.73
   4   0   8   24.26    9.58
   4   0   8   41.08   10.68
   4   0   8   36.97    8.06
   4   0   9   14.08    9.72
   4   0   9    1.44    6.67
   4   0   9   -4.40    5.99
   4   0  10  480.67   37.53
   4   0  10  466.11   33.35
   4   0  10  451.84   36.66
   4   0  11  111.08   20.06
   4   0  11  117.74   20.50
   4   0  11  135.62   19.27
   4   0  12   19.51   11.48
   4   0  12   19.75   11.33
   4   0  12    4.83    6.28
   4   0  13   51.85   15.29
   4   0  13   46.64   13.17
   4   0  14    4.92   10.46
   4   0  14   16.13    8.72
   4   0  15   95.46   21.16
   4   0  15   70.28   16.42
   4   0  16  116.01   23.64
   4   0  16   75.15   16.86
   4   0  17   57.20   18.56
   4   0  18   -1.97    9.78
   4   0  18    6.04    9.15
   4   1 -15   -2.50   11.21
   4   1 -15  -26.41   15.34
   4   1 -14  -13.86   11.53
   4   1 -14  -43.27   16.72
   4   1 -13   17.49   11.43
   4   1 -13    0.58   11.61
   4   1 -12   24.14   13.19
   4   1 -12   -9.13   12.95
   4   1 -11   24.62   12.24
   4   1 -11  -10.49   13.40
   4   1 -10   74.52   17.02
   4   1 -10   73.80   18.04
   4   1  -9  129.13   20.81
   4   1  -9  113.24   18.65
   4   1  -8  389.43   33.06
   4   1  -8  334.99   30.28
   4   1  -7  411.55   32.19
   4   1  -7  444.40   32.77
   4   1  -6   79.77   14.72
   4   1  -6  120.93   17.85
   4   1  -6   87.99   11.44
   4   1  -5   54.51   11.38
   4   1  -5   63.94   13.28
   4   1  -5   70.68   13.68
   4   1  -5   79.20   11.19
   4   1  -4  715.84   36.49
   4   1  -4  680.66   37.65
   4   1  -4  728.64   38.26
   4   1  -3  269.36   17.22
   4   1  -3  318.25   23.84
   4   1  -3  312.89   25.33
   4   1  -3  286.23   25.91
   4   1  -3  314.97   24.79
   4   1  -2  278.37   16.73
   4   1  -2  288.14   24.20
   4   1  -2  298.27   23.68
   4   1  -2  319.12   26.07
   4   1  -1  212.51   13.96
   4   1  -1  231.47   21.73
   4   1  -1  247.63   21.52
   4   1  -1  215.23   19.26
   4   1  -1  257.04   21.01
   4   1   0  176.80   12.86
   4   1   0  184.91   18.28
   4   1   0  216.54   20.79
   4   1   0  191.90   18.01
   4   1   1  590.71   31.29
   4   1   1  618.29   33.19
   4   1   1  574.81   29.68
   4   1   2  300.12   22.32
   4   1   2  317.17   24.20
   4   1   2  332.29   22.28
   4   1   2  285.72   13.79
   4   1   3  250.80   20.86
   4   1   3  213.52   20.37
   4   1   3  269.53   19.94
   4   1   3  255.18   12.87
   4   1   3  272.23   22.94
   4   1   4   83.00   13.26
   4   1   4   85.56   13.01
   4   1   4   91.00   11.80
   4   1   4   91.96   13.20
   4   1   5  489.12   30.17
   4   1   5  445.64   28.61
   4   1   5  485.78   26.19
   4   1   5  500.96   31.48
   4   1   6   26.50   10.41
   4   1   6   30.92    8.69
   4   1   6   22.28    7.43
   4   1   6   34.65    7.49
   4   1   7  188.17   20.30
   4   1   7  200.75   19.61
   4   1   7  222.64   18.67
   4   1   7  220.12   23.03
   4   1   8  242.11   23.87
   4   1   8  191.12   19.72
   4   1   8  263.94   20.86
   4   1   8  242.99   24.89
   4   1   9   82.39   16.13
   4   1   9   69.12   14.14
   4   1   9   73.83   13.06
   4   1   9   60.16   10.88
   4   1  10  196.96   24.04
   4   1  10  190.21   20.56
   4   1  10  220.33   20.80
   4   1  10  209.98   25.54
   4   1  11   29.66   10.96
   4   1  11   47.91   13.51
   4   1  11   15.16    7.69
   4   1  12   78.00   18.53
   4   1  12   68.25   13.69
   4   1  13   49.44   16.32
   4   1  13   40.35   10.58
   4   1  14   67.46   17.72
   4   1  14   78.95   15.03
   4   1  15   -6.01    9.43
   4   1  15    8.79    8.20
   4   1  16   31.32   14.96
   4   1  16   19.59   11.16
   4   1  17  -16.60   14.86
   4   1  17    1.18    8.80
   4   1  18    9.84   11.14
   4   1  18    2.18    8.91
   4   2 -15    7.36   10.17
   4   2 -14   36.00   15.14
   4   2 -14   38.77   15.00
   4   2 -13    3.48   10.30
   4   2 -13   14.24   10.62
   4   2 -12   87.12   19.57
   4   2 -12  120.71   24.04
   4   2 -11   71.82   17.26
   4   2 -11   83.07   18.08
   4   2 -10   56.93   14.57
   4   2 -10   66.77   16.65
   4   2  -9   93.87   17.24
   4   2  -9  104.09   19.54
   4   2  -8  204.84   24.01
   4   2  -8  204.22   24.52
   4   2  -7   76.41   12.09
   4   2  -7  114.94   17.25
   4   2  -7  142.18   20.33
   4   2  -7  132.45   17.43
   4   2  -6  240.79   23.18
   4   2  -6  213.53   23.79
   4   2  -6  241.50   22.60
   4   2  -6  231.05   20.41
   4   2  -5  174.86   18.82
   4   2  -5  154.38   18.61
   4   2  -5  199.05   22.27
   4   2  -5  197.55   19.59
   4   2  -4  158.23   17.12
   4   2  -4  154.08   17.42
   4   2  -4  181.21   20.26
   4   2  -3  727.78   20.68
   4   2  -3  766.72   34.01
   4   2  -3  843.54   38.67
   4   2  -3  834.54   41.42
   4   2  -2  198.12    8.99
   4   2  -2  260.56   19.65
   4   2  -2  262.78   21.04
   4   2  -2  259.33   22.81
   4   2  -2  243.85   23.96
   4   2  -2  246.62   23.18
   4   2  -1  327.32   22.32
   4   2  -1  355.50   27.57
   4   2  -1  345.78   26.01
   4   2   0 1851.58   50.91
   4   2   0 1839.44   57.29
   4   2   0 1785.32   59.29
   4   2   1  213.78   17.61
   4   2   1  240.82   21.96
   4   2   1  205.95   19.38
   4   2   2 1219.54   41.17
   4   2   2 1164.97   45.91
   4   2   2 1215.31   46.00
   4   2   3 1338.13   47.56
   4   2   3 1258.01   42.97
   4   2   3 1308.81   46.93
   4   2   4    7.47    5.20
   4   2   4    5.48    6.36
   4   2   4    6.38    4.07
   4   2   5  832.83   37.84
   4   2   5  739.41   35.14
   4   2   5  846.22   37.91
   4   2   6    5.06    6.47
   4   2   6   13.44    6.18
   4   2   6   13.78    4.86
   4   2   6   12.44    6.09
   4   2   7   92.98   15.04
   4   2   7  108.35   15.23
   4   2   7  123.65   14.95
   4   2   7  122.77   15.28
   4   2   8  186.77   20.96
   4   2   8  161.26   17.25
   4   2   8  203.02   19.96
   4   2   8  180.89   21.96
   4   2   9   48.01   12.75
   4   2   9   55.59   12.82
   4   2   9   54.93   11.37
   4   2   9   63.48   11.77
   4   2  10   78.53   15.73
   4   2  10   99.27   17.09
   4   2  10   71.08   12.56
   4   2  10   88.00   13.24
   4   2  10   71.59   13.33
   4   2  11    2.40    8.42
   4   2  11    9.33    5.86
   4   2  11   19.42    8.78
   4   2  12   54.94   15.28
   4   2  12   49.26   15.28
   4   2  12   47.48   10.64
   4   2  13   87.37   19.19
   4   2  13  122.65   21.36
   4   2  13  113.91   16.62
   4   2  14   -0.15    9.37
   4   2  14    3.82    7.36
   4   2  15   -0.87   11.10
   4   2  15    7.16    7.81
   4   2  16    3.96    9.19
   4   2  16    2.53    9.09
   4   2  17    2.36    8.92
   4   2  17   18.85    9.49
   4   2  18    3.47    8.80
   4   3 -14   18.73   13.50
   4   3 -14   53.58   17.21
   4   3 -13    1.78    8.44
   4   3 -13   23.61   13.83
   4   3 -12   56.16   17.00
   4   3 -12   46.30   16.94
   4   3 -11  128.27   22.33
   4   3 -11  168.92   25.32
   4   3 -10    6.82    6.69
   4   3 -10   36.52   13.93
   4   3  -9    2.64    6.25
   4   3  -9   23.46   11.67
   4   3  -8   37.54   12.10
   4   3  -8   42.23   14.51
   4   3  -8   43.56   12.27
   4   3  -7  260.63   25.04
   4   3  -7  254.36   26.89
   4   3  -7  273.62   27.76
   4   3  -6 1262.20   50.62
   4   3  -6 1085.52   45.87
   4   3  -6 1220.79   56.37
   4   3  -6 1145.19   53.40
   4   3  -6 1022.88   45.52
   4   3  -5   77.32   13.26
   4   3  -5   83.29   13.29
   4   3  -5   86.69   13.30
   4   3  -5   97.23   16.60
   4   3  -5  101.44   16.51
   4   3  -4  231.49   19.39
   4   3  -4  222.24   19.02
   4   3  -4  218.14   22.99
   4   3  -4  235.60   25.14
   4   3  -4  228.85   23.13
   4   3  -4  213.45   21.00
   4   3  -3  178.09   16.26
   4   3  -3  179.82   16.57
   4   3  -3  184.07   20.68
   4   3  -3  167.32   20.19
   4   3  -3  179.88   20.17
   4   3  -3  197.27   19.93
   4   3  -2  502.01   24.44
   4   3  -2  486.01   25.37
   4   3  -2  538.17   34.83
   4   3  -2  491.63   30.53
   4   3  -1  359.19   19.35
   4   3  -1  351.31   20.84
   4   3  -1  382.98   29.16
   4   3  -1  369.18   26.60
   4   3   0  598.01   26.30
   4   3   0  642.94   36.85
   4   3   0  628.04   36.00
   4   3   0  597.20   33.41
   4   3   1  164.77   10.99
   4   3   1  188.65   15.03
   4   3   1  177.13   19.45
   4   3   1  168.99   18.98
   4   3   1  192.91   19.56
   4   3   2  154.88   12.11
   4   3   2  174.80   14.96
   4   3   2  127.97   16.29
   4   3   2  159.73   18.07
   4   3   2  177.34   18.92
   4   3   3  357.27   20.21
   4   3   3  375.93   22.59
   4   3   3  352.98   25.18
   4   3   3  360.17   27.25
   4   3   3  395.69   27.55
   4   3   4  397.51   23.40
   4   3   4  422.61   24.93
   4   3   4  437.53   27.25
   4   3   4  400.32   28.45
   4   3   4  369.68   26.77
   4   3   5  567.36   30.17
   4   3   5  603.20   31.28
   4   3   5  603.12   31.19
   4   3   5  591.84   34.54
   4   3   5  629.99   34.58
   4   3   6  489.63   29.66
   4   3   6  514.97   30.43
   4   3   6  474.25   27.70
   4   3   6  523.95   32.62
   4   3   6  473.36   30.33
   4   3   7   73.19   12.97
   4   3   7   75.03   13.27
   4   3   7   90.05   12.80
   4   3   7   93.43   14.24
   4   3   7   84.95   14.14
   4   3   8   66.94   12.93
   4   3   8   32.78    9.11
   4   3   8   50.14   11.53
   4   3   8   49.37    9.58
   4   3   8   36.23   10.14
   4   3   9   26.17    8.40
   4   3   9   32.21   11.88
   4   3   9   35.53    8.67
   4   3   9   36.77   10.48
   4   3  10  275.32   28.31
   4   3  10  229.92   20.04
   4   3  10  272.01   25.60
   4   3  10  246.90   22.48
   4   3  11   40.23    9.60
   4   3  11   53.25   14.36
   4   3  11   43.26    9.15
   4   3  11   56.51   13.10
   4   3  12  131.85   21.45
   4   3  12  167.30   24.69
   4   3  12  148.67   20.69
   4   3  13    1.48    8.22
   4   3  13    4.79    7.24
   4   3  13   18.40    9.06
   4   3  14   44.68   15.29
   4   3  14   46.69   14.85
   4   3  15  106.38   22.45
   4   3  15   92.09   20.34
   4   3  16  -14.73   13.56
   4   3  16   -0.42    9.27
   4   3  17   35.36   13.64
   4   3  18   12.25   11.38
   4   4 -14    0.16   11.67
   4   4 -13    9.55   10.00
   4   4 -12    0.44    7.96
   4   4 -11   10.63    8.50
   4   4 -10   75.57   17.86
   4   4 -10   94.61   19.36
   4   4  -9   52.25   14.18
   4   4  -9   58.45   16.77
   4   4  -8   32.03   12.70
   4   4  -8   27.69   11.72
   4   4  -7   26.35    9.69
   4   4  -7   52.79   14.02
   4   4  -6   35.38    9.30
   4   4  -6   31.27   11.13
   4   4  -6   30.47   11.70
   4   4  -6   35.32   12.20
   4   4  -6   32.99   10.84
   4   4  -5    8.93    6.41
   4   4  -5    0.54    4.54
   4   4  -5    3.55    8.35
   4   4  -5    0.80    6.66
   4   4  -5   -5.54    7.39
   4   4  -4   94.45   15.53
   4   4  -4  114.69   13.16
   4   4  -4   98.14   16.19
   4   4  -4  112.06   18.88
   4   4  -4  103.15   17.79
   4   4  -3 1428.48   40.72
   4   4  -3 1429.61   60.81
   4   4  -3 1431.83   60.64
   4   4  -3 1298.75   54.33
   4   4  -2  295.47   16.87
   4   4  -2  311.44   17.35
   4   4  -2  305.31   27.92
   4   4  -2  348.22   29.13
   4   4  -2  337.77   27.65
   4   4  -1  543.44   20.35
   4   4  -1  542.88   22.04
   4   4  -1  496.31   34.43
   4   4  -1  540.22   36.61
   4   4  -1  494.41   33.58
   4   4   0   57.13    5.94
   4   4   0   61.55    6.25
   4   4   0   69.34    8.30
   4   4   0   64.63   12.71
   4   4   0   64.87   13.79
   4   4   1  172.79   12.20
   4   4   1  169.72    9.34
   4   4   1  211.97   14.49
   4   4   1  191.95   21.65
   4   4   1  187.96   20.70
   4   4   2  760.55   28.74
   4   4   2  850.97   30.10
   4   4   2  862.43   41.68
   4   4   2  894.03   45.00
   4   4   2  870.98   43.45
   4   4   3  622.59   28.80
   4   4   3  627.42   27.45
   4   4   3  631.06   38.22
   4   4   3  675.03   35.82
   4   4   3  631.76   37.09
   4   4   4  236.05   19.05
   4   4   4  206.35   16.98
   4   4   4  230.76   21.07
   4   4   4  232.36   23.34
   4   4   4  237.93   23.24
   4   4   5   42.04    9.52
   4   4   5   41.23    8.44
   4   4   5   44.75    9.80
   4   4   5   34.00    9.90
   4   4   5   44.26   11.38
   4   4   6   59.34   11.33
   4   4   6   64.43   10.74
   4   4   6   70.78   13.18
   4   4   6   64.84   10.56
   4   4   6   78.14   14.46
   4   4   7  827.71   42.68
   4   4   7  777.32   35.49
   4   4   7  865.80   46.13
   4   4   7  817.10   42.68
   4   4   8  506.38   35.33
   4   4   8  510.28   28.22
   4   4   8  603.77   38.60
   4   4   8  500.13   34.05
   4   4   9   58.34   12.47
   4   4   9   63.40   13.82
   4   4   9   58.32   10.29
   4   4   9   66.32   13.87
   4   4  10  185.95   24.13
   4   4  10  191.35   23.24
   4   4  10  135.25   18.38
   4   4  11   55.45   14.18
   4   4  11   51.89   12.02
   4   4  11   52.69   13.23
   4   4  12  199.30   27.36
   4   4  12  203.91   25.39
   4   4  13    1.00    6.41
   4   4  13   12.39    9.02
   4   4  14  -12.39    9.45
   4   4  15   22.13   11.86
   4   4  16    7.10    9.06
   4   4  17   27.82   12.81
   4   5 -13  -10.50   11.72
   4   5 -12   -3.26   13.17
   4   5 -11   -5.08   10.85
   4   5 -11  -11.06    9.94
   4   5 -10   13.09    9.28
   4   5 -10   18.01   10.91
   4   5 -10   -3.53    8.16
   4   5  -9   55.07   16.13
   4   5  -9   59.64   16.48
   4   5  -9   89.38   21.96
   4   5  -8   -9.26    9.26
   4   5  -8   14.18   10.33
   4   5  -8    3.88    8.67
   4   5  -7   29.07   10.83
   4   5  -7   32.64   12.61
   4   5  -7   20.47   10.63
   4   5  -6  100.72   17.61
   4   5  -6   89.48   18.50
   4   5  -6  108.72   21.09
   4   5  -5   32.58   12.54
   4   5  -5   21.88    9.83
   4   5  -5   28.83   10.44
   4   5  -4  124.23   18.74
   4   5  -4  134.05   20.91
   4   5  -4  175.12   24.66
   4   5  -3   14.13    9.52
   4   5  -3   26.58   10.50
   4   5  -3   20.89    9.78
   4   5  -2   11.44    7.49
   4   5  -2   -9.66    8.32
   4   5  -2    4.02    6.73
   4   5  -1   22.33   10.07
   4   5  -1   20.71    8.26
   4   5   0  154.52   20.53
   4   5   0  187.46   23.97
   4   5   0  149.27   19.93
   4   5   1  494.85   23.95
   4   5   1  545.67   37.54
   4   5   1  525.89   36.60
   4   5   2  119.26   12.91
   4   5   2  140.63   19.55
   4   5   2  123.68   17.97
   4   5   3   60.80   12.95
   4   5   3   73.67   11.03
   4   5   3   62.46   12.91
   4   5   4  139.73   16.13
   4   5   4  147.04   20.15
   4   5   4  123.37   18.42
   4   5   5   80.99   13.06
   4   5   5   93.26   15.77
   4   5   5   94.60   16.02
   4   5   6   65.26   12.23
   4   5   6   35.81    8.84
   4   5   6   39.49   10.74
   4   5   6   56.61   13.37
   4   5   7  162.61   20.12
   4   5   7  147.80   15.75
   4   5   7  169.10   21.39
   4   5   7  181.13   22.11
   4   5   8  141.65   20.04
   4   5   8  165.38   22.27
   4   5   8  140.80   19.61
   4   5   9   41.37   13.00
   4   5   9   69.83   14.44
   4   5   9   76.67   15.56
   4   5  10   48.27   12.86
   4   5  10   38.33   10.79
   4   5  10   63.14   14.74
   4   5  11   53.25   12.41
   4   5  11   53.04   14.40
   4   5  11   70.60   15.74
   4   5  12  105.90   20.97
   4   5  12   68.21   16.18
   4   5  13   86.05   19.80
   4   5  13   73.33   16.78
   4   5  14    6.53    8.21
   4   5  14   14.02   10.27
   4   5  15   -2.07    8.42
   4   5  16   47.98   16.85
   4   5  17   41.06   19.13
   4   6 -13  -36.62   16.33
   4   6 -12   11.18    9.87
   4   6 -12   43.81   17.40
   4   6 -11    9.34    9.35
   4   6 -11   10.12    7.45
   4   6 -10   -4.88    9.27
   4   6 -10   -5.34    8.32
   4   6 -10   -7.76    9.60
   4   6  -9    3.67    6.26
   4   6  -9   -7.66   10.89
   4   6  -8   16.74   10.38
   4   6  -8   27.13   13.39
   4   6  -7   51.58   15.96
   4   6  -7   48.24   18.24
   4   6  -6   34.99   11.45
   4   6  -6   59.37   16.45
   4   6  -6   39.20   16.44
   4   6  -5   35.86   11.97
   4   6  -5   41.88   13.32
   4   6  -5   26.33   11.81
   4   6  -4   15.77    8.90
   4   6  -4   10.78    8.12
   4   6  -4    1.97    8.82
   4   6  -3   40.79   12.39
   4   6  -3   34.13   14.14
   4   6  -3   25.82   10.04
   4   6  -2  139.66   21.75
   4   6  -2  125.86   22.60
   4   6  -2  117.45   19.65
   4   6  -1   67.26   15.53
   4   6  -1   83.28   16.75
   4   6   0   92.71   18.85
   4   6   0   76.74   15.66
   4   6   0   89.90   16.77
   4   6   1    1.65    6.21
   4   6   1    2.39    5.22
   4   6   2    3.58    3.90
   4   6   2    5.99    8.38
   4   6   2   -1.01    6.21
   4   6   3  241.77   21.71
   4   6   3  272.77   28.34
   4   6   3  258.70   28.35
   4   6   4  319.27   26.34
   4   6   4  338.78   31.48
   4   6   4  350.05   32.38
   4   6   5  649.83   38.69
   4   6   5  715.51   45.78
   4   6   5  671.19   44.84
   4   6   6   -1.35    5.88
   4   6   6   -6.92    8.82
   4   6   6    8.44    7.98
   4   6   7  146.68   20.12
   4   6   7  210.61   26.01
   4   6   7  219.05   25.79
   4   6   8   30.05   10.11
   4   6   8   30.02   10.74
   4   6   8   31.76   11.12
   4   6   9   30.45   11.52
   4   6   9   24.99    9.43
   4   6   9   21.36   10.20
   4   6  10  161.63   24.40
   4   6  10  149.90   21.96
   4   6  10  165.51   23.91
   4   6  11   12.89    9.14
   4   6  11   23.65   11.02
   4   6  11    7.13    8.08
   4   6  12   -8.47    8.35
   4   6  12    3.58    6.67
   4   6  13   -2.63    8.18
   4   6  13   16.62    8.96
   4   6  14   20.47   10.81
   4   6  14   59.39   16.23
   4   6  15   17.71   10.37
   4   6  16    7.26    7.54
   4   7 -11  -29.14   13.53
   4   7 -11  -27.90   15.46
   4   7 -10   36.60   15.19
   4   7 -10   71.42   22.56
   4   7  -9   53.63   16.86
   4   7  -9   36.63   16.72
   4   7  -8   -2.86    7.70
   4   7  -8   25.84   15.19
   4   7  -7  -11.59   10.84
   4   7  -7    3.42    7.51
   4   7  -6   10.63   10.34
   4   7  -6   10.69    8.00
   4   7  -6   17.37    7.80
   4   7  -5   66.82   18.52
   4   7  -5   41.82   13.87
   4   7  -5   51.86   16.07
   4   7  -4  117.54   22.47
   4   7  -4   77.18   20.22
   4   7  -4   89.77   19.52
   4   7  -3   29.93   11.95
   4   7  -3    7.02    8.11
   4   7  -3   35.34   11.84
   4   7  -2   99.97   19.36
   4   7  -2  103.77   22.20
   4   7  -2  121.79   20.83
   4   7  -1   31.10   12.49
   4   7  -1   22.43   12.28
   4   7  -1   24.90    9.78
   4   7   0  161.16   24.45
   4   7   0  173.42   26.22
   4   7   0  143.56   22.46
   4   7   1   44.29   13.93
   4   7   1   40.54   14.08
   4   7   1   37.45   11.94
   4   7   2  104.16   20.20
   4   7   2   66.22   15.65
   4   7   3   67.39   16.24
   4   7   3   57.93   15.01
   4   7   4   54.23   12.06
   4   7   4   74.46   18.20
   4   7   4   53.59   14.06
   4   7   5   53.70   14.90
   4   7   5   25.49   10.42
   4   7   5   37.84   12.54
   4   7   6   12.62    9.66
   4   7   6   13.77    8.11
   4   7   6   16.97   10.29
   4   7   7   82.25   18.45
   4   7   7   41.85   11.63
   4   7   7   52.56   14.14
   4   7   8   22.33   10.52
   4   7   8   15.87   11.01
   4   7   8   33.03   11.62
   4   7   9   22.19   10.74
   4   7   9   26.17   11.98
   4   7   9   24.04    9.79
   4   7  10   25.57   11.41
   4   7  10   31.67   12.25
   4   7  10   29.34   12.27
   4   7  11   28.83   12.57
   4   7  11   15.26   10.01
   4   7  11   23.89   11.49
   4   7  12   27.42   12.44
   4   7  12   37.79   13.15
   4   7  13   26.51   12.18
   4   7  13   28.76   13.58
   4   7  14    8.69    9.90
   4   7  14   21.69   13.40
   4   7  15   12.88   10.80
   4   7  15   38.40   14.26
   4   8 -10   13.02   12.52
   4   8  -9   75.21   25.14
   4   8  -9   87.08   21.96
   4   8  -8    0.60   10.16
   4   8  -8   21.40   12.26
   4   8  -7   -9.97   10.45
   4   8  -7  -22.54   12.03
   4   8  -6   28.56   13.80
   4   8  -6   62.48   17.15
   4   8  -5    0.34    8.93
   4   8  -5   16.32   12.01
   4   8  -5    0.57    7.81
   4   8  -4   34.46   14.33
   4   8  -4   30.36   13.51
   4   8  -4   31.96   14.51
   4   8  -3   23.48   14.78
   4   8  -3   37.86   13.62
   4   8  -3   31.66   13.30
   4   8  -2   10.96   10.30
   4   8  -2   17.06    9.62
   4   8  -2    8.11   10.04
   4   8  -1  112.99   24.28
   4   8  -1   86.75   18.89
   4   8  -1  136.26   25.02
   4   8   0   29.85   14.32
   4   8   0    9.40    7.07
   4   8   0   38.59   13.97
   4   8   1   33.21   15.69
   4   8   1   41.08   13.75
   4   8   1   15.09   11.32
   4   8   2   34.68   14.64
   4   8   2   36.03   11.34
   4   8   3    0.47    7.17
   4   8   3    8.50    7.32
   4   8   4  106.27   21.45
   4   8   4   87.48   18.22
   4   8   5   58.42   14.76
   4   8   5   57.14   15.26
   4   8   5   36.77   13.00
   4   8   6   14.47    7.47
   4   8   6    3.78    7.59
   4   8   6   -4.04    9.54
   4   8   7   77.09   18.32
   4   8   7   85.47   16.99
   4   8   7   68.21   17.87
   4   8   8   26.29   12.56
   4   8   8   53.22   15.52
   4   8   8   55.00   15.76
   4   8   9   78.27   18.48
   4   8   9   77.28   19.11
   4   8   9   76.87   17.45
   4   8  10    0.84    7.57
   4   8  10    4.82    9.54
   4   8  10    4.07    6.71
   4   8  11    7.87    8.91
   4   8  11   14.87   10.52
   4   8  11    5.04    8.77
   4   8  12   53.03   18.47
   4   8  12   41.42   14.37
   4   8  13    9.29   12.64
   4   8  13    5.78    9.44
   4   8  14   14.48   14.85
   4   8  14   30.62   13.68
   4   9  -6   10.08   13.31
   4   9  -5   40.66   13.48
   4   9  -5   12.53    8.83
   4   9  -5   25.32   12.53
   4   9  -4   23.43   13.09
   4   9  -4   36.13   18.29
   4   9  -4   -0.77    6.25
   4   9  -3   32.36   15.34
   4   9  -3   40.49   17.66
   4   9  -3   41.49   14.88
   4   9  -2  -22.17   12.75
   4   9  -2  -11.91   10.62
   4   9  -2    7.47    7.73
   4   9  -1   -1.79    9.30
   4   9  -1   16.81   12.70
   4   9  -1   11.24    8.87
   4   9   0   48.72   16.91
   4   9   0   63.10   21.05
   4   9   0   51.02   15.06
   4   9   1    0.66    9.31
   4   9   1    3.50   10.85
   4   9   1   -2.39    8.42
   4   9   2   32.94   15.83
   4   9   2   34.03   15.02
   4   9   3    6.49    9.79
   4   9   3    8.93    6.23
   4   9   4   42.22   14.96
   4   9   4   43.76   14.26
   4   9   5   37.23   15.42
   4   9   5   47.65   14.41
   4   9   6    2.41    8.06
   4   9   6    6.79    6.66
   4   9   7    5.36    9.26
   4   9   7   12.72   11.93
   4   9   7   20.67    9.48
   4   9   8   11.58   10.37
   4   9   8    8.55    9.11
   4   9   8   -5.46    7.31
   4   9   9   18.34   12.28
   4   9   9   -7.98    7.93
   4   9   9   18.98   10.60
   4   9  10    5.51   10.95
   4   9  10    4.27    8.91
   4   9  10    2.30    7.31
   4   9  11   13.26   11.54
   4   9  11  -10.81   10.07
   4   9  11   10.50    9.76
   4   9  12   -1.14   12.87
   4   9  12   -6.84   10.06
   4   9  13   -0.58    9.73
   4   9  13   14.17   11.10
   4  10  -4   22.91   13.59
   4  10  -3   22.38   12.56
   4  10  -2   31.63   14.40
   4  10  -2   14.57   12.11
   4  10  -1  -24.81   13.97
   4  10  -1    1.41   11.16
   4  10   0    4.54    8.40
   4  10   0   38.97   16.55
   4  10   1    9.80   10.42
   4  10   1   40.84   16.24
   4  10   1   14.42    9.38
   4  10   2    3.33    8.53
   4  10   2    9.67    8.19
   4  10   3  -29.22   14.62
   4  10   3   -3.65    6.39
   4  10   4    9.38    8.46
   4  10   4   21.16   11.46
   4  10   5   30.47   14.51
   4  10   5  -17.72   10.40
   4  10   6   15.25   11.30
   4  10   6   36.94   13.66
   4  10   7    7.90    9.29
   4  10   7   39.93   15.23
   4  10   8   -8.68   10.03
   4  10   8   -6.22    8.59
   4  10   9  -21.93   13.26
   4  10   9    1.74   10.09
   4  10   9    0.81    6.21
   4  10  10   -6.39   11.60
   4  10  10  -14.37   10.34
   4  10  11   14.07   13.57
   4  10  11   32.27   14.94
   5  -7  -5    8.86    9.50
   5  -7  -5    6.03   10.53
   5  -7  -4   10.45   11.72
   5  -7  -4   17.94   11.73
   5  -7  -4   -4.94    9.64
   5  -7  -3   12.20   14.43
   5  -7  -3   15.50   11.33
   5  -7  -3   20.66   15.98
   5  -7  -3   45.25   21.68
   5  -7  -2   53.82   20.98
   5  -7  -2   60.59   19.62
   5  -7  -2   28.84   18.52
   5  -7  -2   30.77   18.81
   5  -7  -1   -5.73   12.98
   5  -7  -1    1.38    8.24
   5  -7  -1   -6.39   11.12
   5  -7   0    4.19   11.57
   5  -7   0   12.21   11.41
   5  -7   0    2.72   11.04
   5  -7   1   22.06   18.10
   5  -7   1    1.52   10.62
   5  -7   2   30.58   18.14
   5  -7   2   32.50   16.06
   5  -7   3   22.41   17.37
   5  -7   3  -20.89   14.51
   5  -7   4   39.60   20.15
   5  -7   5   28.11   14.23
   5  -7   5   39.95   19.57
   5  -7   6   16.22   12.76
   5  -6  -8   16.32   14.50
   5  -6  -7   41.24   20.40
   5  -6  -7   33.76   16.25
   5  -6  -7   29.52   14.59
   5  -6  -7   44.60   19.12
   5  -6  -6   84.97   23.67
   5  -6  -6   47.48   17.77
   5  -6  -6   54.35   21.38
   5  -6  -6   60.32   21.24
   5  -6  -5    5.04    9.99
   5  -6  -5   28.84   14.13
   5  -6  -5   -1.11    7.91
   5  -6  -5  -14.97   12.99
   5  -6  -5   21.56   13.51
   5  -6  -4   -8.70   12.58
   5  -6  -4   18.31   14.82
   5  -6  -4   13.00    9.02
   5  -6  -4   10.63   13.47
   5  -6  -4   13.47   15.25
   5  -6  -3   86.48   23.74
   5  -6  -3  132.59   26.26
   5  -6  -3   86.83   24.39
   5  -6  -3   96.39   24.76
   5  -6  -2    7.77   12.35
   5  -6  -2    2.12   11.62
   5  -6  -2    9.96   13.29
   5  -6  -2   46.82   19.98
   5  -6  -1  120.57   26.21
   5  -6  -1  100.38   23.08
   5  -6  -1   88.07   23.47
   5  -6  -1  107.17   25.05
   5  -6   0    0.88   11.41
   5  -6   0    0.69    8.40
   5  -6   0   -4.92   14.15
   5  -6   1   35.44   18.03
   5  -6   1    6.62   10.21
   5  -6   1   16.22    9.88
   5  -6   2   61.39   20.27
   5  -6   2   90.84   20.86
   5  -6   2   49.20   14.78
   5  -6   2   39.70   16.38
   5  -6   3   23.38   16.10
   5  -6   3   22.01   11.92
   5  -6   3   30.66   13.83
   5  -6   3   12.56   11.35
   5  -6   4   20.48   12.12
   5  -6   4   16.53    9.68
   5  -6   4   21.59   12.71
   5  -6   5   -6.10   11.48
   5  -6   5   -8.36   10.65
   5  -6   5    8.92   10.65
   5  -6   6    4.72   10.38
   5  -6   6   36.20   13.94
   5  -6   6   56.90   18.24
   5  -6   6   56.22   19.65
   5  -6   7   17.73   14.55
   5  -6   7   59.02   16.54
   5  -6   8   16.26   12.35
   5  -6   8   14.06   10.03
   5  -6   9   28.60   13.86
   5  -6   9   19.71   13.08
   5  -5 -10   -3.44   11.94
   5  -5 -10   -8.09   16.61
   5  -5  -9   10.76   11.95
   5  -5  -9   -0.52   10.77
   5  -5  -9   -4.48   10.42
   5  -5  -9  -33.68   17.64
   5  -5  -8   38.93   17.81
   5  -5  -8   39.81   16.76
   5  -5  -8   33.16   13.43
   5  -5  -8   23.13   15.21
   5  -5  -7    7.10   10.57
   5  -5  -7    2.63    9.60
   5  -5  -7   -6.09   13.58
   5  -5  -7    7.23    9.54
   5  -5  -6   14.85   12.91
   5  -5  -6    2.01    8.68
   5  -5  -6    6.26    8.92
   5  -5  -6   -0.56   13.97
   5  -5  -5   88.77   23.55
   5  -5  -5   78.55   21.21
   5  -5  -5  109.87   21.94
   5  -5  -5   50.12   18.73
   5  -5  -4   32.10   15.61
   5  -5  -4   57.74   18.13
   5  -5  -4   82.70   22.15
   5  -5  -3   82.08   21.49
   5  -5  -3  103.53   21.58
   5  -5  -3   85.76   21.48
   5  -5  -3  139.33   26.39
   5  -5  -2   18.81   13.88
   5  -5  -2    2.59    8.43
   5  -5  -2    6.28   12.21
   5  -5  -2   24.81   17.26
   5  -5  -1    2.84   10.21
   5  -5  -1   29.49   13.93
   5  -5  -1    7.29    8.51
   5  -5  -1   25.22   13.60
   5  -5   0   15.54   10.92
   5  -5   0   12.07   10.92
   5  -5   0    0.85    7.48
   5  -5   0  -19.18   11.85
   5  -5   0   30.93   17.64
   5  -5   1   65.10   18.59
   5  -5   1   78.85   16.76
   5  -5   1   69.84   19.38
   5  -5   1   60.80   17.98
   5  -5   2   32.05   15.55
   5  -5   2   37.73   13.78
   5  -5   2   25.53   11.97
   5  -5   2   29.46   14.37
   5  -5   3   49.04   18.04
   5  -5   3   59.50   16.57
   5  -5   3   41.59   13.96
   5  -5   3   18.64   11.45
   5  -5   4   12.13   10.09
   5  -5   4   10.76    8.75
   5  -5   4    0.56    7.97
   5  -5   4   25.38   13.69
   5  -5   5   -9.06    9.58
   5  -5   5    1.79    6.78
   5  -5   5    4.88    7.75
   5  -5   5   17.12   13.35
   5  -5   6   32.63   14.39
   5  -5   6   55.19   16.38
   5  -5   6   31.42   12.76
   5  -5   6   55.02   19.36
   5  -5   7   11.59   11.48
   5  -5   7   18.21   11.32
   5  -5   7    6.15    9.77
   5  -5   7   46.62   18.32
   5  -5   8   11.68   13.72
   5  -5   8   15.63    9.31
   5  -5   8    9.06    9.56
   5  -5   9   51.25   18.42
   5  -5   9   11.09    8.27
   5  -5   9   37.68   16.55
   5  -5  10   35.35   14.63
   5  -5  10   29.42   12.50
   5  -5  10   74.01   19.86
   5  -5  11   32.43   14.68
   5  -5  11   21.06   12.47
   5  -5  11   11.51   14.20
   5  -4 -11    7.73   12.64
   5  -4 -11   -3.04    9.32
   5  -4 -11   26.16   16.81
   5  -4 -10   64.16   20.62
   5  -4 -10   29.60   15.37
   5  -4 -10   35.45   14.57
   5  -4 -10   29.58   15.77
   5  -4  -9   29.88   17.16
   5  -4  -9   24.87   12.16
   5  -4  -9   22.64   14.21
   5  -4  -9   21.00   11.40
   5  -4  -8   17.15   12.35
   5  -4  -8   -0.73    8.90
   5  -4  -8   12.40   10.19
   5  -4  -8   20.09   12.98
   5  -4  -7   43.02   15.76
   5  -4  -7   70.20   18.80
   5  -4  -7   24.24   13.18
   5  -4  -7   44.62   13.98
   5  -4  -6   35.95   14.73
   5  -4  -6   17.61   10.03
   5  -4  -6   49.45   17.46
   5  -4  -6   18.03   12.29
   5  -4  -5    9.31    9.67
   5  -4  -5    8.52   11.92
   5  -4  -5   21.60   11.32
   5  -4  -5   -3.47   11.70
   5  -4  -4   72.60   18.40
   5  -4  -4   91.59   21.61
   5  -4  -4  104.99   22.81
   5  -4  -3   -2.44    9.36
   5  -4  -3    8.01   12.46
   5  -4  -3    5.66   14.18
   5  -4  -2   12.13   10.05
   5  -4  -2   32.60   13.29
   5  -4  -2   29.89   11.29
   5  -4  -2   23.05   12.24
   5  -4  -2   36.49   16.39
   5  -4  -1    6.80    9.88
   5  -4  -1   12.71    8.60
   5  -4  -1   17.38    9.29
   5  -4  -1   11.01    9.29
   5  -4   0    9.19   11.43
   5  -4   0   -4.76    7.58
   5  -4   0   -1.12    7.92
   5  -4   0   -5.06   11.53
   5  -4   1  183.04   27.93
   5  -4   1  173.73   25.29
   5  -4   1  194.66   24.94
   5  -4   1  239.24   30.30
   5  -4   2   84.78   20.86
   5  -4   2   54.48   16.48
   5  -4   2   65.22   15.27
   5  -4   2   51.06   15.58
   5  -4   3   12.68    8.80
   5  -4   3   18.17   14.99
   5  -4   3   14.53   10.54
   5  -4   3   13.45    9.29
   5  -4   3   -3.13    9.54
   5  -4   4   17.10   11.74
   5  -4   4   23.17   10.13
   5  -4   4   15.56    8.70
   5  -4   4   11.35    9.90
   5  -4   5   60.87   15.24
   5  -4   5   37.61   14.33
   5  -4   5   50.34   13.85
   5  -4   5   43.72   14.72
   5  -4   6   93.15   20.22
   5  -4   6  106.86   20.51
   5  -4   6   90.70   19.43
   5  -4   6  140.39   24.30
   5  -4   7    8.58    9.57
   5  -4   7   14.52   10.62
   5  -4   7   29.50   12.52
   5  -4   7   43.47   16.97
   5  -4   8    7.36   11.06
   5  -4   8   19.69   10.35
   5  -4   8   31.58   13.11
   5  -4   9   13.67   10.68
   5  -4   9   -9.17    8.51
   5  -4   9   -6.18    9.73
   5  -4  10   98.65   23.08
   5  -4  10  128.68   23.88
   5  -4  10  119.06   22.98
   5  -4  11    6.17    9.70
   5  -4  11   15.64   11.40
   5  -4  11   38.51   15.08
   5  -4  12   12.50   13.91
   5  -4  12   -3.42    8.32
   5  -4  12   17.31   12.81
   5  -4  13    7.81   12.39
   5  -4  13   -6.28    9.32
   5  -4  13   12.21   12.42
   5  -4  14    2.47    7.80
   5  -3 -13   -0.10   11.44
   5  -3 -12   13.10   13.32
   5  -3 -12   -5.16    9.65
   5  -3 -12   14.32   14.24
   5  -3 -11   39.60   14.97
   5  -3 -11   34.21   16.83
   5  -3 -11   54.05   16.97
   5  -3 -10   22.43   14.18
   5  -3 -10   49.57   18.32
   5  -3 -10   27.51   12.78
   5  -3 -10    2.78   10.56
   5  -3  -9   -1.44   10.14
   5  -3  -9   -7.57    9.85
   5  -3  -9   -0.01    9.41
   5  -3  -9  -15.97   13.86
   5  -3  -8   -9.20   11.73
   5  -3  -8   -5.42    9.20
   5  -3  -8   -6.30   10.37
   5  -3  -8    2.87    8.55
   5  -3  -8   -8.71   11.68
   5  -3  -7    6.90    8.71
   5  -3  -7    9.71    7.88
   5  -3  -7   -2.47    7.38
   5  -3  -7    1.55   10.04
   5  -3  -6  126.03   23.46
   5  -3  -6  155.39   26.40
   5  -3  -6  145.87   24.48
   5  -3  -6  117.00   21.67
   5  -3  -5  162.53   26.09
   5  -3  -5  228.06   29.52
   5  -3  -5  215.37   29.84
   5  -3  -5  153.01   24.42
   5  -3  -4   11.87   10.93
   5  -3  -4   30.18   12.21
   5  -3  -4   20.81   10.04
   5  -3  -4   14.67   11.47
   5  -3  -3   82.03   18.42
   5  -3  -3   53.20   16.21
   5  -3  -3   66.90   14.80
   5  -3  -3   98.01   20.46
   5  -3  -2  249.18   29.42
   5  -3  -2  270.66   31.69
   5  -3  -2  265.47   27.23
   5  -3  -2  346.70   34.38
   5  -3  -1  114.53   20.62
   5  -3  -1  118.84   21.56
   5  -3  -1  122.07   19.24
   5  -3  -1  124.65   21.36
   5  -3  -1  147.06   23.98
   5  -3   0   16.35    9.69
   5  -3   0    9.50    8.69
   5  -3   0   14.41    8.10
   5  -3   0   11.71    8.46
   5  -3   1   26.79    9.44
   5  -3   1   28.68   12.81
   5  -3   1   30.24   13.01
   5  -3   1   15.89    8.61
   5  -3   1   21.42   10.17
   5  -3   2   46.04   13.02
   5  -3   2   87.24   19.57
   5  -3   2   66.36   16.64
   5  -3   2   41.46   12.43
   5  -3   2   30.83   12.16
   5  -3   3   84.25   16.31
   5  -3   3   98.78   20.39
   5  -3   3   65.48   15.96
   5  -3   3   54.15   13.45
   5  -3   3   68.10   15.54
   5  -3   4   37.05   12.75
   5  -3   4   71.86   16.11
   5  -3   4   51.48   14.17
   5  -3   4   66.93   15.46
   5  -3   5   68.49   15.65
   5  -3   5   77.94   17.61
   5  -3   5   86.23   17.06
   5  -3   5   60.56   15.34
   5  -3   6    6.02    8.38
   5  -3   6   -2.36    7.50
   5  -3   6   10.94    6.93
   5  -3   6    1.71    8.61
   5  -3   7    3.87    8.06
   5  -3   7   26.34   10.88
   5  -3   7   10.95    8.19
   5  -3   8   -0.76    9.09
   5  -3   8   -3.57    8.54
   5  -3   8    1.71    8.01
   5  -3   9   54.01   15.37
   5  -3   9   57.87   16.48
   5  -3   9   67.93   16.91
   5  -3  10   39.03   13.84
   5  -3  10   29.69   11.98
   5  -3  10   42.14   15.12
   5  -3  11   22.63   10.70
   5  -3  11   32.74   14.54
   5  -3  11   21.96   11.86
   5  -3  12    1.87   11.67
   5  -3  12    6.18    9.84
   5  -3  12    8.15    8.56
   5  -3  13   16.97   13.61
   5  -3  13    5.28    8.01
   5  -3  13   15.10   11.80
   5  -3  14   15.83   14.70
   5  -3  14   25.82   13.49
   5  -3  14   30.23   13.78
   5  -2 -13  -24.03   15.24
   5  -2 -13   12.67   11.39
   5  -2 -12   -6.94   11.85
   5  -2 -12    5.90    8.54
   5  -2 -12  -11.49   14.65
   5  -2 -11    2.96   10.84
   5  -2 -11    8.49   11.41
   5  -2 -11   35.11   13.53
   5  -2 -10   26.77   15.01
   5  -2 -10    5.58    8.89
   5  -2 -10    1.00   11.07
   5  -2  -9   63.79   20.09
   5  -2  -9   70.58   17.07
   5  -2  -9   45.52   17.36
   5  -2  -9   54.16   15.68
   5  -2  -8   27.60   13.79
   5  -2  -8    2.42    7.44
   5  -2  -8   12.02    8.35
   5  -2  -8   23.51    9.08
   5  -2  -7    0.83    8.61
   5  -2  -7    5.80    9.15
   5  -2  -7  -12.17   11.51
   5  -2  -7   -3.36    7.84
   5  -2  -7  -12.71   11.71
   5  -2  -6   13.22    9.80
   5  -2  -6   13.33   10.89
   5  -2  -6    4.85    8.02
   5  -2  -6   12.20    9.73
   5  -2  -6   10.25    9.09
   5  -2  -6   14.67    9.43
   5  -2  -5  114.46   19.95
   5  -2  -5  130.19   22.47
   5  -2  -5  113.79   20.38
   5  -2  -5   84.18   16.83
   5  -2  -5   89.88   15.11
   5  -2  -5  102.16   19.11
   5  -2  -4   12.42    8.69
   5  -2  -4    5.82    9.23
   5  -2  -4    5.32    7.92
   5  -2  -4   29.45    9.66
   5  -2  -4    6.80   10.19
   5  -2  -3  139.27   20.96
   5  -2  -3  148.50   23.71
   5  -2  -3  136.80   20.71
   5  -2  -3  152.20   17.70
   5  -2  -3  177.33   23.56
   5  -2  -2  209.95   24.69
   5  -2  -2  219.02   27.40
   5  -2  -2  207.28   23.69
   5  -2  -2  203.47   19.57
   5  -2  -2  249.75   27.41
   5  -2  -1  643.84   42.25
   5  -2  -1  567.37   42.92
   5  -2  -1  560.25   38.10
   5  -2  -1  647.76   42.78
   5  -2   0   86.00   13.27
   5  -2   0   68.23   15.50
   5  -2   0   99.26   17.13
   5  -2   0   85.13   16.93
   5  -2   0  123.50   21.13
   5  -2   1  195.82   24.72
   5  -2   1  146.83   21.78
   5  -2   1  162.94   21.53
   5  -2   1   83.63   15.88
   5  -2   1  121.84   16.71
   5  -2   2   50.72   12.25
   5  -2   2   43.20   14.36
   5  -2   2   51.63   14.11
   5  -2   2   38.02   12.08
   5  -2   2   47.93   12.98
   5  -2   3  497.11   37.78
   5  -2   3  523.33   39.87
   5  -2   3  480.13   36.37
   5  -2   3  458.66   33.95
   5  -2   3  450.44   32.74
   5  -2   4  374.47   33.42
   5  -2   4  354.71   31.11
   5  -2   4  296.63   27.68
   5  -2   4  310.08   28.66
   5  -2   5  175.46   23.60
   5  -2   5  141.78   20.27
   5  -2   5  126.49   18.85
   5  -2   5  154.44   21.08
   5  -2   6   66.41   15.54
   5  -2   6   32.23   10.77
   5  -2   6   55.83   13.47
   5  -2   6   55.24   13.84
   5  -2   7  132.83   21.26
   5  -2   7  117.83   20.01
   5  -2   7  120.53   20.13
   5  -2   8  226.72   28.35
   5  -2   8  234.34   27.67
   5  -2   8  198.85   27.46
   5  -2   9  116.53   21.61
   5  -2   9  155.21   23.35
   5  -2   9  132.17   21.76
   5  -2  10   10.69    9.25
   5  -2  10   33.15   12.35
   5  -2  10   29.88   12.99
   5  -2  11   17.61   10.90
   5  -2  11   18.45    9.36
   5  -2  11    1.48    7.79
   5  -2  12   92.66   22.12
   5  -2  12   99.41   21.14
   5  -2  12   71.34   17.93
   5  -2  13  112.68   24.18
   5  -2  13   86.32   20.73
   5  -2  13   87.88   19.93
   5  -2  14    2.00    7.71
   5  -2  14   -5.00    7.79
   5  -2  15   28.31   15.71
   5  -2  15   10.85   10.55
   5  -2  16    3.71    8.37
   5  -1 -13   11.00   11.61
   5  -1 -13    1.47   13.64
   5  -1 -13   29.55   14.62
   5  -1 -12   -1.14    7.96
   5  -1 -12    8.67   10.19
   5  -1 -12   -0.24   10.93
   5  -1 -11   31.70   13.76
   5  -1 -11   23.59   11.74
   5  -1 -11   26.06   12.29
   5  -1 -10   -7.22   10.99
   5  -1 -10   -4.19    9.81
   5  -1 -10   -9.02   12.28
   5  -1  -9   -9.37    9.15
   5  -1  -9   -1.09    8.26
   5  -1  -9   -1.52   10.33
   5  -1  -8   98.67   20.84
   5  -1  -8   89.53   19.25
   5  -1  -8   60.02   15.35
   5  -1  -8   71.79   15.41
   5  -1  -7   57.10   15.63
   5  -1  -7   82.96   18.15
   5  -1  -7   43.55   12.77
   5  -1  -7   52.02   13.61
   5  -1  -6   75.39   14.97
   5  -1  -6   94.31   19.41
   5  -1  -6   92.76   19.83
   5  -1  -6   86.39   17.62
   5  -1  -6  101.00   18.24
   5  -1  -6   98.57   16.88
   5  -1  -5  261.31   26.06
   5  -1  -5  300.00   30.01
   5  -1  -5  248.43   29.85
   5  -1  -5  245.17   26.93
   5  -1  -5  248.61   25.09
   5  -1  -5  255.08   25.75
   5  -1  -4  124.90   18.41
   5  -1  -4  155.07   21.86
   5  -1  -4  133.80   18.06
   5  -1  -4  131.23   19.81
   5  -1  -4  110.55   20.27
   5  -1  -4  150.37   20.71
   5  -1  -3  144.93   19.24
   5  -1  -3  183.67   24.36
   5  -1  -3  166.55   19.09
   5  -1  -3  118.17   18.99
   5  -1  -3  174.32   22.04
   5  -1  -2  180.85   21.34
   5  -1  -2  193.43   25.05
   5  -1  -2  176.93   19.28
   5  -1  -2  196.62   23.61
   5  -1  -2  206.76   19.70
   5  -1  -2  204.59   23.17
   5  -1  -1  158.12   19.79
   5  -1  -1  209.28   26.49
   5  -1  -1  175.97   21.95
   5  -1  -1  175.78   18.01
   5  -1  -1  200.57   18.61
   5  -1   0  162.09   19.74
   5  -1   0  172.54   22.95
   5  -1   0  166.83   21.76
   5  -1   0  143.15   14.72
   5  -1   1    0.76    6.59
   5  -1   1   12.58    8.82
   5  -1   1    4.96    8.24
   5  -1   1    8.87    6.41
   5  -1   1    8.41    4.27
   5  -1   1    0.02    5.83
   5  -1   2   66.46   12.80
   5  -1   2   97.44   16.26
   5  -1   2   79.74   17.09
   5  -1   2   73.67   15.38
   5  -1   2   55.30   11.81
   5  -1   3  255.31   27.16
   5  -1   3  203.39   23.53
   5  -1   3  196.52   19.91
   5  -1   3  209.79   22.09
   5  -1   4   55.60   12.82
   5  -1   4   52.74   14.18
   5  -1   4   59.65   14.04
   5  -1   4   35.42   10.21
   5  -1   5  248.31   26.98
   5  -1   5  240.41   25.91
   5  -1   5  210.03   21.05
   5  -1   5  251.18   25.70
   5  -1   6  506.56   37.57
   5  -1   6  506.81   36.95
   5  -1   6  514.87   37.99
   5  -1   7  222.07   25.59
   5  -1   7  213.18   24.66
   5  -1   7  201.12   25.08
   5  -1   8   80.03   17.30
   5  -1   8   93.69   18.20
   5  -1   8  106.12   18.33
   5  -1   9  284.05   29.61
   5  -1   9  288.49   31.00
   5  -1   9  269.67   30.29
   5  -1  10   49.20   15.34
   5  -1  10   29.53   11.90
   5  -1  10   29.68   11.91
   5  -1  11  120.91   23.00
   5  -1  11  106.12   20.53
   5  -1  11   98.62   19.58
   5  -1  12   82.53   20.67
   5  -1  12  106.42   21.48
   5  -1  12  107.95   20.52
   5  -1  13   12.09   11.30
   5  -1  13    5.11    7.34
   5  -1  13    4.11    9.32
   5  -1  14   29.61   16.21
   5  -1  14   33.86   14.09
   5  -1  14   21.80   11.35
   5  -1  15   33.57   16.64
   5  -1  15   15.54   10.46
   5  -1  16   43.65   18.84
   5  -1  16   17.44   10.93
   5  -1  17   39.79   14.58
   5   0 -13   14.34   11.65
   5   0 -13   50.20   18.28
   5   0 -12   25.70   14.61
   5   0 -12  -12.38   13.52
   5   0 -11   16.45   11.54
   5   0 -11   13.46   10.19
   5   0 -11   -5.84    9.85
   5   0 -10   17.71   11.30
   5   0 -10   14.31    8.44
   5   0 -10    8.08    8.22
   5   0  -9   -5.52   10.34
   5   0  -9    0.81    7.63
   5   0  -9   12.48   10.81
   5   0  -8   81.21   18.71
   5   0  -8  109.24   19.94
   5   0  -8  120.21   20.49
   5   0  -7  107.43   21.16
   5   0  -7   69.09   16.62
   5   0  -7   66.35   15.10
   5   0  -6   37.77   14.35
   5   0  -6   53.99   13.13
   5   0  -6   37.60   10.98
   5   0  -6   36.16   11.00
   5   0  -5   51.60   11.69
   5   0  -5   54.29   15.51
   5   0  -5   70.01   15.27
   5   0  -5   46.81   13.19
   5   0  -5   68.05   14.71
   5   0  -5   67.49   13.43
   5   0  -4   81.55   13.55
   5   0  -4   81.54   16.72
   5   0  -4   88.57   16.50
   5   0  -4   85.37   17.04
   5   0  -4   81.72   15.45
   5   0  -4  110.64   16.57
   5   0  -3   15.32    7.69
   5   0  -3   20.03    8.98
   5   0  -3   13.82    9.40
   5   0  -3   16.04    9.18
   5   0  -2  147.21   17.13
   5   0  -2  185.30   23.79
   5   0  -2  189.10   20.11
   5   0  -2  114.86   19.14
   5   0  -2  173.32   19.34
   5   0  -1  143.74   16.29
   5   0  -1  184.77   22.93
   5   0  -1  148.28   17.14
   5   0  -1  123.60   19.03
   5   0  -1  157.01   17.48
   5   0   0   93.57   13.74
   5   0   0   82.18   16.18
   5   0   0   91.18   13.32
   5   0   0   99.78   16.99
   5   0   1  439.51   27.84
   5   0   1  454.77   33.60
   5   0   1  383.88   31.69
   5   0   1  402.68   25.65
   5   0   1  348.15   23.63
   5   0   2  745.48   42.93
   5   0   2  679.87   40.39
   5   0   2  652.72   31.49
   5   0   2  644.97   31.10
   5   0   2  630.71   36.59
   5   0   3  546.84   36.85
   5   0   3  511.78   34.88
   5   0   3  477.56   26.39
   5   0   3  462.88   25.80
   5   0   3  471.98   32.97
   5   0   4 1785.22   65.27
   5   0   4 1715.97   63.02
   5   0   4 1657.30   47.30
   5   0   4 1558.95   46.67
   5   0   4 1623.35   60.90
   5   0   5  107.56   17.77
   5   0   5  110.59   12.11
   5   0   5  123.02   18.15
   5   0   5  144.08   20.21
   5   0   6  847.19   46.62
   5   0   6  832.54   45.51
   5   0   6  859.75   33.91
   5   0   6  816.91   45.86
   5   0   7  162.81   21.63
   5   0   7  149.27   20.00
   5   0   7  179.47   16.23
   5   0   7  193.99   23.95
   5   0   8   57.68   14.91
   5   0   8   60.08   13.94
   5   0   8   58.02   13.87
   5   0   8   55.22    9.83
   5   0   9    4.24    9.27
   5   0   9    6.32    7.91
   5   0   9   -1.27    6.13
   5   0  10  257.59   29.29
   5   0  10  203.15   24.59
   5   0  10  175.77   25.44
   5   0  11   26.04   14.04
   5   0  11   29.07   12.68
   5   0  11   23.15   10.07
   5   0  12  119.51   22.85
   5   0  12  173.57   25.80
   5   0  12  167.96   23.44
   5   0  13   10.20   10.82
   5   0  13   11.83    9.96
   5   0  13   12.15    8.22
   5   0  14   20.24   12.51
   5   0  14   22.80    9.40
   5   0  15   13.64   11.11
   5   0  15   22.11   11.34
   5   0  16   11.86   12.15
   5   0  16   13.57   10.15
   5   0  17   16.60   15.31
   5   1 -14   29.79   15.64
   5   1 -13   35.98   15.26
   5   1 -13   28.34   15.42
   5   1 -12   16.52   11.85
   5   1 -12   29.09   14.13
   5   1 -11    0.84    8.84
   5   1 -11   15.46   11.04
   5   1 -10    3.34    8.69
   5   1 -10    4.92    8.38
   5   1 -10   11.36   10.46
   5   1  -9   31.23   11.88
   5   1  -9   35.64   12.10
   5   1  -9   46.06   14.78
   5   1  -8   96.99   19.70
   5   1  -8   76.60   16.29
   5   1  -8   91.07   18.79
   5   1  -7   27.19   11.44
   5   1  -7   20.16   10.04
   5   1  -7   25.52   11.73
   5   1  -6   46.47   12.42
   5   1  -6   37.35   11.90
   5   1  -6   34.85   12.01
   5   1  -5   78.15   15.62
   5   1  -5   83.15   15.42
   5   1  -5  114.64   18.32
   5   1  -4  462.19   33.65
   5   1  -4  451.10   35.32
   5   1  -4  413.90   35.38
   5   1  -4  472.12   35.08
   5   1  -3  104.77   17.52
   5   1  -3   94.53   15.31
   5   1  -3   87.74   17.66
   5   1  -3  111.00   17.20
   5   1  -3  107.97   16.95
   5   1  -2   14.41    8.83
   5   1  -2   13.57    4.99
   5   1  -2   19.42    9.20
   5   1  -2    9.16    6.16
   5   1  -2   23.88    9.23
   5   1  -1  134.91   13.22
   5   1  -1  144.22   19.19
   5   1  -1  133.15   19.96
   5   1  -1   94.87   14.92
   5   1   0  216.24   16.50
   5   1   0  202.21   22.33
   5   1   0  184.74   21.76
   5   1   0  223.84   21.41
   5   1   1  431.82   31.30
   5   1   1  418.79   32.35
   5   1   1  378.69   26.88
   5   1   2  112.72   16.42
   5   1   2  123.45   18.40
   5   1   2  119.61   14.90
   5   1   2   90.27    9.65
   5   1   3  445.33   31.12
   5   1   3  487.35   29.30
   5   1   3  473.17   33.29
   5   1   3  402.16   18.63
   5   1   4   61.79   13.47
   5   1   4   66.89   13.22
   5   1   4   58.44   13.42
   5   1   4   90.89   12.70
   5   1   5  523.04   34.51
   5   1   5  520.87   34.92
   5   1   5  589.65   31.68
   5   1   5  521.48   35.81
   5   1   6   58.58   13.56
   5   1   6   84.40   15.05
   5   1   6   72.99   14.23
   5   1   6   60.50   10.62
   5   1   7  115.83   18.32
   5   1   7   89.31   15.91
   5   1   7  127.88   15.15
   5   1   7  101.92   16.56
   5   1   8  272.54   27.52
   5   1   8  271.85   25.70
   5   1   8  269.10   22.02
   5   1   8  225.05   25.90
   5   1   9   76.71   17.05
   5   1   9   57.18   14.05
   5   1   9   44.31   12.14
   5   1   9   55.53   11.02
   5   1  10  242.95   27.67
   5   1  10  181.45   22.58
   5   1  10  212.95   20.98
   5   1  10  214.21   27.30
   5   1  11  101.87   20.40
   5   1  11  103.57   19.57
   5   1  11   91.85   16.86
   5   1  11   96.74   15.13
   5   1  12   63.80   17.39
   5   1  12   64.56   16.56
   5   1  12   67.73   14.85
   5   1  13  312.43   34.72
   5   1  13  275.12   28.78
   5   1  13  236.90   31.57
   5   1  14   92.30   21.13
   5   1  14  109.56   19.40
   5   1  15    8.54    9.27
   5   1  15   12.38    8.19
   5   1  16   75.18   20.70
   5   1  17   13.33   13.63
   5   1  17    3.59    9.90
   5   1  18  -13.36   14.38
   5   2 -14  -25.50   14.02
   5   2 -13    9.96    9.93
   5   2 -13   28.33   13.56
   5   2 -12   31.72   14.73
   5   2 -12   10.02   11.35
   5   2 -11   91.61   20.46
   5   2 -11   92.48   20.29
   5   2 -10   71.97   18.01
   5   2 -10   16.17    9.99
   5   2 -10   52.36   16.50
   5   2  -9   61.38   16.21
   5   2  -9   47.74   14.97
   5   2  -9   86.47   19.38
   5   2  -8   87.42   17.17
   5   2  -8   67.33   15.23
   5   2  -8   85.56   18.13
   5   2  -7   87.39   17.91
   5   2  -7   80.70   15.62
   5   2  -7   95.19   20.06
   5   2  -6   68.31   15.45
   5   2  -6   77.95   14.71
   5   2  -6  101.73   19.21
   5   2  -5   27.86   10.62
   5   2  -5   17.15    8.40
   5   2  -5   31.12   10.60
   5   2  -4   30.06   10.75
   5   2  -4   48.61   12.73
   5   2  -4   35.66   12.08
   5   2  -4   28.94    9.80
   5   2  -3   74.33   12.81
   5   2  -3   74.20   15.69
   5   2  -3   68.51   13.59
   5   2  -3   59.07   13.62
   5   2  -3   66.51   14.92
   5   2  -2   13.83    7.50
   5   2  -2   21.31    7.27
   5   2  -2   11.72    9.63
   5   2  -2   34.43   11.32
   5   2  -1  106.27   15.44
   5   2  -1  106.06   18.53
   5   2  -1  105.50   16.43
   5   2   0  608.99   34.64
   5   2   0  532.95   37.06
   5   2   0  598.27   36.46
   5   2   1   38.57    9.44
   5   2   1   28.47    9.29
   5   2   1   11.69    6.78
   5   2   2   31.39    9.71
   5   2   2   42.27   11.51
   5   2   2   26.29    7.96
   5   2   3  175.43   18.92
   5   2   3  200.31   22.25
   5   2   3  193.50   20.58
   5   2   4  346.95   26.40
   5   2   4  323.02   27.26
   5   2   4  386.77   28.64
   5   2   5  773.92   40.59
   5   2   5  695.00   39.52
   5   2   5  784.24   39.86
   5   2   6    3.12    5.73
   5   2   6    5.08    6.07
   5   2   6   11.05    6.95
   5   2   7   54.25   13.50
   5   2   7   50.01   12.07
   5   2   7   45.62   11.31
   5   2   7   32.83    9.47
   5   2   8  105.40   17.75
   5   2   8  127.32   18.51
   5   2   8  119.33   16.96
   5   2   8  113.34   16.21
   5   2   9  668.89   43.16
   5   2   9  591.45   36.98
   5   2   9  669.08   38.37
   5   2   9  610.85   43.04
   5   2  10  640.32   44.08
   5   2  10  520.22   35.44
   5   2  10  566.15   36.11
   5   2  10  540.77   42.06
   5   2  11   30.77   13.15
   5   2  11   39.58   14.05
   5   2  11   46.71   12.44
   5   2  11   25.67    9.44
   5   2  12   17.91   11.43
   5   2  12   -7.19    7.68
   5   2  12    7.24    7.49
   5   2  12   11.87    8.87
   5   2  13   16.87   11.71
   5   2  13   11.53    7.46
   5   2  14   46.42   17.67
   5   2  14   90.65   20.55
   5   2  15   -3.93   12.27
   5   2  15    7.83    8.98
   5   2  16   23.09   13.12
   5   2  16   19.16   11.99
   5   2  17   -3.00   12.95
   5   2  17   12.63   10.61
   5   2  18   -7.29   11.56
   5   3 -13   13.41   12.97
   5   3 -12   14.99   11.45
   5   3 -11   37.64   13.56
   5   3 -11   52.46   15.42
   5   3 -10   40.32   13.16
   5   3 -10   20.71    9.89
   5   3  -9   82.09   17.32
   5   3  -9   49.06   16.23
   5   3  -8   30.43   11.55
   5   3  -8   25.31   12.89
   5   3  -7   56.87   13.31
   5   3  -7   59.25   13.67
   5   3  -7   66.73   16.26
   5   3  -6   49.30   11.47
   5   3  -6   48.98   12.27
   5   3  -6   41.82   11.06
   5   3  -6   49.75   14.01
   5   3  -5   84.94   14.85
   5   3  -5   56.98   11.99
   5   3  -5   88.36   14.94
   5   3  -5   64.07   15.01
   5   3  -5   95.46   18.49
   5   3  -4   60.71   12.45
   5   3  -4   66.67   15.26
   5   3  -4   57.64   11.30
   5   3  -4   50.69   13.55
   5   3  -4   78.68   14.60
   5   3  -3  377.77   25.70
   5   3  -3  399.70   28.05
   5   3  -3  339.71   31.36
   5   3  -3  370.54   29.33
   5   3  -2  190.46   17.59
   5   3  -2  243.28   21.43
   5   3  -2  210.23   24.59
   5   3  -1   26.95    7.17
   5   3  -1   13.93    8.24
   5   3  -1   17.82    8.36
   5   3  -1   28.13    7.38
   5   3   0   51.74    9.97
   5   3   0   35.21   10.73
   5   3   0   37.40   11.12
   5   3   1  160.77   20.91
   5   3   1  147.00   19.46
   5   3   2  124.98   11.43
   5   3   2  140.19   16.00
   5   3   2  146.45   19.45
   5   3   2  144.47   18.82
   5   3   3  137.83   13.43
   5   3   3  128.72   15.27
   5   3   3  112.30   16.81
   5   3   3  127.69   18.46
   5   3   4   -0.44    5.04
   5   3   4    4.97    5.70
   5   3   4    2.53    5.01
   5   3   5   10.70    6.15
   5   3   5    1.78    5.45
   5   3   5    2.31    5.02
   5   3   6  174.58   19.72
   5   3   6  124.27   16.74
   5   3   6  140.34   18.49
   5   3   7  131.97   17.91
   5   3   7  134.66   17.69
   5   3   7  126.64   17.88
   5   3   8   17.10    8.11
   5   3   8   19.59    9.51
   5   3   8   23.25    9.45
   5   3   8   23.65    8.94
   5   3   8   15.29    7.02
   5   3   9   50.58   12.65
   5   3   9   36.55   10.77
   5   3   9   33.10   10.64
   5   3   9   24.98    8.32
   5   3   9   27.74    9.79
   5   3  10  180.03   23.78
   5   3  10  183.86   23.69
   5   3  10  179.36   20.04
   5   3  10  205.18   23.47
   5   3  10  187.30   22.12
   5   3  11    9.80    7.19
   5   3  11   17.88    9.22
   5   3  11    8.45    6.73
   5   3  11    6.47    6.23
   5   3  12   84.21   17.86
   5   3  12   62.65   14.80
   5   3  13   55.91   16.21
   5   3  13   79.98   16.18
   5   3  14   42.40   16.35
   5   3  15   58.01   16.96
   5   3  16   11.87   11.06
   5   3  17   12.23    7.40
   5   4 -12    8.81   10.80
   5   4 -11    2.16    8.51
   5   4 -10   63.63   17.25
   5   4  -9   27.22   11.58
   5   4  -8    9.80    9.28
   5   4  -8    4.34    8.59
   5   4  -8    4.40    6.30
   5   4  -7   -6.20    9.86
   5   4  -7   25.44   12.74
   5   4  -7   12.22    8.73
   5   4  -6   12.94    7.71
   5   4  -6   53.22   14.22
   5   4  -6   36.78   13.04
   5   4  -6   44.18   13.16
   5   4  -5   26.81    9.59
   5   4  -5   53.39   14.67
   5   4  -5   30.10   11.99
   5   4  -4  321.56   32.46
   5   4  -4  281.87   27.86
   5   4  -3   58.48   14.69
   5   4  -3   65.03   16.00
   5   4  -2  953.37   52.78
   5   4  -2  910.54   48.23
   5   4  -1   41.52   12.45
   5   4  -1   34.73    7.20
   5   4  -1   33.75   12.14
   5   4   0    7.51    5.05
   5   4   0    1.58    8.02
   5   4   0   -7.24   10.53
   5   4   1   62.79    9.96
   5   4   1   67.83   14.97
   5   4   1   50.04   12.56
   5   4   1   52.98   13.24
   5   4   2  454.23   25.96
   5   4   2  437.12   33.25
   5   4   2  486.22   35.73
   5   4   2  438.38   34.03
   5   4   3  196.07   16.28
   5   4   3  194.96   17.87
   5   4   3  203.69   23.02
   5   4   3  168.39   22.15
   5   4   3  191.07   22.57
   5   4   4  237.72   19.22
   5   4   4  278.76   21.94
   5   4   4  231.55   24.23
   5   4   4  314.36   29.20
   5   4   4  280.07   27.31
   5   4   5   11.37    4.97
   5   4   5   27.99    8.35
   5   4   5   25.16    8.90
   5   4   5   15.97    9.25
   5   4   5   11.73    6.05
   5   4   6   22.50    8.47
   5   4   6   12.75    8.95
   5   4   6   14.06    6.57
   5   4   6   10.74    6.83
   5   4   6   26.10    8.59
   5   4   7  484.25   33.93
   5   4   7  549.57   35.16
   5   4   7  470.42   31.90
   5   4   7  552.49   39.28
   5   4   7  501.02   36.58
   5   4   8    9.89    8.38
   5   4   8    6.77    5.85
   5   4   8    3.09    5.94
   5   4   8    8.14    6.52
   5   4   8    4.26    5.66
   5   4   9   36.83   11.88
   5   4   9   17.09    8.00
   5   4   9   20.20    9.62
   5   4   9   14.49    7.64
   5   4  10   -0.34    7.00
   5   4  10   -2.79    7.77
   5   4  10    4.94    4.59
   5   4  10    8.81    7.81
   5   4  11   88.04   15.96
   5   4  11   69.22   16.23
   5   4  11  101.70   18.13
   5   4  12   69.69   17.91
   5   4  12   86.71   16.75
   5   4  13   -5.78    7.80
   5   4  13   -6.71    8.25
   5   4  14    7.27    8.63
   5   4  14    9.37    7.98
   5   4  15   -4.36    9.40
   5   4  16   -2.79    8.01
   5   4  17   20.44   12.84
   5   5 -12   17.13   11.74
   5   5 -11  -25.64   14.25
   5   5 -11    1.33    7.80
   5   5 -10   -7.78    9.82
   5   5 -10   17.12   11.85
   5   5  -9   54.75   17.49
   5   5  -9   34.43   14.43
   5   5  -9   54.83   17.78
   5   5  -8    7.28    8.29
   5   5  -8    2.05    9.42
   5   5  -8   20.58   11.58
   5   5  -7  195.97   28.30
   5   5  -7  187.85   28.31
   5   5  -6   22.50    8.44
   5   5  -6   48.58   14.97
   5   5  -6   31.66   13.64
   5   5  -5  147.57   23.63
   5   5  -5  147.35   24.21
   5   5  -5  139.32   21.71
   5   5  -4   51.86   13.81
   5   5  -4   80.45   18.15
   5   5  -3  124.88   19.74
   5   5  -3  123.29   21.62
   5   5  -3  112.89   21.61
   5   5  -2  427.81   37.44
   5   5  -2  338.33   32.26
   5   5  -1    8.47    8.14
   5   5  -1    0.39    6.73
   5   5   0  141.55   20.59
   5   5   0  148.26   21.61
   5   5   1   73.86   15.40
   5   5   1   77.93   16.15
   5   5   2   99.23   17.77
   5   5   2  119.43   20.64
   5   5   3   14.76    7.81
   5   5   3   -3.55    7.33
   5   5   4   54.17   10.51
   5   5   4   50.42   13.98
   5   5   4   54.08    9.66
   5   5   4   48.97   12.56
   5   5   4   72.34   16.66
   5   5   5  220.18   21.07
   5   5   5  232.69   20.39
   5   5   5  221.72   23.14
   5   5   5  212.52   25.61
   5   5   5  187.97   24.07
   5   5   6   45.04   10.98
   5   5   6   47.92   13.52
   5   5   6   28.50    9.46
   5   5   6   41.28   11.95
   5   5   7   93.94   17.49
   5   5   7   88.94   15.56
   5   5   7   96.38   15.22
   5   5   7  122.35   19.88
   5   5   8   23.02    9.62
   5   5   8   44.63   10.88
   5   5   8   37.68   10.14
   5   5   8   48.20   13.04
   5   5   9   81.80   16.44
   5   5   9  107.53   18.23
   5   5   9  139.00   21.28
   5   5  10   29.96   11.65
   5   5  10   35.14   13.33
   5   5  10   32.33   11.80
   5   5  11   41.84   14.99
   5   5  11   16.99    8.53
   5   5  11   47.92   13.15
   5   5  12   12.88    9.48
   5   5  12   11.12    8.54
   5   5  13   11.71   10.51
   5   5  13   12.74    9.38
   5   5  14   66.60   20.01
   5   5  14   53.09   15.18
   5   5  15   14.74    9.91
   5   5  15   41.99   14.04
   5   5  16   17.60   10.51
   5   5  17    3.34   10.39
   5   6 -11   27.80   14.20
   5   6 -10    8.51   10.51
   5   6 -10   11.24   10.23
   5   6  -9   -0.18    7.28
   5   6  -9   10.06   10.33
   5   6  -8   -0.04    8.65
   5   6  -8   -0.95   10.14
   5   6  -7   44.96   15.13
   5   6  -7   55.76   18.21
   5   6  -6   26.58   11.91
   5   6  -6   28.79   14.29
   5   6  -5   20.76   10.20
   5   6  -5   38.53   13.77
   5   6  -5   11.90   11.55
   5   6  -4    9.03    6.72
   5   6  -4   12.10   10.49
   5   6  -4   22.13   12.62
   5   6  -3   85.19   17.38
   5   6  -3   93.85   18.81
   5   6  -3   50.58   14.82
   5   6  -2  127.84   21.20
   5   6  -2  127.11   22.96
   5   6  -2  125.58   21.56
   5   6  -1   82.19   17.20
   5   6  -1  125.68   21.41
   5   6   0  138.99   22.54
   5   6   0  159.72   23.82
   5   6   1  410.62   37.31
   5   6   1  364.22   35.41
   5   6   2  104.50   19.18
   5   6   2   97.09   18.56
   5   6   3   91.31   17.59
   5   6   3  120.56   21.13
   5   6   4   53.31   14.15
   5   6   4   59.94   15.74
   5   6   5   17.86    7.00
   5   6   5   72.33   16.37
   5   6   5   61.73   15.24
   5   6   6  115.09   17.45
   5   6   6  138.44   21.73
   5   6   6  146.37   22.59
   5   6   7    8.71    6.18
   5   6   7   12.35    9.16
   5   6   7    3.69    7.83
   5   6   8    9.28    5.71
   5   6   8   11.15    8.63
   5   6   8   11.16    8.56
   5   6   9  115.95   19.97
   5   6   9  118.07   20.68
   5   6   9  117.00   21.25
   5   6  10   10.22    7.37
   5   6  10   -2.17    7.27
   5   6  10    2.57    6.21
   5   6  11   76.43   17.75
   5   6  11   87.72   18.99
   5   6  11  102.31   20.12
   5   6  12   46.47   15.48
   5   6  12   50.80   14.83
   5   6  13   -3.08    7.74
   5   6  13   15.44   10.30
   5   6  14   20.99   12.63
   5   6  14   10.28    9.39
   5   6  15   -6.41   10.80
   5   6  15    0.64    8.65
   5   6  16   13.74    9.80
   5   7 -10   16.34   12.30
   5   7  -9    8.31    9.50
   5   7  -9   34.00   18.55
   5   7  -8   12.67   10.21
   5   7  -8    6.45   10.68
   5   7  -7   -1.55    9.38
   5   7  -7   12.32   14.24
   5   7  -6   48.04   16.49
   5   7  -6   78.45   20.99
   5   7  -5   74.69   19.53
   5   7  -5   95.82   21.74
   5   7  -5  100.11   24.41
   5   7  -4   14.20    9.76
   5   7  -4    3.65    9.43
   5   7  -4   11.02    9.09
   5   7  -3   -6.41    9.12
   5   7  -3    4.76    9.50
   5   7  -3    1.96    7.09
   5   7  -2   22.99   11.62
   5   7  -2    7.08    8.30
   5   7  -2    0.33    6.49
   5   7  -1   16.97   10.64
   5   7  -1    7.10    6.55
   5   7   0   65.80   16.75
   5   7   0   66.84   16.83
   5   7   1   53.51   15.73
   5   7   1   49.04   14.92
   5   7   2   34.92   13.08
   5   7   2   27.33   10.51
   5   7   3  -10.15    7.88
   5   7   3    3.54    5.83
   5   7   4   49.25   15.55
   5   7   4   45.50   13.27
   5   7   5   65.47   16.79
   5   7   5   59.81   15.87
   5   7   6   49.39   15.02
   5   7   6   56.87   15.48
   5   7   7  131.99   20.07
   5   7   7  123.40   22.27
   5   7   7  131.98   23.23
   5   7   8   10.60    7.77
   5   7   8   29.58   12.29
   5   7   8    7.87    6.95
   5   7   9   44.14   14.11
   5   7   9   17.68    9.66
   5   7   9   16.99   10.64
   5   7  10    0.34   10.33
   5   7  10  -15.88    9.90
   5   7  10   -3.37    6.67
   5   7  11   13.82    9.49
   5   7  11   15.21   10.62
   5   7  11   12.04    8.87
   5   7  12   61.26   16.58
   5   7  12   82.48   21.14
   5   7  12   38.68   13.33
   5   7  13  -11.04    9.89
   5   7  13    1.76    6.79
   5   7  14    4.72    8.54
   5   7  14   -0.65    6.86
   5   7  15   15.17   12.85
   5   7  15   39.29   14.50
   5   8  -8    7.39   11.65
   5   8  -8   21.60   12.95
   5   8  -7   10.09   13.19
   5   8  -7    5.85    8.87
   5   8  -6   10.43    9.66
   5   8  -6   -3.77    9.89
   5   8  -5  -12.56   11.50
   5   8  -5   11.13    9.56
   5   8  -5    6.31    9.07
   5   8  -4    6.77    9.05
   5   8  -4   21.66   12.55
   5   8  -4   -4.03    7.19
   5   8  -3    8.23    8.79
   5   8  -3   23.24   14.41
   5   8  -3    0.24    7.90
   5   8  -2   47.03   16.55
   5   8  -2   51.45   19.47
   5   8  -2   44.31   14.40
   5   8  -1   23.64   12.80
   5   8  -1   26.04   12.81
   5   8  -1   10.06    9.03
   5   8   0   10.91   10.12
   5   8   0    5.35    7.29
   5   8   1    9.24    8.43
   5   8   1   11.43    7.50
   5   8   2   27.43   12.88
   5   8   2   36.88   13.89
   5   8   3   46.59   15.47
   5   8   3   40.10   13.29
   5   8   4   46.12   16.15
   5   8   4   50.63   16.46
   5   8   5    4.40    6.69
   5   8   5    9.08    7.88
   5   8   6   27.08   13.60
   5   8   6    4.28    8.81
   5   8   7   16.84   11.72
   5   8   7   15.97    8.11
   5   8   8   24.52   11.13
   5   8   8   28.06   11.84
   5   8   8   18.39   11.48
   5   8   9   26.90   14.35
   5   8   9   35.84   13.17
   5   8   9   56.73   16.73
   5   8  10    9.12    8.36
   5   8  10   15.70   11.26
   5   8  10   -1.94    8.92
   5   8  11   32.40   13.88
   5   8  11   13.84    8.18
   5   8  11   17.92    9.99
   5   8  12   17.31   10.79
   5   8  12   14.21   10.26
   5   8  12   -2.89    8.70
   5   8  13   21.55   12.22
   5   8  13   37.01   15.56
   5   8  14   18.54   12.64
   5   8  14   25.41   13.03
   5   9  -6   23.48   12.81
   5   9  -5    7.60    9.84
   5   9  -5   -0.02    6.89
   5   9  -4  -29.80   14.97
   5   9  -4    6.71   11.73
   5   9  -4  -23.68   12.14
   5   9  -3   12.99   13.73
   5   9  -3    9.86    9.25
   5   9  -3    3.13    8.60
   5   9  -2   14.71   10.04
   5   9  -2   -5.45    9.30
   5   9  -1    6.70   15.83
   5   9  -1   17.98   10.72
   5   9  -1   29.58   15.25
   5   9   0   -5.57    8.12
   5   9   0   10.83   10.45
   5   9   1   12.56   10.80
   5   9   1   25.98   14.31
   5   9   2    1.37   13.13
   5   9   2   12.99    8.92
   5   9   3   -8.76    7.41
   5   9   3   -4.37    8.73
   5   9   4    1.67    7.98
   5   9   4    1.77    7.56
   5   9   5   18.15   10.24
   5   9   5   15.71   10.68
   5   9   6    9.09    9.43
   5   9   6   13.46   10.83
   5   9   7   65.41   17.87
   5   9   7   28.61   13.72
   5   9   8   16.21   10.59
   5   9   8    7.12   10.80
   5   9   9   13.53   12.64
   5   9   9   18.56   10.88
   5   9  10    7.20    9.91
   5   9  10   -0.65   10.24
   5   9  10   -2.75    7.63
   5   9  11   15.51   11.92
   5   9  11   -0.40    7.72
   5   9  11  -10.54    9.98
   5   9  12   -2.25    9.57
   5   9  12   12.55   10.63
   5   9  13  -14.26   12.62
   5  10  -4   -0.55    5.63
   5  10  -3  -31.10   15.77
   5  10  -3   28.06    6.94
   5  10  -2  -27.46   15.17
   5  10  -2    8.93    8.86
   5  10  -1   -3.36    9.71
   5  10  -1    8.87    9.11
   5  10   0   10.03   10.34
   5  10   0    4.85    8.51
   5  10   1   22.96   16.24
   5  10   1   12.61   10.21
   5  10   2   11.23   11.46
   5  10   2    6.98    8.71
   5  10   3   31.50   16.41
   5  10   3    7.32    8.63
   5  10   4   41.96   16.45
   5  10   4   33.04   14.21
   5  10   5   14.54   11.94
   5  10   5   24.97   12.61
   5  10   6   32.19   15.09
   5  10   6   -9.22    9.15
   5  10   7  -17.62   12.99
   5  10   7   10.77    9.77
   5  10   8   -3.16   10.21
   5  10   8   18.60   11.39
   5  10   9  -18.41   12.86
   5  10   9  -20.35   11.78
   5  11   3   34.42   14.71
   5  11   4   31.28   13.56
   6  -6  -4  -17.46   14.61
   6  -6  -4   21.67   14.71
   6  -6  -3  -20.74   15.94
   6  -6  -3    2.80   10.60
   6  -6  -2   -4.14   12.43
   6  -6  -2   14.42   14.46
   6  -6  -2   14.49   12.33
   6  -6  -2   49.53   21.53
   6  -6  -1   -7.87   14.31
   6  -6  -1    5.13   12.01
   6  -6  -1  -15.29   12.09
   6  -6   0   20.46   16.31
   6  -6   0    1.65    9.28
   6  -6   0   27.07   14.21
   6  -6   1    1.55   13.43
   6  -6   1   -9.57   10.37
   6  -6   1    0.88   13.36
   6  -6   2   15.60   18.93
   6  -6   2   -8.57   10.20
   6  -6   2   -0.94   12.06
   6  -6   3  108.17   25.03
   6  -6   3   98.07   21.77
   6  -6   3   42.65   16.86
   6  -6   4   28.09   13.15
   6  -6   4   52.74   18.24
   6  -6   4   50.90   20.53
   6  -6   5   -2.95    9.14
   6  -6   5    5.33   11.22
   6  -6   6   -6.36   10.00
   6  -6   6   16.82   11.61
   6  -6   6   11.68   13.08
   6  -5  -8   25.88   18.12
   6  -5  -7    6.34   15.31
   6  -5  -7   15.09   16.26
   6  -5  -6   -3.06   11.14
   6  -5  -6   50.37   18.25
   6  -5  -6   28.17   13.97
   6  -5  -6   20.11   14.19
   6  -5  -5  -10.17   14.15
   6  -5  -5    2.45   10.11
   6  -5  -5    1.58   10.69
   6  -5  -5   33.49   17.38
   6  -5  -4   16.33   13.63
   6  -5  -4   16.03   11.88
   6  -5  -4   22.52   13.53
   6  -5  -4    1.63    9.28
   6  -5  -3  118.36   27.14
   6  -5  -3   78.34   21.01
   6  -5  -3   90.10   23.44
   6  -5  -3  123.27   27.48
   6  -5  -2   -1.97   11.19
   6  -5  -2  -17.42   12.58
   6  -5  -2   -4.64    9.89
   6  -5  -1    9.83   13.20
   6  -5  -1   19.30   12.38
   6  -5  -1   14.54   14.40
   6  -5   0   50.44   19.80
   6  -5   0   55.84   18.48
   6  -5   0   30.42   14.58
   6  -5   1   47.20   18.98
   6  -5   1   21.01   11.99
   6  -5   1   40.20   14.95
   6  -5   1   46.70   16.98
   6  -5   2    2.57   10.67
   6  -5   2    4.94    9.02
   6  -5   2   -3.47   11.88
   6  -5   3   23.73   17.82
   6  -5   3   -4.65   10.98
   6  -5   3   16.02   10.00
   6  -5   3    5.05   10.68
   6  -5   4   -0.87    8.51
   6  -5   4   -2.34    8.17
   6  -5   5   -2.38    8.08
   6  -5   5   17.33   12.43
   6  -5   6   27.11   14.98
   6  -5   6   22.05   12.89
   6  -5   6   25.92   13.17
   6  -5   6   51.90   19.54
   6  -5   7   34.76   14.50
   6  -5   7   24.57   12.78
   6  -5   7   11.61   11.25
   6  -5   8   51.49   17.86
   6  -5   8   12.01   10.80
   6  -5   8   33.62   15.40
   6  -5   9   62.58   22.07
   6  -5   9   43.88   16.47
   6  -5   9   55.97   18.33
   6  -5  10   15.36   11.67
   6  -4  -9    0.14   10.09
   6  -4  -9   45.76   18.54
   6  -4  -8   24.28   14.11
   6  -4  -8   26.33   15.31
   6  -4  -8    9.02   11.79
   6  -4  -8   33.80   17.43
   6  -4  -7   42.51   18.59
   6  -4  -7   40.27   16.05
   6  -4  -7   42.31   19.98
   6  -4  -7   49.72   20.56
   6  -4  -6   23.24   13.87
   6  -4  -6   16.70   12.52
   6  -4  -6    7.22    9.96
   6  -4  -6   32.65   17.38
   6  -4  -5   36.21   17.06
   6  -4  -5    9.91   10.80
   6  -4  -5    9.18    9.31
   6  -4  -5   40.51   16.18
   6  -4  -4   30.76   14.95
   6  -4  -4   33.10   16.40
   6  -4  -4   32.92   15.62
   6  -4  -4   68.39   21.17
   6  -4  -3  -17.43   14.20
   6  -4  -3    1.48   10.29
   6  -4  -3   -2.25    8.98
   6  -4  -3    7.15   13.00
   6  -4  -2   62.10   19.39
   6  -4  -2   48.30   17.78
   6  -4  -2   66.50   19.25
   6  -4  -2  104.29   24.86
   6  -4  -1    6.60   10.96
   6  -4  -1   28.84   14.31
   6  -4  -1   27.90   12.23
   6  -4  -1   15.31   11.77
   6  -4   0    7.53   13.53
   6  -4   0    8.72    8.89
   6  -4   0   20.66   10.75
   6  -4   0   -5.78    9.57
   6  -4   1  177.94   28.85
   6  -4   1  131.85   22.69
   6  -4   1  124.68   24.36
   6  -4   1  120.25   23.45
   6  -4   2   59.99   20.31
   6  -4   2   31.73   14.35
   6  -4   2   17.97   10.93
   6  -4   2   17.49   11.33
   6  -4   3   33.62   15.21
   6  -4   3   27.75   13.02
   6  -4   3    3.54    9.61
   6  -4   3   13.16   10.52
   6  -4   4   32.51   13.68
   6  -4   4    8.24   10.16
   6  -4   4   12.02   10.17
   6  -4   5  121.96   22.08
   6  -4   5  135.85   24.95
   6  -4   5  135.47   23.80
   6  -4   5  175.16   28.15
   6  -4   6   50.76   16.75
   6  -4   6   55.64   17.34
   6  -4   6   70.09   19.22
   6  -4   6   53.83   18.53
   6  -4   7   28.67   13.15
   6  -4   7   24.94   14.03
   6  -4   7   36.60   14.40
   6  -4   7   32.09   14.58
   6  -4   8   17.53   11.11
   6  -4   8   20.84   11.48
   6  -4   8   21.08   12.98
   6  -4   9    7.76   11.92
   6  -4   9   17.93   11.67
   6  -4   9   19.56   12.49
   6  -4  10   98.88   23.56
   6  -4  10  103.12   23.46
   6  -4  10   76.34   20.88
   6  -4  11  131.41   26.84
   6  -4  11  142.89   27.47
   6  -4  11  121.13   25.89
   6  -4  12    6.12   10.87
   6  -3  -9   30.88   16.84
   6  -3  -9   33.53   14.32
   6  -3  -9   32.36   15.41
   6  -3  -8    1.60   10.54
   6  -3  -8   31.38   16.10
   6  -3  -8   44.52   19.25
   6  -3  -7   17.62   13.98
   6  -3  -7    1.10   10.18
   6  -3  -7   17.94   10.86
   6  -3  -7   13.84   12.49
   6  -3  -6   52.90   17.23
   6  -3  -6   75.04   19.14
   6  -3  -6   51.60   18.98
   6  -3  -6   56.62   18.19
   6  -3  -5    4.10    8.36
   6  -3  -5   23.24   13.52
   6  -3  -5    7.25    9.39
   6  -3  -5   35.63   16.26
   6  -3  -4   42.89   15.50
   6  -3  -4   54.34   17.16
   6  -3  -4   13.60   10.35
   6  -3  -4   71.33   20.05
   6  -3  -3   -4.95    9.52
   6  -3  -3   16.95   11.99
   6  -3  -3  -12.26    8.73
   6  -3  -3   16.68   14.09
   6  -3  -2  132.81   23.71
   6  -3  -2  112.90   22.83
   6  -3  -2  123.94   21.87
   6  -3  -2  166.68   27.01
   6  -3  -1  139.81   24.20
   6  -3  -1  134.61   25.33
   6  -3  -1  122.04   22.11
   6  -3  -1  120.36   22.96
   6  -3   0  112.80   22.74
   6  -3   0   89.56   20.44
   6  -3   0  153.60   23.09
   6  -3   0   95.64   20.04
   6  -3   1   68.63   20.17
   6  -3   1   38.99   15.37
   6  -3   1   45.91   14.00
   6  -3   1   34.57   11.35
   6  -3   2  121.45   24.19
   6  -3   2  151.06   25.96
   6  -3   2   96.13   19.51
   6  -3   2   79.21   18.16
   6  -3   3   86.79   16.81
   6  -3   3  114.95   22.59
   6  -3   3   97.73   19.39
   6  -3   3  137.58   22.07
   6  -3   4   49.77   15.41
   6  -3   4   45.56   15.67
   6  -3   4   67.80   16.37
   6  -3   4   41.95   14.30
   6  -3   5   63.56   16.97
   6  -3   5   56.46   16.76
   6  -3   5   59.93   16.28
   6  -3   5   46.20   14.85
   6  -3   6   25.03   12.47
   6  -3   6   21.08   12.03
   6  -3   6   13.59    9.20
   6  -3   6   14.76   12.25
   6  -3   7   71.17   18.07
   6  -3   7   73.69   18.02
   6  -3   7   31.58   12.71
   6  -3   8  145.82   26.40
   6  -3   8  123.90   23.02
   6  -3   8  111.95   22.06
   6  -3   9   23.18   13.97
   6  -3   9   19.46   11.22
   6  -3   9    7.63    9.30
   6  -3  10   21.17   11.33
   6  -3  10    6.24   10.49
   6  -3  11   61.41   18.03
   6  -3  11   28.64   13.50
   6  -3  11   41.38   15.97
   6  -3  12   14.01   14.07
   6  -3  12   20.62   11.07
   6  -3  12    4.84   10.31
   6  -3  13   47.83   19.81
   6  -3  13   47.88   17.92
   6  -3  13   39.17   16.41
   6  -2 -11    9.35   13.47
   6  -2 -11   11.56   13.06
   6  -2 -10    3.00    9.48
   6  -2 -10   -1.94    8.69
   6  -2 -10   14.23    8.67
   6  -2  -9   23.18   15.66
   6  -2  -9   30.55   15.58
   6  -2  -9   26.50   12.66
   6  -2  -8   78.82   22.11
   6  -2  -8   49.29   16.21
   6  -2  -8   53.67   15.20
   6  -2  -7   21.49   15.94
   6  -2  -7   33.33   13.77
   6  -2  -7   37.44   12.22
   6  -2  -7   30.65   12.63
   6  -2  -6   75.69   19.24
   6  -2  -6   50.72   17.66
   6  -2  -6   41.09   14.20
   6  -2  -6   59.55   15.07
   6  -2  -6   66.88   17.54
   6  -2  -5  210.27   27.59
   6  -2  -5  262.89   32.50
   6  -2  -5  221.89   31.62
   6  -2  -5  196.56   26.76
   6  -2  -5  248.84   29.58
   6  -2  -4   22.37   11.59
   6  -2  -4   -4.45    7.37
   6  -2  -4   30.15   14.38
   6  -2  -4   19.78   10.24
   6  -2  -4   52.91   16.99
   6  -2  -3  146.87   23.08
   6  -2  -3  195.22   29.13
   6  -2  -3  161.18   24.15
   6  -2  -2   -5.82    9.66
   6  -2  -2   -5.32   10.07
   6  -2  -2   -6.55    7.96
   6  -2  -1   13.35    9.71
   6  -2  -1    5.17    9.11
   6  -2  -1    9.38    9.55
   6  -2   0   40.63   13.65
   6  -2   0   40.13   15.26
   6  -2   0   55.74   15.02
   6  -2   0   20.41    9.43
   6  -2   1   21.95   12.48
   6  -2   1   30.05   13.50
   6  -2   1    7.12    7.31
   6  -2   1   16.26    9.14
   6  -2   2   20.38    8.67
   6  -2   2   29.08   13.25
   6  -2   2   14.83   11.18
   6  -2   2    9.25    8.83
   6  -2   2   20.15   10.15
   6  -2   3  102.45   18.19
   6  -2   3  124.14   21.60
   6  -2   3   99.59   19.45
   6  -2   3   81.79   16.40
   6  -2   4   12.32   10.09
   6  -2   4   14.22   10.35
   6  -2   4    5.76    8.05
   6  -2   4    4.04    7.32
   6  -2   5   91.95   18.10
   6  -2   5  119.08   21.78
   6  -2   5  123.67   21.86
   6  -2   5   99.74   18.56
   6  -2   6   15.81   10.28
   6  -2   6    2.33    8.80
   6  -2   6   13.04   10.09
   6  -2   6    4.48    8.71
   6  -2   7   80.57   19.31
   6  -2   7   63.38   16.05
   6  -2   7   68.38   17.80
   6  -2   8   58.57   16.60
   6  -2   8  112.98   21.89
   6  -2   8   75.95   17.96
   6  -2   9   57.81   16.83
   6  -2   9   55.81   16.14
   6  -2   9   74.53   17.62
   6  -2  10   10.67    9.06
   6  -2  10   13.12   10.52
   6  -2  11    3.21    9.01
   6  -2  11   -6.02   10.00
   6  -2  11   -2.86    9.99
   6  -2  12   56.91   18.95
   6  -2  12   75.85   19.06
   6  -2  12   74.77   19.08
   6  -2  13   24.56   16.93
   6  -2  13   59.03   19.25
   6  -2  13   45.97   17.11
   6  -2  14   53.33   19.63
   6  -2  14   36.53   15.12
   6  -2  14   73.55   20.39
   6  -1 -12    7.64   11.53
   6  -1 -12    4.54   11.53
   6  -1 -11   48.40   18.62
   6  -1 -11   98.23   25.87
   6  -1 -11   72.59   20.54
   6  -1 -10   23.86   14.96
   6  -1 -10   37.46   14.38
   6  -1 -10   35.09   14.20
   6  -1  -9   14.22   12.59
   6  -1  -9    8.36   11.84
   6  -1  -9   16.24   12.21
   6  -1  -8   10.28   10.46
   6  -1  -8   12.33    7.42
   6  -1  -8    9.17   10.76
   6  -1  -7   22.09   13.07
   6  -1  -7   24.23   12.82
   6  -1  -7   34.86   13.12
   6  -1  -6   63.65   18.16
   6  -1  -6   70.82   17.29
   6  -1  -6   50.49   14.73
   6  -1  -6   64.22   15.38
   6  -1  -6   79.89   18.02
   6  -1  -5   16.76   12.19
   6  -1  -5   22.49   12.22
   6  -1  -5   15.08   10.30
   6  -1  -5   40.75   13.93
   6  -1  -5   55.84   15.93
   6  -1  -4   57.17   13.98
   6  -1  -4   64.10   17.43
   6  -1  -4   59.04   15.84
   6  -1  -4   25.28   12.08
   6  -1  -4   59.85   13.59
   6  -1  -3    8.47    8.19
   6  -1  -3   12.42   11.79
   6  -1  -3   -1.00    8.21
   6  -1  -3   -3.14    8.41
   6  -1  -2  113.36   18.71
   6  -1  -2  123.53   22.81
   6  -1  -2  111.14   19.83
   6  -1  -2  132.26   18.85
   6  -1  -1  187.52   23.42
   6  -1  -1  193.91   27.68
   6  -1  -1  183.46   26.38
   6  -1   0  110.95   18.69
   6  -1   0   99.89   19.33
   6  -1   0   79.42   15.42
   6  -1   1  110.77   19.46
   6  -1   1  111.94   21.27
   6  -1   1   90.19   17.88
   6  -1   1   68.29   14.69
   6  -1   2  430.53   38.09
   6  -1   2  404.35   35.39
   6  -1   2  451.21   32.92
   6  -1   2  351.99   30.67
   6  -1   3  124.31   19.62
   6  -1   3   94.47   19.04
   6  -1   3  117.98   20.74
   6  -1   3   98.05   15.68
   6  -1   4   -6.33    8.64
   6  -1   4    9.94    7.44
   6  -1   4   -1.97    7.47
   6  -1   4  -10.21    8.24
   6  -1   5  141.60   22.60
   6  -1   5  140.82   22.12
   6  -1   5  123.04   17.21
   6  -1   5  164.12   22.85
   6  -1   6   60.38   15.90
   6  -1   6   88.12   18.06
   6  -1   6   75.31   16.78
   6  -1   7   60.96   15.62
   6  -1   7  117.02   20.93
   6  -1   7   82.29   17.53
   6  -1   8   36.99   13.93
   6  -1   8   15.29    9.29
   6  -1   8    4.38    9.84
   6  -1   9   50.89   16.33
   6  -1   9   38.44   14.27
   6  -1   9   38.37   14.02
   6  -1  10  106.09   21.27
   6  -1  10  135.29   23.79
   6  -1  10  130.22   23.16
   6  -1  11   30.62   15.51
   6  -1  11   16.99   12.34
   6  -1  11   14.64    9.88
   6  -1  12   14.17   14.43
   6  -1  12   53.28   15.91
   6  -1  12   45.72   14.67
   6  -1  13    7.06   11.34
   6  -1  13   14.09    8.20
   6  -1  13    2.78    9.69
   6  -1  14    7.91   11.46
   6  -1  14    6.11    8.80
   6  -1  14  -20.62   11.69
   6  -1  15   38.32   17.24
   6  -1  15   45.93   15.84
   6  -1  15   50.47   16.42
   6  -1  16   27.98   12.32
   6   0 -12    2.93    7.44
   6   0 -12   15.18   12.86
   6   0 -12   25.98   14.84
   6   0 -11   14.67   10.16
   6   0 -11   11.70   13.63
   6   0 -11    8.17   11.92
   6   0 -10   -3.95    9.92
   6   0 -10   19.13   13.80
   6   0 -10   11.36   10.76
   6   0  -9   49.23   17.36
   6   0  -9   69.12   18.58
   6   0  -9   68.66   18.28
   6   0  -8  104.80   21.75
   6   0  -8  123.85   22.82
   6   0  -8   94.76   20.88
   6   0  -7   10.62    8.39
   6   0  -7   42.27   15.67
   6   0  -7   22.30   12.27
   6   0  -6  145.97   24.88
   6   0  -6  104.08   20.54
   6   0  -6  118.41   20.27
   6   0  -5   90.21   20.41
   6   0  -5  104.13   19.29
   6   0  -5  109.43   20.94
   6   0  -5   99.00   18.42
   6   0  -4   97.67   19.79
   6   0  -4   80.51   17.43
   6   0  -4   80.49   18.05
   6   0  -4   72.46   16.03
   6   0  -4   75.28   15.76
   6   0  -3   41.96   14.42
   6   0  -3   24.68   11.20
   6   0  -3   25.35    9.92
   6   0  -3   39.35   11.47
   6   0  -2   63.18   16.56
   6   0  -2   71.61   16.08
   6   0  -2   70.78   14.32
   6   0  -2   56.46   13.23
   6   0  -1  223.95   22.17
   6   0  -1  224.74   28.35
   6   0  -1  194.41   25.90
   6   0  -1  213.82   22.58
   6   0   0   -1.15    6.01
   6   0   0   -3.90    8.60
   6   0   0   -1.94    8.29
   6   0   0   -1.69    5.99
   6   0   1  236.04   27.92
   6   0   1  226.79   26.89
   6   0   1  187.09   19.73
   6   0   2  369.39   33.94
   6   0   2  344.56   33.09
   6   0   3  666.33   45.17
   6   0   3  594.53   42.75
   6   0   4    9.51    9.01
   6   0   4   32.65   13.39
   6   0   4   17.30   10.23
   6   0   5  270.40   29.43
   6   0   5  260.33   29.38
   6   0   5  306.92   30.16
   6   0   6   41.65   13.87
   6   0   6   65.40   16.00
   6   0   6   49.42   14.10
   6   0   7  295.23   31.90
   6   0   7  281.89   30.08
   6   0   7  275.09   31.01
   6   0   8   33.30   13.48
   6   0   8   56.91   15.11
   6   0   8   42.32   13.14
   6   0   9    9.42   10.15
   6   0   9    1.43    7.13
   6   0   9   -0.13    9.43
   6   0  10   42.02   15.45
   6   0  10   54.31   15.41
   6   0  10   27.07   10.74
   6   0  11   31.19   14.36
   6   0  11   26.63   12.65
   6   0  11   21.76   10.68
   6   0  12  122.21   24.19
   6   0  12   87.92   18.57
   6   0  13   28.49   12.31
   6   0  13   27.56   12.76
   6   0  13   29.83   13.64
   6   0  14   24.80   12.97
   6   0  14   23.64   14.44
   6   0  14   19.45   12.42
   6   0  15   30.29   15.11
   6   0  15   14.41   11.62
   6   0  16   48.84   19.39
   6   0  16   77.50   20.50
   6   0  17   11.64    9.13
   6   1 -12   48.47   17.69
   6   1 -12   24.21   14.18
   6   1 -12    7.66   10.95
   6   1 -11  -21.34   11.88
   6   1 -11    0.86   10.38
   6   1 -11   -9.41   10.32
   6   1 -10  -18.60   11.90
   6   1 -10   11.83   12.95
   6   1 -10   10.96   13.16
   6   1  -9   29.48   12.85
   6   1  -9   21.54   13.00
   6   1  -9   42.96   14.91
   6   1  -8    2.95    8.05
   6   1  -8    0.84    8.20
   6   1  -8   13.46    9.91
   6   1  -7   22.42   12.09
   6   1  -7   13.73   10.41
   6   1  -7    8.03    9.58
   6   1  -6   15.12   11.08
   6   1  -6   16.67    9.59
   6   1  -6   48.32   13.43
   6   1  -5   98.57   19.75
   6   1  -5  129.56   20.52
   6   1  -5  131.57   20.68
   6   1  -5  116.32   20.37
   6   1  -4  381.71   33.39
   6   1  -4  359.63   35.03
   6   1  -4  321.74   34.30
   6   1  -4  356.46   33.44
   6   1  -4  345.80   32.71
   6   1  -3   19.61   10.94
   6   1  -3   18.70    8.79
   6   1  -3   17.59   10.43
   6   1  -3   13.24    8.03
   6   1  -3    3.50    5.89
   6   1  -2   73.70   17.00
   6   1  -2   76.13   17.62
   6   1  -2   78.66   15.69
   6   1  -1  231.69   27.32
   6   1  -1  200.91   26.91
   6   1  -1  225.37   24.53
   6   1   0  288.40   29.61
   6   1   0  286.84   30.97
   6   1   0  201.22   22.68
   6   1   1   17.17    9.44
   6   1   1   20.99   10.67
   6   1   1   21.83    7.41
   6   1   2  185.39   23.16
   6   1   2  176.80   23.79
   6   1   2  174.18   19.99
   6   1   3   42.79   13.75
   6   1   3   30.63   11.99
   6   1   3   41.64    9.84
   6   1   4   20.23    9.71
   6   1   4   18.39    9.68
   6   1   4   15.13    6.35
   6   1   5   68.39   14.72
   6   1   5   70.19   16.03
   6   1   5   86.10   13.74
   6   1   6   69.59   15.85
   6   1   6   91.20   16.87
   6   1   6   50.33   13.71
   6   1   6   87.34   13.57
   6   1   7   42.15   12.92
   6   1   7   74.26   15.81
   6   1   7   67.73   12.00
   6   1   8  432.94   37.13
   6   1   8  361.52   33.34
   6   1   8  396.06   27.97
   6   1   8  386.98   36.63
   6   1   9   46.75   14.56
   6   1   9   18.88    9.73
   6   1   9   45.09   14.05
   6   1  10   83.53   19.06
   6   1  10  121.37   21.33
   6   1  10  116.42   20.40
   6   1  11   30.67   13.40
   6   1  11   75.31   17.62
   6   1  11   40.68   13.20
   6   1  12   -1.85   11.10
   6   1  12    2.32    6.90
   6   1  12  -13.69    9.72
   6   1  13   80.21   22.04
   6   1  13  128.01   24.22
   6   1  13   92.63   19.05
   6   1  14    7.95   10.86
   6   1  14   26.39   13.93
   6   1  14    2.45    7.59
   6   1  15  -11.75   14.13
   6   1  15    2.47    7.48
   6   1  16   67.86   21.31
   6   2 -12    1.94    6.89
   6   2 -11   32.45   13.33
   6   2 -11   54.01   18.16
   6   2 -10    0.74    7.32
   6   2 -10    4.44   13.37
   6   2  -9  -17.89   11.34
   6   2  -9   -1.07    7.34
   6   2  -9   -4.94   11.18
   6   2  -8   38.38   12.20
   6   2  -8   18.26   10.48
   6   2  -8   16.01    9.93
   6   2  -7   65.87   14.93
   6   2  -7   43.84   14.29
   6   2  -7   80.90   19.04
   6   2  -6   53.23   12.71
   6   2  -6   46.87   14.57
   6   2  -6   20.49   12.34
   6   2  -6   48.38   14.91
   6   2  -5   36.23   13.01
   6   2  -5   23.58    9.57
   6   2  -5   46.18   14.02
   6   2  -5   33.43   12.69
   6   2  -4    2.15    6.52
   6   2  -4   13.14    7.74
   6   2  -4    2.54    9.31
   6   2  -4   10.47    9.18
   6   2  -3   60.76   14.88
   6   2  -3   66.74   14.04
   6   2  -3   59.04   16.32
   6   2  -3   52.80   14.70
   6   2  -2  195.49   21.60
   6   2  -2  151.71   22.11
   6   2  -2  174.31   24.84
   6   2  -2  145.16   22.04
   6   2  -1  154.66   21.52
   6   2  -1  170.48   24.96
   6   2  -1  146.84   20.97
   6   2   0  585.10   38.72
   6   2   0  561.06   42.62
   6   2   0  552.04   38.95
   6   2   1    1.95    6.64
   6   2   1   13.44   10.65
   6   2   1   -0.31    6.24
   6   2   2  275.81   26.58
   6   2   2  245.66   28.43
   6   2   2  266.45   26.09
   6   2   3  245.07   25.15
   6   2   3  208.85   25.18
   6   2   3  203.13   23.11
   6   2   4   24.12   10.13
   6   2   4   28.70   10.95
   6   2   4   32.91   10.68
   6   2   5 1007.53   50.60
   6   2   5  925.02   50.91
   6   2   5  966.54   47.50
   6   2   6  186.52   23.06
   6   2   6  183.57   22.96
   6   2   6  198.18   21.76
   6   2   7   63.32   14.65
   6   2   7   85.20   16.95
   6   2   7   72.22   13.59
   6   2   8  158.87   23.45
   6   2   8  100.61   18.43
   6   2   8  126.19   17.94
   6   2   9  174.72   25.28
   6   2   9  203.89   25.86
   6   2   9  169.27   23.05
   6   2   9  189.69   21.71
   6   2  10  179.88   26.81
   6   2  10  177.82   25.17
   6   2  10  133.65   20.38
   6   2  10  163.49   20.41
   6   2  11   15.27   10.32
   6   2  11    5.15    9.05
   6   2  11    0.83    6.56
   6   2  11    3.90    5.25
   6   2  12   -5.27   11.34
   6   2  12   17.33   10.68
   6   2  12    9.08    6.52
   6   2  12   -4.41    5.05
   6   2  13   -4.05   10.84
   6   2  13   23.55   12.04
   6   2  13   -5.52    9.06
   6   2  13   18.30    8.50
   6   2  14  137.50   26.74
   6   2  14  130.07   21.44
   6   2  15    3.68    9.85
   6   2  15   34.42   13.46
   6   2  16   14.09   12.08
   6   2  16   10.86   10.07
   6   2  17   13.67   12.34
   6   3 -11    1.97    9.61
   6   3 -10    7.85   11.80
   6   3  -9  -14.65   11.29
   6   3  -8   32.39   14.48
   6   3  -8    4.67   10.87
   6   3  -7   14.49   10.86
   6   3  -7   14.92    9.34
   6   3  -6    2.98    6.54
   6   3  -6   10.12    7.77
   6   3  -6   -4.34   10.34
   6   3  -6   25.43   12.59
   6   3  -5  226.40   24.19
   6   3  -5  215.08   25.44
   6   3  -5  194.39   27.14
   6   3  -5  190.97   27.49
   6   3  -5  135.22   20.37
   6   3  -4   15.50    8.43
   6   3  -4   23.16    9.72
   6   3  -4   38.68   12.92
   6   3  -3   94.01   15.71
   6   3  -3   69.58   12.92
   6   3  -3   73.70   18.14
   6   3  -2   36.38   11.11
   6   3  -2   53.88   11.34
   6   3  -2   36.10   12.86
   6   3  -1  119.68   15.78
   6   3  -1  152.23   19.18
   6   3  -1  111.89   21.10
   6   3  -1  127.50   20.95
   6   3   0  261.82   24.18
   6   3   0  228.88   28.14
   6   3   0  237.29   27.56
   6   3   1   28.85   10.35
   6   3   1   31.27   11.32
   6   3   1   28.49   10.37
   6   3   2  290.58   25.43
   6   3   2  297.77   30.36
   6   3   2  307.14   29.94
   6   3   3  158.68   18.90
   6   3   3  179.88   23.68
   6   3   3  187.56   23.58
   6   3   4  199.22   21.67
   6   3   4  186.97   23.61
   6   3   4  177.75   22.28
   6   3   5   10.69    7.05
   6   3   5   -4.34    8.36
   6   3   5    0.89    5.99
   6   3   6   44.96   11.30
   6   3   6   50.18   13.44
   6   3   6   49.95   12.22
   6   3   7  348.47   30.86
   6   3   7  294.35   28.92
   6   3   7  326.08   29.95
   6   3   8   96.62   17.99
   6   3   8   75.31   15.18
   6   3   8   93.45   17.18
   6   3   9  162.33   23.19
   6   3   9  158.67   21.50
   6   3   9  162.56   22.03
   6   3  10   96.92   17.54
   6   3  10  116.93   20.50
   6   3  10  100.78   17.62
   6   3  10  120.87   19.38
   6   3  11    4.58    6.57
   6   3  11   15.60    8.92
   6   3  11   14.42    9.90
   6   3  11   21.41    9.50
   6   3  11    1.96    6.49
   6   3  12  106.56   20.47
   6   3  12  128.63   23.19
   6   3  12   98.29   17.54
   6   3  12  117.66   19.43
   6   3  13   15.74   11.58
   6   3  13    3.46    7.74
   6   3  14   34.82   14.26
   6   3  14   41.11   12.45
   6   3  15   49.24   16.28
   6   3  16   18.83   11.91
   6   4 -11    3.34    9.55
   6   4 -11    7.81   12.18
   6   4 -10   11.88   10.54
   6   4 -10   32.76   14.63
   6   4  -9   17.60   12.22
   6   4  -9   21.63   13.86
   6   4  -8    4.15    9.80
   6   4  -8    5.40    9.64
   6   4  -7   -1.85    9.54
   6   4  -7   15.74   12.04
   6   4  -6   46.82   15.65
   6   4  -5    9.18    8.58
   6   4  -5   13.70    7.25
   6   4  -4  106.23   18.96
   6   4  -4  176.17   26.28
   6   4  -3   13.12    9.74
   6   4  -3   -3.76    8.49
   6   4  -2   34.15   11.59
   6   4  -2   25.02   11.65
   6   4  -1  106.62   18.50
   6   4  -1  104.07   19.74
   6   4   0  182.27   18.42
   6   4   0  175.66   25.23
   6   4   0  173.31   24.81
   6   4   0  185.08   24.22
   6   4   1  143.42   16.67
   6   4   1  141.21   22.56
   6   4   1  114.31   19.99
   6   4   1  147.60   21.92
   6   4   2  154.98   17.42
   6   4   2  150.78   21.88
   6   4   2  167.92   23.15
   6   4   2  192.41   24.78
   6   4   3   55.50   11.02
   6   4   3   57.48   14.16
   6   4   3   57.86   14.62
   6   4   3   43.61   14.45
   6   4   4  239.65   22.82
   6   4   4  233.65   26.90
   6   4   4  242.50   27.56
   6   4   4  258.03   28.35
   6   4   5   39.77    9.10
   6   4   5   46.11   11.12
   6   4   5   37.77   11.41
   6   4   5   55.49   15.55
   6   4   5   43.56   11.42
   6   4   6   23.74    7.86
   6   4   6   48.38   13.20
   6   4   6   19.11    7.98
   6   4   6   31.18   10.01
   6   4   6   28.57   10.07
   6   4   7  146.96   19.75
   6   4   7  186.67   22.69
   6   4   7  172.01   22.01
   6   4   7  183.79   24.06
   6   4   7  148.13   21.97
   6   4   8   50.24   12.65
   6   4   8   65.58   15.08
   6   4   8   33.98   10.25
   6   4   8   65.34   15.99
   6   4   8   58.45   14.97
   6   4   9  110.00   18.23
   6   4   9  101.47   19.05
   6   4   9  101.09   18.42
   6   4   9  104.82   17.57
   6   4   9   93.46   18.65
   6   4  10    8.93    8.06
   6   4  10   21.45   10.38
   6   4  10   10.83    9.90
   6   4  10   15.70    7.64
   6   4  10   -1.55    7.36
   6   4  11  121.32   20.93
   6   4  11  157.98   23.10
   6   4  11   82.45   16.84
   6   4  12   62.43   16.40
   6   4  12   31.81   13.21
   6   4  13   26.19   12.37
   6   4  13   20.47   11.15
   6   4  14   -4.87    8.00
   6   4  14    5.55    6.89
   6   4  15   -1.78    7.09
   6   4  15   18.67    9.71
   6   4  16   50.30   17.23
   6   5 -10   10.89   10.21
   6   5 -10    1.62    9.18
   6   5  -9   25.68   13.43
   6   5  -8    4.31    9.21
   6   5  -7   34.86   12.65
   6   5  -6   13.57    8.15
   6   5  -5    7.24    9.57
   6   5  -5    8.61    9.32
   6   5  -4   10.93    8.37
   6   5  -4    9.00    7.75
   6   5  -3   82.37   17.83
   6   5  -3  113.19   22.37
   6   5  -2   45.27   13.15
   6   5  -2   32.21   12.63
   6   5  -1  111.05   19.75
   6   5  -1  112.81   21.22
   6   5   0   57.95   16.41
   6   5   0   55.71   14.93
   6   5   1  152.84   24.45
   6   5   1  173.77   24.53
   6   5   2  146.79   22.72
   6   5   2  129.56   21.61
   6   5   3   53.47   14.42
   6   5   3   23.38    9.47
   6   5   3   26.29   10.05
   6   5   4   72.43   16.91
   6   5   4   96.97   18.39
   6   5   4   68.56   16.76
   6   5   5   85.17   13.94
   6   5   5   67.92   15.01
   6   5   5   72.83   16.37
   6   5   5   80.49   17.93
   6   5   6   93.22   15.42
   6   5   6  102.08   18.26
   6   5   6   93.76   18.92
   6   5   6   96.67   19.32
   6   5   7    6.02    5.76
   6   5   7   21.36    8.90
   6   5   7   11.02    7.68
   6   5   7   12.86    8.64
   6   5   7    6.46    7.45
   6   5   8   25.24   10.16
   6   5   8   41.27   11.61
   6   5   8   52.61   15.32
   6   5   8   30.71    9.85
   6   5   8   52.00   12.96
   6   5   9  231.47   27.05
   6   5   9  242.32   29.55
   6   5   9  218.23   28.00
   6   5  10   29.24   12.22
   6   5  10   46.98   13.15
   6   5  10   59.22   16.07
   6   5  11   54.21   14.98
   6   5  11   67.05   16.56
   6   5  11   63.84   16.38
   6   5  12   -2.28    6.72
   6   5  12   -8.06    8.09
   6   5  12   -7.13    8.16
   6   5  13   10.38   12.06
   6   5  13   17.55   11.64
   6   5  14   12.26   10.54
   6   5  14   22.43   12.21
   6   5  15   24.47   13.02
   6   5  15   10.45    9.83
   6   5  16    8.01   11.70
   6   5  16    1.84    7.22
   6   6  -9   22.69   12.97
   6   6  -8   35.14   13.84
   6   6  -8   21.12   10.64
   6   6  -7   33.50   14.72
   6   6  -6   70.01   19.39
   6   6  -5   36.63   12.76
   6   6  -5   39.45   16.41
   6   6  -4   29.25   11.80
   6   6  -4   18.71   12.89
   6   6  -3   14.03   10.08
   6   6  -3   17.22    9.08
   6   6  -2    6.68    8.09
   6   6  -2   24.81   11.20
   6   6  -1   26.65   10.57
   6   6  -1   29.82   12.03
   6   6   0   18.07    9.81
   6   6   0   -0.33    6.69
   6   6   1   91.91   18.60
   6   6   1  118.47   22.28
   6   6   2  129.65   22.88
   6   6   2  126.74   22.50
   6   6   3   54.41   15.92
   6   6   3   34.59   12.36
   6   6   4   21.86   11.29
   6   6   4    8.70   10.46
   6   6   5   10.46    8.18
   6   6   5    9.97   10.08
   6   6   6  216.94   30.10
   6   6   6  194.82   27.46
   6   6   7   31.64   13.47
   6   6   7   76.47   18.07
   6   6   8    5.14    8.83
   6   6   8    5.79    6.60
   6   6   8   -0.80    7.40
   6   6   9   35.83   12.17
   6   6   9   23.10   11.39
   6   6   9   16.25    9.92
   6   6  10   12.29    8.83
   6   6  10   14.49    9.67
   6   6  10   23.54   11.09
   6   6  11   26.21   11.02
   6   6  11   54.77   16.24
   6   6  11   52.12   15.83
   6   6  12   20.24   11.47
   6   6  12   11.62    8.47
   6   6  13   67.09   19.53
   6   6  13   51.16   15.22
   6   6  14   13.73   12.10
   6   6  14    4.80    9.04
   6   6  15   20.29   15.10
   6   6  15   26.46   12.83
   6   6  16   22.35   13.96
   6   7  -9   22.67   13.95
   6   7  -8   54.45   19.39
   6   7  -8   21.29   15.58
   6   7  -7    0.98    7.41
   6   7  -7    5.47   13.26
   6   7  -6   -1.65    7.77
   6   7  -6   -2.00   10.74
   6   7  -5   49.26   16.48
   6   7  -5   45.46   15.61
   6   7  -4   13.98   11.68
   6   7  -4    7.80    8.79
   6   7  -3   14.36    9.28
   6   7  -3   10.65    8.39
   6   7  -2   30.31   13.81
   6   7  -2   22.05   11.78
   6   7  -1   17.86   11.45
   6   7  -1   29.58   13.96
   6   7   0   37.79   13.99
   6   7   0   29.88   12.23
   6   7   1   18.72   10.50
   6   7   1   15.40    8.01
   6   7   2   30.66   13.43
   6   7   2   53.53   16.42
   6   7   3   36.15   12.53
   6   7   3   24.79   11.56
   6   7   4   64.49   17.53
   6   7   4   99.44   20.83
   6   7   5   16.52   10.54
   6   7   5    9.29    8.12
   6   7   6   11.56    9.59
   6   7   6    3.65    6.99
   6   7   7   30.81   12.62
   6   7   7   43.29   14.92
   6   7   8   12.23   11.58
   6   7   8   -4.23    6.30
   6   7   9   53.95   17.67
   6   7   9   58.56   16.14
   6   7  10   49.26   14.71
   6   7  10   15.77   10.73
   6   7  10   39.48   14.18
   6   7  11  -12.10    9.32
   6   7  11   18.07   12.21
   6   7  11    5.84    7.91
   6   7  12    7.30    8.03
   6   7  12    2.43    7.75
   6   7  12   21.05   11.26
   6   7  13    7.51    8.18
   6   7  13   15.36   10.62
   6   7  14    7.31    8.76
   6   7  14   -4.29    7.68
   6   7  15    5.21    9.63
   6   8  -6   -4.31   10.44
   6   8  -6   -8.78   10.56
   6   8  -5    1.39    9.34
   6   8  -5    6.80    8.48
   6   8  -4   23.98   13.04
   6   8  -4   16.82   11.05
   6   8  -3   38.40   15.04
   6   8  -3   46.05   15.50
   6   8  -2    6.22   10.65
   6   8  -2    6.12    6.76
   6   8  -1    8.77   10.06
   6   8  -1   50.26   16.11
   6   8   0    7.82   11.56
   6   8   0   16.59   10.22
   6   8   1   18.63   12.92
   6   8   1   35.27   15.13
   6   8   2   22.92   12.85
   6   8   2   23.18   11.05
   6   8   3   67.10   19.12
   6   8   3   59.62   17.11
   6   8   4   34.94   16.53
   6   8   4   49.32   14.56
   6   8   5   16.50   10.32
   6   8   5   17.14   10.74
   6   8   6   -9.15   10.98
   6   8   6   -8.98    9.41
   6   8   7   -0.52    9.07
   6   8   7   18.45   11.32
   6   8   8   59.65   17.88
   6   8   8   31.51   14.83
   6   8   9    8.34   11.48
   6   8   9   24.28   12.95
   6   8  10    9.70   10.42
   6   8  10   43.24   16.24
   6   8  11  -11.49   10.69
   6   8  11  -16.30   11.21
   6   8  12    7.89    8.87
   6   8  12   30.87   14.74
   6   8  12   18.21   11.52
   6   8  13  -15.86   11.28
   6   8  13   42.31   16.78
   6   8  14   14.97   11.92
   6   9  -4   25.20   12.37
   6   9  -4    6.53    9.97
   6   9  -3   21.66   12.76
   6   9  -3   20.93   12.96
   6   9  -2   55.67   19.12
   6   9  -2   40.42   15.11
   6   9  -1    1.96   10.22
   6   9  -1   -7.50    8.93
   6   9   0    2.83    9.75
   6   9   0    3.87    7.68
   6   9   1   18.93   13.55
   6   9   1   28.06   12.45
   6   9   2   14.94   12.94
   6   9   2   39.54   14.76
   6   9   3   10.82   14.30
   6   9   3   11.50   10.51
   6   9   4   32.45   14.14
   6   9   4    9.14    7.36
   6   9   5    6.02    9.98
   6   9   5   11.34   10.16
   6   9   6   25.86   13.12
   6   9   6    6.61    9.20
   6   9   7  -20.21   12.13
   6   9   7   -1.95    7.52
   6   9   8   -4.68    8.96
   6   9   8    1.57    7.53
   6   9   9   11.66   11.17
   6   9   9  -13.97    9.81
   6   9  10   -3.22    8.49
   6   9  10   -0.23    8.12
   6   9  11   19.20   12.98
   6   9  12    3.15    8.06
   6  10   0    0.57    7.34
   6  10   1   17.59   11.14
   6  10   2   10.40   10.45
   6  10   3   -7.32    9.59
   6  10   4   18.00   12.75
   6  10   5   68.06   19.88
   6  10   6    6.82    8.86
   6  10   7  -11.03    9.59
   7  -5  -3   -5.48   12.91
   7  -5  -3    6.42    9.58
   7  -5  -2   21.05   14.90
   7  -5  -2   10.97   13.43
   7  -5  -1   15.30   14.80
   7  -5  -1   -6.92   10.20
   7  -5   0   42.70   20.03
   7  -5   0   51.75   19.17
   7  -5   0   60.03   20.49
   7  -5   1  155.37   31.74
   7  -5   1   77.48   22.80
   7  -5   1  136.30   28.56
   7  -5   2   -2.03   10.38
   7  -5   2   -6.14   10.02
   7  -5   2   -8.02   12.80
   7  -5   3   18.03   14.38
   7  -5   3   19.68   13.31
   7  -5   4   41.05   16.65
   7  -5   4   33.99   16.05
   7  -5   4   34.52   16.64
   7  -5   5   27.26   15.92
   7  -5   5    1.33   10.11
   7  -5   5   22.44   14.42
   7  -4  -6   80.96   23.40
   7  -4  -5  -40.67   17.67
   7  -4  -5   56.01   20.48
   7  -4  -4   22.25   14.44
   7  -4  -4   -3.12    9.42
   7  -4  -4   18.38   14.21
   7  -4  -4    2.31    9.50
   7  -4  -3   59.33   19.76
   7  -4  -3   75.89   22.87
   7  -4  -3   49.17   20.32
   7  -4  -2   34.10   15.64
   7  -4  -2   42.17   18.58
   7  -4  -2   25.70   15.86
   7  -4  -1   94.60   24.00
   7  -4  -1   99.55   24.78
   7  -4  -1   74.05   20.52
   7  -4   0   13.76   15.06
   7  -4   0    0.55   11.69
   7  -4   0   21.12   12.12
   7  -4   0   -2.86    9.87
   7  -4   1   94.74   24.82
   7  -4   1   66.95   20.76
   7  -4   1   39.12   15.41
   7  -4   1   97.83   24.15
   7  -4   2   21.91   16.42
   7  -4   2   49.19   19.45
   7  -4   2   40.96   14.31
   7  -4   2   18.87   12.10
   7  -4   3   19.97   14.51
   7  -4   3   21.46   12.44
   7  -4   3    8.48    8.76
   7  -4   4    7.07   12.16
   7  -4   4   -7.24   10.18
   7  -4   5   27.10   14.70
   7  -4   5   43.15   15.95
   7  -4   6   16.54   11.65
   7  -4   6   37.82   15.07
   7  -4   7   62.54   18.99
   7  -4   7   15.06   12.38
   7  -4   7   60.29   19.25
   7  -4   8   27.18   14.79
   7  -4   8   -0.16    9.08
   7  -4   8   15.36   10.61
   7  -4   9   23.48   14.53
   7  -4   9  -32.35   15.35
   7  -3  -7   29.12   16.45
   7  -3  -6    2.84    9.98
   7  -3  -6    1.60   10.43
   7  -3  -5  -17.13   12.71
   7  -3  -5    9.24   10.65
   7  -3  -4   11.41   13.07
   7  -3  -4   47.51   17.32
   7  -3  -3  -10.91   13.18
   7  -3  -3    1.25   10.89
   7  -3  -3    8.15    9.72
   7  -3  -2   60.84   17.88
   7  -3  -2   44.16   17.92
   7  -3  -2   30.42   13.86
   7  -3  -2   33.32   14.23
   7  -3  -1   45.77   16.67
   7  -3  -1    2.97   10.95
   7  -3  -1   32.05   14.20
   7  -3  -1   11.12   10.12
   7  -3   0  119.96   24.33
   7  -3   0   80.44   21.39
   7  -3   0   86.88   19.99
   7  -3   1   51.34   18.28
   7  -3   1   79.98   21.44
   7  -3   1   57.76   17.05
   7  -3   2  -25.00   13.43
   7  -3   2    1.47   10.21
   7  -3   3   20.08   12.51
   7  -3   3   30.14   13.86
   7  -3   4   31.14   14.86
   7  -3   4    4.53    9.74
   7  -3   5   16.27   13.14
   7  -3   5   32.70   13.56
   7  -3   6   40.49   14.23
   7  -3   6   22.87   13.51
   7  -3   6   22.13   12.14
   7  -3   7   23.04   13.35
   7  -3   7    6.58    8.33
   7  -3   7   19.52   11.50
   7  -3   8   64.66   20.24
   7  -3   8  101.37   23.59
   7  -3   8  133.90   25.69
   7  -3   9   33.77   16.21
   7  -3   9   37.47   13.82
   7  -3   9   34.19   13.82
   7  -3  10    9.67    8.83
   7  -3  10   -0.27   10.56
   7  -3  11   33.03   17.10
   7  -3  11   19.28   13.58
   7  -2  -8   52.63   18.57
   7  -2  -8   19.94   12.70
   7  -2  -7   12.43   12.66
   7  -2  -7   20.03   12.22
   7  -2  -6  102.30   24.88
   7  -2  -6   34.50   14.68
   7  -2  -5   20.75   12.35
   7  -2  -5   44.59   16.33
   7  -2  -4   10.96   11.47
   7  -2  -4    2.60    9.80
   7  -2  -4  -17.74   13.85
   7  -2  -3   35.45   15.64
   7  -2  -3   27.09   13.75
   7  -2  -2   51.79   16.95
   7  -2  -2   24.03   12.67
   7  -2  -1   34.62   13.65
   7  -2  -1   19.53   11.44
   7  -2  -1   34.74   13.57
   7  -2   0  158.38   25.82
   7  -2   0  135.49   26.32
   7  -2   0  118.41   22.70
   7  -2   1   36.25   16.73
   7  -2   1   19.71   13.47
   7  -2   1   21.84   12.44
   7  -2   2   14.13   11.39
   7  -2   2    9.97    8.39
   7  -2   3   97.59   22.41
   7  -2   3   58.90   16.41
   7  -2   4   95.79   19.71
   7  -2   4   90.98   20.91
   7  -2   5  258.16   33.69
   7  -2   5  206.56   29.65
   7  -2   5  209.92   28.60
   7  -2   6   20.90   12.68
   7  -2   6   25.78   14.01
   7  -2   6   25.16   12.11
   7  -2   7    2.24   10.55
   7  -2   7    2.58    9.03
   7  -2   7   17.32   10.65
   7  -2   8   12.78   10.50
   7  -2   8    0.47    9.62
   7  -2   8    3.42    9.67
   7  -2   9   56.94   17.01
   7  -2   9   79.32   19.43
   7  -2   9   53.90   17.14
   7  -2  10    2.82    8.48
   7  -2  10    4.58    8.74
   7  -2  10   30.13   14.71
   7  -2  11   -1.05   11.55
   7  -2  11    7.42    8.39
   7  -2  11   -7.60   10.06
   7  -2  12  -13.42   13.99
   7  -2  12   24.06   14.47
   7  -2  12   28.09   14.29
   7  -1 -10   30.54   13.65
   7  -1  -9   18.08   15.32
   7  -1  -9    6.10   10.66
   7  -1  -9   -0.28    9.36
   7  -1  -8   13.66   13.32
   7  -1  -8    0.79    7.76
   7  -1  -8    3.19    9.95
   7  -1  -7   64.32   22.13
   7  -1  -7   62.55   19.05
   7  -1  -7   56.46   15.99
   7  -1  -6   23.63   13.67
   7  -1  -6   13.49    9.85
   7  -1  -6   19.99   12.50
   7  -1  -6   -0.78    8.63
   7  -1  -5   41.18   17.30
   7  -1  -5   45.27   15.36
   7  -1  -5   43.70   16.67
   7  -1  -4   32.19   15.17
   7  -1  -4   15.05   10.63
   7  -1  -4    7.10    9.06
   7  -1  -3   30.40   13.89
   7  -1  -3    0.83   10.71
   7  -1  -2  134.07   25.95
   7  -1  -2  139.65   25.24
   7  -1  -1   -0.49   10.55
   7  -1  -1   -1.10    8.85
   7  -1   0    8.86   11.41
   7  -1   0    2.61    9.43
   7  -1   1   93.55   21.56
   7  -1   1   72.99   18.38
   7  -1   2  180.09   28.52
   7  -1   2  163.25   25.46
   7  -1   3   62.86   18.10
   7  -1   3   33.07   13.31
   7  -1   4   26.70   11.20
   7  -1   4   48.90   16.64
   7  -1   4   53.43   15.80
   7  -1   5   17.47   10.57
   7  -1   5   48.38   15.52
   7  -1   5   47.88   15.73
   7  -1   6   70.75   17.51
   7  -1   6   80.39   18.48
   7  -1   6  122.63   22.42
   7  -1   7  115.49   22.51
   7  -1   7  106.41   21.98
   7  -1   7  114.96   22.04
   7  -1   8   10.90   10.90
   7  -1   8    8.13    9.10
   7  -1   8   26.97   11.58
   7  -1   9   21.92   14.22
   7  -1   9   18.62   10.77
   7  -1   9   32.62   12.23
   7  -1  10   38.63   14.39
   7  -1  10   27.80   12.88
   7  -1  10   40.50   15.82
   7  -1  11   18.39   13.17
   7  -1  11   21.31   13.51
   7  -1  11   26.70   12.33
   7  -1  12   74.91   19.94
   7  -1  12   33.93   14.19
   7  -1  12   47.32   15.61
   7  -1  13    7.33    9.65
   7  -1  13   -4.64   10.50
   7  -1  14    9.31   11.87
   7   0 -10   24.55   13.62
   7   0 -10    5.97   11.52
   7   0 -10   -1.19   11.34
   7   0  -9   55.42   17.73
   7   0  -9   22.05   13.90
   7   0  -9   21.07   12.59
   7   0  -8    4.17    8.83
   7   0  -8  -17.66   10.58
   7   0  -8    7.39    8.76
   7   0  -7   75.12   21.19
   7   0  -7   61.52   18.50
   7   0  -7   40.74   15.83
   7   0  -7   81.86   18.65
   7   0  -6   34.28   14.62
   7   0  -6   84.66   19.87
   7   0  -6   37.82   14.43
   7   0  -6   54.16   15.92
   7   0  -5   86.90   20.86
   7   0  -5   74.11   17.67
   7   0  -5   66.92   17.48
   7   0  -5   56.91   16.50
   7   0  -5   31.48   12.16
   7   0  -4   52.73   16.99
   7   0  -4   64.78   17.61
   7   0  -4   32.46   14.65
   7   0  -4   60.73   16.02
   7   0  -3   55.85   16.89
   7   0  -3   71.45   17.51
   7   0  -3   65.31   17.99
   7   0  -2   21.55   11.76
   7   0  -2   15.09   13.12
   7   0  -1  152.55   25.91
   7   0  -1   98.66   21.35
   7   0   0   11.02    8.75
   7   0   0   19.34   11.01
   7   0   1   32.27   14.12
   7   0   1   19.11   11.53
   7   0   2   93.95   20.36
   7   0   2   88.16   19.76
   7   0   3   18.17   12.04
   7   0   3   23.11   12.75
   7   0   4   35.74   14.31
   7   0   4   34.95   14.51
   7   0   5   85.86   19.25
   7   0   5  114.29   22.25
   7   0   5   98.63   21.21
   7   0   6    8.61    8.65
   7   0   6   30.10   13.63
   7   0   6   28.52   11.91
   7   0   7  280.63   33.47
   7   0   7  205.15   28.56
   7   0   7  201.70   28.33
   7   0   8   -6.55   10.23
   7   0   8    1.71    9.24
   7   0   8   -4.89    7.55
   7   0   9    0.02    9.64
   7   0   9    7.01   10.29
   7   0   9   15.02   10.01
   7   0  10   28.78   16.38
   7   0  10   -0.93    8.92
   7   0  10    6.89    8.05
   7   0  11   26.22   13.34
   7   0  11   39.30   14.86
   7   0  11   52.64   17.06
   7   0  12   71.69   19.95
   7   0  12   84.62   21.17
   7   0  12   79.28   19.47
   7   0  13    9.87   12.66
   7   0  13    0.31    9.33
   7   0  13   10.91    9.82
   7   0  14  -11.60   15.28
   7   0  14    6.34    9.78
   7   0  14   14.01   12.29
   7   0  15   19.48   11.75
   7   1 -11    2.80   12.46
   7   1 -10   15.02    9.07
   7   1 -10    1.46   14.28
   7   1 -10   24.15   13.53
   7   1  -9    5.32    8.65
   7   1  -9  -17.62   12.20
   7   1  -9   20.20   12.62
   7   1  -8   15.12    9.94
   7   1  -8   36.42   15.55
   7   1  -8   44.15   17.36
   7   1  -8   30.81   12.95
   7   1  -7   85.15   21.57
   7   1  -7   83.20   19.72
   7   1  -7   77.97   19.43
   7   1  -7   73.03   18.99
   7   1  -6   -9.89   10.91
   7   1  -6    8.43    8.75
   7   1  -6  -17.31   12.38
   7   1  -6   -3.88    8.00
   7   1  -5   10.37   11.65
   7   1  -5    9.82    8.54
   7   1  -5    6.74    9.27
   7   1  -5   13.21    9.95
   7   1  -4   61.83   16.48
   7   1  -4   34.30   12.83
   7   1  -4   24.95   12.52
   7   1  -4   16.14    9.40
   7   1  -4   40.38   14.07
   7   1  -3    4.08    9.20
   7   1  -3   26.78   10.90
   7   1  -3    6.91    8.54
   7   1  -3   14.59    7.62
   7   1  -2   27.38   11.74
   7   1  -2   32.75   14.61
   7   1  -2    9.41    8.26
   7   1  -1  109.43   21.07
   7   1  -1   64.87   18.01
   7   1  -1   69.72   15.99
   7   1   0  267.96   31.27
   7   1   0  259.80   32.26
   7   1   0  237.66   26.66
   7   1   1   15.52    9.24
   7   1   1   15.64   11.07
   7   1   1    1.03    6.17
   7   1   2  113.35   21.63
   7   1   2   99.84   20.74
   7   1   2   54.68   13.16
   7   1   3   77.34   17.46
   7   1   3   85.11   19.15
   7   1   4  186.19   25.75
   7   1   4  176.31   26.57
   7   1   5   57.35   15.84
   7   1   5   71.08   17.26
   7   1   6  102.98   20.60
   7   1   6  119.83   21.52
   7   1   7   -9.43   12.55
   7   1   7   -6.43    8.05
   7   1   8   36.59   12.43
   7   1   8   40.91   12.59
   7   1   8   32.78   12.80
   7   1   9   91.81   20.67
   7   1   9  106.38   20.88
   7   1   9   90.86   19.45
   7   1  10   21.71   10.86
   7   1  10   37.57   13.91
   7   1  10   27.22   11.18
   7   1  11   56.59   17.70
   7   1  11   47.44   15.66
   7   1  12    3.10    9.94
   7   1  12   10.88    8.51
   7   1  12    8.86    9.39
   7   1  13   36.79   18.62
   7   1  13   21.32   14.93
   7   1  13    4.28    8.65
   7   1  14   52.45   16.58
   7   1  14   35.54   15.33
   7   1  14   26.23   12.18
   7   1  15   12.33   12.18
   7   1  15    2.42    8.24
   7   1  15   -3.70    8.41
   7   2 -10    5.35   15.10
   7   2 -10   20.72   12.01
   7   2  -9    2.48    9.94
   7   2  -9   11.81   12.84
   7   2  -8   55.53   17.62
   7   2  -8   27.75   11.92
   7   2  -8   52.25   17.27
   7   2  -7   19.91   11.24
   7   2  -7   12.39   10.25
   7   2  -7   -0.33   10.19
   7   2  -7   14.49   11.73
   7   2  -6   39.17   13.31
   7   2  -6   42.24   15.27
   7   2  -6   40.25   15.13
   7   2  -6   43.73   15.44
   7   2  -5   14.53    8.84
   7   2  -5   10.53    8.17
   7   2  -5    4.18   11.05
   7   2  -5    6.87    8.57
   7   2  -4  149.85   23.98
   7   2  -4  170.29   23.65
   7   2  -4  160.17   25.40
   7   2  -3   34.85   12.02
   7   2  -3   21.92   10.12
   7   2  -3   38.13   13.72
   7   2  -3   26.32   13.39
   7   2  -2  142.43   22.92
   7   2  -2  122.40   19.40
   7   2  -2  151.94   26.58
   7   2  -2  140.53   23.00
   7   2  -1   75.10   17.52
   7   2  -1   38.93   14.94
   7   2  -1   87.11   18.15
   7   2   0   54.33   15.27
   7   2   0   34.35   12.57
   7   2   0   33.22   12.23
   7   2   1   26.41   10.88
   7   2   1   12.15   10.68
   7   2   1   21.00    9.76
   7   2   2   20.91    9.70
   7   2   2   -1.57    7.57
   7   2   2   -1.17    6.44
   7   2   3   14.92    8.44
   7   2   3   14.02   10.52
   7   2   3    9.46    7.70
   7   2   4  100.28   18.33
   7   2   4   98.59   19.53
   7   2   4   99.91   17.45
   7   2   5    8.94    9.61
   7   2   5    4.07    8.62
   7   2   5    3.72    6.33
   7   2   6   33.05   10.28
   7   2   6   34.69   11.84
   7   2   6   40.73   11.55
   7   2   7   67.56   15.72
   7   2   7   80.38   18.20
   7   2   7   49.99   13.04
   7   2   8   21.68   10.70
   7   2   8   15.10    9.65
   7   2   8   10.85    6.94
   7   2   9   41.61   13.97
   7   2   9   40.88   13.44
   7   2  10   -1.00    6.70
   7   2  10   -2.80    6.84
   7   2  11   60.50   16.08
   7   2  11   64.28   17.46
   7   2  12    4.63   11.83
   7   2  12   13.51    9.17
   7   2  12    5.24    8.03
   7   2  13    4.35   10.33
   7   2  13   13.05   11.12
   7   2  13    9.06    9.26
   7   2  14   18.41   12.28
   7   2  14   35.16   14.08
   7   2  14   43.96   15.47
   7   2  15   -4.37   13.33
   7   3  -9   -4.03   11.76
   7   3  -9   11.21   11.24
   7   3  -8    0.17   11.94
   7   3  -8   -3.56    8.43
   7   3  -7   -5.82   12.93
   7   3  -7    8.05   11.18
   7   3  -6   20.29    9.75
   7   3  -5   67.36   18.77
   7   3  -5   61.69   15.54
   7   3  -4    5.27    9.63
   7   3  -3   37.76   12.31
   7   3  -3   52.48   16.83
   7   3  -2   26.08   11.09
   7   3  -2   14.89   11.64
   7   3  -2   28.08   12.13
   7   3  -1  126.48   19.92
   7   3  -1  144.84   25.30
   7   3  -1  119.68   21.64
   7   3   0  157.97   21.61
   7   3   0  123.42   23.92
   7   3   0  119.04   21.38
   7   3   1   64.19   14.28
   7   3   1   77.28   18.89
   7   3   1   68.79   16.05
   7   3   2   78.71   15.69
   7   3   2   51.35   15.78
   7   3   2   48.83   14.61
   7   3   3    8.50    7.48
   7   3   3   -2.22    8.26
   7   3   3   13.66    9.28
   7   3   4   68.46   14.65
   7   3   4   60.78   16.73
   7   3   4   78.78   16.61
   7   3   5    7.76    8.27
   7   3   5   23.45   11.58
   7   3   5    5.68    5.73
   7   3   6    2.11    6.48
   7   3   6   18.96    9.81
   7   3   6    9.35    7.80
   7   3   7   75.27   16.40
   7   3   7   68.32   16.80
   7   3   7   83.04   16.30
   7   3   8   30.85   11.07
   7   3   8   32.31   13.82
   7   3   8   49.63   13.04
   7   3   9   47.43   15.31
   7   3   9   83.91   17.09
   7   3   9   59.75   15.07
   7   3  10   20.35   10.13
   7   3  10   20.33   10.09
   7   3  10   45.40   13.02
   7   3  11   21.29   10.96
   7   3  11    9.81    9.72
   7   3  11   11.44    8.52
   7   3  11    9.90    7.28
   7   3  12   67.74   17.67
   7   3  12   53.87   16.36
   7   3  12   73.00   18.18
   7   3  12   47.64   14.81
   7   3  12   59.10   14.75
   7   3  13   55.20   16.05
   7   3  13   37.20   15.78
   7   3  13   48.77   13.70
   7   3  14   -3.79    7.41
   7   3  15   60.27   18.40
   7   3  16   43.05   17.75
   7   4  -9   14.22   13.13
   7   4  -9   33.60   16.73
   7   4  -8   14.21   11.68
   7   4  -7   43.52   16.91
   7   4  -6    7.18    8.55
   7   4  -5   -6.98    8.27
   7   4  -5    2.65    8.33
   7   4  -4   51.64   14.27
   7   4  -4   31.11   14.04
   7   4  -3   21.21    9.05
   7   4  -3    8.26    8.44
   7   4  -2   27.21   11.89
   7   4  -2   29.62   12.90
   7   4  -1   36.58   14.01
   7   4  -1   22.05   10.98
   7   4   0    5.46    8.89
   7   4   0    7.43   10.51
   7   4   0    7.34    7.51
   7   4   1   22.39   11.74
   7   4   1   32.60   13.03
   7   4   1   26.23   13.24
   7   4   2   15.18    8.39
   7   4   2   35.18   13.08
   7   4   2    7.22    7.92
   7   4   2   24.64   10.85
   7   4   3   24.11   11.99
   7   4   3   10.83    7.99
   7   4   3   31.28   12.40
   7   4   3   18.36    8.39
   7   4   4  208.29   23.57
   7   4   4  205.34   27.54
   7   4   4  248.11   29.80
   7   4   4  265.15   31.17
   7   4   5   52.99   15.66
   7   4   5   40.80   11.64
   7   4   5   36.44   12.18
   7   4   5   49.52   14.50
   7   4   6   -6.25    7.92
   7   4   6   -1.01    9.11
   7   4   6    5.98    6.93
   7   4   6   -0.09    6.43
   7   4   7   15.88   10.61
   7   4   7    3.53    7.09
   7   4   7    3.42    7.38
   7   4   7    5.64    5.72
   7   4   8   66.38   14.92
   7   4   8   64.78   15.30
   7   4   8   88.70   20.05
   7   4   8   41.08   13.98
   7   4   8   69.10   16.07
   7   4   9  101.56   20.31
   7   4   9   93.64   17.39
   7   4   9  117.69   20.66
   7   4   9   75.49   16.98
   7   4   9  116.40   20.99
   7   4  10   34.57   12.40
   7   4  10   19.14   10.95
   7   4  10   20.60    9.32
   7   4  10   23.08   11.20
   7   4  10   17.58   10.35
   7   4  11   37.01   13.14
   7   4  11   39.30   13.68
   7   4  11   52.41   15.68
   7   4  11   43.77   13.90
   7   4  11   58.63   15.07
   7   4  12   -3.28    6.97
   7   4  12    2.96    6.82
   7   4  12    7.17    8.81
   7   4  12   -4.02    7.44
   7   4  13  113.54   22.92
   7   4  13  135.68   23.62
   7   4  14   19.64   11.16
   7   4  14   34.59   13.41
   7   4  15   -7.73    7.89
   7   4  15   -2.81    7.21
   7   4  16  -19.54   12.70
   7   4  16   20.10   10.81
   7   5  -8    8.45   12.24
   7   5  -7   15.31   12.40
   7   5  -6    5.31   10.27
   7   5  -5    5.08    7.44
   7   5  -5    1.06    9.26
   7   5  -4   29.21   13.56
   7   5  -4   14.45   12.99
   7   5  -3   52.12   14.98
   7   5  -3   36.77   14.99
   7   5  -2  -10.90   11.02
   7   5  -2    1.34    7.68
   7   5  -1   14.90   10.15
   7   5  -1   26.48   11.80
   7   5   0   19.34   10.76
   7   5   0    4.65    7.51
   7   5   1   33.35   14.52
   7   5   1   43.51   14.43
   7   5   2  180.57   27.08
   7   5   2  162.82   26.98
   7   5   2  186.05   27.47
   7   5   3   22.35   12.39
   7   5   3   29.56   12.54
   7   5   3    8.40    8.30
   7   5   4    3.55    9.70
   7   5   4    4.55    8.72
   7   5   4  -13.41   10.18
   7   5   5    6.04    9.15
   7   5   5   30.65   12.48
   7   5   5   24.12   12.77
   7   5   6   64.41   16.75
   7   5   6   58.29   15.40
   7   5   6   63.52   16.56
   7   5   7   23.90   11.59
   7   5   7   22.79    9.62
   7   5   7   22.89   10.69
   7   5   7   44.03   15.18
   7   5   8   16.73   11.77
   7   5   8   24.02   10.15
   7   5   8   19.62    9.70
   7   5   8   16.21    9.79
   7   5   9   15.99    9.96
   7   5   9   -8.34    7.66
   7   5   9   26.27   12.52
   7   5   9    8.83    8.99
   7   5  10   25.09   10.47
   7   5  10   35.13   12.64
   7   5  10   23.88   12.01
   7   5  10   37.87   13.87
   7   5  11   73.21   18.27
   7   5  11   36.34   14.88
   7   5  11   76.37   18.83
   7   5  12    6.01    9.67
   7   5  12   11.04    9.39
   7   5  12    3.66    7.45
   7   5  13   12.83   10.54
   7   5  13   16.45   11.19
   7   5  14   46.43   15.69
   7   5  14   59.12   17.78
   7   5  15   17.16    8.84
   7   5  15    0.48    7.56
   7   6  -7    4.76    8.75
   7   6  -6   12.85   11.45
   7   6  -5   20.52   13.24
   7   6  -4   -7.22    9.09
   7   6  -4   -5.66   11.68
   7   6  -3    1.56    9.76
   7   6  -3    2.76    8.76
   7   6  -2   -4.91   10.09
   7   6  -2    1.00    8.08
   7   6  -1   48.68   17.32
   7   6  -1   63.19   17.96
   7   6   0   53.71   16.39
   7   6   0   47.19   17.11
   7   6   1  107.14   22.68
   7   6   1  138.10   25.44
   7   6   2    2.52    9.73
   7   6   2   16.40   10.49
   7   6   3   41.98   14.84
   7   6   3   51.72   16.01
   7   6   4   13.04    8.79
   7   6   4   15.77   11.40
   7   6   5   11.11   10.91
   7   6   5   37.49   12.80
   7   6   6   51.23   16.44
   7   6   6   63.45   16.63
   7   6   6   52.25   14.45
   7   6   7    0.12   11.11
   7   6   7   24.56   11.32
   7   6   7    8.37    9.05
   7   6   8   12.62   13.46
   7   6   8   25.04   12.55
   7   6   9   47.07   16.93
   7   6   9   63.18   17.52
   7   6  10   23.56   11.10
   7   6  10   32.84   13.49
   7   6  11   43.54   15.14
   7   6  11   50.62   16.08
   7   6  12   42.73   15.18
   7   6  12   40.84   15.89
   7   6  12   53.42   16.48
   7   6  13  -13.84   10.44
   7   6  13    7.38    9.25
   7   6  14   11.30   10.90
   7   6  14   -4.97    8.70
   7   6  15   32.47   15.08
   7   7  -5   18.32   12.49
   7   7  -4   35.67   13.90
   7   7  -4   13.14    8.79
   7   7  -3    0.11   11.39
   7   7  -3  -14.98   11.57
   7   7  -2    2.12    7.97
   7   7  -2   27.39   13.51
   7   7  -1   25.47   11.30
   7   7  -1   47.73   16.05
   7   7   0   32.47   13.21
   7   7   0   12.73   12.01
   7   7   1   37.14   16.09
   7   7   1   22.47    9.84
   7   7   2   -5.86    8.48
   7   7   2   28.03   14.55
   7   7   3   31.79   14.45
   7   7   3   13.09    8.78
   7   7   4    6.39    8.43
   7   7   4   -0.83   10.34
   7   7   5   -2.23    7.32
   7   7   5   22.82   13.00
   7   7   6   20.37   11.13
   7   7   6   13.91   11.16
   7   7   7   26.56   12.04
   7   7   7   17.61   10.28
   7   7   8   31.50   15.25
   7   7   8    4.02    8.40
   7   7   9   21.85   14.89
   7   7   9   45.56   16.52
   7   7  10    4.84    9.22
   7   7  10   -6.54   10.22
   7   7  11   17.54   13.11
   7   7  11    4.78    9.04
   7   7  12   -3.24    8.16
   7   7  12    6.25   10.65
   7   7  13   67.75   19.03
   7   7  14  -30.81   14.59
   7   8  -4   21.53   15.51
   7   8  -3   33.44   14.65
   7   8  -3   30.78   14.81
   7   8  -2    4.35    9.61
   7   8  -2    8.88    9.04
   7   8  -1    0.74    8.29
   7   8  -1   21.09   13.79
   7   8   0   21.88   14.48
   7   8   0   21.89   11.24
   7   8   1    3.82    9.18
   7   8   1   21.72   12.25
   7   8   2  -23.66   13.11
   7   8   2   -0.38    7.07
   7   8   3  -10.31   10.65
   7   8   3   18.42   11.22
   7   8   4   -5.71    9.10
   7   8   4   20.28   13.50
   7   8   5   22.05   13.67
   7   8   5   37.42   14.94
   7   8   6   94.01   23.57
   7   8   6   83.70   21.32
   7   8   7   11.81   13.22
   7   8   7   23.15   13.75
   7   8   8    5.10    9.81
   7   8   8    1.32   11.02
   7   8   9    3.79    9.00
   7   8   9  -16.57   11.35
   7   8  10   13.64   13.48
   7   8  10   19.79   14.72
   7   8  11   -9.19   10.59
   7   8  11  -23.49   12.90
   7   8  12   11.09   11.45
   7   9  -2   13.48   12.01
   7   9  -1   18.89   13.09
   7   9   0   11.48   12.36
   7   9   0  -14.16   10.95
   7   9   1    3.86    9.83
   7   9   1  -10.66    9.78
   7   9   2   -0.60    8.76
   7   9   2   -0.70    6.47
   7   9   3   -9.55   11.04
   7   9   3   -4.66    6.95
   7   9   4  -10.69    9.60
   7   9   4   24.23   11.98
   7   9   5   -2.53    8.59
   7   9   5   25.82   13.57
   7   9   6   -1.73   12.71
   7   9   6   17.92   11.92
   7   9   7  -15.33   12.69
   7   9   7    2.68    7.57
   7   9   8  -29.10   15.94
   7   9   8   29.36   13.27
   7   9   9    0.03    8.43
   8  -4   0   49.77   20.99
   8  -4   1   46.08   18.34
   8  -4   2   17.39   14.11
   8  -4   3   23.69   17.08
   8  -3  -1   10.25   11.74
   8  -3  -1    6.02   10.98
   8  -3   0   54.58   19.77
   8  -3   0   28.38   14.51
   8  -3   1   10.04   13.51
   8  -3   1   22.35   13.25
   8  -3   2    2.68   11.19
   8  -3   2    9.37   11.30
   8  -3   3   51.34   18.90
   8  -3   3   29.30   12.99
   8  -3   4   41.50   16.86
   8  -3   4   29.79   14.69
   8  -3   5   93.76   23.70
   8  -3   5   99.21   23.89
   8  -3   6    1.84   13.67
   8  -3   6    7.02   11.28
   8  -3   8   24.84   15.65
   8  -3   9   -8.85   11.77
   8  -2  -4   30.56   14.57
   8  -2  -4    5.48    9.28
   8  -2  -3   49.77   18.08
   8  -2  -3   63.68   18.94
   8  -2  -3   39.75   17.08
   8  -2  -2   59.96   20.24
   8  -2  -2   19.26   13.36
   8  -2  -1    0.26   10.24
   8  -2  -1   20.53   14.53
   8  -2   0   46.64   18.68
   8  -2   0   42.27   16.13
   8  -2   1   47.62   19.05
   8  -2   1   60.79   20.98
   8  -2   2   27.29   14.00
   8  -2   2   16.18   11.78
   8  -2   3   59.29   19.80
   8  -2   3   49.44   18.29
   8  -2   4    2.20   11.68
   8  -2   4    4.66   10.74
   8  -2   5   61.68   18.50
   8  -2   5   80.17   20.75
   8  -2   6   45.60   16.78
   8  -2   6   77.60   20.13
   8  -2   7    2.53   10.85
   8  -2   7   -4.27   11.43
   8  -2   7    6.26   10.73
   8  -2   8   14.58   15.07
   8  -2   8   12.74   11.47
   8  -2   8   26.84   15.08
   8  -2   9   68.87   20.14
   8  -2   9   37.41   17.22
   8  -2   9   89.11   22.41
   8  -2  10   30.37   17.15
   8  -1  -6   -0.18   11.67
   8  -1  -6   18.48   13.98
   8  -1  -5   34.77   17.78
   8  -1  -5   41.52   15.99
   8  -1  -5   16.66   12.52
   8  -1  -4   19.34   14.20
   8  -1  -4   -0.65   10.53
   8  -1  -4   34.07   16.68
   8  -1  -3   51.34   17.79
   8  -1  -3   25.35   12.81
   8  -1  -3   42.18   16.80
   8  -1  -2   36.81   16.27
   8  -1  -2   52.02   17.57
   8  -1  -1   39.13   16.54
   8  -1  -1   41.75   16.41
   8  -1   0   26.11   15.51
   8  -1   0    9.60   11.29
   8  -1   1    8.34   12.30
   8  -1   1   28.72   13.61
   8  -1   2  144.74   27.79
   8  -1   2  115.90   25.21
   8  -1   3   51.83   17.87
   8  -1   3   51.10   18.34
   8  -1   4  151.27   28.12
   8  -1   4   86.04   21.40
   8  -1   5   26.58   14.16
   8  -1   5    0.61    8.21
   8  -1   6   35.01   13.52
   8  -1   6   30.61   14.90
   8  -1   6   27.14   12.73
   8  -1   7   84.37   21.33
   8  -1   7   95.64   23.60
   8  -1   7   61.95   19.00
   8  -1   8   -0.52   10.40
   8  -1   8    8.60   11.00
   8  -1   8   -2.02    9.66
   8  -1   9   20.04   13.04
   8  -1   9   17.11   13.47
   8  -1   9   16.86   13.00
   8  -1  10   57.73   17.99
   8  -1  10   36.21   14.91
   8  -1  10   35.60   14.73
   8  -1  11   -0.78   12.61
   8  -1  11   38.11   16.10
   8  -1  11   19.16   14.61
   8   0  -8   -6.20   13.19
   8   0  -7   49.17   19.99
   8   0  -7   27.32   14.59
   8   0  -7   25.85   14.77
   8   0  -6   33.45   18.52
   8   0  -6   22.42   13.03
   8   0  -6  -11.52   13.10
   8   0  -5   -3.96   11.37
   8   0  -5    9.70   10.17
   8   0  -5    9.03   12.22
   8   0  -4   43.33   19.10
   8   0  -4   52.79   17.24
   8   0  -4   39.41   15.97
   8   0  -3   24.73   13.20
   8   0  -3   16.19    9.84
   8   0  -3   19.30   12.44
   8   0  -2   -7.24   10.66
   8   0  -2    3.77   10.06
   8   0  -1   60.82   19.60
   8   0  -1   51.49   19.16
   8   0   0   53.52   18.70
   8   0   0   19.90   15.31
   8   0   1   77.25   21.15
   8   0   1   60.27   19.49
   8   0   2   48.26   17.50
   8   0   2   38.89   14.96
   8   0   3   14.77   11.92
   8   0   3   29.13   15.16
   8   0   4   58.43   17.92
   8   0   4   47.58   16.38
   8   0   5   36.60   14.47
   8   0   5   52.00   18.16
   8   0   6   22.17   14.02
   8   0   6   48.97   17.14
   8   0   7   21.80   11.82
   8   0   7   32.27   12.28
   8   0   8   64.20   18.76
   8   0   8   47.51   16.96
   8   0   8   65.33   18.96
   8   0   9   16.38   10.09
   8   0   9   23.55   10.96
   8   0   9    6.29    9.60
   8   0  10  -10.42   10.53
   8   0  10   -0.90    8.13
   8   0  10   -0.06    8.61
   8   0  11   58.13   19.62
   8   0  11   33.80   14.36
   8   0  11   40.57   17.43
   8   0  12  -18.57   13.60
   8   0  12   10.44   11.84
   8   0  12   12.21   10.94
   8   1  -8   -7.21    9.92
   8   1  -8   16.12   12.78
   8   1  -8    0.09   11.45
   8   1  -8   19.94   11.56
   8   1  -7   17.89   11.57
   8   1  -7   12.36   11.62
   8   1  -7   -2.24   12.32
   8   1  -7   25.18   13.11
   8   1  -6   11.76   12.17
   8   1  -6   -0.26    8.16
   8   1  -6    9.64    9.40
   8   1  -5  -18.08   12.33
   8   1  -5    9.62   10.85
   8   1  -4   -0.54   11.46
   8   1  -4    7.05   10.06
   8   1  -4    7.83   11.46
   8   1  -3  137.38   25.60
   8   1  -3  106.66   21.68
   8   1  -3  114.57   26.65
   8   1  -2   42.55   17.44
   8   1  -2   22.68   10.02
   8   1  -2   20.97   14.64
   8   1  -1    6.20    9.17
   8   1  -1   -8.88    8.52
   8   1   0   55.25   16.38
   8   1   0   41.71   15.36
   8   1   1   67.21   18.00
   8   1   1   36.53   17.62
   8   1   2  102.50   22.84
   8   1   2  114.79   24.85
   8   1   3   24.04   12.86
   8   1   3   30.74   14.75
   8   1   4   86.93   20.30
   8   1   4   92.70   22.64
   8   1   5  118.26   22.94
   8   1   5   74.83   19.43
   8   1   6  112.56   23.16
   8   1   6   95.48   21.72
   8   1   7    6.79    8.86
   8   1   7   32.20   15.81
   8   1   8   -1.72    8.43
   8   1   8    4.88    7.46
   8   1   9   17.76   13.24
   8   1   9   24.06    9.95
   8   1  10    1.20    7.79
   8   1  10   10.81    9.81
   8   1  11   -3.09   11.38
   8   1  11   28.76   13.31
   8   1  11   22.85   10.40
   8   1  12   -9.42   14.09
   8   1  12   14.97   11.35
   8   1  12   18.34   11.79
   8   1  13  -16.25   12.43
   8   1  13   -8.59    8.58
   8   1  14   34.59   17.53
   8   2  -8   -8.69   10.42
   8   2  -7   15.46   10.91
   8   2  -6   47.78   16.82
   8   2  -5   13.31   12.98
   8   2  -5    8.91   10.44
   8   2  -4    7.00   10.50
   8   2  -4   -2.05    8.91
   8   2  -3   10.14    8.23
   8   2  -3   28.55   12.17
   8   2  -3   31.00   14.71
   8   2  -3   25.19   13.71
   8   2  -2   81.33   19.92
   8   2  -2   74.91   17.44
   8   2  -2   95.85   23.57
   8   2  -2   97.34   21.49
   8   2  -1   12.39   12.70
   8   2  -1   19.36   11.50
   8   2  -1   11.99   10.95
   8   2   0   43.96   15.53
   8   2   0   30.95   14.17
   8   2   0   30.77   12.61
   8   2   1  124.57   22.48
   8   2   1  123.77   25.48
   8   2   1  117.65   20.83
   8   2   2   36.78   14.84
   8   2   2    7.50    9.14
   8   2   2   44.96   14.27
   8   2   3   41.19   14.78
   8   2   3   43.43   16.39
   8   2   4   45.36   14.92
   8   2   4   53.53   16.46
   8   2   5   22.61   11.59
   8   2   5   20.75   13.53
   8   2   6  163.23   25.36
   8   2   6  161.66   27.09
   8   2   7   35.17   13.49
   8   2   7   40.82   16.18
   8   2   8  100.86   21.22
   8   2   8   99.85   21.72
   8   2   9   -7.31   10.68
   8   2   9    6.12    7.62
   8   2  10   30.22   12.92
   8   2  10   44.27   15.90
   8   2  11   47.73   16.45
   8   2  11   53.04   17.68
   8   2  12    8.12    8.67
   8   2  12   19.28   12.18
   8   2  13    3.97    8.22
   8   2  13   14.36    9.80
   8   2  14  -25.91   13.06
   8   3  -7   -5.45   10.78
   8   3  -6   24.26   13.31
   8   3  -5   16.15   12.52
   8   3  -4    4.07    8.63
   8   3  -3   -3.09    8.20
   8   3  -2   32.69   14.70
   8   3  -2    6.74    8.19
   8   3  -1   65.80   17.56
   8   3  -1   44.02   16.15
   8   3  -1   50.88   16.90
   8   3   0   -1.97    8.01
   8   3   0    5.34   10.87
   8   3   0    4.83    8.58
   8   3   1    7.73    8.56
   8   3   1   15.60    9.39
   8   3   1    3.78    9.05
   8   3   2   76.58   17.00
   8   3   2   85.10   21.42
   8   3   2   92.13   19.79
   8   3   3   90.54   18.74
   8   3   3  109.84   23.22
   8   3   3   53.27   15.13
   8   3   4  186.42   25.65
   8   3   4  165.08   28.09
   8   3   4  170.21   25.30
   8   3   5    6.17    8.29
   8   3   5   -3.69   10.86
   8   3   5    3.04    6.42
   8   3   6    0.91    7.25
   8   3   6    8.71    9.39
   8   3   6   -0.64    6.96
   8   3   7   33.82   12.88
   8   3   7   20.16   10.54
   8   3   7   23.67   10.18
   8   3   8   37.19   13.25
   8   3   8   20.03   11.92
   8   3   8   35.76   12.65
   8   3   9   49.31   15.69
   8   3   9   57.97   16.51
   8   3  10   34.16   13.38
   8   3  10   22.42   11.84
   8   3  11   66.23   18.64
   8   3  11   57.12   17.09
   8   3  12   73.71   18.62
   8   3  12   78.81   20.71
   8   3  12   46.98   16.44
   8   3  12   39.26   14.51
   8   3  13   14.03   13.58
   8   3  13   46.69   16.60
   8   3  13   15.90   11.42
   8   3  14   17.90   10.90
   8   3  14   34.36   16.53
   8   4  -6    5.42   11.42
   8   4  -5   31.69   14.92
   8   4  -4   26.77   14.62
   8   4  -4   20.77   12.61
   8   4  -3    8.85   10.57
   8   4  -3    2.18   10.25
   8   4  -2   13.97   11.80
   8   4  -2   -0.84    8.71
   8   4  -1   37.77   15.39
   8   4  -1   25.68   13.92
   8   4   0  112.19   23.54
   8   4   0   64.17   18.95
   8   4   0   68.23   19.43
   8   4   1   23.54   12.03
   8   4   1   18.04   11.67
   8   4   1   17.35   11.53
   8   4   2   19.99   11.04
   8   4   2   25.85   12.90
   8   4   2   52.58   15.98
   8   4   3   37.70   14.61
   8   4   3   42.04   14.77
   8   4   4   20.33   10.10
   8   4   4   33.48   14.97
   8   4   4    1.19    8.96
   8   4   5   26.37    9.70
   8   4   5   20.64   12.32
   8   4   5   50.85   16.81
   8   4   5   41.93   15.42
   8   4   6   30.71   15.95
   8   4   6   20.02   10.49
   8   4   6    8.04   10.87
   8   4   6   24.83   12.46
   8   4   7   12.73    8.83
   8   4   7   11.32    8.11
   8   4   7    5.51    7.69
   8   4   7    3.43    7.41
   8   4   8  118.70   23.09
   8   4   8  110.25   20.89
   8   4   8   74.83   18.33
   8   4   8  129.44   23.10
   8   4   9   16.23   10.36
   8   4   9   24.62   13.70
   8   4   9   31.55   13.16
   8   4   9   37.15   13.79
   8   4  10    7.66    8.95
   8   4  10    4.06    8.95
   8   4  10    1.31    8.93
   8   4  10   -1.69    6.87
   8   4  11   30.51   13.43
   8   4  11   43.44   15.26
   8   4  11   20.20   10.65
   8   4  11   33.59   13.62
   8   4  12   13.14    8.93
   8   4  12   -9.30    9.38
   8   4  12    6.25    9.09
   8   4  12  -22.49   11.19
   8   4  13  116.13   24.21
   8   4  13  110.73   24.43
   8   4  13   87.66   20.34
   8   4  14   26.81   12.67
   8   5  -5    2.41    8.30
   8   5  -4    7.58    9.25
   8   5  -4   -8.42    7.84
   8   5  -3   46.92   17.65
   8   5  -3   12.66   12.20
   8   5  -2   31.70   15.08
   8   5  -2   32.13   15.60
   8   5  -1   22.01   13.61
   8   5  -1   28.25   13.83
   8   5   0   31.36   15.16
   8   5   0   -0.09   10.06
   8   5   1   41.52   14.41
   8   5   1    8.31    9.96
   8   5   2   11.58   11.92
   8   5   2    5.73    8.78
   8   5   2    7.54   11.58
   8   5   3    6.72    7.57
   8   5   3   18.53   12.84
   8   5   3   12.04    8.70
   8   5   4    0.31    7.94
   8   5   4    8.96    9.90
   8   5   4  -10.04    8.54
   8   5   5   15.56   11.04
   8   5   5    4.11    7.86
   8   5   5   18.29   10.74
   8   5   6   49.45   16.60
   8   5   6   72.19   21.43
   8   5   6   62.24   17.58
   8   5   7   16.11   11.11
   8   5   7    5.48    9.75
   8   5   7   10.29    7.72
   8   5   8   -1.46    8.84
   8   5   8    6.53   11.20
   8   5   8   16.36   10.97
   8   5   9   11.09    9.63
   8   5   9    9.32    8.72
   8   5   9   16.44    9.69
   8   5  10   22.26   14.35
   8   5  10   32.86   14.66
   8   5  10   29.50   14.32
   8   5  11   10.40   10.01
   8   5  11   26.50   14.11
   8   5  11   18.53   11.80
   8   5  12   26.36   12.91
   8   5  12    0.64    9.01
   8   5  13   12.18    9.79
   8   5  14   11.72   10.30
   8   5  14   13.14    9.33
   8   6  -4    4.58   10.46
   8   6  -4   20.02   12.77
   8   6  -3   11.04   10.23
   8   6  -3   24.81   13.53
   8   6  -2  -34.49   15.25
   8   6  -2    4.49    9.93
   8   6  -1   37.75   15.39
   8   6  -1   77.54   21.27
   8   6   0   73.05   19.94
   8   6   0   26.56   14.84
   8   6   1    5.17    9.75
   8   6   1    1.92    8.08
   8   6   2   33.10   14.75
   8   6   2   46.90   17.92
   8   6   3   20.26   12.23
   8   6   3   38.30   15.51
   8   6   4    3.46    8.72
   8   6   4   42.58   16.39
   8   6   5   -1.77    9.93
   8   6   5   -7.46   11.13
   8   6   5    0.55    7.29
   8   6   6    3.69    8.25
   8   6   6   19.18   12.85
   8   6   6   17.47   12.02
   8   6   7   -5.66   10.41
   8   6   7   27.25   13.04
   8   6   7   21.94   12.07
   8   6   8   19.73   13.08
   8   6   8    4.90    9.11
   8   6   9   11.68    9.50
   8   6   9    6.19    8.34
   8   6  10    6.98   11.29
   8   6  10   29.65   13.39
   8   6  11   22.72   14.67
   8   6  11   59.75   18.25
   8   6  12   31.20   14.52
   8   6  12    6.88   10.06
   8   6  13    8.70    8.98
   8   7  -3   39.80   15.70
   8   7  -2    4.11    8.81
   8   7  -2   12.82   11.78
   8   7  -1   40.54   16.62
   8   7  -1   -6.58   10.52
   8   7   0  -14.41   12.47
   8   7   0   21.39   13.39
   8   7   1   60.81   20.05
   8   7   1   46.92   18.65
   8   7   2   32.92   14.88
   8   7   2    7.48    8.15
   8   7   3    8.36   11.74
   8   7   3   -4.56   10.33
   8   7   4   35.84   16.67
   8   7   4   48.93   17.52
   8   7   5   22.79   12.14
   8   7   5   25.63   12.78
   8   7   6   23.86   15.67
   8   7   6   51.49   16.97
   8   7   7    6.00    8.89
   8   7   7   36.34   14.98
   8   7   8   24.76   13.88
   8   7   8    5.25    8.34
   8   7   9   19.76   12.68
   8   7   9   -4.02    8.46
   8   7  10   23.55   12.19
   8   7  10   14.08   12.37
   8   7  11    4.65    9.53
   8   7  11    6.90    9.93
   8   7  12   35.28   17.61
   8   8  -1  -23.03   13.91
   8   8   0  -21.75   14.15
   8   8   1    5.96    9.72
   8   8   1    5.55   10.55
   8   8   2   -2.59    8.19
   8   8   2   -4.11    9.78
   8   8   3   15.33   11.78
   8   8   3   31.79   15.04
   8   8   4   -7.32   12.32
   8   8   4   30.13   15.45
   8   8   5   25.94   18.27
   8   8   5   18.79   12.42
   8   8   6    4.64   12.00
   8   8   6  -17.41   12.28
   8   8   7   34.28   16.23
   8   8   7   37.93   15.83
   8   8   8    4.37   11.93
   8   8   8   28.16   15.01
   8   8   9   32.06   16.19
   9  -1  -3    4.49   12.13
   9  -1  -2   -1.02   10.82
   9  -1  -1   14.00   11.23
   9  -1   0   12.11   11.49
   9  -1   0    6.40   12.14
   9  -1   1  -11.27   10.14
   9  -1   1    1.06    9.66
   9  -1   2    5.97   12.26
   9  -1   2    0.78    9.91
   9  -1   3    8.07   10.49
   9  -1   3   12.78   12.64
   9  -1   4   14.48   10.41
   9  -1   4   15.70   12.61
   9  -1   5   -2.13   10.24
   9  -1   5   11.12   13.07
   9   0  -4   30.34   17.62
   9   0  -3    8.33   15.03
   9   0  -3   13.94   10.75
   9   0  -3   49.72   20.89
   9   0  -2   12.14   13.28
   9   0  -2    8.04   10.11
   9   0  -2    2.08   10.45
   9   0  -1   41.53   17.42
   9   0  -1   30.73   17.66
   9   0   0   28.67   15.97
   9   0   0    8.17   13.88
   9   0   1   32.24   15.69
   9   0   1   15.45   11.90
   9   0   2    4.96    8.64
   9   0   2   29.10   14.63
   9   0   3   16.20   11.56
   9   0   3    2.06    9.88
   9   0   4    9.50   10.17
   9   0   4   16.12   12.40
   9   0   5    5.07   10.19
   9   0   5   28.89   15.69
   9   0   6   16.73   13.27
   9   0   6    2.77    9.56
   9   0   7   26.74   15.89
   9   0   7   11.33   11.16
   9   0   8   54.92   19.28
   9   0   8   44.19   18.62
   9   1  -5    2.80   13.35
   9   1  -5    8.28    9.28
   9   1  -4    8.65   11.13
   9   1  -4   27.54   13.43
   9   1  -3   66.67   21.12
   9   1  -3   68.25   18.59
   9   1  -3   60.50   22.68
   9   1  -2   -0.58    8.84
   9   1  -2   -2.82    7.92
   9   1  -2  -11.12   12.51
   9   1  -1   21.64   15.23
   9   1  -1   -0.78   10.46
   9   1   0   42.89   16.45
   9   1   0   13.64   14.62
   9   1   1   15.83   13.30
   9   1   1   43.64   18.02
   9   1   2   74.26   20.60
   9   1   2   67.14   19.82
   9   1   3   16.19   11.71
   9   1   3    5.27   13.70
   9   1   4   13.21   13.80
   9   1   4    5.94    9.86
   9   1   5   85.47   21.43
   9   1   5   46.85   18.41
   9   1   6   69.92   20.42
   9   1   6   99.34   24.48
   9   1   7    1.07   10.52
   9   1   7    9.96   11.46
   9   1   8    4.89   12.57
   9   1   8   14.03   10.90
   9   1   9   91.53   23.14
   9   1   9   62.60   19.89
   9   1  10    2.58    9.25
   9   1  10   24.83   14.18
   9   2  -3   22.98   13.24
   9   2  -2  123.09   25.60
   9   2  -2   41.13   17.78
   9   2  -1   26.74   14.56
   9   2  -1   24.76   17.93
   9   2   0    1.11    8.65
   9   2   0   -7.28   11.89
   9   2   1   21.59   12.92
   9   2   1    8.91   12.03
   9   2   2   34.26   14.98
   9   2   2   27.36   15.10
   9   2   3   49.18   16.88
   9   2   3   72.69   22.41
   9   2   4   75.16   19.76
   9   2   4   74.58   21.34
   9   2   5    2.64    9.38
   9   2   5   14.04   11.58
   9   2   6  118.92   24.23
   9   2   6  121.60   25.79
   9   2   7    6.30   10.10
   9   2   7   15.89   10.38
   9   2   8  -12.91   13.52
   9   2   8   15.78   11.72
   9   2   9   12.28   10.36
   9   2   9    4.03    8.74
   9   2  10   55.15   18.10
   9   2  10  100.48   23.32
   9   2  11   35.94   16.18
   9   2  11    9.31   10.87
   9   3  -5    0.71    9.16
   9   3  -4   17.82   13.07
   9   3  -3   19.24   12.88
   9   3  -2    4.20    9.91
   9   3  -1   51.82   19.11
   9   3  -1   47.11   17.96
   9   3   0   -1.35   10.32
   9   3   0    4.31    8.79
   9   3   1   27.84   12.63
   9   3   1   32.13   15.54
   9   3   1   21.95   11.15
   9   3   2   44.40   15.08
   9   3   2   -6.54    9.35
   9   3   3   57.64   16.97
   9   3   3   37.68   17.08
   9   3   4   24.01   13.03
   9   3   4   30.96   16.70
   9   3   5   36.59   13.96
   9   3   5   10.95   12.66
   9   3   6    6.33    9.03
   9   3   6   14.02   10.04
   9   3   7   20.80   11.04
   9   3   7   14.46   11.42
   9   3   8   67.65   18.82
   9   3   8   55.06   19.10
   9   3   9   23.41   11.90
   9   3   9   -2.63    8.90
   9   3  10   38.19   15.58
   9   3  10   18.87   11.87
   9   3  11  -13.63   13.26
   9   3  11    6.16    8.57
   9   3  12   24.55   14.47
   9   3  12   13.16   12.53
   9   3  12    6.79    9.54
   9   4  -4   25.47   14.97
   9   4  -4   -4.32    8.85
   9   4  -3   22.82   13.92
   9   4  -3   16.10   12.62
   9   4  -2    3.94    9.54
   9   4  -2   -4.33   11.13
   9   4  -1   22.45   13.72
   9   4  -1  -15.11   12.18
   9   4   0   30.47   14.69
   9   4   0   15.03   12.42
   9   4   0   20.66   13.77
   9   4   1   38.36   19.43
   9   4   1   65.27   19.68
   9   4   1   79.10   21.22
   9   4   2   62.84   20.05
   9   4   2   61.90   21.00
   9   4   2   44.35   18.52
   9   4   3   23.04   13.14
   9   4   3   48.59   16.44
   9   4   4   10.30   12.50
   9   4   4   40.46   15.34
   9   4   5    7.03    9.59
   9   4   5   13.31    9.93
   9   4   6   40.10   14.24
   9   4   6    8.29   10.23
   9   4   6   38.00   17.43
   9   4   6    4.06    8.40
   9   4   7   21.09   10.91
   9   4   7   40.89   16.99
   9   4   7   43.38   16.97
   9   4   7   24.04   12.11
   9   4   8   30.04   12.93
   9   4   8   29.30   15.04
   9   4   8   14.85   11.67
   9   4   9    2.66    9.96
   9   4   9   15.57   10.54
   9   4   9   24.05   12.01
   9   4  10   16.86   10.73
   9   4  10   25.88   13.96
   9   4  10    9.49   11.98
   9   4  11   19.80   12.50
   9   4  11    4.65    8.21
   9   4  11   28.90   14.15
   9   4  12   -0.23    7.90
   9   4  12    7.31    7.82
   9   5  -3   -5.33    9.25
   9   5  -2   26.88   13.97
   9   5  -2    5.57   11.05
   9   5  -1   27.88   14.14
   9   5  -1   15.08   13.71
   9   5   0    6.78    9.27
   9   5   0   11.12   11.15
   9   5   1   21.07   13.84
   9   5   1   31.46   15.51
   9   5   2   39.19   17.21
   9   5   2    7.27    9.29
   9   5   2   24.72   14.83
   9   5   3  102.80   25.20
   9   5   3   61.62   19.49
   9   5   3   82.13   21.83
   9   5   4   39.21   16.22
   9   5   4   24.09   14.63
   9   5   4    1.80    8.14
   9   5   5   17.32   11.81
   9   5   5   10.60   10.87
   9   5   6    4.34    9.04
   9   5   6   -0.36    8.45
   9   5   6   -8.79   11.40
   9   5   7    1.63    8.04
   9   5   7    8.60    9.73
   9   5   7   -7.07   10.42
   9   5   8   12.31   10.18
   9   5   8   14.09   11.30
   9   5   8   12.92   10.87
   9   5   9   -7.97    9.34
   9   5   9    1.12    8.95
   9   5   9   -3.26    7.96
   9   5  10   43.36   16.39
   9   5  10   35.12   14.26
   9   5  11  -10.16   11.26
   9   5  11  -10.67    9.99
   9   5  12   25.24   12.99
   9   5  12   24.53   13.49
   9   6  -2    0.22    9.10
   9   6  -1   -2.14    9.70
   9   6   0    7.91   13.24
   9   6   0   39.71   18.81
   9   6   1   -4.18   10.30
   9   6   1   10.34   11.81
   9   6   2   -9.04   14.37
   9   6   2    5.46    9.03
   9   6   3    6.04   10.08
   9   6   3    1.52    8.31
   9   6   4   45.79   18.55
   9   6   4   31.77   15.63
   9   6   5    0.36    9.68
   9   6   5    8.84   11.29
   9   6   5   -1.61    9.89
   9   6   6   12.66   14.69
   9   6   6   27.75   16.19
   9   6   6    3.25    8.65
   9   6   7   40.88   16.54
   9   6   7   55.41   19.30
   9   6   7   52.89   19.29
   9   6   8    8.28    9.36
   9   6   8   -5.68    8.77
   9   6   8   11.43   10.07
   9   6   9   36.62   16.66
   9   6   9   30.42   15.67
   9   6  10   -7.22   10.55
   9   6  10  -11.56   11.26
   9   7   3    5.91    9.88
   9   7   4   -4.20    9.34
   9   7   5    6.88   10.57
   9   7   6  -25.08   14.39
  10   2   0    1.37    8.49
  10   2   1    4.98    8.88
  10   2   2   16.78   13.66
  10   2   3   -0.72   10.27
  10   2   4   39.31   18.08
  10   2   5    4.91    9.82
  10   2   6   33.85   15.77
  10   3   4   -1.24    8.67
  10   3   5   31.39   14.57
  10   3   6    5.95    8.51
  10   3   7   -2.45    8.20
  10   3   8   43.72   16.03
  10   5   3   24.53   15.43
  10   5   4  -10.07   10.99
  10   5   5   32.82   12.79
  10   5   6   32.63   15.65
   0   0   0    0.00    0.00


TITL exp_1460_luelf2_RT2 in P1
REM P1 (#1 in standard setting)
CELL 0.71073   7.148561   7.826496  13.657938  81.0849  77.4870  73.3348
ZERR    2.00   0.000310   0.000280   0.000512   0.0030   0.0035   0.0036
LATT -1
SFAC C H N O Cl
UNIT 26.00 34.00 2.00 4.00 4.00
TREF
HKLF 4
END
_computing_structure_solution     'SHELXT 2018/2 (Sheldrick, 2018)'
;
loop_
_space_group_symop_operation_xyz
'x, y, z'
loop_
_atom_site_label
_atom_site_type_symbol
_atom_site_fract_x
_atom_site_fract_y
_atom_site_fract_z
_atom_site_U_iso_or_equiv
_atom_site_adp_type
_atom_site_occupancy
_atom_site_site_symmetry_order
_atom_site_calc_flag
_atom_site_refinement_flags_posn
_atom_site_refinement_flags_adp
_atom_site_refinement_flags_occupancy
_atom_site_disorder_assembly
_atom_site_disorder_group
Cl1 Cl 0.45305(17) 0.52741(15) 0.19624(10) 0.0536(3) Uani 1 1 d . . . . .
Cl2 Cl 0.38590(17) 0.73388(14) 0.41362(9) 0.0502(3) Uani 1 1 d . . . . .
Cl3 Cl 0.54115(16) 0.79443(17) 0.83816(10) 0.0527(3) Uani 1 1 d . . . . .
Cl4 Cl 0.65298(15) 1.10762(13) 0.60081(9) 0.0442(3) Uani 1 1 d . . . . .
O1 O 0.4597(5) 0.0086(5) 0.2198(3) 0.0531(10) Uani 1 1 d . . . . .
H1O H 0.418(9) -0.048(8) 0.278(5) 0.09(2) Uiso 1 1 d . . . . .
O2 O 0.4485(5) 0.2071(4) 0.3715(3) 0.0503(9) Uani 1 1 d . . . . .
O3 O 0.5377(6) 0.3198(5) 0.7969(3) 0.0589(11) Uani 1 1 d . . . . .
H3O H 0.578(7) 0.287(7) 0.744(4) 0.053(18) Uiso 1 1 d . . . . .
O4 O 0.5709(4) 0.5911(4) 0.6453(3) 0.0468(9) Uani 1 1 d . . . . .
N1 N 0.7089(5) 0.3655(4) 0.3989(3) 0.0379(9) Uani 1 1 d . . . . .
H11 H 0.606164 0.456825 0.386775 0.045 Uiso 1 1 calc R U . . .
H12 H 0.666131 0.298624 0.453246 0.045 Uiso 1 1 calc R U . . .
N2 N 0.3252(5) 0.9046(4) 0.6130(3) 0.0323(8) Uani 1 1 d . . . . .
H21 H 0.423604 0.934784 0.630354 0.039 Uiso 1 1 calc R U . . .
H22 H 0.376902 0.842764 0.559621 0.039 Uiso 1 1 calc R U . . .
C1 C 0.5951(6) 0.1825(5) 0.3067(3) 0.0344(10) Uani 1 1 d . . . . .
C2 C 0.7736(6) 0.2536(5) 0.3103(3) 0.0319(9) Uani 1 1 d . . . . .
C3 C 0.9361(6) 0.0830(5) 0.3364(3) 0.0378(10) Uani 1 1 d . . . . .
H3A H 1.055368 0.116487 0.338958 0.045 Uiso 1 1 calc R U . . .
H3B H 0.890821 0.027556 0.402485 0.045 Uiso 1 1 calc R U . . .
C4 C 0.9853(6) -0.0523(6) 0.2590(4) 0.0451(11) Uani 1 1 d . . . . .
H4A H 1.042621 -0.000753 0.194176 0.054 Uiso 1 1 calc R U . . .
H4B H 1.083658 -0.158538 0.279374 0.054 Uiso 1 1 calc R U . . .
C5 C 0.8035(7) -0.1054(6) 0.2481(4) 0.0505(13) Uani 1 1 d . . . . .
H5A H 0.759193 -0.174117 0.309727 0.061 Uiso 1 1 calc R U . . .
H5B H 0.839594 -0.181955 0.193792 0.061 Uiso 1 1 calc R U . . .
C6 C 0.6309(6) 0.0572(6) 0.2259(4) 0.0409(10) Uani 1 1 d . . . . .
H6A H 0.674664 0.119639 0.160722 0.049 Uiso 1 1 calc R U . . .
C7 C 0.8404(6) 0.3655(5) 0.2135(3) 0.0337(9) Uani 1 1 d . . . . .
C8 C 1.0412(7) 0.3481(6) 0.1752(3) 0.0447(11) Uani 1 1 d . . . . .
H8A H 1.134619 0.268565 0.209835 0.054 Uiso 1 1 calc R U . . .
C9 C 1.1064(7) 0.4451(7) 0.0874(4) 0.0530(13) Uani 1 1 d . . . . .
H9A H 1.241835 0.427834 0.063172 0.064 Uiso 1 1 calc R U . . .
C10 C 0.9733(9) 0.5658(7) 0.0361(4) 0.0603(14) Uani 1 1 d . . . . .
H10A H 1.017392 0.632335 -0.022382 0.072 Uiso 1 1 calc R U . . .
C11 C 0.7724(8) 0.5886(6) 0.0715(4) 0.0501(12) Uani 1 1 d . . . . .
H11A H 0.680624 0.670667 0.036937 0.060 Uiso 1 1 calc R U . . .
C12 C 0.7083(6) 0.4893(6) 0.1584(3) 0.0389(10) Uani 1 1 d . . . . .
C13 C 0.8622(7) 0.4391(6) 0.4229(4) 0.0482(12) Uani 1 1 d . . . . .
H13A H 0.969936 0.342196 0.441311 0.072 Uiso 1 1 calc R U . . .
H13B H 0.804504 0.511662 0.477938 0.072 Uiso 1 1 calc R U . . .
H13C H 0.911149 0.511022 0.364829 0.072 Uiso 1 1 calc R U . . .
C21 C 0.4192(6) 0.6108(5) 0.7063(3) 0.0343(10) Uani 1 1 d . . . . .
C22 C 0.2461(5) 0.7826(5) 0.6987(3) 0.0307(9) Uani 1 1 d . . . . .
C23 C 0.0877(6) 0.7155(5) 0.6653(3) 0.0352(10) Uani 1 1 d . . . . .
H23A H -0.028084 0.815040 0.658736 0.042 Uiso 1 1 calc R U . . .
H23B H 0.141021 0.670888 0.599721 0.042 Uiso 1 1 calc R U . . .
C24 C 0.0255(6) 0.5664(6) 0.7408(4) 0.0437(11) Uani 1 1 d . . . . .
H24A H -0.036057 0.612871 0.805249 0.052 Uiso 1 1 calc R U . . .
H24B H -0.071611 0.526324 0.716886 0.052 Uiso 1 1 calc R U . . .
C25 C 0.2044(7) 0.4081(6) 0.7543(4) 0.0500(12) Uani 1 1 d . . . . .
H25A H 0.162303 0.319156 0.805370 0.060 Uiso 1 1 calc R U . . .
H25B H 0.255905 0.353335 0.691548 0.060 Uiso 1 1 calc R U . . .
C27 C 0.1694(6) 0.8801(5) 0.7943(3) 0.0306(9) Uani 1 1 d . . . . .
C26 C 0.3676(6) 0.4632(5) 0.7849(4) 0.0433(11) Uani 1 1 d . . . . .
H26A H 0.314324 0.514211 0.849528 0.052 Uiso 1 1 calc R U . . .
C28 C -0.0342(6) 0.9715(5) 0.8182(3) 0.0382(10) Uani 1 1 d . . . . .
H28A H -0.119239 0.967991 0.776181 0.046 Uiso 1 1 calc R U . . .
C29 C -0.1098(6) 1.0649(6) 0.9012(4) 0.0455(11) Uani 1 1 d . . . . .
H29A H -0.244206 1.124012 0.914398 0.055 Uiso 1 1 calc R U . . .
C30 C 0.0120(7) 1.0718(6) 0.9650(4) 0.0488(12) Uani 1 1 d . . . . .
H30A H -0.039944 1.133877 1.021792 0.059 Uiso 1 1 calc R U . . .
C31 C 0.2115(7) 0.9861(6) 0.9442(3) 0.0448(11) Uani 1 1 d . . . . .
H31A H 0.295375 0.990535 0.986579 0.054 Uiso 1 1 calc R U . . .
C32 C 0.2858(6) 0.8937(5) 0.8600(3) 0.0356(10) Uani 1 1 d . . . . .
C33 C 0.1791(6) 1.0727(5) 0.5820(4) 0.0429(11) Uani 1 1 d . . . . .
H33A H 0.080622 1.042886 0.554803 0.064 Uiso 1 1 calc R U . . .
H33B H 0.246890 1.145151 0.531613 0.064 Uiso 1 1 calc R U . . .
H33C H 0.115920 1.138032 0.639500 0.064 Uiso 1 1 calc R U . . .
loop_
_atom_site_aniso_label
_atom_site_aniso_U_11
_atom_site_aniso_U_22
_atom_site_aniso_U_33
_atom_site_aniso_U_23
_atom_site_aniso_U_13
_atom_site_aniso_U_12
Cl1 0.0452(7) 0.0509(7) 0.0611(9) -0.0032(6) -0.0190(6) -0.0013(5)
Cl2 0.0599(8) 0.0417(6) 0.0426(7) -0.0079(5) -0.0094(6) -0.0012(5)
Cl3 0.0317(6) 0.0719(9) 0.0554(8) -0.0133(7) -0.0147(5) -0.0067(6)
Cl4 0.0412(6) 0.0439(6) 0.0461(7) 0.0010(5) -0.0082(5) -0.0113(5)
O1 0.046(2) 0.050(2) 0.072(3) -0.002(2) -0.0231(19) -0.0193(17)
O2 0.0394(18) 0.052(2) 0.056(2) -0.0058(17) 0.0044(16) -0.0149(16)
O3 0.065(3) 0.040(2) 0.058(3) 0.000(2) -0.018(2) 0.0101(17)
O4 0.0353(18) 0.048(2) 0.049(2) -0.0061(16) -0.0031(16) -0.0014(15)
N1 0.039(2) 0.0331(19) 0.037(2) -0.0020(16) -0.0064(16) -0.0031(15)
N2 0.0297(18) 0.0359(18) 0.031(2) 0.0004(15) -0.0062(15) -0.0095(14)
C1 0.032(2) 0.029(2) 0.037(2) 0.0034(18) -0.0048(19) -0.0047(17)
C2 0.032(2) 0.031(2) 0.030(2) -0.0031(17) -0.0061(17) -0.0053(17)
C3 0.038(2) 0.033(2) 0.038(3) -0.0021(19) -0.0076(19) -0.0027(18)
C4 0.039(2) 0.037(2) 0.052(3) -0.009(2) -0.007(2) 0.0016(19)
C5 0.049(3) 0.037(3) 0.063(4) -0.014(2) -0.007(2) -0.006(2)
C6 0.037(2) 0.041(2) 0.047(3) -0.002(2) -0.007(2) -0.0140(19)
C7 0.041(2) 0.033(2) 0.029(2) -0.0008(18) -0.0093(19) -0.0123(18)
C8 0.043(3) 0.054(3) 0.041(3) -0.003(2) -0.009(2) -0.019(2)
C9 0.053(3) 0.074(4) 0.040(3) -0.006(3) -0.001(2) -0.035(3)
C10 0.088(4) 0.066(3) 0.037(3) 0.002(3) -0.010(3) -0.041(3)
C11 0.075(4) 0.044(3) 0.035(3) 0.003(2) -0.020(3) -0.019(2)
C12 0.045(2) 0.039(2) 0.036(3) -0.003(2) -0.013(2) -0.013(2)
C13 0.056(3) 0.039(2) 0.051(3) -0.009(2) -0.017(2) -0.008(2)
C21 0.028(2) 0.037(2) 0.037(2) -0.0071(19) -0.0087(18) -0.0034(17)
C22 0.0266(19) 0.032(2) 0.031(2) 0.0001(17) -0.0039(16) -0.0060(16)
C23 0.033(2) 0.036(2) 0.037(3) -0.0039(19) -0.0091(19) -0.0069(18)
C24 0.041(2) 0.041(2) 0.051(3) -0.003(2) -0.005(2) -0.017(2)
C25 0.050(3) 0.035(2) 0.061(3) 0.004(2) -0.007(2) -0.014(2)
C27 0.033(2) 0.030(2) 0.027(2) 0.0006(17) -0.0056(17) -0.0074(17)
C26 0.044(3) 0.033(2) 0.044(3) -0.001(2) -0.006(2) 0.002(2)
C28 0.032(2) 0.041(2) 0.041(3) -0.002(2) -0.0098(19) -0.0078(19)
C29 0.035(2) 0.048(3) 0.046(3) -0.009(2) -0.001(2) -0.002(2)
C30 0.056(3) 0.048(3) 0.036(3) -0.011(2) 0.001(2) -0.007(2)
C31 0.050(3) 0.050(3) 0.039(3) -0.006(2) -0.012(2) -0.015(2)
C32 0.030(2) 0.038(2) 0.038(3) 0.000(2) -0.0075(19) -0.0092(18)
C33 0.042(2) 0.035(2) 0.049(3) 0.006(2) -0.014(2) -0.0071(19)
loop_
_atom_type_symbol
_atom_type_description
_atom_type_scat_dispersion_real
_atom_type_scat_dispersion_imag
_atom_type_scat_source
C C 0.0033 0.0016 'International Tables Vol C Tables 4.2.6.8 and 6.1.1.4'
H H 0.0000 0.0000 'International Tables Vol C Tables 4.2.6.8 and 6.1.1.4'
N N 0.0061 0.0033 'International Tables Vol C Tables 4.2.6.8 and 6.1.1.4'
O O 0.0106 0.0060 'International Tables Vol C Tables 4.2.6.8 and 6.1.1.4'
Cl Cl 0.1484 0.1585 'International Tables Vol C Tables 4.2.6.8 and 6.1.1.4'
loop_
_exptl_crystal_face_index_h
_exptl_crystal_face_index_k
_exptl_crystal_face_index_l
_exptl_crystal_face_perp_dist
0 1 0 0.1923
0 -1 0 0.2600
0 0 -1 0.0187
0 0 1 0.0200
-1 0 -2 0.0543
1 0 2 0.0346
loop_
_geom_angle_atom_site_label_1
_geom_angle_atom_site_label_2
_geom_angle_atom_site_label_3
_geom_angle
_geom_angle_site_symmetry_1
_geom_angle_site_symmetry_3
C13 N1 C2 116.3(3) . .
C33 N2 C22 116.3(3) . .
O2 C1 C6 122.8(4) . .
O2 C1 C2 121.5(4) . .
C6 C1 C2 115.1(3) . .
N1 C2 C7 110.3(3) . .
N1 C2 C1 106.0(3) . .
C7 C2 C1 114.0(3) . .
N1 C2 C3 108.4(3) . .
C7 C2 C3 113.6(3) . .
C1 C2 C3 104.1(3) . .
C4 C3 C2 111.8(3) . .
C5 C4 C3 112.1(4) . .
C4 C5 C6 112.9(4) . .
O1 C6 C1 113.0(4) . .
O1 C6 C5 112.9(4) . .
C1 C6 C5 106.9(4) . .
C8 C7 C12 115.8(4) . .
C8 C7 C2 120.8(4) . .
C12 C7 C2 123.4(4) . .
C9 C8 C7 122.2(4) . .
C10 C9 C8 120.3(5) . .
C9 C10 C11 119.6(5) . .
C10 C11 C12 119.8(5) . .
C11 C12 C7 122.2(4) . .
C11 C12 Cl1 116.2(4) . .
C7 C12 Cl1 121.6(3) . .
O4 C21 C26 123.8(4) . .
O4 C21 C22 121.0(4) . .
C26 C21 C22 114.5(3) . .
N2 C22 C27 109.8(3) . .
N2 C22 C23 108.5(3) . .
C27 C22 C23 114.0(3) . .
N2 C22 C21 105.5(3) . .
C27 C22 C21 115.1(3) . .
C23 C22 C21 103.3(3) . .
C24 C23 C22 111.8(3) . .
C25 C24 C23 110.9(4) . .
C26 C25 C24 112.3(4) . .
C32 C27 C28 115.2(4) . .
C32 C27 C22 125.1(3) . .
C28 C27 C22 119.6(4) . .
O3 C26 C25 113.9(4) . .
O3 C26 C21 111.6(4) . .
C25 C26 C21 107.2(4) . .
C29 C28 C27 122.1(4) . .
C28 C29 C30 120.3(4) . .
C29 C30 C31 119.6(4) . .
C32 C31 C30 119.5(4) . .
C31 C32 C27 123.3(4) . .
C31 C32 Cl3 116.1(3) . .
C27 C32 Cl3 120.5(3) . .
loop_
_geom_bond_atom_site_label_1
_geom_bond_atom_site_label_2
_geom_bond_distance
_geom_bond_site_symmetry_2
Cl1 C12 1.736(4) .
Cl3 C32 1.746(4) .
O1 C6 1.404(5) .
O2 C1 1.206(5) .
O3 C26 1.419(5) .
O4 C21 1.202(5) .
N1 C13 1.489(5) .
N1 C2 1.516(5) .
N2 C33 1.494(5) .
N2 C22 1.509(5) .
C1 C6 1.522(6) .
C1 C2 1.543(6) .
C2 C7 1.533(5) .
C2 C3 1.550(5) .
C3 C4 1.528(6) .
C4 C5 1.516(6) .
C5 C6 1.542(6) .
C7 C8 1.392(6) .
C7 C12 1.398(6) .
C8 C9 1.382(6) .
C9 C10 1.363(7) .
C10 C11 1.380(7) .
C11 C12 1.381(6) .
C21 C26 1.520(6) .
C21 C22 1.552(5) .
C22 C27 1.531(5) .
C22 C23 1.551(5) .
C23 C24 1.533(6) .
C24 C25 1.525(6) .
C25 C26 1.509(6) .
C27 C32 1.384(6) .
C27 C28 1.416(5) .
C28 C29 1.370(6) .
C29 C30 1.375(6) .
C30 C31 1.379(6) .
C31 C32 1.378(6) .
loop_
_geom_hbond_atom_site_label_D
_geom_hbond_atom_site_label_H
_geom_hbond_atom_site_label_A
_geom_hbond_distance_DH
_geom_hbond_distance_HA
_geom_hbond_distance_DA
_geom_hbond_angle_DHA
_geom_hbond_site_symmetry_A
_geom_hbond_publ_flag
O1 H1O Cl2 0.88(6) 2.34(6) 3.193(4) 163(5) 1_545 yes
O3 H3O Cl4 0.78(5) 2.45(5) 3.201(5) 162(5) 1_545 yes
N1 H11 Cl2 0.89 2.31 3.137(3) 153.9 . yes
N1 H12 Cl4 0.89 2.32 3.178(4) 162.7 1_545 yes
N2 H21 Cl4 0.89 2.34 3.151(3) 150.7 . yes
N2 H22 Cl2 0.89 2.27 3.110(4) 157.6 . yes
loop_
_geom_torsion_atom_site_label_1
_geom_torsion_atom_site_label_2
_geom_torsion_atom_site_label_3
_geom_torsion_atom_site_label_4
_geom_torsion
_geom_torsion_site_symmetry_1
_geom_torsion_site_symmetry_2
_geom_torsion_site_symmetry_3
_geom_torsion_site_symmetry_4
C13 N1 C2 C7 -60.4(4) . . . .
C13 N1 C2 C1 175.7(3) . . . .
C13 N1 C2 C3 64.5(4) . . . .
O2 C1 C2 N1 -5.8(5) . . . .
C6 C1 C2 N1 -176.9(3) . . . .
O2 C1 C2 C7 -127.3(4) . . . .
C6 C1 C2 C7 61.6(4) . . . .
O2 C1 C2 C3 108.4(4) . . . .
C6 C1 C2 C3 -62.7(4) . . . .
N1 C2 C3 C4 170.5(3) . . . .
C7 C2 C3 C4 -66.6(5) . . . .
C1 C2 C3 C4 58.0(4) . . . .
C2 C3 C4 C5 -56.7(5) . . . .
C3 C4 C5 C6 53.3(5) . . . .
O2 C1 C6 O1 14.2(6) . . . .
C2 C1 C6 O1 -174.8(3) . . . .
O2 C1 C6 C5 -110.6(5) . . . .
C2 C1 C6 C5 60.4(5) . . . .
C4 C5 C6 O1 -177.6(4) . . . .
C4 C5 C6 C1 -52.7(5) . . . .
N1 C2 C7 C8 101.2(4) . . . .
C1 C2 C7 C8 -139.7(4) . . . .
C3 C2 C7 C8 -20.6(5) . . . .
N1 C2 C7 C12 -78.9(5) . . . .
C1 C2 C7 C12 40.2(5) . . . .
C3 C2 C7 C12 159.3(4) . . . .
C12 C7 C8 C9 -0.9(6) . . . .
C2 C7 C8 C9 179.0(4) . . . .
C7 C8 C9 C10 1.5(7) . . . .
C8 C9 C10 C11 -1.1(8) . . . .
C9 C10 C11 C12 0.0(7) . . . .
C10 C11 C12 C7 0.6(7) . . . .
C10 C11 C12 Cl1 -179.7(4) . . . .
C8 C7 C12 C11 -0.2(6) . . . .
C2 C7 C12 C11 179.9(4) . . . .
C8 C7 C12 Cl1 -179.8(3) . . . .
C2 C7 C12 Cl1 0.3(6) . . . .
C33 N2 C22 C27 -62.1(4) . . . .
C33 N2 C22 C23 63.1(4) . . . .
C33 N2 C22 C21 173.3(3) . . . .
O4 C21 C22 N2 -5.8(5) . . . .
C26 C21 C22 N2 -176.5(3) . . . .
O4 C21 C22 C27 -127.0(4) . . . .
C26 C21 C22 C27 62.3(5) . . . .
O4 C21 C22 C23 108.1(4) . . . .
C26 C21 C22 C23 -62.7(4) . . . .
N2 C22 C23 C24 170.3(3) . . . .
C27 C22 C23 C24 -67.0(4) . . . .
C21 C22 C23 C24 58.6(4) . . . .
C22 C23 C24 C25 -58.1(5) . . . .
C23 C24 C25 C26 55.4(5) . . . .
N2 C22 C27 C32 -83.4(5) . . . .
C23 C22 C27 C32 154.6(4) . . . .
C21 C22 C27 C32 35.5(6) . . . .
N2 C22 C27 C28 93.9(4) . . . .
C23 C22 C27 C28 -28.1(5) . . . .
C21 C22 C27 C28 -147.2(4) . . . .
C24 C25 C26 O3 -179.2(4) . . . .
C24 C25 C26 C21 -55.3(5) . . . .
O4 C21 C26 O3 16.9(6) . . . .
C22 C21 C26 O3 -172.7(4) . . . .
O4 C21 C26 C25 -108.5(5) . . . .
C22 C21 C26 C25 62.0(5) . . . .
C32 C27 C28 C29 -0.7(6) . . . .
C22 C27 C28 C29 -178.2(4) . . . .
C27 C28 C29 C30 -0.4(7) . . . .
C28 C29 C30 C31 0.9(7) . . . .
C29 C30 C31 C32 -0.4(7) . . . .
C30 C31 C32 C27 -0.7(7) . . . .
C30 C31 C32 Cl3 178.4(4) . . . .
C28 C27 C32 C31 1.2(6) . . . .
C22 C27 C32 C31 178.5(4) . . . .
C28 C27 C32 Cl3 -177.9(3) . . . .
C22 C27 C32 Cl3 -0.5(6) . . . .
loop_
_exptl_oxdiff_crystal_face_indexfrac_h
_exptl_oxdiff_crystal_face_indexfrac_k
_exptl_oxdiff_crystal_face_indexfrac_l
_exptl_oxdiff_crystal_face_x
_exptl_oxdiff_crystal_face_y
_exptl_oxdiff_crystal_face_z
0.0005 1.0013 0.0005 -0.0241 0.0198 0.0899
-0.0005 -1.0013 -0.0005 0.0241 -0.0198 -0.0899
-0.0001 0.0001 -1.0007 -0.0431 0.0292 -0.0124
0.0001 -0.0001 1.0007 0.0431 -0.0292 0.0124
-1.0003 0.0011 -2.0018 -0.1322 -0.0292 0.0115
1.0003 -0.0011 2.0018 0.1322 0.0292 -0.0115
