#------------------------------------------------------------------------------
#$Date: 2022-02-22 12:50:10 +0200 (Tue, 22 Feb 2022) $
#$Revision: 273108 $
#$URL: file:///home/coder/svn-repositories/cod/cif/8/10/46/8104604.cif $
#------------------------------------------------------------------------------
#
# This file is available in the Crystallography Open Database (COD),
# http://www.crystallography.net/
#
# All data on this site have been placed in the public domain by the
# contributors.
#
data_8104604
loop_
_publ_author_name
'Ze-Hai, Qiu'
'Zhu-Sen, Zhang'
'Wu-Hua, Chen'
_publ_section_title
;
 The crystal structure of catena-poly[(1,10-phenanthroline-k2
 N,N&#x2032;)-(\m3-tetraoxidomoybdato(VI)-k3
 O:O&#x2032;:O&#x2033;)manganese(II)] C12H8N2O4MoMn
;
_journal_issue                   6
_journal_name_full
'Zeitschrift f\"ur Kristallographie - New Crystal Structures'
_journal_page_first              1347
_journal_page_last               1349
_journal_paper_doi               10.1515/ncrs-2021-0338
_journal_volume                  236
_journal_year                    2021
_chemical_formula_moiety         '0.5(C24 H16 Mn2 Mo2 N4 O8)'
_chemical_formula_sum            'C12 H8 Mn Mo N2 O4'
_chemical_formula_weight         395.08
_space_group_crystal_system      monoclinic
_space_group_IT_number           11
_space_group_name_Hall           '-P 2yb'
_space_group_name_H-M_alt        'P 1 21/m 1'
_atom_sites_solution_hydrogens   geom
_cell_angle_alpha                90
_cell_angle_beta                 100.120(6)
_cell_angle_gamma                90
_cell_formula_units_Z            2
_cell_length_a                   8.9812(5)
_cell_length_b                   6.5212(3)
_cell_length_c                   10.6167(6)
_cell_measurement_reflns_used    1469
_cell_measurement_temperature    293(2)
_cell_measurement_theta_max      28.6100
_cell_measurement_theta_min      2.3130
_cell_volume                     612.13(6)
_computing_cell_refinement
'CrysAlisPro 1.171.38.41k (Rigaku OD, 2015)[1]'
_computing_data_collection
'CrysAlisPro 1.171.38.41k (Rigaku OD, 2015)[1]'
_computing_data_reduction
'CrysAlisPro 1.171.38.41k (Rigaku OD, 2015)[1]'
_computing_molecular_graphics    'Olex2 (Dolomanov et al., 2009)[2]'
_computing_publication_material  'Olex2 (Dolomanov et al., 2009)[2]'
_computing_structure_refinement  'ShelXL (Sheldrick, 2015)[3]'
_computing_structure_solution    'ShelXT (Sheldrick, 2015)[4]'
_diffrn_ambient_temperature      293(2)
_diffrn_detector                 'CCD plate'
_diffrn_detector_area_resol_mean 8.1151
_diffrn_detector_type            EosS2
_diffrn_measured_fraction_theta_full 0.992
_diffrn_measured_fraction_theta_max 0.841
_diffrn_measurement_details
;
List of Runs (angles in degrees, time in seconds):

  # Type    Start    End  Width  t~exp~   \w     \q     \k     \f   Frames
--------------------------------------------------------------------------
  1  \w    -68.00 -35.00   1.00    1.21    --  -17.60-178.00-150.00   33
  2  \w    -46.00  48.00   1.00    1.21    --  -17.60  19.00  90.00   94
  3  \w    -73.00   1.00   1.00    1.21    --  -17.60 -38.00  60.00   74
;
_diffrn_measurement_device       'four-circle diffractometer'
_diffrn_measurement_device_type  'New Xcalibur, EosS2'
_diffrn_measurement_method       '\w scans'
_diffrn_orient_matrix_type
'CrysAlisPro convention (1999,Acta A55,543-557)'
_diffrn_orient_matrix_UB_11      0.0457737000
_diffrn_orient_matrix_UB_12      0.0131169000
_diffrn_orient_matrix_UB_13      -0.0475085000
_diffrn_orient_matrix_UB_21      0.0579133000
_diffrn_orient_matrix_UB_22      -0.0592966000
_diffrn_orient_matrix_UB_23      0.0371551000
_diffrn_orient_matrix_UB_31      -0.0313674000
_diffrn_orient_matrix_UB_32      -0.0901258000
_diffrn_orient_matrix_UB_33      -0.0312753000
_diffrn_radiation_monochromator  graphite
_diffrn_radiation_probe          x-ray
_diffrn_radiation_type           MoK\a
_diffrn_radiation_wavelength     0.71073
_diffrn_reflns_av_R_equivalents  0.0290
_diffrn_reflns_av_unetI/netI     0.0529
_diffrn_reflns_Laue_measured_fraction_full 0.992
_diffrn_reflns_Laue_measured_fraction_max 0.841
_diffrn_reflns_limit_h_max       12
_diffrn_reflns_limit_h_min       -8
_diffrn_reflns_limit_k_max       8
_diffrn_reflns_limit_k_min       -8
_diffrn_reflns_limit_l_max       6
_diffrn_reflns_limit_l_min       -14
_diffrn_reflns_number            2729
_diffrn_reflns_point_group_measured_fraction_full 0.992
_diffrn_reflns_point_group_measured_fraction_max 0.841
_diffrn_reflns_theta_full        26.000
_diffrn_reflns_theta_max         29.272
_diffrn_reflns_theta_min         1.949
_diffrn_source                   'fine-focus sealed X-ray tube'
_diffrn_source_type              'Enhance (Mo) X-ray Source'
_exptl_absorpt_coefficient_mu    2.069
_exptl_absorpt_correction_T_max  1.00000
_exptl_absorpt_correction_T_min  0.88163
_exptl_absorpt_correction_type   multi-scan
_exptl_absorpt_process_details
;
CrysAlisPro 1.171.38.41k (Rigaku Oxford Diffraction, 2015)
Empirical absorption correction using spherical harmonics,
 implemented in SCALE3 ABSPACK scaling algorithm.
;
_exptl_crystal_colour            'translucent dark yellow'
_exptl_crystal_density_diffrn    2.144
_exptl_crystal_description       cube
_exptl_crystal_F_000             386
_exptl_crystal_size_max          0.4
_exptl_crystal_size_mid          0.31
_exptl_crystal_size_min          0.22
_refine_diff_density_max         1.005
_refine_diff_density_min         -0.947
_refine_diff_density_rms         0.129
_refine_ls_extinction_coef       .
_refine_ls_extinction_method     none
_refine_ls_goodness_of_fit_ref   1.062
_refine_ls_hydrogen_treatment    constr
_refine_ls_matrix_type           full
_refine_ls_number_parameters     118
_refine_ls_number_reflns         1520
_refine_ls_number_restraints     18
_refine_ls_restrained_S_all      1.134
_refine_ls_R_factor_all          0.0454
_refine_ls_R_factor_gt           0.0391
_refine_ls_shift/su_max          0.000
_refine_ls_shift/su_mean         0.000
_refine_ls_structure_factor_coef Fsqd
_refine_ls_weighting_details
'w=1/[\s^2^(Fo^2^)+(0.0096P)^2^+1.7057P] where P=(Fo^2^+2Fc^2^)/3'
_refine_ls_weighting_scheme      calc
_refine_ls_wR_factor_gt          0.0747
_refine_ls_wR_factor_ref         0.0783
_reflns_Friedel_coverage         0.000
_reflns_Friedel_fraction_full    .
_reflns_Friedel_fraction_max     .
_reflns_number_gt                1342
_reflns_number_total             1520
_reflns_threshold_expression     'I > 2\s(I)'
_cod_data_source_file            suppl_j_ncrs-2021-0338_suppl.cif
_cod_data_source_block           lym0912-d1
_cod_database_code               8104604
_chemical_oxdiff_formula         'C H N O Mo W Mn Co P V'
_shelx_space_group_comment
;
The symmetry employed for this shelxl refinement is uniquely defined
by the following loop, which should always be used as a source of
symmetry information in preference to the above space-group names.
They are only intended as comments.
;
_reflns_odcompleteness_completeness 100.00
_reflns_odcompleteness_iscentric 1
_reflns_odcompleteness_theta     26.32
_olex2_refinement_description
;
1. Fixed Uiso
 At 1.2 times of:
  All C(H) groups
2. Uiso/Uaniso restraints and constraints
O1 \\sim Mn1 \\sim Mo1: within 3.8A with sigma of 0.002 and sigma for terminal
atoms of 0.004
3.a Aromatic/amide H refined with riding coordinates:
 C1(H1), C2(H2), C3(H3), C5(H5), C6(H6), C8(H8), C9(H9), C10(H10)
;
_shelx_res_file
;
    lym0912-d1.res created by SHELXL-2014/7

TITL lym0912-d1_a.res in P2(1)/m
REM Old TITL lym0912-D1 in P21/m #11
REM SHELXT solution in P2(1)/m
REM R1 0.083, Rweak 0.011, Alpha 0.040, Orientation as input
REM Formula found by SHELXT: H8 C12 N2 O4 Mn Mo
CELL 0.71073 8.9812 6.521225 10.616666 90 100.1205 90
ZERR 2 0.00054 0.000334 0.000642 0 0.0059 0
LATT 1
SYMM -X,0.5+Y,-Z
SFAC C H N O Mn Mo
UNIT 24 16 4 8 2 2
SIMU 0.002 0.004 3.8 O1 Mn1 Mo1

L.S. 20
PLAN  20
BOND $H
LIST 6
MORE -1
CONF
fmap 2
acta 52
OMIT 2 1 0
OMIT 2 0 4
OMIT 0 4 0
OMIT -1 2 3
OMIT -2 0 4
OMIT 3 1 4
OMIT 1 0 4
OMIT 4 0 9
OMIT -10 0 3
OMIT 5 2 0
REM <olex2.extras>
REM <HklSrc "%.\\lym0912-D1.hkl">
REM </olex2.extras>

WGHT    0.009600    1.705700
FVAR       0.42486
MN1   5    0.197658    0.750000    0.168738    10.50000    0.01743    0.01778 =
         0.02479    0.00000   -0.00375    0.00000
MO1   6   -0.004435    0.250000    0.179910    10.50000    0.01677    0.01667 =
         0.01736    0.00000    0.00107    0.00000
C1    1    0.466259    0.750000    0.006484    10.50000    0.03648    0.02877 =
         0.02338    0.00000   -0.00415    0.00000
AFIX  43
H1    2    0.389139    0.750000   -0.064551    10.50000   -1.20000
AFIX   0
C2    1    0.617022    0.750000   -0.012349    10.50000    0.04825    0.03554 =
         0.02796    0.00000    0.00834    0.00000
AFIX  43
H2    2    0.637664    0.750000   -0.095175    10.50000   -1.20000
AFIX   0
C3    1    0.733588    0.750000    0.088830    10.50000    0.03350    0.03792 =
         0.03784    0.00000    0.01301    0.00000
AFIX  43
H3    2    0.833393    0.750000    0.076009    10.50000   -1.20000
AFIX   0
C4    1    0.699225    0.750000    0.214202    10.50000    0.02071    0.02185 =
         0.03489    0.00000   -0.00196    0.00000
C5    1    0.811250    0.750000    0.328917    10.50000    0.01832    0.04678 =
         0.04163    0.00000   -0.00200    0.00000
AFIX  43
H5    2    0.912949    0.750000    0.321668    10.50000   -1.20000
AFIX   0
C6    1    0.775209    0.750000    0.444069    10.50000    0.01807    0.04180 =
         0.03421    0.00000   -0.01104    0.00000
AFIX  43
H6    2    0.851305    0.750000    0.515858    10.50000   -1.20000
AFIX   0
C7    1    0.617563    0.750000    0.459934    10.50000    0.02065    0.01682 =
         0.02976    0.00000    0.00150    0.00000
C8    1    0.572567    0.750000    0.580319    10.50000    0.02574    0.02296 =
         0.02310    0.00000   -0.00405    0.00000
AFIX  43
H8    2    0.644686    0.750000    0.654806    10.50000   -1.20000
AFIX   0
C9    1    0.423642    0.750000    0.586814    10.50000    0.04039    0.03171 =
         0.01900    0.00000    0.00685    0.00000
AFIX  43
H9    2    0.392158    0.750000    0.665717    10.50000   -1.20000
AFIX   0
C10   1    0.317198    0.750000    0.473116    10.50000    0.02947    0.02321 =
         0.02669    0.00000    0.00125    0.00000
AFIX  43
H10   2    0.215046    0.750000    0.478822    10.50000   -1.20000
AFIX   0
C11   1    0.504241    0.750000    0.351450    10.50000    0.02414    0.01351 =
         0.02173    0.00000    0.00086    0.00000
C12   1    0.544571    0.750000    0.225793    10.50000    0.01969    0.01514 =
         0.02602    0.00000    0.00477    0.00000
N1    3    0.430321    0.750000    0.122272    10.50000    0.02586    0.02021 =
         0.02113    0.00000    0.00279    0.00000
N2    3    0.354622    0.750000    0.358805    10.50000    0.01876    0.01780 =
         0.02609    0.00000    0.00154    0.00000
O1    4    0.109395    0.472778    0.209616    11.00000    0.03016    0.02384 =
         0.03325    0.00100   -0.00481   -0.00582
O2    4   -0.134408    0.250000    0.278752    10.50000    0.05988    0.05393 =
         0.07392    0.00000    0.04989    0.00000
O3    4   -0.101023    0.250000    0.021670    10.50000    0.05449    0.04773 =
         0.03200    0.00000   -0.02225    0.00000
HKLF 4

REM  lym0912-d1_a.res in P2(1)/m
REM R1 =  0.0391 for    1342 Fo > 4sig(Fo)  and  0.0454 for all    1520 data
REM    118 parameters refined using     18 restraints

END

WGHT      0.0093      1.7135

REM Highest difference peak  1.005,  deepest hole -0.947,  1-sigma level  0.129
Q1    1   0.9978  0.7500  0.5255  10.50000  0.05    1.01
Q2    1   0.9980  0.7500  0.1136  10.50000  0.05    0.92
Q3    1   0.9970  0.7500  0.4264  10.50000  0.05    0.67
Q4    1   0.6196  0.7500  0.2200  10.50000  0.05    0.64
Q5    1   1.0079  0.7500  0.2327  10.50000  0.05    0.62
Q6    1   0.8059  0.7500  0.1023  10.50000  0.05    0.58
Q7    1   0.1838  0.4326  0.2054  11.00000  0.05    0.57
Q8    1   0.8157  0.7500  0.7014  10.50000  0.05    0.55
Q9    1   0.0412  0.4982  0.2212  11.00000  0.05    0.54
Q10   1   0.1143  0.4620  0.1355  11.00000  0.05    0.49
Q11   1   0.1737  0.7500  0.5284  10.50000  0.05    0.48
Q12   1  -0.0170  0.2500  0.0739  10.50000  0.05    0.48
Q13   1   0.3096  0.7500  0.5773  10.50000  0.05    0.47
Q14   1   0.1829  0.7500  0.2399  10.50000  0.05    0.46
Q15   1  -0.1699  0.2500  0.0581  10.50000  0.05    0.44
Q16   1  -0.0875  0.2500  0.1009  10.50000  0.05    0.44
Q17   1   0.1559  0.7500  0.0799  10.50000  0.05    0.44
Q18   1  -0.2321  0.2500  0.3038  10.50000  0.05    0.42
Q19   1  -0.0795  0.0951  0.0461  11.00000  0.05    0.42
Q20   1  -0.1665  0.2500  0.1830  10.50000  0.05    0.42
;
_shelx_hkl_file
;
   0   0   1  423.16   10.34
   0   0   2  631.24   15.62
   0   0  -2  508.27   17.53
   0   0   3 1551.67   37.71
   0   0  -3 1723.10   43.15
   0   0  -4    2.90    1.43
   0   0   4    2.99    1.08
   0   0   5 1357.77   36.82
   0   0  -5 1448.04   40.97
   0   0  -6 1063.93   34.62
   0   0  -6 1024.25   26.78
   0   0  -7    1.86    1.00
   0   0  -7    1.77    1.46
   0   0  -8  360.63   19.83
   0   0  -8  373.84   13.87
   0   0  -9   75.13    5.82
   0   0  -9   68.57    8.77
   0   0 -10   17.80    2.94
   0   0 -10   17.85    4.68
   0   0 -11  208.55   17.18
   0   0 -12   86.45   11.55
   0   0 -13   18.69    5.92
   0   1   0    5.75    0.86
   0  -1   0    8.19    1.04
   0   1  -1   13.28    1.52
   0  -1  -1   16.00    1.20
   0   1   1   15.84    1.17
   0  -1  -1   17.88    1.26
   0   1   1   17.43    1.24
   0   1   2   56.58    3.09
   0   1   2   55.02    3.82
   0  -1  -2   50.25    2.93
   0   1  -2   53.77    3.55
   0  -1  -3  140.29    6.38
   0   1   3  139.19    6.26
   0   1   3  155.41    7.93
   0   1  -3  129.84    6.40
   0   1   4   78.16    6.33
   0  -1  -4   80.38    5.34
   0   1   4   68.02    4.84
   0   1  -4   68.98    4.82
   0  -1  -4   69.05    5.66
   0   1  -5   15.76    2.45
   0  -1  -5   10.72    2.39
   0   1   5   15.46    2.55
   0   1  -6  139.82    8.03
   0  -1  -6  135.01    9.78
   0   1  -7   48.05    4.82
   0  -1  -7   49.50    3.38
   0  -1  -8  127.15   10.99
   0   1  -8  163.52    9.59
   0  -1  -8  152.46    6.69
   0   1  -8  155.85   15.57
   0   1  -9  176.52   16.02
   0  -1  -9  178.24    7.68
   0   1  -9  176.68   10.63
   0  -1  -9  159.87   13.29
   0  -1 -10   17.62    4.58
   0   1 -10   31.24    4.53
   0   1 -10   38.99    7.70
   0   1 -11    6.43    2.19
   0   1 -11    6.28    3.33
   0  -1 -11   11.30    3.99
   0  -1 -12   47.92    8.59
   0   1 -12   66.60   10.48
   0   1 -13   39.82    8.57
   0  -1 -13   25.47    6.62
   0   2   0 9999.00  204.67
   0  -2  -1  166.66    6.61
   0   2   1  162.90    6.56
   0  -2  -1  167.49    5.76
   0   2  -1  172.63    7.79
   0   2   2   43.04    2.76
   0  -2  -2   44.70    2.78
   0   2  -2   34.93    3.50
   0  -2  -2   42.86    2.84
   0   2   2   45.85    2.85
   0   2   3  601.96   16.71
   0  -2  -3  598.69   14.82
   0  -2  -3  609.76   16.87
   0   2  -3  590.08   19.23
   0   2   3  623.47   14.98
   0   2   4  102.31    5.91
   0   2  -4  103.01    6.92
   0  -2  -4  105.36    6.10
   0  -2  -4  102.29    3.71
   0  -2  -5  475.13   16.24
   0   2   5  469.51   16.05
   0   2  -5  489.30   17.52
   0   2  -6  847.54   27.13
   0   2  -7   62.35    6.23
   0   2  -8  233.66   13.21
   0   2  -9  125.13    9.81
   0   2 -10    7.87    2.77
   0   2 -10    0.94    2.87
   0   2 -11  253.29   15.37
   0   2 -11  274.12   24.52
   0   2 -12  148.43   17.08
   0   3   0   -0.23    0.52
   0  -3  -1   29.78    3.17
   0   3   1   34.19    3.39
   0   3  -1   29.12    3.59
   0  -3  -1   26.27    2.34
   0  -3  -2   12.58    1.91
   0   3   2   10.88    1.76
   0  -3  -2   12.24    1.64
   0   3  -2    8.10    1.96
   0   3  -3   30.95    4.73
   0  -3  -3   29.61    2.82
   0   3   3   31.18    3.05
   0  -3  -3   22.26    2.42
   0   3   3   38.86    3.26
   0   3   4   16.34    2.28
   0   3   4   19.69    2.06
   0  -3  -4   22.11    2.11
   0  -3  -4   18.98    2.53
   0   3  -4   22.09    3.54
   0   3  -5    3.58    1.73
   0   3   5    2.05    0.96
   0  -3  -5    1.10    0.85
   0  -3  -6   51.68    5.12
   0   3  -6   53.68    6.17
   0   3  -7   60.13    6.76
   0   3  -8  153.92   11.52
   0   3  -9  123.67   10.63
   0   3 -10   32.32    5.49
   0   3 -11    0.45    1.40
   0   3 -12   53.98    7.77
   0   3 -12   50.11   12.33
   0   4   0 4938.56  109.95
   0  -4   0 4961.29  105.37
   0   4  -1  153.46    9.70
   0   4   1  158.97    9.09
   0  -4  -1  158.94    7.22
   0  -4  -2  246.40    9.53
   0   4  -2  264.56   13.60
   0   4   2  254.93   11.36
   0   4   3  715.51   21.56
   0  -4  -3  695.92   20.18
   0   4  -3  766.45   26.47
   0   4   4   14.04    2.19
   0   4  -4   14.64    3.48
   0  -4  -4   12.82    2.17
   0   4   4   16.04    2.34
   0   4  -5  532.50   22.97
   0  -4  -5  554.83   18.48
   0   4   5  549.98   18.11
   0   4  -6  488.14   22.32
   0  -4  -6  477.86   17.94
   0  -4  -7    1.79    1.27
   0   4  -7    0.17    0.84
   0   4  -8  188.39   13.96
   0   4  -9   49.66    7.27
   0   4 -10    8.76    3.34
   0   4 -11  141.63   13.18
   0   4 -12   55.66    8.43
   0   5   0    1.38    1.20
   0  -5   0   -0.23    0.58
   0  -5  -1   14.90    2.28
   0   5  -1   13.63    3.10
   0   5   1   14.44    3.04
   0  -5  -2   32.06    3.32
   0   5   2   36.25    4.46
   0   5  -2   37.12    5.25
   0  -5  -3   48.17    4.31
   0   5  -3   45.11    6.09
   0   5   3   46.34    5.09
   0   5   4   72.27    5.84
   0  -5  -4   55.55    4.69
   0   5  -4   72.60    8.22
   0   5  -5    2.44    2.18
   0   5   5    1.61    0.91
   0  -5  -5    0.79    0.72
   0  -5  -6   69.54    5.98
   0   5  -6   68.27    8.34
   0   5  -7   53.88    7.75
   0  -5  -7   50.50    5.72
   0   5  -8   46.45    7.35
   0   5  -9   87.98   10.52
   0   5 -10   15.46    4.58
   0   5 -11    4.17    2.51
   0  -6   0 1399.78   37.16
   0   6   0 1392.40   43.60
   0  -6  -1   67.14    5.43
   0   6  -1   57.72    7.27
   0  -6   1   45.48    4.95
   0   6   1   56.89    6.71
   0  -6  -2   76.47    5.58
   0   6  -2   72.48    8.35
   0   6   2   67.37    7.03
   0   6   3  292.53   14.89
   0   6  -3  296.43   18.11
   0   6  -4   28.18    5.59
   0   6   4   33.43    4.51
   0   6  -5  194.55   15.10
   0   6  -6  262.27   18.20
   0   6  -7   10.93    3.85
   0   6  -8  123.88   13.16
   0   6  -9   29.53    6.67
   0   7   0    0.75    1.53
   0   7  -1    1.46    1.91
   0   7   1    1.11    1.47
   0   7   2    9.28    3.03
   0   7  -2    9.85    3.46
   0   7   3    6.68    2.63
   0   7  -3   -0.67    1.29
   0   7  -4   11.04    3.81
   0   7  -5    2.68    2.04
   0   7  -6    7.78    3.83
   0   8   0  560.46   27.97
   0   8  -1   28.15    6.13
   0   8   1   32.43    6.21
   0   8  -2   58.79    8.96
   0   8  -3  163.70   15.44
   1   0 -13   -0.23    2.63
   1   0 -12   32.19    6.78
   1   0 -11   81.67   10.39
   1   0 -10    4.12    1.64
   1   0 -10    0.82    1.33
   1   0  -9  208.75   15.15
   1   0  -8  250.86   15.72
   1   0  -7   33.62    5.21
   1   0  -6  755.33   27.14
   1   0  -5    3.80    1.75
  -1   0   5    2.41    1.07
   1   0  -5    6.92    2.23
   1   0  -4  242.79   11.81
  -1   0   4  242.76   10.37
   1   0  -4  238.19   10.41
   1   0  -3 1497.79   38.04
   1   0  -3 1466.57   35.52
  -1   0   3 1500.57   35.55
  -1   0   2  446.14   12.37
   1   0  -2  440.23   12.38
   1   0  -1 1269.21   27.95
  -1   0   1 1271.75   27.91
   1   0   0  432.80   10.35
  -1   0  -1  234.08    6.62
   1   0   1  253.11    6.73
   1   0   2 2872.59   58.85
  -1   0  -2 2725.57   65.13
  -1   0  -2 2815.58   58.92
  -1   0  -3 1084.57   31.37
  -1   0  -3 1050.75   24.42
   1   0   3 1059.76   24.33
  -1   0  -4  457.75   13.00
  -1   0  -4  469.25   19.28
  -1   0  -5 1349.64   40.19
  -1   0  -5 1293.12   31.01
  -1   0  -6  331.31   17.40
  -1   0  -6  312.43   11.07
  -1   0  -7   97.63    5.85
  -1   0  -7   90.95    9.29
  -1   0  -8  678.17   20.58
  -1   0  -8  706.68   30.01
  -1   0  -9  310.38   19.85
  -1   0  -9  309.56   12.65
  -1   0 -10  107.68   11.93
  -1   0 -11  167.58   15.95
  -1   0 -12   22.57    6.17
   1   1 -13   22.52    6.49
   1   1 -12  173.33   16.57
   1  -1 -12  167.63   15.64
   1   1 -11   35.62    7.20
   1  -1 -11   30.46    6.32
   1   1 -11   37.77    5.25
   1  -1 -10  187.24   14.91
   1   1 -10  230.21   17.86
   1   1 -10  206.82   12.31
   1   1  -9  220.30   12.32
   1  -1  -9  195.14   14.41
   1   1  -8    2.99    1.97
   1  -1  -8    6.76    2.34
   1  -1  -7  472.86   20.61
   1  -1  -6  623.85   21.58
   1  -1  -6  576.03   22.02
   1  -1  -5   23.31    3.24
   1  -1  -5   17.51    2.92
  -1   1   5   21.04    3.93
  -1   1   5   17.82    2.81
   1  -1  -4  569.99   18.08
  -1   1   4  620.21   19.82
  -1   1   4  596.25   18.28
  -1  -1   4  571.83   18.77
   1  -1  -4  561.50   18.53
  -1   1   3  510.12   15.31
  -1   1   3  517.07   15.86
  -1  -1   3  484.30   15.52
   1  -1  -3  497.14   15.20
   1  -1  -2  221.84    7.35
   1  -1  -2  226.20    8.02
  -1   1   2  225.98    8.00
  -1  -1   2  220.79    8.05
  -1  -1   1 2025.90   43.07
  -1   1   1 2057.70   43.83
   1  -1  -1 1994.45   43.83
   1  -1  -1 2003.80   43.88
  -1   1   1 2052.92   43.95
   1  -1   0  172.04    6.44
  -1   1   0  184.81    6.62
   1  -1   1  804.27   19.96
  -1   1  -1  769.14   19.87
  -1   1  -2  961.48   24.19
   1   1   2 1004.27   25.48
   1   1   2  932.84   22.17
   1  -1   2  965.81   24.16
  -1  -1  -3    1.83    0.99
   1   1   3    2.68    1.15
  -1   1  -3    1.93    0.72
   1  -1   3    0.72    0.63
   1   1   3    1.01    0.60
  -1  -1  -4   95.47    7.11
  -1   1  -4   86.59    5.56
   1   1   4   92.83    5.73
  -1  -1  -5  204.89   11.79
  -1  -1  -5  205.19    5.69
   1   1   5  211.56   10.18
  -1   1  -5  224.48    9.89
  -1  -1  -6   12.17    2.94
  -1  -1  -6   15.40    1.34
  -1   1  -6   16.81    2.67
  -1   1  -7  109.18    7.37
  -1  -1  -7  100.81    4.31
  -1  -1  -8    0.53    0.39
  -1   1  -8    0.75    0.89
  -1  -1  -8    2.34    1.74
  -1   1  -9   58.02    5.84
  -1  -1  -9   54.75    7.85
  -1   1 -10   63.17    6.35
  -1  -1 -10   60.34    8.78
  -1   1 -10   64.54    9.91
  -1  -1 -11    4.20    2.73
  -1   1 -11    4.02    3.23
  -1   1 -12   21.40    6.23
  -1  -1 -12   24.26    6.36
   1   2 -13    3.60    3.32
   1   2 -12   65.82   11.43
   1   2 -12   72.05    8.36
   1   2 -11   92.93   13.71
   1   2 -11   87.02    8.85
   1   2 -10   24.29    7.18
   1   2 -10   28.89    4.95
   1   2  -9  222.49   13.46
   1  -2  -8   80.53    4.73
   1   2  -8   99.97    8.41
   1  -2  -8   82.93    7.88
   1   2  -7  114.63    8.55
   1  -2  -7  102.43    8.17
   1  -2  -6  363.50   11.44
   1  -2  -6  375.30   15.76
  -1   2   5   57.68    5.08
   1  -2  -5   58.91    3.71
   1  -2  -5   61.83    5.31
  -1  -2   4  144.79    8.40
   1  -2  -4  151.26    7.88
  -1   2   4  151.37    8.91
   1  -2  -4  136.27    6.11
  -1   2   4  160.67    7.97
   1  -2  -3  276.61   10.39
   1  -2  -3  264.73    9.29
  -1   2   3  269.66   10.21
  -1   2   2   93.34    5.00
   1  -2  -2   92.07    5.08
  -1   2   2  103.66    5.23
   1  -2  -2  100.36    5.13
   1  -2  -1  207.73    7.83
   1  -2  -1  221.87    8.51
  -1   2   1  202.20    8.27
  -1   2   0   12.33    1.93
   1  -2   0   10.38    1.70
   1   2   1  364.65   11.09
  -1   2  -1  388.72   13.39
   1  -2   1  378.59   13.16
  -1  -2  -2  723.65   16.90
   1  -2   2  713.98   21.28
  -1   2  -2  725.61   21.53
   1   2   2  739.57   16.82
   1   2   2  712.92   17.37
  -1   2  -3  710.91   22.06
   1   2   3  764.50   18.71
   1   2   3  715.37   16.16
   1  -2   3  744.46   22.26
   1   2   4   17.87    2.28
  -1   2  -4   16.76    2.75
   1   2   5  672.27   20.53
  -1   2  -5  668.46   22.49
  -1   2  -6  471.12   18.46
  -1   2  -7    6.56    2.68
  -1   2  -8  645.02   24.09
  -1   2  -9  394.27   18.39
  -1   2 -10   80.29    8.05
  -1   2 -10   61.14   12.00
  -1   2 -11  337.02   27.07
  -1   2 -11  284.19   16.49
  -1   2 -12   51.53   10.01
   1   3 -12  104.98   16.96
   1   3 -12  113.63   11.43
   1   3 -11    8.65    3.21
   1   3 -10  126.45   11.24
   1   3  -9  118.63   10.44
   1  -3  -8    2.64    1.78
   1   3  -8    2.77    1.65
   1  -3  -7  290.98   14.77
   1   3  -7  318.11   16.55
   1  -3  -7  305.55    9.95
   1  -3  -6  339.21   14.99
   1   3  -6  348.53   16.83
   1  -3  -6  336.76   11.11
   1  -3  -5    9.68    1.60
   1  -3  -5    7.26    1.85
   1   3  -5    7.11    2.27
  -1   3   4  270.28   11.27
   1   3  -4  279.97   13.64
   1  -3  -4  263.02   10.10
   1  -3  -4  260.98   11.36
   1  -3  -3  281.16   11.11
  -1   3   3  282.52   10.92
  -1   3   3  289.07   10.98
   1  -3  -3  272.63   10.62
   1   3  -3  282.24   13.25
  -1   3   2   34.59    3.47
   1  -3  -2   38.13    3.41
   1   3  -2   34.35    4.06
   1  -3  -2   35.00    3.46
   1  -3  -1  926.22   25.38
  -1   3   1  881.10   25.10
   1   3  -1  852.50   25.53
   1  -3  -1  868.91   23.43
   1   3   0  236.21   10.25
   1  -3   0  237.53   10.78
  -1   3   0  240.11   10.89
   1   3   1  220.86    9.14
  -1  -3  -1  203.81    6.19
  -1   3  -1  219.32   10.64
   1   3   2  561.66   16.36
  -1  -3  -2  558.27   13.89
  -1   3  -2  596.30   20.27
  -1   3  -3   33.88    4.38
   1   3   3   34.12    2.56
   1   3   3   29.72    2.57
  -1  -3  -3   30.65    2.46
   1   3   4   51.48    3.73
  -1   3  -4   52.75    5.65
   1   3   4   50.12    2.72
   1   3   5  230.13    9.90
  -1   3  -5  218.37   12.60
   1   3   6   21.29    3.08
  -1   3  -6   23.43    4.03
  -1   3  -7  110.20    9.29
  -1   3  -8   -1.16    1.14
  -1   3  -9   42.57    6.22
  -1   3 -10   68.32    8.08
  -1   3 -11    0.78    1.50
   1   4 -12   18.89    5.19
   1   4 -11   56.40    8.49
   1   4 -10    7.06    3.03
   1   4  -9  114.61   11.22
   1  -4  -9  115.02    9.98
   1  -4  -8  126.18    9.80
   1   4  -8  108.18   10.47
   1  -4  -7   18.44    3.93
   1   4  -7   25.19    4.82
   1  -4  -6  333.33   14.99
   1   4  -6  351.16   18.14
   1  -4  -6  320.78   11.87
   1  -4  -5    7.33    1.67
   1   4  -5    8.47    2.60
   1  -4  -5    7.43    1.97
  -1   4   4   95.90    6.52
   1   4  -4  110.94    9.07
   1  -4  -4  103.47    6.92
   1  -4  -4  101.59    6.61
  -1   4   4  110.82    6.85
   1  -4  -3  512.14   17.75
   1   4  -3  550.71   21.40
  -1   4   3  543.68   18.56
   1  -4  -3  515.65   18.16
   1  -4  -2  103.99    6.45
   1   4  -2  111.52    8.32
  -1   4   2  102.43    7.19
  -1   4   1  427.17   16.90
   1  -4  -1  417.47   14.90
   1   4  -1  449.05   17.68
  -1  -4   0  229.46    8.32
   1  -4   0  235.40   10.62
  -1   4   0  226.20   12.03
   1   4   0  248.26   11.95
  -1   4  -1   43.60    5.07
   1   4   1   42.95    4.43
  -1  -4  -1   43.86    2.83
  -1   4  -2  826.07   27.72
  -1  -4  -2  790.46   19.42
   1   4   2  812.80   23.58
  -1   4  -3  493.65   20.62
  -1  -4  -3  497.95   13.79
   1   4   3  474.61   15.74
   1   4   4   73.01    4.35
  -1  -4  -4   72.21    4.53
  -1   4  -4   74.85    7.52
   1   4   4   75.17    4.63
  -1   4  -5  551.73   23.11
   1   4   5  512.93   16.22
   1   4   5  515.11   13.82
   1   4   6  173.86    8.96
  -1   4  -6  174.21   12.53
  -1   4  -7   34.20    5.64
  -1   4  -8  405.01   21.40
  -1   4  -9  179.63   14.14
  -1   4 -10   63.68    8.56
  -1   4 -11  142.75   13.43
  -1   4 -12   19.71    5.22
   1   5 -11   20.90    5.42
   1   5 -10  108.01   11.96
   1   5  -9  118.47   12.35
   1  -5  -8    5.98    1.99
   1   5  -8    2.86    1.66
   1  -5  -7  236.99   13.22
   1   5  -7  230.51   16.47
   1  -5  -6  251.69   13.06
   1   5  -6  255.69   16.76
  -1   5   5   13.73    2.57
   1   5  -5   16.54    3.95
   1  -5  -5   18.39    3.10
  -1   5   4  274.21   13.00
   1   5  -4  286.71   16.76
   1  -5  -4  270.08   12.58
   1   5  -3  160.64   11.74
   1  -5  -3  142.81    8.47
  -1   5   3  140.48    9.34
   1  -5  -2   79.08    6.05
  -1   5   2   91.12    7.56
   1   5  -2   85.14    8.23
   1  -5  -1  481.49   17.38
   1   5  -1  501.47   20.94
  -1   5   1  481.90   20.07
   1   5   0   45.73    5.49
  -1   5   0   39.90    5.35
   1  -5   0   38.21    4.26
  -1  -5   0   43.86    3.59
  -1  -5  -1  209.55    7.98
   1   5   1  202.18   11.46
  -1   5  -1  209.04   13.08
  -1  -5  -2  222.27    7.95
  -1   5  -2  226.42   14.01
   1   5   2  207.23   11.25
   1   5   3   -0.24    0.81
  -1   5  -3    1.97    2.22
  -1  -5  -3    0.51    0.49
   1   5   4   45.75    4.53
  -1  -5  -4   46.11    3.46
  -1   5  -4   38.62    6.21
   1   5   5   77.40    5.06
  -1   5  -5   66.70    8.15
  -1   5  -6    3.25    1.86
  -1   5  -7   70.01    8.90
  -1   5  -8   -0.78    2.26
  -1   5  -9   18.20    4.78
  -1   5 -10   25.83    5.98
   1   6  -9   87.38   11.22
   1   6  -8   47.50    8.05
   1   6  -7   18.27    5.14
   1   6  -6  143.31   13.18
   1   6  -5    1.95    2.02
  -1   6   5    0.02    0.66
  -1   6   4   52.89    5.94
   1  -6  -4   46.38    5.06
   1   6  -4   45.25    6.97
   1  -6  -3  162.78    9.80
  -1   6   3  166.63   11.49
   1   6  -3  173.51   13.35
  -1   6   2   29.53    4.75
   1   6  -2   20.36    4.44
   1  -6  -2   26.80    3.71
  -1   6   1  118.21   10.04
  -1  -6   1  131.36    7.66
   1   6  -1  115.44   10.25
   1  -6  -1  127.36    8.48
   1  -6   0   64.13    6.05
  -1   6   0   51.72    6.75
   1   6   0   64.44    7.22
  -1  -6   0   58.11    4.50
  -1   6  -1   22.98    4.72
   1  -6   1   27.67    4.15
   1   6   1   25.19    4.31
  -1   6  -2  222.33   15.24
   1   6   2  223.37   12.97
  -1   6  -3  213.19   15.40
   1   6   3  233.82   12.71
   1   6   4    3.62    1.65
  -1   6  -4    1.46    1.81
  -1   6  -5  183.40   14.89
  -1   6  -6  135.76   13.07
  -1   6  -7   11.97    4.20
  -1   6  -8  216.66   17.64
   1   7  -6   87.20   11.09
   1   7  -5    3.84    2.37
   1   7  -4  100.18   11.24
   1   7  -3   64.38    8.62
  -1   7   3   48.13    6.52
  -1   7   2    7.88    2.75
   1   7  -2   11.78    3.63
   1   7  -1  152.66   12.92
  -1   7   1  152.37   12.51
   1   7   0   52.69    7.23
  -1   7   0   46.09    6.98
   1   7   1   43.95    6.40
  -1   7  -1   40.05    6.72
   1  -7   1   50.74    5.94
   1  -7   2  119.53    9.71
  -1   7  -2   98.50   10.98
   1   7   2  108.38    9.66
  -1   7  -3    7.72    3.08
  -1   7  -4   23.54    5.62
  -1   7  -5   79.35   10.45
  -1   7  -6   -0.71    1.87
   1   8  -3  106.51   12.27
   1   8  -2   20.65    5.31
  -1   8   2   17.11    4.47
   1   8  -1   74.24    9.65
  -1   8   1   66.27    8.87
  -1   8   0   41.28    7.37
   1   8   0   39.17    6.82
  -1   8  -1   19.49    5.11
   1   8   1    6.21    3.07
  -1   8  -2  136.40   13.83
  -1   8  -3  114.48   13.05
   2   0 -13   37.54    7.74
   2   0 -12   -0.03    1.89
   2   0 -11   23.86    5.39
   2   0 -10   17.30    4.21
   2   0  -9   82.29    9.04
   2   0  -8   83.69    8.48
   2   0  -7    4.54    2.01
   2   0  -7    6.15    2.15
   2   0  -6  294.93   14.42
   2   0  -6  288.27   13.92
   2   0  -5  417.69   16.17
   2   0  -5  392.86   15.95
   2   0  -4  668.98   20.54
  -2   0   4  651.07   20.27
   2   0  -4  646.77   20.29
   2   0  -3  348.17   12.56
  -2   0   3  367.17   12.75
   2   0  -3  383.71   12.37
   2   0  -2   38.89    2.28
  -2   0   2   34.68    2.93
   2   0  -2   34.74    2.94
   2   0  -1  456.06   12.72
  -2   0   1  453.63   12.69
   2   0   0  408.76   11.31
  -2   0   0  400.85   10.23
   2   0   1   15.99    1.78
  -2   0  -1   14.96    2.02
  -2   0  -2  750.09   23.10
   2   0   2  786.99   19.36
  -2   0  -2  751.77   19.37
   2   0   3   24.20    2.31
  -2   0  -3   26.26    2.42
  -2   0  -4  592.82   22.42
   2   0   4  569.28   15.99
  -2   0  -4  573.63   16.18
  -2   0  -5  444.32   13.92
  -2   0  -5  447.59   20.17
   2   0   5  452.34   13.83
  -2   0  -6   14.04    2.09
  -2   0  -6   12.50    3.37
  -2   0  -7   22.90    2.87
  -2   0  -7   24.45    4.97
  -2   0  -8   24.62    5.23
  -2   0  -8   27.41    3.18
  -2   0  -9    4.75    1.40
  -2   0  -9    4.41    3.16
  -2   0 -10   97.04   11.58
  -2   0 -11   96.13   12.04
  -2   0 -12   35.26    7.78
   2   1 -13  174.57   17.06
   2   1 -12  115.21   10.07
   2   1 -12  121.71   13.52
   2  -1 -11    2.38    1.54
   2   1 -11    1.13    1.24
   2   1 -11    1.61    1.71
   2   1 -10  310.48   20.61
   2  -1 -10  284.57   18.00
   2  -1  -9  307.44   18.05
   2   1  -9  394.42   22.95
   2  -1  -8   41.37    5.71
   2  -1  -8   42.61    5.78
   2   1  -8   49.13    8.08
   2  -1  -7 1039.28   33.89
   2  -1  -7 1171.42   35.05
   2  -1  -6  200.09   11.13
   2  -1  -6  207.44   11.56
   2   1  -5   29.49    4.01
  -2   1   5   37.91    4.92
   2  -1  -5   34.37    4.05
  -2  -1   4  744.31   22.55
   2  -1  -4  762.61   22.71
  -2   1   4  772.94   22.61
  -2   1   4  753.80   22.61
   2   1  -4  750.79   22.80
  -2   1   3   34.05    2.99
  -2   1   3   38.51    3.55
  -2  -1   3   37.05    3.43
   2  -1  -3   35.30    3.50
   2   1  -3   27.20    3.04
  -2  -1   2  542.56   15.33
  -2   1   2  540.10   15.99
   2   1  -2  537.07   15.37
   2  -1  -2  551.72   16.18
   2  -1  -1 2975.63   65.55
  -2   1   1 3070.52   65.21
  -2  -1   1 3035.77   63.31
   2   1  -1 2982.62   63.44
   2  -1  -1 2997.29   65.33
   2  -1   0  292.87   10.06
   2   1   0  294.20    7.94
  -2  -1   0  296.48    7.85
   2  -1   0  301.76   10.45
  -2   1   0  304.53   10.55
   2   1   1  711.24   18.80
   2  -1   1  652.63   18.76
  -2   1  -1  672.36   18.98
   2   1   2  977.16   26.36
  -2   1  -2  922.21   25.13
   2  -1   2  986.70   25.26
  -2  -1  -3   84.98    6.24
   2   1   3   79.72    3.39
   2   1   3   93.55    6.88
   2  -1   3   87.25    5.40
  -2   1  -3   80.18    5.34
  -2   1  -4 1984.70   45.96
   2  -1   4 1945.61   45.52
   2   1   4 1855.81   40.06
  -2  -1  -4 1897.67   49.21
   2  -1   5  570.43   18.50
  -2  -1  -5  537.61   21.71
  -2   1  -5  592.87   18.98
  -2  -1  -6    3.56    1.90
  -2   1  -6    4.00    1.36
  -2   1  -7  397.91   15.73
  -2  -1  -7  350.46   19.12
  -2   1  -7  404.60   25.75
  -2   1  -8  222.20   11.66
  -2  -1  -8  207.72   15.16
  -2   1  -9   75.94   10.73
  -2   1  -9   66.13    6.23
  -2  -1  -9   59.44    8.38
  -2  -1 -10  241.12   18.47
  -2   1 -10  253.27   20.35
  -2   1 -10  265.68   13.72
  -2   1 -11   65.85   10.47
  -2  -1 -11   52.41    8.88
  -2  -1 -12   25.96    6.42
  -2   1 -12   22.09    6.35
   2   2 -13   32.50    8.18
   2   2 -12    0.52    1.27
   2   2 -12    3.28    3.05
   2   2 -11    4.26    2.63
   2   2 -11    8.77    3.02
   2   2 -10    4.38    2.14
   2  -2  -9   33.14    5.38
   2  -2  -8   19.47    3.86
   2  -2  -7    2.15    1.13
   2  -2  -7    5.81    2.22
   2  -2  -6   45.21    4.05
   2  -2  -6   52.97    5.51
   2  -2  -5  139.17    8.66
   2  -2  -5  134.25    7.16
  -2   2   4  131.03    7.82
  -2   2   4  119.00    7.29
   2  -2  -4  118.26    6.53
   2  -2  -4  123.37    7.55
  -2  -2   4  122.12    7.55
   2  -2  -3   38.18    3.67
  -2   2   3   49.77    4.34
   2  -2  -3   41.26    4.14
   2  -2  -2    1.61    0.92
   2  -2  -2    1.15    0.78
  -2   2   2    1.18    0.78
  -2  -2   2    2.28    0.76
  -2   2   2    1.09    0.57
   2  -2  -1    2.54    0.98
  -2   2   1    1.33    0.97
  -2  -2   1    1.51    0.58
   2  -2  -1    0.33    0.52
  -2   2   0  180.83    8.72
   2  -2   0  181.68    8.64
  -2   2  -1  338.25   13.02
   2  -2   1  326.55   12.75
  -2   2  -2  175.72    9.00
   2   2   2  152.88    4.88
   2  -2   2  162.85    8.57
   2   2   3   31.76    2.49
  -2   2  -3   28.49    3.61
   2   2   4   67.51    4.50
  -2   2  -4   59.16    5.46
  -2   2  -5  385.62   16.10
   2   2   5  382.22   14.14
  -2   2  -6  132.50    9.09
  -2   2  -7    7.45    2.73
  -2   2  -8   93.68    8.23
  -2   2  -9    3.44    1.86
  -2   2 -10  123.89   10.18
  -2   2 -10  140.81   17.82
  -2   2 -11  166.41   18.56
  -2   2 -12   33.32    8.12
   2   3 -13  144.46   13.51
   2   3 -12   95.05   15.77
   2   3 -12   81.76    9.71
   2   3 -11    1.98    1.60
   2   3 -10  204.17   14.69
   2  -3 -10  215.77   15.03
   2  -3  -9  201.20   13.90
   2   3  -9  244.63   15.56
   2  -3  -8   19.44    3.97
   2  -3  -7  596.03   19.09
   2  -3  -7  669.12   24.37
   2  -3  -6  131.06    7.38
   2  -3  -6  122.43    8.84
   2  -3  -5   16.25    2.49
   2  -3  -5   14.37    2.75
   2  -3  -4  477.24   17.43
   2  -3  -4  464.23   16.20
  -2   3   3   96.50    6.40
   2  -3  -3   93.87    6.47
  -2  -3   3   91.14    6.06
   2  -3  -3   92.75    6.28
  -2   3   3   95.63    6.41
  -2   3   2  229.07   10.68
   2  -3  -2  221.23   10.10
   2  -3  -2  216.64   10.40
  -2  -3   2  223.67    9.00
   2  -3  -1 1625.94   41.79
   2  -3  -1 1671.30   40.81
  -2  -3   1 1637.53   36.71
  -2   3   1 1627.63   42.05
   2  -3   0  283.43   11.80
  -2   3   0  279.27   12.61
  -2  -3   0  279.38    7.06
  -2   3  -1  384.79   15.69
   2   3   2  832.22   22.25
  -2   3  -2  842.16   26.78
   2   3   3   84.21    3.47
   2   3   3   89.42    4.52
  -2   3  -3   88.31    7.28
   2   3   4 1208.91   28.91
   2   3   4 1210.42   26.74
  -2   3  -4 1275.22   37.09
   2   3   5  486.89   15.66
  -2   3  -5  479.79   20.34
  -2   3  -6    3.16    1.65
   2   3   6    2.52    1.22
  -2   3  -7  404.09   19.46
  -2   3  -8  212.22   14.04
  -2   3  -9   67.14    7.89
  -2   3 -10  231.98   15.59
  -2   3 -11   38.75    6.49
  -2   3 -11   42.58   10.89
   2   4 -12   -3.67    2.37
   2   4 -11   22.77    5.32
   2   4 -10    8.23    3.29
   2  -4 -10   11.94    3.80
   2   4  -9   34.94    6.12
   2  -4  -9   27.83    5.03
   2   4  -8   51.38    7.20
   2  -4  -8   44.08    6.01
   2  -4  -7    0.88    1.20
   2   4  -7    0.44    1.32
   2  -4  -6   95.21    6.78
   2   4  -6  108.99    9.84
   2  -4  -6  104.28    8.30
   2  -4  -5  151.26    9.70
   2   4  -5  141.79   10.96
   2   4  -4  137.72   10.39
   2  -4  -4  138.72    8.88
  -2   4   4  149.41    8.86
   2  -4  -3  145.93    8.75
   2   4  -3  154.93   10.56
  -2   4   3  137.06    8.98
   2  -4  -2   -0.48    0.58
  -2  -4   2    1.29    0.75
  -2   4   2   -0.21    0.63
   2   4  -2    1.13    0.99
  -2   4   1  120.98    8.56
   2   4  -1  106.36    8.01
  -2  -4   1  111.68    5.51
   2  -4  -1  124.21    7.80
   2  -4   0  158.66    9.08
  -2  -4   0  162.92    5.25
   2   4   0  160.20    9.47
  -2   4   0  171.47   10.50
  -2  -4   0  144.63    5.24
  -2   4  -1    1.22    1.28
   2   4   1    1.31    0.87
   2   4   2  245.81   10.81
  -2   4  -2  258.47   14.06
  -2   4  -3    3.37    2.33
   2   4   3    4.89    1.62
   2   4   4  115.19    4.60
   2   4   4  128.59    5.94
  -2   4  -4  129.79   10.26
   2   4   5  186.08    5.66
   2   4   5  206.15    7.92
  -2   4  -5  202.01   13.47
  -2   4  -6   18.95    4.27
  -2   4  -7   10.47    3.69
  -2   4  -8   34.48    5.98
  -2   4  -9    1.03    1.40
  -2   4 -10   53.72    8.02
  -2   4 -11   56.53    8.49
   2   5 -11    3.33    2.48
   2   5 -10  203.30   16.81
   2   5  -9  158.21   14.34
   2  -5  -9  183.79   13.33
   2   5  -8   20.66    4.91
   2  -5  -8   17.98    3.92
   2  -5  -7  426.70   19.77
   2   5  -7  463.86   23.89
   2   5  -6   88.98    9.74
   2  -5  -6   92.55    8.10
   2   5  -5   37.00    5.97
   2  -5  -5   48.05    5.51
   2   5  -4  363.93   19.29
   2  -5  -4  369.89   16.35
  -2   5   4  383.02   16.81
   2  -5  -3   29.88    4.07
  -2   5   3   20.87    3.68
   2   5  -3   21.95    4.27
  -2  -5   2  227.88   10.33
   2  -5  -2  244.60   12.29
   2   5  -2  221.53   13.70
  -2   5   2  234.09   13.39
   2  -5  -1  664.41   22.89
  -2   5   1  690.42   25.63
   2   5  -1  688.10   25.36
  -2  -5   1  637.59   18.63
  -2  -5   0   33.50    2.35
   2   5   0   28.74    4.32
  -2  -5   0   27.59    2.28
  -2   5   0   25.71    4.38
   2  -5   0   23.21    3.67
   2   5   1  282.00   13.87
  -2   5  -1  257.08   15.10
   2   5   2  296.59   13.49
  -2   5  -2  272.90   16.12
   2   5   3    6.90    1.78
  -2   5  -3    9.98    3.02
  -2   5  -4  525.81   24.46
   2   5   4  529.33   17.26
  -2   5  -5  169.04   13.35
  -2   5  -6    6.50    2.79
  -2   5  -7  159.17   13.76
  -2   5  -8   85.59   10.27
  -2   5  -9   28.46    5.93
  -2   5 -10  105.31   12.07
   2   6  -9   14.92    4.92
   2   6  -8    7.96    3.74
   2   6  -7    0.08    1.24
   2  -6  -6   33.13    4.94
   2   6  -6   32.09    6.51
   2   6  -5   46.63    7.32
   2  -6  -5   43.98    5.56
  -2   6   5   50.32    5.94
   2  -6  -4   30.48    4.52
  -2   6   4   31.95    4.93
   2   6  -4   25.42    5.37
   2  -6  -3   36.97    5.04
  -2   6   3   41.62    5.93
   2   6  -3   37.82    6.44
   2  -6  -2    2.57    1.50
  -2   6   2    2.64    1.93
   2   6  -2    2.88    1.82
  -2   6   1   21.20    4.34
   2  -6  -1   13.33    2.88
   2   6  -1   17.59    3.85
   2   6   0   69.88    7.59
  -2   6   0   69.09    8.09
   2  -6   0   71.21    6.95
  -2   6  -1   11.88    3.55
   2  -6   1    8.34    2.58
   2   6   1    6.17    2.09
   2   6   2   73.06    7.05
  -2   6  -2   56.94    7.70
   2   6   3    9.06    2.35
  -2   6  -3   11.25    3.50
  -2   6  -4   12.95    3.80
  -2   6  -5  103.13   11.26
  -2   6  -6   30.42    6.22
  -2   6  -7    5.39    2.83
  -2   6  -8   28.68    6.34
   2   7  -6   37.39    7.26
   2   7  -5    5.31    2.31
  -2   7   4  160.70   12.22
   2   7  -4  146.54   13.83
  -2   7   3   42.47    6.47
   2   7  -3   46.76    7.39
   2   7  -2   53.79    7.75
  -2   7   2   54.75    7.46
   2  -7  -1  292.11   15.46
   2   7  -1  257.59   17.04
  -2   7   1  253.99   17.05
   2  -7   0   42.68    5.87
  -2   7   0   47.48    7.31
   2   7   0   46.57    6.74
   2  -7   1  105.89    9.46
   2   7   1   87.38    9.00
  -2   7  -1  101.55   10.91
  -2   7  -2  235.69   17.33
   2  -7   2  197.18   13.69
   2   7   2  219.19   14.00
  -2   7  -3   20.87    5.16
  -2   7  -4  257.03   19.15
  -2   7  -5  153.38   14.85
   2   8  -3   28.67    6.45
   2   8  -2    0.65    1.48
  -2   8   2    2.19    2.11
   2   8  -1   18.80    4.90
  -2   8   1   16.37    4.76
   2   8   0   43.53    7.16
  -2   8   0   42.35    7.45
  -2   8  -1   -1.09    2.37
  -2   8  -2   34.65    7.06
   3   0 -14   57.29    9.68
   3   0 -13   84.30   10.99
   3   0 -12   -0.01    1.58
   3   0 -11  137.05   12.63
   3   0 -10  117.83   10.93
   3   0  -9   41.47    6.17
   3   0  -9   35.92    5.66
   3   0  -8  334.05   17.09
   3   0  -8  356.29   18.07
   3   0  -7  203.58   12.03
   3   0  -7  221.21   13.12
   3   0  -6   97.58    7.86
   3   0  -6   89.10    7.02
   3   0  -5  144.40    8.09
   3   0  -5  158.32    9.37
  -3   0   4    0.72    0.66
   3   0  -4    1.24    1.09
   3   0  -3  158.89    5.89
  -3   0   3  159.28    8.06
   3   0  -3  176.29    8.54
  -3   0   2    0.94    0.69
   3   0  -2    0.78    0.80
   3   0  -1    4.20    1.16
  -3   0   1    3.88    1.07
   3   0   0    7.24    1.34
  -3   0   0    7.83    1.07
   3   0   1    1.22    0.73
  -3   0  -1    0.56    0.59
   3   0   2    0.12    0.52
  -3   0  -2    1.89    1.06
  -3   0  -3  293.32   13.87
   3   0   3  329.24   11.38
  -3   0  -3  291.48   11.11
   3   0   4   17.18    2.28
  -3   0  -4   20.86    2.58
  -3   0  -4   23.48    3.98
  -3   0  -5   16.28    3.68
   3   0   5   19.51    2.48
  -3   0  -5   17.80    2.43
  -3   0  -6   43.89    6.37
   3   0   6   42.15    3.83
  -3   0  -6   40.27    3.86
  -3   0  -7    5.73    1.46
  -3   0  -7   10.10    3.39
  -3   0  -8    1.92    0.92
  -3   0  -8    0.58    1.37
  -3   0  -9   23.27    5.50
  -3   0 -10    2.93    1.87
  -3   0 -11   43.98    8.43
  -3   0 -12    1.47    2.25
   3   1 -14   -0.41    1.81
   3   1 -13   71.71   10.47
   3   1 -12   58.68    9.08
   3   1 -11   45.20    7.63
   3  -1 -10  101.74   10.53
   3   1 -10  119.22   11.85
   3  -1  -9   52.78    6.94
   3   1  -9   51.22    7.71
   3  -1  -9   40.62    5.89
   3  -1  -8  178.29   12.48
   3  -1  -8  163.10   11.23
   3   1  -7  606.02   23.86
   3  -1  -7  598.38   23.56
   3   1  -6   36.97    4.78
   3  -1  -6   41.39    5.07
  -3   1   5 1002.58   31.62
   3   1  -5  968.44   29.74
   3  -1  -5  970.56   29.48
  -3   1   4  919.65   24.55
  -3  -1   4  850.21   25.47
   3  -1  -4  838.73   25.90
   3   1  -4  855.35   25.72
  -3   1   3   56.52    4.76
   3  -1  -3   48.34    4.60
  -3  -1   3   47.82    4.14
  -3   1   3   57.45    3.65
   3   1  -3   57.50    4.58
  -3   1   2 1290.51   32.63
   3  -1  -2 1348.65   33.08
  -3  -1   2 1242.22   31.18
   3   1  -2 1264.06   31.52
  -3   1   1 1391.27   34.32
   3  -1  -1 1396.66   34.50
  -3  -1   1 1386.40   32.14
   3   1  -1 1381.12   32.34
   3  -1  -1 1370.98   34.91
   3  -1   0   32.16    3.21
   3  -1   0   36.52    3.61
   3   1   0   31.03    2.41
   3   1   1  762.82   19.19
   3   1   1  769.22   21.43
   3  -1   1  781.69   22.36
  -3   1  -1  765.34   22.40
   3   1   2  628.36   20.11
   3  -1   2  585.82   18.78
  -3   1  -2  605.12   19.12
  -3  -1  -3  291.79   13.05
   3   1   3  332.81   15.38
   3   1   3  289.91    9.69
   3  -1   3  287.18   11.85
  -3   1  -3  288.08   12.17
  -3  -1  -4  599.92   22.23
   3  -1   4  595.98   19.36
   3   1   4  604.63   16.02
  -3   1  -4  595.69   19.74
   3   1   5  401.13   11.60
  -3   1  -5  382.37   15.26
  -3  -1  -5  382.21   18.07
  -3  -1  -6  184.53   12.81
  -3   1  -6  153.77   15.20
  -3   1  -6  165.09    9.57
  -3   1  -7  483.01   18.52
  -3  -1  -7  442.22   22.66
  -3   1  -8   69.77    6.41
  -3  -1  -8   53.29    7.75
  -3  -1  -9  154.94   14.36
  -3   1  -9  184.18   11.12
  -3   1  -9  201.79   17.65
  -3   1 -10  218.67   19.02
  -3  -1 -10  216.95   17.86
  -3   1 -11   47.45    9.15
  -3  -1 -11   29.19    6.91
   3   2 -13   56.93   10.03
   3   2 -13   46.17    7.23
   3   2 -12    1.48    1.60
   3   2 -12    1.72    1.99
   3   2 -11  113.36   14.03
   3   2 -10   69.24   11.31
   3  -2 -10  105.46   10.48
   3  -2  -9   11.09    3.30
   3  -2  -8  177.70   12.40
   3  -2  -7  286.26   15.21
   3  -2  -6    4.97    1.86
  -3   2   5  186.47   10.06
   3  -2  -5  171.02    9.35
   3  -2  -5  176.54   10.46
   3   2  -4  168.54    9.28
   3  -2  -4  179.74    9.88
  -3  -2   4  172.44    9.20
   3  -2  -4  167.72    9.01
   3  -2  -3   56.83    5.05
   3  -2  -3   66.99    5.41
  -3  -2   3   56.20    4.49
   3   2  -3   53.39    4.54
  -3   2   2  210.64    9.79
   3  -2  -2  193.49    9.57
  -3  -2   2  203.30    8.18
   3  -2  -2  205.34    9.96
   3   2  -2  197.35    8.29
   3  -2  -1  118.16    7.02
   3  -2  -1  122.67    7.44
  -3  -2   1  115.40    4.93
   3   2  -1  104.35    4.95
  -3   2   1  119.55    7.44
   3  -2   0  125.93    7.50
   3  -2   0  137.23    7.99
   3   2   0  128.73    4.66
  -3   2   0  127.16    7.80
   3   2   1  238.02    6.66
  -3   2  -1  251.78   11.67
  -3   2  -2    0.92    1.07
   3   2   2    0.29    0.53
  -3   2  -3  731.35   24.20
   3   2   4   90.94    5.60
  -3   2  -4  100.07    7.58
   3   2   4   93.27    4.03
  -3   2  -5   93.13    7.59
   3   2   5  103.88    6.72
  -3   2  -6  134.89    9.51
  -3   2  -7   -1.03    1.29
  -3   2  -8   42.24    5.53
  -3   2  -9   28.80    4.82
  -3   2  -9   28.82    8.19
  -3   2 -10    2.13    1.37
  -3   2 -10    8.10    4.63
  -3   2 -11   60.39   11.25
   3   3 -13   43.74   10.25
   3   3 -13   43.43    7.53
   3   3 -12   36.19    9.50
   3   3 -12   42.46    7.15
   3  -3 -11   31.22    6.11
   3   3 -11   32.14    6.02
   3  -3 -10   68.55    8.44
   3  -3  -9   27.91    5.09
   3  -3  -8  118.27   10.08
   3  -3  -7  365.34   17.91
   3  -3  -6   44.98    5.56
   3  -3  -5  460.99   18.78
   3  -3  -4  595.89   21.37
   3  -3  -3    2.46    1.57
  -3  -3   3   -0.51    0.36
   3  -3  -2  699.28   22.83
  -3  -3   2  715.69   19.54
  -3   3   2  713.14   23.51
   3  -3  -1  980.27   28.75
  -3  -3   1  992.62   23.27
  -3   3   1  982.67   29.85
   3  -3   0   29.68    3.77
  -3   3   0   31.55    4.19
  -3   3  -1  583.62   21.51
  -3   3  -2  567.69   21.64
   3   3   3  140.48    4.45
  -3   3  -3  163.40   10.58
   3   3   4  563.58   14.74
   3   3   4  558.78   15.42
   3   3   5  302.34   11.36
  -3   3  -5  321.63   16.41
  -3   3  -6  171.30   12.00
   3   3   6  157.15    8.63
  -3   3  -7  446.48   21.23
  -3   3  -8   40.61    6.07
  -3   3  -9  171.97   13.18
  -3   3 -10  189.42   14.30
  -3   3 -11   28.84   10.52
   3   4 -12    2.58    1.79
   3  -4 -11   87.99   10.45
   3   4 -11   84.64   10.54
   3   4 -10   69.40    9.13
   3  -4 -10   72.29    8.98
   3  -4  -9   22.45    4.69
   3   4  -9   32.65    6.05
   3  -4  -8  173.26   12.74
   3  -4  -7  107.68    9.39
   3  -4  -6   47.09    5.81
   3  -4  -5  116.10    9.00
   3  -4  -4   19.42    3.53
  -3   4   3   75.82    6.98
   3  -4  -3   77.77    6.76
  -3  -4   3   84.68    5.91
  -3   4   2   23.10    3.79
   3  -4  -2   30.01    4.08
  -3  -4   2   20.83    2.45
  -3   4   1   -0.61    0.80
   3  -4  -1    0.61    1.01
  -3  -4   1    0.15    0.31
   3  -4   0   37.35    4.61
  -3   4   0   37.83    5.14
  -3   4  -1   10.59    2.80
  -3   4  -2    1.35    1.10
   3   4   2   -0.12    0.57
   3   4   3  161.12    8.10
  -3   4  -3  160.34   11.76
  -3   4  -4   18.13    3.89
   3   4   4   17.43    2.07
  -3   4  -5   12.66    3.41
  -3   4  -6   27.25    5.19
  -3   4  -7    4.24    2.21
  -3   4  -8    5.32    2.65
  -3   4  -9    7.20    3.11
  -3   4 -10   -0.76    2.18
  -3   4 -11   22.15    5.44
   3  -5 -11   15.41    4.55
   3   5 -10   66.03    9.47
   3  -5 -10   62.26    8.43
   3  -5  -9   30.95    5.79
   3   5  -9   25.38    5.94
   3   5  -8   77.94    9.81
   3  -5  -8   87.77    9.04
   3   5  -7  274.96   18.16
   3  -5  -7  246.53   15.12
   3   5  -6   16.17    4.23
   3  -5  -6    9.13    2.84
   3   5  -5  367.33   20.02
   3  -5  -5  345.92   17.19
  -3   5   4  319.50   16.22
   3  -5  -4  316.02   15.86
   3   5  -4  311.41   17.94
  -3   5   3    7.45    2.54
   3  -5  -3    9.60    2.64
   3   5  -3    8.36    2.93
   3  -5  -2  429.29   18.66
   3   5  -2  437.39   20.20
  -3   5   2  411.86   19.37
   3  -5  -1  335.26   15.90
  -3   5   1  343.71   17.61
   3   5  -1  326.29   16.63
  -3   5   0    5.12    2.59
   3  -5   0    0.66    0.83
   3   5   0    6.58    2.45
  -3   5  -1  284.97   16.56
   3  -5   1  284.41   15.11
   3   5   1  302.21   14.48
   3   5   2  171.65   10.09
  -3   5  -2  186.12   13.45
   3   5   3   82.19    6.26
  -3   5  -3   85.52    9.10
  -3   5  -4  200.32   14.62
  -3   5  -5  133.34   12.15
  -3   5  -6   61.74    8.51
  -3   5  -7  178.32   15.00
  -3   5  -8   26.47    5.77
  -3   5  -9   78.37   10.41
  -3   5 -10  120.18   13.17
   3   6  -8   61.34    9.15
   3  -6  -7   57.73    7.26
   3   6  -7   43.51    7.69
   3  -6  -6   11.32    3.15
   3   6  -6    6.68    3.20
   3   6  -5   65.13    8.64
   3  -6  -5   56.17    6.78
  -3   6   4   28.43    4.83
   3  -6  -4   40.02    5.57
   3   6  -4   30.89    5.93
  -3   6   3   35.33    5.55
   3  -6  -3   30.96    4.80
   3   6  -3   33.18    5.85
   3  -6  -2   39.78    5.47
  -3   6   2   58.37    7.28
   3   6  -2   45.22    6.61
  -3   6   1   11.75    3.59
   3  -6  -1   11.94    3.19
   3   6  -1    5.74    2.48
  -3   6   0   41.25    6.47
   3  -6   0   45.65    5.93
   3   6   0   38.91    5.58
   3  -6   1   43.27    5.95
  -3   6  -1   30.47    5.62
   3   6   1   29.05    4.75
  -3   6  -2    0.67    1.38
   3   6   2    0.58    0.85
  -3   6  -3  138.91   12.76
  -3   6  -4   22.22    5.20
  -3   6  -5   17.53    4.81
  -3   6  -6   52.96    8.46
  -3   6  -7   -0.56    1.59
   3   7  -6   17.36    5.01
   3   7  -5   95.46   11.41
   3   7  -4  164.01   14.81
  -3   7   4  164.64   13.09
  -3   7   3    4.62    2.62
   3  -7  -3    4.56    2.21
   3   7  -3    3.52    3.02
   3   7  -2  156.00   13.58
   3  -7  -2  162.16   11.98
  -3   7   2  153.47   13.12
   3  -7  -1  224.42   14.44
   3   7  -1  242.23   16.47
  -3   7   1  202.52   15.73
  -3   7   0    2.37    2.53
   3  -7   0   -4.11    2.19
   3   7   0    2.68    2.03
   3   7   1  168.41   12.58
   3  -7   1  167.39   12.78
  -3   7  -1  197.28   15.83
   3  -7   2  150.54   12.43
  -3   7  -2  154.62   14.35
   3  -7   3   31.41    5.73
  -3   7  -3   35.40    6.91
  -3   7  -4  161.58   15.29
  -3   7  -5   91.15   11.63
  -3   8   3   33.67    6.41
   3   8  -3   26.51    6.18
  -3   8   2   16.32    4.55
   3   8  -2    9.08    3.87
   3   8  -1    1.01    1.69
  -3   8   1   -0.57    1.74
   3   8   0   26.96    5.64
  -3   8   0   25.64    5.96
  -3   8  -1    4.06    2.50
   3  -8   3   50.36    7.90
   3  -8   4    3.71    2.51
   4   0 -14   90.98   11.69
   4   0 -13   45.75    7.98
   4   0 -12   23.97    5.40
   4   0 -11  196.01   14.71
   4   0 -10   51.58    7.49
   4   0 -10   39.43    6.05
   4   0  -9   72.08    7.72
   4   0  -9   87.43    9.17
   4   0  -8  606.54   23.20
   4   0  -8  610.53   25.61
   4   0  -7   64.34    6.00
   4   0  -7   73.44    7.44
   4   0  -6  244.25   11.17
   4   0  -6  249.32   13.53
   4   0  -5  580.28   17.83
   4   0  -5  664.94   22.59
   4   0  -4    2.98    0.78
   4   0  -4    1.77    1.20
  -4   0   3  820.54   24.45
   4   0  -3  828.68   24.90
  -4   0   2 1359.14   34.90
   4   0  -2 1379.00   35.26
  -4   0   1    5.86    1.50
   4   0  -1    2.70    1.11
  -4   0   0  153.25    6.04
   4   0   0  157.33    7.74
   4   0   1  396.57   13.99
  -4   0  -1  386.59   13.35
   4   0   1  404.56   14.61
   4   0   2   62.35    4.96
  -4   0  -2   63.50    5.37
  -4   0  -3  469.71   18.95
   4   0   3  498.87   16.73
  -4   0  -4  388.84   18.12
   4   0   4  414.55   14.76
   4   0   5    2.10    1.00
  -4   0  -5    1.41    2.01
  -4   0  -6  259.67   16.32
   4   0   6  249.94   11.12
  -4   0  -7   63.92    8.48
  -4   0  -8   17.07    4.63
  -4   0  -9  191.48   16.44
  -4   0 -10    4.70    2.90
  -4   0 -11   58.09    9.86
   4   1 -14    1.06    1.58
   4   1 -13   20.61    5.24
   4   1 -12    5.18    3.03
   4  -1 -11   10.36    3.69
   4   1 -11    5.65    2.92
   4   1 -10  164.04   13.32
   4  -1 -10  140.66   12.73
   4   1  -9    2.92    1.72
   4  -1  -9    5.45    2.26
   4   1  -8    8.81    2.95
   4   1  -8   11.07    3.31
   4  -1  -8    6.20    2.81
   4   1  -7   62.80    7.81
   4  -1  -7   79.62    7.96
   4   1  -7   91.47    8.66
   4  -1  -6    1.05    1.08
   4   1  -6    2.02    1.29
   4  -1  -5  325.82   15.23
   4   1  -5  338.61   15.20
   4   1  -4  160.69    9.33
  -4   1   4  185.83    8.47
   4  -1  -4  174.58   10.07
  -4  -1   3   68.88    5.33
  -4   1   3   77.49    3.94
   4   1  -3   79.81    5.99
  -4  -1   2  457.03   15.17
   4  -1  -2  483.03   16.97
   4   1  -2  470.02   15.60
   4  -1  -1   39.74    4.27
  -4  -1   1   40.56    3.40
   4  -1  -1   43.72    4.27
   4   1  -1   38.13    3.43
   4  -1   0   59.68    5.01
   4   1   0   62.40    4.19
   4   1   0   58.38    4.01
   4  -1   0   56.12    5.10
   4   1   1  535.82   15.79
   4   1   1  534.43   17.59
   4   1   2   15.24    2.89
  -4   1  -2   15.83    2.73
   4   1   3  338.41   12.22
  -4   1  -3  344.58   14.51
  -4  -1  -4  662.76   24.27
  -4   1  -4  635.46   21.97
   4   1   4  654.81   18.90
  -4  -1  -5   75.67    7.74
  -4   1  -5   63.61    9.14
   4   1   5   76.54    4.85
  -4   1  -5   79.81    6.64
  -4  -1  -6  109.99   10.17
   4   1   6  111.47    5.88
  -4   1  -6  102.00    7.85
  -4  -1  -7  255.85   16.99
  -4   1  -7  261.79   13.44
  -4  -1  -8    0.03    1.50
  -4   1  -8    0.57    0.73
  -4   1  -8    3.40    2.90
  -4  -1  -9  191.43   16.38
  -4   1  -9  179.39   16.71
  -4   1  -9  182.38   11.44
  -4  -1 -10  133.38   14.39
  -4   1 -10  143.98   15.57
  -4  -1 -11   -0.73    1.54
  -4   1 -11    3.68    2.63
   4   2 -14   73.98   11.45
   4   2 -13   43.28    8.28
   4  -2 -12    5.73    2.78
   4   2 -12   11.67    4.19
   4   2 -11  167.26   16.16
   4  -2 -11  124.11   12.54
   4   2 -10   59.65   10.06
   4  -2 -10   59.82    8.15
   4  -2  -9   28.99    5.34
   4  -2  -8  565.01   24.53
   4  -2  -7  163.78   11.56
   4   2  -6  137.14   10.12
   4  -2  -6  156.73   10.82
   4  -2  -5  814.60   27.87
  -4   2   5  857.12   25.45
   4   2  -5  807.70   27.01
  -4   2   4   48.15    4.26
   4  -2  -4   49.72    5.35
   4   2  -4   51.01    5.12
   4  -2  -3  856.83   26.62
  -4  -2   3  848.44   24.32
   4   2  -3  817.54   24.74
   4  -2  -2 1984.82   48.65
  -4  -2   2 1869.38   44.40
   4   2  -2 1898.33   44.87
   4  -2  -1    0.65    1.04
  -4  -2   1    4.10    1.24
   4   2  -1    2.89    1.38
   4  -2   0  604.92   20.51
   4   2   0  596.14   16.08
  -4   2   0  591.58   21.22
   4   2   1  689.10   21.77
   4   2   1  671.46   17.17
  -4   2  -1  654.07   22.97
   4   2   2    0.35    0.45
  -4   2  -2    0.28    0.53
  -4   2  -3  827.28   27.73
  -4   2  -4  287.55   14.41
   4   2   4  284.37   10.04
   4   2   5   66.04    3.72
  -4   2  -5   59.88    6.38
  -4   2  -6  289.18   15.25
  -4   2  -7    5.88    2.35
  -4   2  -8   27.49    8.04
  -4   2  -8   52.50    6.48
  -4   2  -9  129.73   16.01
  -4   2  -9   91.55    8.92
  -4   2 -10    5.27    3.65
  -4   2 -11   71.85   11.93
   4   3 -13   18.67    6.55
   4   3 -13   10.91    4.36
   4  -3 -12   11.07    4.02
   4   3 -12   11.33    5.86
   4  -3 -11    4.84    2.65
   4  -3 -10   92.25   10.22
   4  -3  -9    6.85    2.86
   4  -3  -8    3.69    2.43
   4  -3  -7   84.83    8.62
   4  -3  -6   11.89    3.02
   4  -3  -5  165.68   11.05
   4  -3  -4  153.50   10.22
   4  -3  -3   18.55    3.58
  -4  -3   3   16.90    2.82
   4  -3  -2  321.08   14.75
  -4  -3   2  314.65   11.18
   4  -3  -1    3.59    1.49
  -4   3   1    3.34    1.74
  -4  -3   1    3.44    0.85
  -4   3   0   39.94    5.03
   4  -3   0   32.01    4.27
  -4   3  -1  480.44   20.05
  -4   3  -2   35.99    5.00
   4   3   3  236.61    6.98
  -4   3  -3  260.81   14.46
   4   3   3  240.34    7.27
  -4   3  -4  509.40   22.12
   4   3   4  526.84   14.99
  -4   3  -5   38.97    5.67
  -4   3  -6  108.98    9.84
  -4   3  -7  226.10   14.88
  -4   3  -8    0.08    1.08
  -4   3  -9  153.07   12.77
  -4   3 -10   81.58   15.28
  -4   3 -10  103.51   10.65
   4  -4 -12   13.45    4.45
   4   4 -11  106.06   12.06
   4  -4 -11  133.45   13.24
   4  -4 -10   27.60    5.72
   4  -4  -9   39.32    6.51
   4  -4  -8  331.65   18.81
   4  -4  -7   36.90    5.68
   4  -4  -6  141.99   10.97
   4  -4  -5  370.71   18.07
   4  -4  -4    0.06    0.81
   4  -4  -3  365.64   16.99
  -4  -4   3  353.77   13.50
   4  -4  -2  618.96   23.25
  -4   4   2  602.55   23.88
  -4  -4   2  616.04   17.52
  -4   4   1    2.20    1.65
   4  -4  -1    0.84    1.18
  -4  -4   1    3.52    0.87
   4  -4   0  164.12   10.79
  -4   4   0  184.03   12.24
   4  -4   1  254.98   14.18
  -4   4  -1  243.90   14.58
  -4   4  -2    6.65    2.23
  -4   4  -3  267.06   15.95
   4   4   4  177.15    7.96
  -4   4  -4  165.54   12.68
  -4   4  -5    2.37    2.04
  -4   4  -6  154.80   12.72
  -4   4  -7   23.83    5.07
  -4   4  -8    7.86    2.87
  -4   4  -9  108.92   11.59
  -4   4 -10    5.25    2.51
   4  -5 -11    3.41    2.47
   4   5 -10   98.79   11.83
   4  -5 -10   64.41    8.85
   4  -5  -9    0.34    1.36
   4   5  -9    0.84    1.87
   4  -5  -8   10.83    3.56
   4   5  -8    8.84    3.75
   4  -5  -7   42.32    6.59
   4  -5  -6    0.76    0.91
   4  -5  -5  113.90    9.97
   4  -5  -4   56.58    6.76
  -4   5   3   24.80    4.84
   4  -5  -3   23.01    4.32
   4  -5  -2  150.58   10.90
  -4   5   2  136.29   11.13
  -4   5   1   -0.10    0.96
   4  -5  -1    0.57    1.31
   4  -5   0   24.84    4.35
  -4   5   0   27.74    5.08
   4  -5   1  168.82   12.24
   4   5   1  191.60   11.56
  -4   5  -1  190.26   13.77
  -4   5  -2    8.60    3.00
   4   5   2    7.78    2.10
   4   5   3   86.50    6.55
  -4   5  -3   89.50    9.75
  -4   5  -4  187.66   14.58
  -4   5  -5   21.76    5.00
  -4   5  -6   33.20    6.35
  -4   5  -7  129.26   12.92
  -4   5  -8    1.23    1.66
  -4   5  -9   59.53    9.19
   4   6  -8  213.46   17.57
   4  -6  -8  168.71   13.89
   4  -6  -7   40.75    6.54
   4   6  -7   45.58    7.93
   4   6  -6   81.29   10.25
   4  -6  -6   55.92    7.46
   4  -6  -5  227.15   14.96
   4   6  -5  219.81   16.65
   4  -6  -4   10.69    3.14
   4   6  -4   14.51    4.23
   4  -6  -3  180.05   12.77
   4   6  -3  170.50   13.72
  -4   6   3  191.70   13.95
   4  -6  -2  396.76   19.78
   4   6  -2  412.84   21.36
  -4   6   2  369.07   20.60
  -4   6   1    0.73    2.20
   4  -6  -1    0.42    1.82
   4   6  -1    0.44    1.27
  -4   6   0  194.32   14.92
   4  -6   0  176.75   12.79
   4   6   0  183.96   12.82
   4  -6   1  164.88   12.52
   4   6   1  178.36   12.03
  -4   6  -1  168.05   14.14
   4  -6   2    1.52    1.76
  -4   6  -2    1.03    1.85
   4   6   2    1.28    1.29
  -4   6  -3  204.03   16.10
  -4   6  -4   66.86    9.23
  -4   6  -5   21.22    5.39
  -4   6  -6  108.06   12.52
  -4   6  -7    3.54    2.30
   4   7  -6    2.76    2.49
   4  -7  -5   33.94    5.88
   4   7  -5   32.99    6.84
   4  -7  -4   54.77    7.33
  -4   7   4   62.39    8.45
   4   7  -4   60.64    8.84
  -4   7   3    1.82    1.11
   4  -7  -3    1.26    2.09
   4   7  -3    0.85    1.25
   4  -7  -2   88.91    9.35
   4   7  -2   80.09    9.63
  -4   7   2   87.61   10.25
  -4   7   1   10.27    3.83
   4  -7  -1   11.71    3.57
   4   7  -1   11.33    3.84
  -4   7   0   -1.56    2.48
   4  -7   0    6.10    2.51
   4   7   0    5.47    2.42
   4  -7   1  127.75   11.84
   4   7   1  148.61   11.85
  -4   7  -1  138.44   13.65
   4  -7   2   16.47    4.36
  -4   7  -2   17.13    4.89
   4  -7   3   57.16    8.23
  -4   7  -3   50.18    8.45
  -4   7  -4  150.01   15.11
  -4   8   3   75.40   10.11
   4   8  -3   90.76   11.46
   4   8  -2  139.36   13.74
  -4   8   2  131.62   13.58
  -4   8   1    4.32    3.26
   4   8  -1   -0.36    1.64
   4  -8   1   83.22    9.95
   4  -8   2    7.24    3.33
   4  -8   3   71.48    9.76
   5   0 -12   74.18    9.15
   5   0 -11  184.12   15.46
   5   0 -11  167.55   13.12
   5   0 -10    7.05    3.02
   5   0 -10    4.61    2.12
   5   0  -9  176.28   13.75
   5   0  -9  174.48   11.50
   5   0  -8  202.99   13.95
   5   0  -8  185.01   10.87
   5   0  -7   34.99    5.28
   5   0  -7   30.56    3.72
   5   0  -6  227.04    9.75
   5   0  -6  248.75   14.03
   5   0  -5  347.27   16.20
   5   0  -4   99.94    7.71
   5   0  -3  998.66   29.89
   5   0  -2  148.18    8.67
   5   0  -1    1.83    1.17
   5   0   0  824.29   24.51
   5   0   1  197.82   10.00
  -5   0  -1  207.15    9.25
  -5   0  -2  117.17    7.68
  -5   0  -3  774.76   26.30
  -5   0  -4  347.55   17.22
  -5   0  -5  154.72   11.90
  -5   0  -6  553.87   25.68
  -5   0  -7   96.99   10.60
  -5   0  -8  334.88   21.41
  -5   0  -9  249.07   19.16
  -5   0 -10    9.76    4.12
   5  -1 -12   53.62    8.67
   5   1 -12   53.74    7.96
   5  -1 -11    3.28    2.45
   5   1 -11    8.49    3.40
   5   1 -10   24.73    4.80
   5  -1 -10   42.81    6.88
   5   1  -9   68.43    7.52
   5  -1  -9   72.58    8.69
   5   1  -9   60.36    8.12
   5   1  -8    1.35    1.33
   5   1  -8    5.73    2.19
   5  -1  -8    3.93    1.95
   5   1  -7  120.70    9.36
   5  -1  -7  102.78    9.73
   5   1  -7  102.77    9.60
   5   1  -6  243.73   13.30
   5  -1  -6  266.93   14.81
   5   1  -6  260.90   14.38
   5  -1  -5   -0.29    0.72
   5   1  -5    2.34    1.25
   5  -1  -4  135.51    9.48
   5   1  -4  125.17    8.64
   5  -1  -3   55.97    5.71
   5   1  -3   46.73    5.01
  -5  -1   2   56.50    4.81
   5  -1  -2   71.17    6.10
   5   1  -2   58.38    5.06
  -5  -1   1  218.78    9.72
   5  -1  -1  206.59   10.93
   5   1  -1  200.70    9.60
   5   1  -1  218.97    8.01
   5  -1   0    5.99    1.82
   5   1   0    7.38    1.69
   5   1   0    5.06    1.36
   5  -1   1    6.44    2.01
   5   1   1    1.83    0.83
   5   1   1    6.71    2.04
   5   1   2    1.13    0.86
   5   1   2    3.56    1.35
   5   1   2    0.24    1.25
  -5   1  -3   18.42    4.53
   5   1   3   27.27    3.58
  -5   1  -4   82.91    9.66
   5   1   4   96.52    6.44
  -5   1  -4   86.92    7.46
   5   1   5    9.95    2.00
  -5  -1  -5   10.33    3.05
  -5   1  -5    8.52    2.35
  -5   1  -5   15.44    4.59
  -5   1  -6   28.43    4.35
  -5   1  -6   18.26    4.79
  -5  -1  -6   24.52    5.02
  -5   1  -7   14.23    3.61
  -5  -1  -7   12.49    4.27
  -5   1  -7   19.02    5.49
  -5   1  -8    3.41    2.43
  -5   1  -8    0.25    0.98
  -5  -1  -8   -0.23    1.87
  -5   1  -9   78.11   11.09
  -5  -1  -9   68.16    9.85
  -5   1 -10   64.05   10.49
   5  -2 -12   45.50    8.08
   5   2 -12   58.01    8.97
   5   2 -11  142.50   13.85
   5  -2 -11  123.80   12.80
   5   2 -10   17.36    4.95
   5  -2 -10   15.85    4.43
   5  -2  -9  130.16   11.79
   5   2  -8  242.28   15.65
   5  -2  -8  273.63   16.55
   5   2  -7    2.32    2.06
   5  -2  -7    2.06    1.61
  -5   2   6  242.89   12.62
   5  -2  -6  239.46   14.33
   5   2  -6  224.09   13.38
  -5   2   5  555.58   18.25
   5  -2  -5  543.23   22.07
   5   2  -5  496.66   20.43
  -5   2   4   40.82    3.71
   5  -2  -4   38.93    5.10
   5   2  -4   41.43    4.71
   5  -2  -3 1250.50   36.29
   5   2  -3 1175.02   33.02
  -5  -2   2  336.45   12.76
   5  -2  -2  364.84   15.91
   5   2  -2  340.24   13.16
  -5  -2   1   47.40    3.84
   5  -2  -1   57.83    5.75
   5   2  -1   47.35    4.05
   5   2   0 1351.08   34.74
   5  -2   0 1299.99   37.35
   5   2   0 1285.37   32.09
   5  -2   1  178.83   10.95
   5   2   1  164.39    7.43
   5   2   1  184.14    9.97
  -5   2  -1  156.72   10.65
   5   2   2  339.94   11.83
  -5   2  -2  376.01   17.17
   5   2   3  910.56   24.81
  -5   2  -3  905.20   30.77
   5   2   4  148.06    7.73
  -5   2  -4  147.61   10.67
  -5   2  -5  289.57   15.70
  -5   2  -6  405.58   19.45
  -5   2  -7   25.86    4.64
  -5   2  -7   24.82    7.42
  -5   2  -8  366.82   26.84
  -5   2  -8  309.60   17.50
  -5   2  -9  150.13   16.81
  -5   2  -9  158.43   12.25
  -5   2 -10    4.57    3.41
   5  -3 -12   31.92    6.71
   5  -3 -11    5.87    3.18
   5  -3 -10   29.43    6.01
   5  -3  -9   59.77    8.23
   5  -3  -8    3.38    1.98
   5  -3  -7  117.83   10.56
   5  -3  -6  231.74   14.52
   5  -3  -5   -0.20    0.80
   5   3  -4  135.34    8.97
   5  -3  -4  155.87   10.88
  -5  -3   3   38.92    4.01
   5   3  -3   31.28    4.12
  -5  -3   2   68.24    4.78
   5  -3  -2   68.23    6.79
   5   3  -2   63.88    4.88
  -5  -3   1  191.35    7.56
   5  -3  -1  190.44   11.57
   5   3  -1  180.86    7.78
   5  -3   0    8.79    2.50
  -5   3   0    5.58    2.16
   5   3   0    5.64    1.05
   5  -3   1   26.94    4.39
  -5   3  -1   30.94    4.90
   5   3   1   22.88    1.87
  -5   3  -2    0.78    0.99
   5   3   2    4.63    0.83
  -5   3  -3   27.60    4.80
   5   3   3   26.94    2.28
   5   3   4   79.08    4.66
  -5   3  -4   80.70    8.37
  -5   3  -5    1.91    1.34
  -5   3  -6   39.46    6.16
  -5   3  -7   13.79    3.68
  -5   3  -8    1.56    1.66
  -5   3  -9   45.93    7.05
  -5   3  -9   34.64   10.15
  -5   3 -10   56.91   12.68
   5  -4 -11  101.01   11.78
   5  -4 -10   12.79    4.04
   5  -4  -9  114.26   11.52
   5  -4  -8  149.98   12.77
   5  -4  -7   16.24    3.88
   5  -4  -6  134.27   11.23
   5  -4  -5  206.48   13.76
   5  -4  -4   34.04    5.29
   5  -4  -3  469.51   20.92
  -5  -4   3  467.82   16.27
  -5  -4   2  119.52    6.02
   5  -4  -2  106.10    9.15
   5  -4  -1   14.53    3.49
  -5   4   1   13.43    3.45
   5  -4   0  449.23   20.41
  -5   4   0  483.13   22.20
   5  -4   1  124.14   10.15
  -5   4  -1  112.32   10.15
  -5   4  -2   81.75    8.75
  -5   4  -3  424.29   21.74
  -5   4  -4  129.54   11.57
  -5   4  -5   87.66    9.70
  -5   4  -6  310.01   19.26
  -5   4  -7   61.42    8.48
  -5   4  -8  187.11   15.58
  -5   4  -9  138.28   13.39
  -5   4 -10    3.95    2.59
   5  -5 -11    0.43    1.91
   5  -5 -10   16.87    4.79
   5  -5  -9   29.62    6.02
   5  -5  -8   -0.96    1.11
   5  -5  -7   52.43    7.61
   5  -5  -6   86.67    9.46
   5  -5  -5   -0.88    1.35
   5  -5  -4   36.17    5.71
   5  -5  -3   15.96    3.84
  -5   5   2   11.62    3.38
   5  -5  -2    8.36    2.74
   5  -5  -1   62.62    7.44
  -5   5   1   64.93    8.00
   5  -5   0    0.37    1.46
  -5   5   0    2.44    1.91
   5  -5   1    3.80    2.05
  -5   5  -1    2.23    1.71
   5  -5   2    2.29    1.11
  -5   5  -2    1.24    1.93
  -5   5  -3    2.35    1.99
  -5   5  -4   28.52    5.74
  -5   5  -5    8.69    3.32
  -5   5  -6   11.79    3.86
  -5   5  -7    8.61    4.13
  -5   5  -8    2.24    1.39
   5  -6  -9   58.06    8.61
   5  -6  -8   99.75   10.95
   5  -6  -7    1.79    1.15
   5   6  -7    0.29    1.56
   5   6  -6   76.18   10.25
   5  -6  -6   91.87    9.98
   5  -6  -5  153.68   12.86
   5  -6  -4   15.27    4.12
   5  -6  -3  304.79   18.19
  -5   6   3  304.00   19.00
   5  -6  -2  103.62   10.16
  -5   6   2   96.59   10.45
  -5   6   1   18.96    4.94
   5  -6  -1    9.05    3.36
   5   6  -1   17.46    4.18
   5  -6   0  355.71   19.99
   5   6   0  335.54   18.48
  -5   6   0  362.25   21.51
   5  -6   1   67.43    8.43
   5   6   1   81.12    8.15
  -5   6  -1   70.69    9.41
   5  -6   2   89.63    9.98
  -5   6  -2   93.21   11.02
   5  -6   3  324.76   20.16
  -5   6  -3  303.42   20.84
  -5   6  -4   34.30    6.91
  -5   6  -5  100.39   12.10
   5  -7  -6   72.10    9.26
   5  -7  -5   -1.49    1.78
   5   7  -5    1.45    1.84
   5  -7  -4   37.80    6.70
   5   7  -4   46.37    8.03
  -5   7   3   12.44    4.12
   5  -7  -3    9.68    3.51
   5   7  -3   10.59    3.90
  -5   7   2   13.43    4.34
   5  -7  -2   18.96    4.66
   5   7  -2   21.24    4.90
  -5   7   1   67.66    9.58
   5  -7  -1   61.28    8.22
   5   7  -1   59.96    8.17
  -5   7   0    2.97    2.37
   5  -7   0    1.58    1.60
   5   7   0   -0.19    1.32
  -5   7  -1   22.84    5.90
   5  -7   1   18.39    4.70
   5  -7   2    1.59    1.85
  -5   7  -2    1.49    1.28
   5  -7   3    8.01    3.52
   5  -7   4   37.24    6.99
  -5   8   3  105.93   12.41
   5   8  -2   38.88    7.45
   5  -8  -1   13.18    4.36
   5  -8   0  138.38   13.45
   5  -8   1   35.92    7.11
   6   0 -12   30.72    6.87
   6   0 -11   85.14   10.66
   6   0 -10    5.79    3.05
   6   0  -9  124.85   11.74
   6   0  -8   41.01    6.29
   6   0  -7    9.08    3.16
   6   0  -6  550.25   23.23
   6   0  -5   37.87    5.23
   6   0  -4   21.62    4.03
   6   0  -3  400.95   17.35
   6   0  -2  111.41    8.08
   6   0  -1  159.04    9.59
   6   0   0  360.59   15.30
   6   0   1   -0.34    0.65
  -6   0  -1   -0.01    0.65
   6   0   2  472.06   18.78
  -6   0  -2  503.71   18.49
  -6   0  -3  199.35   11.83
  -6   0  -4   23.89    4.23
  -6   0  -5  248.78   15.58
  -6   0  -6  235.46   16.22
  -6   0  -7   26.34    5.65
  -6   0  -8  266.06   19.38
  -6   0  -9  118.83   13.50
  -6   0 -10    7.05    3.64
   6  -1 -12   98.29   12.08
   6  -1 -11    6.15    3.27
   6   1 -10  133.11   12.80
   6  -1 -10  132.44   12.80
   6   1  -9  203.29   12.32
   6  -1  -9  202.74   15.27
   6   1  -9  208.61   15.38
   6   1  -8    8.38    2.27
   6  -1  -8   11.22    3.29
   6   1  -8   17.01    4.08
   6   1  -7   28.89    3.73
   6  -1  -7   33.31    5.75
   6   1  -7   33.47    5.62
   6   1  -6   68.16    4.93
   6  -1  -6   66.15    7.52
   6   1  -6   70.18    7.58
   6  -1  -5   10.88    3.00
   6   1  -5   12.51    3.01
   6   1  -5   13.87    1.76
   6  -1  -4  442.68   19.54
   6   1  -4  460.00   18.94
   6  -1  -3  455.31   19.12
   6   1  -3  446.44   17.95
   6  -1  -2    9.67    2.61
   6   1  -2   11.90    2.52
  -6   1   1  265.23    8.93
   6  -1  -1  255.31   13.21
   6   1  -1  247.75   11.83
  -6   1   0   91.78    6.23
   6  -1   0   86.76    7.30
   6   1   0   88.45    6.43
   6  -1   1   15.08    3.11
   6   1   1   12.41    2.38
  -6   1  -1   13.23    2.85
   6  -1   2  884.69   29.70
   6   1   2  853.01   26.47
   6   1   3   79.95    6.53
  -6   1  -3   83.09    8.58
  -6   1  -4   26.34    5.16
  -6   1  -5  176.83   14.04
  -6   1  -6   19.98    4.82
  -6   1  -7  117.25   12.56
  -6   1  -8   46.45    8.31
  -6   1  -9    2.01    2.03
  -6   1 -10   52.04    9.43
   6  -2 -11   96.82   11.60
   6  -2 -10    0.35    1.33
   6   2  -9  106.58   11.06
   6   2  -9  113.21   11.43
   6  -2  -9  110.51   11.22
   6  -2  -8   72.61    8.66
   6   2  -8   70.81    8.29
   6   2  -7   14.08    3.59
   6  -2  -7   17.00    4.16
   6  -2  -6  634.04   26.39
   6   2  -6  624.94   25.18
  -6   2   5  106.82    6.49
   6  -2  -5   84.66    8.41
   6   2  -5   94.81    8.24
   6  -2  -4   49.31    6.16
  -6   2   4   40.92    3.41
   6   2  -4   40.77    4.98
   6  -2  -3  624.32   23.98
   6   2  -3  597.98   21.25
   6  -2  -2   97.61    8.40
   6   2  -2  104.77    7.17
   6   2  -1  346.17   13.18
   6  -2  -1  349.56   16.64
   6   2  -1  345.29   13.57
   6  -2   0  464.91   19.74
   6   2   0  469.97   16.10
   6   2   0  457.78   17.05
   6  -2   1   17.68    3.48
   6   2   1   16.85    2.47
   6  -2   2  701.74   26.32
   6   2   2  697.52   21.00
   6   2   3  147.39    8.08
   6   2   4    1.11    1.06
  -6   2  -4    1.40    1.86
  -6   2  -5  275.48   16.17
  -6   2  -6  109.97   14.22
  -6   2  -6  122.04   10.60
  -6   2  -7   42.01    6.27
  -6   2  -7   43.74    8.76
  -6   2  -8  217.46   19.71
  -6   2  -8  180.29   13.59
  -6   2  -9   74.11   11.64
   6  -3 -11   10.87    4.11
   6  -3 -10   87.10   10.59
   6  -3  -9  153.35   13.65
   6  -3  -8    5.50    2.83
   6  -3  -7   44.11    6.81
   6   3  -6   61.98    7.01
   6  -3  -6   67.75    8.12
   6   3  -5    5.21    2.11
   6  -3  -5    3.53    1.81
   6  -3  -4  347.15   17.99
   6   3  -4  336.67   15.41
   6  -3  -3  261.95   15.09
   6   3  -3  256.77   12.28
   6  -3  -2   26.68    4.62
  -6  -3   2   24.43    3.04
   6   3  -2   18.45    2.81
   6  -3  -1  181.97   12.18
   6   3  -1  185.94    8.58
   6  -3   0   31.91    5.05
   6   3   0   38.74    3.39
   6  -3   1   16.11    3.70
  -6   3  -1   18.18    4.06
   6   3   1   20.43    2.23
   6  -3   2  545.97   23.84
   6   3   2  550.45   15.64
  -6   3  -2  568.79   24.92
  -6   3  -3   29.96    5.25
   6   3   3   26.03    2.64
  -6   3  -4   22.97    4.73
  -6   3  -5   78.53    8.96
  -6   3  -6    7.62    3.07
  -6   3  -7   81.78    9.50
  -6   3  -8   29.96    5.84
  -6   3  -8   35.41    9.68
  -6   3  -9   -0.82    1.69
  -6   3  -9    3.43    4.49
   6  -4 -10    2.50    2.07
   6  -4  -9   88.94   10.52
   6  -4  -8   27.71    5.67
   6  -4  -7    5.44    2.79
   6  -4  -6  338.63   19.47
   6  -4  -5   30.79    5.41
   6  -4  -4   22.24    4.56
   6  -4  -3  236.87   15.09
   6  -4  -2   47.48    6.45
   6  -4  -1   91.27    8.93
   6  -4   0  219.17   14.25
  -6   4   0  213.97   15.00
   6  -4   1   -0.08    1.35
  -6   4  -1    0.81    1.13
   6  -4   2  262.90   16.44
  -6   4  -2  250.17   16.66
  -6   4  -3  100.65   10.46
  -6   4  -4    7.60    3.04
  -6   4  -5  161.26   13.87
  -6   4  -6  142.99   13.30
  -6   4  -7   13.35    4.09
  -6   4  -8  152.38   14.28
  -6   4  -9   87.08   10.98
   6  -5 -10   63.46    9.36
   6  -5  -9  101.93   11.57
   6  -5  -8    1.83    2.10
   6  -5  -7   19.54    5.04
   6  -5  -6   53.66    7.80
   6  -5  -5    5.97    2.65
   6  -5  -4  145.14   12.37
   6  -5  -3  159.11   12.80
   6  -5  -2    0.49    1.51
   6  -5  -1  120.20   11.05
  -6   5   1  121.64   11.75
  -6   5   0   56.11    8.04
   6  -5   0   62.44    7.84
   6  -5   1    7.11    2.97
  -6   5  -1    4.79    2.78
   6  -5   2  381.82   21.24
  -6   5  -2  355.81   21.80
   6  -5   3   33.92    6.36
  -6   5  -3   39.19    7.11
  -6   5  -4   11.28    4.00
  -6   5  -5   89.54   11.02
  -6   5  -6    2.00    1.67
  -6   5  -7   63.71    9.76
   6  -6  -8   33.76    6.66
   6  -6  -7    7.42    3.24
   6  -6  -6  207.60   16.16
   6  -6  -5   36.00    6.52
   6  -6  -4   16.24    4.27
   6  -6  -3  172.89   14.19
   6  -6  -2   35.03    6.17
   6  -6  -1   90.92   10.17
  -6   6   1   94.77   11.00
   6  -6   0  171.81   14.10
  -6   6   0  177.96   15.42
   6  -6   1    2.11    1.91
  -6   6  -1   -0.11    1.66
   6  -6   2  179.28   14.96
  -6   6  -2  170.02   15.52
   6  -6   3   59.38    8.77
  -6   6  -3   56.94    8.99
   6  -6   4   -0.10    1.97
  -6   6  -4    0.66    1.75
   6  -7  -6   35.68    7.06
   6  -7  -5    0.26    1.80
   6  -7  -4   98.32   11.18
   6   7  -4  114.17   12.74
   6  -7  -3   46.80    7.73
   6   7  -3   45.01    7.76
  -6   7   2    9.99    4.01
   6  -7  -2    6.70    2.89
   6   7  -2   12.51    4.17
  -6   7   1   65.75    9.75
   6  -7  -1   65.68    9.06
   6   7  -1   63.29    8.58
  -6   7   0   11.85    4.26
   6  -7   0   18.64    4.96
   6  -7   1    8.14    3.20
   6  -7   2  167.87   15.21
   7   0 -11   14.51    4.68
   7   0 -10   18.44    4.98
   7   0  -9    9.61    3.81
   7   0  -8   24.58    5.23
   7   0  -7   13.39    4.01
   7   0  -6   35.29    5.74
   7   0  -5   57.45    6.92
   7   0  -4    1.66    1.37
   7   0  -3   50.77    5.94
   7   0  -2   57.99    6.20
   7   0  -1   23.73    3.89
   7   0   0  105.20    8.31
   7   0   1   57.06    6.07
  -7   0  -2   79.76    6.65
   7   0   2   73.76    6.98
  -7   0  -3  356.92   16.96
   7   0   3  353.10   16.95
  -7   0  -4    0.54    0.80
  -7   0  -5   52.48    7.20
  -7   0  -6   32.58    6.02
  -7   0  -7   17.12    4.73
  -7   0  -8  112.39   12.76
  -7   0  -9   42.41    8.29
   7   1 -11   -0.66    1.22
   7  -1 -11    0.77    1.73
   7  -1 -10  178.21   15.40
   7   1 -10  153.19   14.16
   7  -1  -9  118.07   12.01
   7   1  -9  125.62   12.17
   7  -1  -8   26.99    5.53
   7   1  -8   30.32    5.62
   7  -1  -7  394.59   21.05
   7   1  -7  401.09   20.80
   7  -1  -6  187.56   13.53
   7   1  -6  187.17   13.01
   7  -1  -5   71.26    7.81
   7   1  -5   72.33    7.47
   7  -1  -4  488.77   21.67
   7   1  -4  492.54   20.84
   7  -1  -3  169.96   11.76
   7   1  -3  183.28   11.34
   7  -1  -2   82.99    7.93
   7   1  -2   80.82    7.10
   7  -1  -1  710.95   25.86
   7   1  -1  679.21   23.62
  -7   1   1  678.24   16.94
   7  -1   0  112.73    9.07
   7   1   0  105.83    7.79
  -7   1   0  109.78    6.26
   7  -1   1  337.30   16.75
   7   1   1  333.07   15.02
  -7   1  -1  359.39   14.90
   7  -1   2   57.34    6.57
   7   1   2   70.81    6.33
  -7   1  -2   59.07    6.28
   7  -1   3   91.48    8.64
  -7   1  -3   77.02    8.01
   7   1   4  279.55   14.54
  -7   1  -4  316.40   17.82
  -7   1  -5  277.81   17.77
  -7   1  -6   -0.03    1.77
  -7   1  -7  154.11   14.52
  -7   1  -8  108.06   12.67
  -7   1  -9    3.36    3.03
   7  -2 -11   11.56    4.29
   7   2 -10   25.77    5.83
   7  -2 -10   11.57    4.03
   7   2  -9   15.58    4.38
   7  -2  -9   17.23    4.47
   7   2  -8   48.83    7.09
   7  -2  -8   51.59    7.67
   7  -2  -7    6.20    2.56
   7   2  -7    7.31    3.04
   7  -2  -6    3.41    2.28
   7   2  -6    6.33    3.00
   7  -2  -5   53.30    7.03
   7   2  -5   48.98    6.10
   7  -2  -4   12.25    3.28
   7   2  -4   12.59    3.22
   7  -2  -3   76.60    8.11
   7   2  -3   86.21    7.32
   7  -2  -2   21.57    4.28
   7   2  -2   16.76    3.07
   7  -2  -1   86.01    8.40
   7   2  -1   90.89    6.27
   7   2  -1   82.60    6.65
   7  -2   0   91.93    8.62
   7   2   0   91.01    7.21
   7   2   0   79.44    6.31
   7  -2   1    2.68    1.85
   7   2   1    0.39    0.71
   7  -2   2   99.75    9.30
   7   2   2  104.86    7.25
  -7   2  -3  153.96   14.95
   7  -2   3  175.36   12.86
   7   2   3  182.55    9.94
   7   2   4   15.92    2.96
  -7   2  -4   22.07    6.37
   7   2   5   29.82    4.20
  -7   2  -5   40.46    7.70
  -7   2  -6   10.14    4.44
  -7   2  -7   13.46    4.80
  -7   2  -8   76.40   11.46
  -7   2  -9   37.98    8.46
   7  -3 -10  150.76   14.54
   7  -3  -9  108.49   11.81
   7  -3  -8   30.04    6.11
   7   3  -7  336.57   18.87
   7  -3  -7  346.07   20.54
   7  -3  -6  137.20   12.06
   7   3  -6  130.61   10.62
   7  -3  -5   73.20    8.53
   7   3  -5   65.89    7.08
   7  -3  -4  344.37   19.18
   7   3  -4  368.69   16.84
   7  -3  -3   90.92    9.29
   7   3  -3   79.97    6.83
   7  -3  -2   76.62    8.37
   7   3  -2   83.74    6.54
   7  -3  -1  445.58   21.48
   7   3  -1  450.14   16.19
   7  -3   0   51.61    6.97
   7   3   0   49.29    4.33
   7  -3   1  239.81   15.40
   7   3   1  263.02   10.62
   7  -3   2   32.88    5.65
   7  -3   3   69.20    8.50
  -7   3  -4  195.91   14.98
  -7   3  -5  169.24   14.09
  -7   3  -6    0.89    1.52
  -7   3  -7  120.81   17.19
  -7   3  -7  125.89   12.40
  -7   3  -8   71.68    9.57
  -7   3  -8  110.06   15.25
   7  -4  -9    4.32    2.66
   7  -4  -8   17.55    4.74
   7  -4  -7    3.87    2.88
   7  -4  -6   12.91    4.21
   7  -4  -5   28.65    5.51
   7  -4  -4    0.20    0.95
   7  -4  -3   40.06    6.47
   7  -4  -2   25.94    5.08
   7  -4  -1   12.24    3.47
   7  -4   0   59.71    7.70
   7  -4   1   22.67    4.95
   7  -4   2   58.85    7.86
  -7   4  -2   42.55    7.20
   7  -4   3  175.32   14.35
  -7   4  -3  169.92   14.47
  -7   4  -4    2.80    2.60
  -7   4  -5   44.08    7.53
  -7   4  -6   24.66    5.62
  -7   4  -7    6.65    3.05
  -7   4  -8   70.95    9.93
   7  -5  -8    8.59    3.46
   7  -5  -7  204.05   16.56
   7  -5  -6  102.87   11.41
   7  -5  -5   32.73    6.19
   7  -5  -4  224.71   16.44
   7  -5  -3   59.53    8.16
   7  -5  -2   35.56    6.31
   7  -5  -1  280.59   18.36
   7  -5   0   67.39    8.69
   7  -5   1  136.68   12.74
  -7   5  -1  138.85   13.51
   7  -5   2   43.04    7.24
  -7   5  -2   70.40    9.64
   7  -5   3   44.03    7.48
  -7   5  -3   45.59    8.07
   7  -5   4  147.69   14.16
  -7   5  -4  168.31   15.57
  -7   5  -5  149.67   14.87
   7  -6  -7    1.40    1.81
   7  -6  -6    0.25    1.65
   7  -6  -5   29.16    6.23
   7  -6  -4   -0.62    1.63
   7  -6  -3   35.40    6.66
   7  -6  -2    8.80    3.34
   7  -6  -1   20.23    5.10
   7  -6   0   36.69    6.85
  -7   6   0   43.34    7.90
   7  -6   1    2.86    1.78
  -7   6  -1    7.74    3.58
   7  -6   2   30.50    6.58
  -7   6  -2   42.37    7.98
   7   7  -3   18.81    5.13
   7   7  -2   34.07    6.76
   8   0 -11  131.87   14.17
   8   0 -10   74.07   10.10
   8   0  -9    1.10    2.18
   8   0  -8   66.52    8.78
   8   0  -7   57.70    7.88
   8   0  -6   14.38    3.85
   8   0  -5  116.58   10.46
   8   0  -4   50.13    6.66
   8   0  -3   25.66    4.91
   8   0  -2  129.66   10.25
   8   0  -1   30.23    4.80
   8   0   0   61.66    6.79
   8   0   1  141.31   10.50
   8   0   2    2.39    1.65
   8   0   3   39.68    5.69
   8   0   4   16.85    3.83
  -8   0  -4   17.50    3.93
   8   0   5   -0.18    1.11
  -8   0  -5    0.58    1.38
  -8   0  -6   72.01    9.20
  -8   0  -7    1.28    1.91
  -8   0  -8   13.79    4.44
  -8   0  -9   15.03    5.08
   8   1 -11   -0.71    2.25
   8  -1 -10   92.57   11.36
   8   1 -10   88.55   11.16
   8  -1  -9   34.81    6.86
   8   1  -9   37.92    6.88
   8  -1  -8   39.81    6.92
   8   1  -8   24.34    5.31
   8  -1  -7  242.33   16.86
   8   1  -7  220.63   15.64
   8  -1  -6    5.40    2.55
   8   1  -6    6.76    2.63
   8  -1  -5  120.95   10.95
   8   1  -5  106.53    9.74
   8  -1  -4  263.81   16.11
   8   1  -4  244.44   14.77
   8  -1  -3   81.55    8.52
   8   1  -3   63.25    7.00
   8  -1  -2  243.72   14.95
   8   1  -2  260.80   14.26
   8  -1  -1  304.79   16.59
   8   1  -1  272.18   14.57
   8  -1   0    8.85    2.88
   8   1   0    4.93    1.93
   8  -1   1  477.03   21.98
   8   1   1  476.39   20.03
  -8   1  -1  527.94   18.25
   8  -1   2  435.46   20.99
   8   1   2  420.23   18.69
  -8   1  -2  459.45   18.70
   8  -1   3   23.69    4.53
   8   1   3   28.98    4.57
  -8   1  -3   24.39    4.37
   8  -1   4  256.92   16.27
   8   1   4  255.90   14.36
  -8   1  -4  257.80   16.00
   8   1   5   77.03    7.94
  -8   1  -5   98.20   10.27
  -8   1  -6   71.46    9.30
  -8   1  -7  238.32   18.46
  -8   1  -8   48.98    8.60
  -8   1  -9   26.03    6.87
   8   2 -10   67.54    9.69
   8  -2 -10   45.42    8.18
   8   2  -9   17.84    4.82
   8  -2  -9   17.37    4.96
   8  -2  -8   87.83   10.41
   8   2  -8   81.63    9.70
   8  -2  -7   31.49    6.10
   8   2  -7   35.69    6.16
   8  -2  -6   30.74    5.91
   8   2  -6   21.11    4.49
   8  -2  -5   95.01   10.02
   8   2  -5  101.36    9.27
   8  -2  -4   17.66    4.15
   8   2  -4   12.64    3.23
   8  -2  -3   18.85    4.37
   8   2  -3   15.29    3.60
   8  -2  -2   42.51    6.28
   8   2  -2   48.72    5.63
   8  -2  -1    3.63    1.73
   8   2  -1    9.11    2.45
   8  -2   0   17.28    4.06
   8   2   0   16.49    3.09
   8  -2   1   41.37    6.31
   8   2   1   53.21    5.52
   8  -2   2    8.38    3.06
   8   2   2    6.54    1.98
  -8   2  -2    1.64    1.90
   8  -2   3   10.78    3.59
  -8   2  -3   10.87    3.71
   8  -2   4   14.81    4.08
  -8   2  -4    9.05    3.54
  -8   2  -5    0.23    1.35
  -8   2  -6   39.74    7.58
  -8   2  -7    5.37    3.50
  -8   2  -8    8.21    3.84
   8  -3  -9   29.71    6.50
   8   3  -8   30.51    5.87
   8  -3  -8   21.07    5.30
   8  -3  -7  183.27   15.36
   8   3  -7  178.00   13.84
   8   3  -6    1.98    1.69
   8  -3  -6    3.28    2.28
   8  -3  -5  104.33   10.84
   8   3  -5  110.30    9.62
   8  -3  -4  164.46   13.47
   8   3  -4  163.11   11.23
   8  -3  -3   42.77    6.70
   8   3  -3   40.73    5.18
   8  -3  -2  217.24   15.29
   8   3  -2  207.61   11.45
   8  -3  -1  189.08   14.25
   8  -3   0   10.51    3.48
   8  -3   1  297.68   18.25
   8  -3   2  278.96   17.87
   8  -3   3   19.58    4.77
   8  -3   4  163.58   14.20
  -8   3  -5   78.77   12.70
  -8   3  -6   62.40   11.25
  -8   3  -7  192.13   19.41
  -8   3  -8   62.44   11.27
   8  -4  -8   55.41    8.92
   8  -4  -7   48.53    8.17
   8  -4  -6    8.34    3.78
   8  -4  -5   83.91   10.12
   8  -4  -4   21.62    5.04
   8  -4  -3   14.78    4.45
   8  -4  -2   52.91    7.81
   8  -4  -1   14.15    3.83
   8  -4   0   31.22    6.01
   8  -4   1   67.10    8.90
   8  -4   2   -0.01    1.33
   8  -4   3   17.51    4.96
   8  -4   4   12.35    4.02
   8  -4   5    0.80    1.66
  -8   4  -7    3.46    4.93
   8  -5  -6    8.80    3.84
   8  -5  -5   69.78    9.59
   8  -5  -4  119.42   12.44
   8  -5  -3   53.22    8.34
   8  -5  -2  141.11   13.48
   8  -5  -1  179.44   15.25
   8  -5   0    1.72    2.47
   8  -5   1  204.19   16.54
   8  -5   2  235.66   18.03
   9   0 -10   77.30   10.72
   9   0  -9   19.03    5.16
   9   0  -8  157.16   14.21
   9   0  -7   18.78    5.01
   9   0  -6  116.26   11.47
   9   0  -5  230.35   15.91
   9   0  -4   57.53    7.52
   9   0  -3  221.17   14.80
   9   0  -2  347.76   18.60
   9   0  -1   10.50    3.07
   9   0   0  244.73   15.10
   9   0   1  190.06   13.24
   9   0   2    0.08    1.18
   9   0   3  184.99   13.35
   9   0   4   99.31    9.83
   9   0   5   35.94    5.94
   9   0   6   33.98    6.04
   9   1 -10   32.95    6.91
   9  -1  -9   40.55    7.49
   9   1  -9   37.01    7.05
   9  -1  -8    3.14    2.95
   9   1  -8    5.71    3.18
   9  -1  -7   66.03    9.10
   9   1  -7   63.93    8.66
   9  -1  -6   16.52    4.46
   9   1  -6   14.61    3.80
   9  -1  -5   39.64    6.63
   9   1  -5   38.07    6.14
   9  -1  -4   38.67    6.43
   9   1  -4   48.97    6.72
   9  -1  -3   15.15    4.06
   9   1  -3   12.81    3.43
   9  -1  -2   34.12    5.74
   9   1  -2   30.60    5.05
   9  -1  -1   56.45    7.42
   9   1  -1   60.53    6.90
   9  -1   0   12.64    3.59
   9   1   0    9.19    2.60
   9  -1   1  152.32   12.32
   9   1   1  143.93   10.83
   9  -1   2   50.35    6.94
   9   1   2   54.92    6.53
   9  -1   3   59.95    7.87
   9   1   3   60.17    6.96
   9  -1   4   85.33    9.63
   9   1   4   79.99    8.27
   9  -1   5   29.59    5.79
   9  -1   6   45.16    7.46
   9   2 -10   60.59    9.33
   9   2  -9   30.37    6.86
   9  -2  -9   30.13    6.72
   9  -2  -8  142.61   14.08
   9   2  -8  141.98   13.41
   9  -2  -7   12.07    4.01
   9   2  -7    9.54    3.42
   9  -2  -6  100.67   11.05
   9   2  -6   84.16    9.24
   9  -2  -5  151.17   13.43
   9   2  -5  135.42   11.47
   9  -2  -4   25.41    5.36
   9   2  -4   21.47    4.23
   9  -2  -3  148.73   12.78
   9   2  -3  144.20   11.02
   9  -2  -2  214.70   15.40
   9   2  -2  201.91   12.86
   9  -2  -1   12.35    3.73
   9   2  -1   11.25    2.92
   9  -2   0  147.62   12.67
   9   2   0  158.86   10.70
   9  -2   1  108.59   10.81
   9  -2   2   13.03    3.82
   9  -2   3  116.13   11.57
   9  -2   4  108.08   11.37
   9  -2   5    8.48    3.40
   9  -2   6   30.21    6.46
   9   3  -9   18.19    4.99
   9   3  -8    2.93    2.12
   9  -3  -8    5.88    3.19
   9   3  -7   39.43    6.60
   9  -3  -7   38.88    7.31
   9  -3  -6    5.85    2.94
   9   3  -6   10.41    3.24
   9  -3  -5   31.57    6.39
   9   3  -5   23.93    4.67
   9  -3  -4   31.91    6.29
   9  -3  -3   22.68    5.28
   9  -3  -2   20.41    4.87
   9  -3  -1   41.95    6.96
   9  -3   0    5.20    3.04
   9  -3   1   88.50   10.21
   9  -3   2   31.61    6.06
   9  -3   3   34.61    6.62
   9  -3   4   71.62    9.61
   9  -4  -6   56.38    8.95
   9  -4  -5  147.21   14.23
   9  -4  -4   26.87    5.93
   9  -4  -3  113.07   12.19
   9  -4  -2  194.24   16.02
   9  -4  -1   10.62    3.83
   9  -4   0  162.56   14.67
   9  -4   1  138.90   13.54
   9  -4   2    2.19    2.06
  10   0  -8  256.63   19.17
  10   0  -7    6.37    3.22
  10   0  -6  115.08   11.94
  10   0  -5  159.09   13.74
  10   0  -4    0.04    1.54
  10   0  -3  227.62   16.01
  10   0  -2  111.13   10.78
  10   0  -1   25.42    5.01
  10   0   0  285.24   17.43
  10   0   1   55.05    7.39
  10   0   2   59.19    7.73
  10   0   3  242.90   16.37
  10   0   4   20.95    4.80
  10   1  -9   44.58    8.01
  10  -1  -8    0.76    1.88
  10   1  -8    4.07    2.52
  10  -1  -7   23.10    5.61
  10   1  -7   22.89    5.45
  10  -1  -6   56.43    8.45
  10   1  -6   45.44    7.38
  10  -1  -5    3.48    2.24
  10   1  -5    5.97    2.59
  10  -1  -4   29.75    5.92
  10   1  -4   34.06    5.97
  10  -1  -3   17.03    4.53
  10   1  -3   17.83    4.23
  10  -1  -2    4.10    2.37
  10   1  -2    6.09    2.58
  10  -1  -1   20.67    4.82
  10   1  -1   23.33    4.66
  10  -1   0   30.79    5.94
  10   1   0   28.77    5.11
  10  -1   1    4.30    2.60
  10   1   1    6.38    2.14
  10  -1   2   29.60    5.83
  10  -1   3    2.45    2.14
  10  -1   4    5.83    2.81
  10  -1   5    1.18    1.29
  10   2  -9   27.56    6.52
  10   2  -8  192.07   16.18
  10  -2  -7    9.01    3.66
  10   2  -7    2.80    2.29
  10  -2  -6   89.85   11.11
  10   2  -6  110.84   11.18
  10  -2  -5  118.47   12.56
  10   2  -5  113.61   10.90
  10  -2  -4    0.27    1.48
  10   2  -4   -0.01    1.64
  10  -2  -3  115.90   12.07
  10   2  -3  128.64   10.94
  10  -2  -2   85.18   10.16
  10  -2  -1    5.55    2.97
  10  -2   0  208.57   16.21
  10  -2   1   62.05    8.66
  10  -2   2   17.41    4.80
  10  -2   3  189.47   15.66
  10  -2   4   45.34    7.80
  10  -3  -5    1.85    1.75
  10  -3  -4   16.01    4.45
  10  -3  -3   13.52    4.44
  10  -3  -2    6.52    2.84
  10  -3  -1   18.42    4.97
  10  -3   0   16.89    4.86
  10  -3   1   -0.72    1.67
  10  -3   2   21.16    5.39
  11   0  -7    6.63    3.45
  11   0  -6   79.70   10.43
  11   0  -5   49.81    8.05
  11   0  -4    1.87    1.84
  11   0  -3  113.14   11.80
  11   0  -2   33.23    6.17
  11   0  -1   50.21    7.69
  11   0   0  149.25   13.09
  11   0   1   38.62    6.64
  11   0   2   97.30   10.62
  11   1  -7   86.04   10.98
  11  -1  -6   45.93    8.15
  11   1  -6   46.79    7.82
  11  -1  -5   -1.05    1.74
  11   1  -5    2.55    2.26
  11  -1  -4   69.17    9.63
  11   1  -4   84.11    9.89
  11  -1  -3   51.82    8.28
  11   1  -3   55.96    7.99
  11  -1  -2    3.06    2.01
  11   1  -2    2.97    2.28
  11  -1  -1   55.69    8.41
  11  -1   0   19.29    4.84
  11  -1   1   -2.27    2.20
  11  -1   2   58.09    8.62
  11  -1   3   17.70    4.98
  11   2  -8    9.10    4.21
  11   2  -7   10.29    4.16
  11  -2  -4    5.87    2.99
  11  -2  -3   61.30    9.23
  11  -2  -2   31.32    6.44
  11  -2  -1   17.61    4.94
  11  -2   0  112.88   12.43
  11  -2   1   57.36    8.93
  12   0  -4   24.44    5.96
  12   0  -3    5.95    3.52
  12   0  -2    6.06    3.45
  12   0  -1    9.10    3.73
  12   1  -5    1.90    2.03
   0   0   0    0.00    0.00


TITL lym0912-D1 in P2(1)/m
REM P2(1)/m (#11 in standard setting)
CELL 0.71073   8.981200   6.521225  10.616666  90.0000 100.1205  90.0000
ZERR    4.00   0.000540   0.000334   0.000642   0.0000   0.0059   0.0000
LATT  1
SYMM -x, y+1/2,-z
SFAC C H N O Mn Mo 
UNIT 4.00 4.00 4.00 4.00 4.00 4.00 
TREF
HKLF 4
END
_computing_structure_solution     'SHELXT 2014/5 (Sheldrick, 2014)'
;
loop_
_space_group_symop_operation_xyz
'x, y, z'
'-x, y+1/2, -z'
'-x, -y, -z'
'x, -y-1/2, z'
loop_
_atom_site_label
_atom_site_type_symbol
_atom_site_fract_x
_atom_site_fract_y
_atom_site_fract_z
_atom_site_U_iso_or_equiv
_atom_site_adp_type
_atom_site_occupancy
_atom_site_site_symmetry_order
_atom_site_calc_flag
_atom_site_refinement_flags_posn
_atom_site_refinement_flags_adp
_atom_site_refinement_flags_occupancy
_atom_site_disorder_assembly
_atom_site_disorder_group
Mn1 Mn 0.19766(9) 0.7500 0.16874(8) 0.0209(2) Uani 1 2 d S TU P . .
Mo1 Mo -0.00443(5) 0.2500 0.17991(4) 0.01716(14) Uani 1 2 d S TU P . .
C1 C 0.4663(7) 0.7500 0.0065(6) 0.0307(14) Uani 1 2 d S T P . .
H1 H 0.3891 0.7500 -0.0646 0.037 Uiso 1 2 calc RS T P . .
C2 C 0.6170(8) 0.7500 -0.0123(6) 0.0371(16) Uani 1 2 d S T P . .
H2 H 0.6377 0.7500 -0.0952 0.044 Uiso 1 2 calc RS T P . .
C3 C 0.7336(8) 0.7500 0.0888(6) 0.0356(15) Uani 1 2 d S T P . .
H3 H 0.8334 0.7500 0.0760 0.043 Uiso 1 2 calc RS T P . .
C4 C 0.6992(6) 0.7500 0.2142(6) 0.0266(13) Uani 1 2 d S T P . .
C5 C 0.8112(7) 0.7500 0.3289(6) 0.0365(16) Uani 1 2 d S T P . .
H5 H 0.9129 0.7500 0.3217 0.044 Uiso 1 2 calc RS T P . .
C6 C 0.7752(7) 0.7500 0.4441(6) 0.0332(15) Uani 1 2 d S T P . .
H6 H 0.8513 0.7500 0.5159 0.040 Uiso 1 2 calc RS T P . .
C7 C 0.6176(6) 0.7500 0.4599(6) 0.0228(12) Uani 1 2 d S T P . .
C8 C 0.5726(7) 0.7500 0.5803(6) 0.0249(12) Uani 1 2 d S T P . .
H8 H 0.6447 0.7500 0.6548 0.030 Uiso 1 2 calc RS T P . .
C9 C 0.4236(7) 0.7500 0.5868(6) 0.0302(14) Uani 1 2 d S T P . .
H9 H 0.3922 0.7500 0.6657 0.036 Uiso 1 2 calc RS T P . .
C10 C 0.3172(7) 0.7500 0.4731(6) 0.0269(13) Uani 1 2 d S T P . .
H10 H 0.2150 0.7500 0.4788 0.032 Uiso 1 2 calc RS T P . .
C11 C 0.5042(6) 0.7500 0.3515(5) 0.0202(11) Uani 1 2 d S T P . .
C12 C 0.5446(6) 0.7500 0.2258(5) 0.0202(11) Uani 1 2 d S T P . .
N1 N 0.4303(5) 0.7500 0.1223(4) 0.0226(10) Uani 1 2 d S T P . .
N2 N 0.3546(5) 0.7500 0.3588(5) 0.0212(10) Uani 1 2 d S T P . .
O1 O 0.1094(3) 0.4728(4) 0.2096(3) 0.0303(5) Uani 1 1 d . U . . .
O2 O -0.1344(6) 0.2500 0.2788(5) 0.0580(16) Uani 1 2 d S T P . .
O3 O -0.1010(6) 0.2500 0.0217(4) 0.0483(13) Uani 1 2 d S T P . .
loop_
_atom_site_aniso_label
_atom_site_aniso_U_11
_atom_site_aniso_U_22
_atom_site_aniso_U_33
_atom_site_aniso_U_23
_atom_site_aniso_U_13
_atom_site_aniso_U_12
Mn1 0.0174(4) 0.0178(4) 0.0248(5) 0.000 -0.0038(3) 0.000
Mo1 0.0168(2) 0.0167(2) 0.0174(2) 0.000 0.00107(18) 0.000
C1 0.036(3) 0.029(3) 0.023(3) 0.000 -0.004(3) 0.000
C2 0.048(4) 0.036(3) 0.028(4) 0.000 0.008(3) 0.000
C3 0.034(3) 0.038(4) 0.038(4) 0.000 0.013(3) 0.000
C4 0.021(3) 0.022(3) 0.035(3) 0.000 -0.002(2) 0.000
C5 0.018(3) 0.047(4) 0.042(4) 0.000 -0.002(3) 0.000
C6 0.018(3) 0.042(4) 0.034(4) 0.000 -0.011(3) 0.000
C7 0.021(3) 0.017(2) 0.030(3) 0.000 0.002(2) 0.000
C8 0.026(3) 0.023(3) 0.023(3) 0.000 -0.004(2) 0.000
C9 0.040(4) 0.032(3) 0.019(3) 0.000 0.007(3) 0.000
C10 0.029(3) 0.023(3) 0.027(3) 0.000 0.001(3) 0.000
C11 0.024(3) 0.014(2) 0.022(3) 0.000 0.001(2) 0.000
C12 0.020(3) 0.015(2) 0.026(3) 0.000 0.005(2) 0.000
N1 0.026(2) 0.020(2) 0.021(2) 0.000 0.003(2) 0.000
N2 0.019(2) 0.018(2) 0.026(3) 0.000 0.002(2) 0.000
O1 0.0302(11) 0.0238(10) 0.0332(11) 0.0010(10) -0.0048(10) -0.0058(10)
O2 0.060(3) 0.054(3) 0.074(4) 0.000 0.050(3) 0.000
O3 0.054(3) 0.048(3) 0.032(3) 0.000 -0.022(2) 0.000
loop_
_atom_type_symbol
_atom_type_description
_atom_type_scat_dispersion_real
_atom_type_scat_dispersion_imag
_atom_type_scat_source
C C 0.0033 0.0016 'International Tables Vol C Tables 4.2.6.8 and 6.1.1.4'
H H 0.0000 0.0000 'International Tables Vol C Tables 4.2.6.8 and 6.1.1.4'
N N 0.0061 0.0033 'International Tables Vol C Tables 4.2.6.8 and 6.1.1.4'
O O 0.0106 0.0060 'International Tables Vol C Tables 4.2.6.8 and 6.1.1.4'
Mn Mn 0.3368 0.7283 'International Tables Vol C Tables 4.2.6.8 and 6.1.1.4'
Mo Mo -1.6832 0.6857 'International Tables Vol C Tables 4.2.6.8 and 6.1.1.4'
loop_
_geom_angle_atom_site_label_1
_geom_angle_atom_site_label_2
_geom_angle_atom_site_label_3
_geom_angle
_geom_angle_site_symmetry_1
_geom_angle_site_symmetry_3
N1 Mn1 N2 74.60(17) . .
O1 Mn1 N1 117.32(8) . .
O1 Mn1 N1 117.32(8) 4_575 .
O1 Mn1 N2 90.85(10) . .
O1 Mn1 N2 90.85(10) 4_575 .
O1 Mn1 O1 123.65(17) . 4_575
O1 Mn1 O3 95.51(11) 4_575 3_565
O1 Mn1 O3 95.51(11) . 3_565
O3 Mn1 N1 91.9(2) 3_565 .
O3 Mn1 N2 166.5(2) 3_565 .
O1 Mo1 O1 110.09(18) 4_565 .
O2 Mo1 O1 109.09(14) . 4_565
O2 Mo1 O1 109.09(14) . .
O2 Mo1 O3 108.3(3) . .
O3 Mo1 O1 110.11(12) . 4_565
O3 Mo1 O1 110.11(13) . .
C2 C1 H1 119.0 . .
N1 C1 H1 119.0 . .
N1 C1 C2 122.1(6) . .
C1 C2 H2 119.5 . .
C3 C2 C1 121.0(6) . .
C3 C2 H2 119.5 . .
C2 C3 H3 120.8 . .
C2 C3 C4 118.4(6) . .
C4 C3 H3 120.8 . .
C3 C4 C5 124.1(6) . .
C12 C4 C3 117.4(5) . .
C12 C4 C5 118.5(6) . .
C4 C5 H5 118.8 . .
C6 C5 C4 122.4(6) . .
C6 C5 H5 118.8 . .
C5 C6 H6 119.7 . .
C5 C6 C7 120.6(6) . .
C7 C6 H6 119.7 . .
C8 C7 C6 123.1(5) . .
C11 C7 C6 119.2(5) . .
C11 C7 C8 117.7(5) . .
C7 C8 H8 120.3 . .
C9 C8 C7 119.4(5) . .
C9 C8 H8 120.3 . .
C8 C9 H9 120.4 . .
C8 C9 C10 119.2(6) . .
C10 C9 H9 120.4 . .
C9 C10 H10 118.4 . .
N2 C10 C9 123.3(6) . .
N2 C10 H10 118.4 . .
C7 C11 C12 119.8(5) . .
N2 C11 C7 122.5(5) . .
N2 C11 C12 117.7(5) . .
C4 C12 C11 119.3(5) . .
N1 C12 C4 122.7(5) . .
N1 C12 C11 118.0(5) . .
C1 N1 Mn1 126.6(4) . .
C1 N1 C12 118.4(5) . .
C12 N1 Mn1 115.0(4) . .
C10 N2 Mn1 127.3(4) . .
C10 N2 C11 117.9(5) . .
C11 N2 Mn1 114.7(4) . .
Mo1 O1 Mn1 156.51(16) . .
Mo1 O3 Mn1 175.4(3) . 3_565
loop_
_geom_bond_atom_site_label_1
_geom_bond_atom_site_label_2
_geom_bond_distance
_geom_bond_site_symmetry_2
Mn1 N1 2.230(5) .
Mn1 N2 2.249(5) .
Mn1 O1 2.051(3) .
Mn1 O1 2.051(3) 4_575
Mn1 O3 2.055(4) 3_565
Mo1 O1 1.773(3) 4_565
Mo1 O1 1.773(3) .
Mo1 O2 1.701(4) .
Mo1 O3 1.750(4) .
C1 H1 0.9300 .
C1 C2 1.403(9) .
C1 N1 1.325(7) .
C2 H2 0.9300 .
C2 C3 1.362(9) .
C3 H3 0.9300 .
C3 C4 1.418(8) .
C4 C5 1.437(8) .
C4 C12 1.416(8) .
C5 H5 0.9300 .
C5 C6 1.318(9) .
C6 H6 0.9300 .
C6 C7 1.455(8) .
C7 C8 1.407(8) .
C7 C11 1.397(8) .
C8 H8 0.9300 .
C8 C9 1.351(8) .
C9 H9 0.9300 .
C9 C10 1.402(8) .
C10 H10 0.9300 .
C10 N2 1.315(7) .
C11 C12 1.442(7) .
C11 N2 1.360(7) .
C12 N1 1.365(7) .
O3 Mn1 2.055(4) 3_565
loop_
_geom_torsion_atom_site_label_1
_geom_torsion_atom_site_label_2
_geom_torsion_atom_site_label_3
_geom_torsion_atom_site_label_4
_geom_torsion
_geom_torsion_site_symmetry_1
_geom_torsion_site_symmetry_2
_geom_torsion_site_symmetry_3
_geom_torsion_site_symmetry_4
C1 C2 C3 C4 0.000(0) . . . .
C2 C1 N1 Mn1 180.0 . . . .
C2 C1 N1 C12 0.000(0) . . . .
C2 C3 C4 C5 180.000(1) . . . .
C2 C3 C4 C12 0.000(1) . . . .
C3 C4 C5 C6 180.000(1) . . . .
C3 C4 C12 C11 180.000(1) . . . .
C3 C4 C12 N1 0.000(1) . . . .
C4 C5 C6 C7 0.000(1) . . . .
C4 C12 N1 Mn1 180.000(0) . . . .
C4 C12 N1 C1 0.000(0) . . . .
C5 C4 C12 C11 0.000(1) . . . .
C5 C4 C12 N1 180.000(1) . . . .
C5 C6 C7 C8 180.000(1) . . . .
C5 C6 C7 C11 0.000(1) . . . .
C6 C7 C8 C9 180.000(1) . . . .
C6 C7 C11 C12 0.000(1) . . . .
C6 C7 C11 N2 180.000(1) . . . .
C7 C8 C9 C10 0.000(2) . . . .
C7 C11 C12 C4 0.000(1) . . . .
C7 C11 C12 N1 180.000(1) . . . .
C7 C11 N2 Mn1 180.000(1) . . . .
C7 C11 N2 C10 0.000(1) . . . .
C8 C7 C11 C12 180.000(1) . . . .
C8 C7 C11 N2 0.000(1) . . . .
C8 C9 C10 N2 0.000(2) . . . .
C9 C10 N2 Mn1 180.000(1) . . . .
C9 C10 N2 C11 0.000(1) . . . .
C11 C7 C8 C9 0.000(2) . . . .
C11 C12 N1 Mn1 0.000(0) . . . .
C11 C12 N1 C1 180.000(1) . . . .
C12 C4 C5 C6 0.000(1) . . . .
C12 C11 N2 Mn1 0.000(1) . . . .
C12 C11 N2 C10 180.000(1) . . . .
N1 C1 C2 C3 0.000(0) . . . .
N2 C11 C12 C4 180.000(1) . . . .
N2 C11 C12 N1 0.000(1) . . . .
O1 Mo1 O1 Mn1 124.6(4) 4_565 . . .
O2 Mo1 O1 Mn1 -115.7(5) . . . .
O3 Mo1 O1 Mn1 3.1(5) . . . .
