#------------------------------------------------------------------------------
#$Date: 2022-03-23 11:22:38 +0200 (Wed, 23 Mar 2022) $
#$Revision: 273923 $
#$URL: file:///home/coder/svn-repositories/cod/cif/8/10/48/8104840.cif $
#------------------------------------------------------------------------------
#
# This file is available in the Crystallography Open Database (COD),
# http://www.crystallography.net/
#
# All data on this site have been placed in the public domain by the
# contributors.
#
data_8104840
loop_
_publ_author_name
'Luan, Ming-Zhu'
'Meng, Qing-Guo'
_publ_section_title
;
 Crystal structure of
 (E)-7-methoxy-2-((5-methoxypyridin-3-yl)methylene)-3,4-
 dihydronaphthalen-1(2H)-one, C18H17NO3
;
_journal_issue                   2
_journal_name_full
'Zeitschrift f\"ur Kristallographie - New Crystal Structures'
_journal_page_first              387
_journal_page_last               389
_journal_paper_doi               10.1515/ncrs-2020-0602
_journal_volume                  236
_journal_year                    2021
_chemical_formula_moiety         'C18 H17 N O3'
_chemical_formula_sum            'C18 H17 N O3'
_chemical_formula_weight         295.32
_space_group_crystal_system      triclinic
_space_group_IT_number           2
_space_group_name_Hall           '-P 1'
_space_group_name_H-M_alt        'P -1'
_atom_sites_solution_hydrogens   geom
_cell_angle_alpha                85.457(6)
_cell_angle_beta                 76.712(6)
_cell_angle_gamma                82.759(5)
_cell_formula_units_Z            2
_cell_length_a                   7.3950(5)
_cell_length_b                   8.6697(5)
_cell_length_c                   11.6813(9)
_cell_measurement_reflns_used    2143
_cell_measurement_temperature    99.9(3)
_cell_measurement_theta_max      28.6580
_cell_measurement_theta_min      2.9900
_cell_volume                     722.07(9)
_computing_cell_refinement       'CrysAlisPro 1.171.38.43f (Rigaku OD, 2017)'
_computing_data_collection       'CrysAlisPro 1.171.38.43f (Rigaku OD, 2017)'
_computing_data_reduction        'CrysAlisPro 1.171.38.43f (Rigaku OD, 2017)'
_computing_molecular_graphics    'Bruker SHELXTL'
_computing_publication_material  'Bruker SHELXTL'
_computing_structure_refinement  'SHELXL-2017/1 (Sheldrick, 2015)'
_computing_structure_solution    'SHELXL-2017/1 (Sheldrick, 2015)'
_diffrn_ambient_temperature      99.9(3)
_diffrn_measured_fraction_theta_full 1.000
_diffrn_measured_fraction_theta_max 1.000
_diffrn_measurement_device_type  'SuperNova, Dual, Cu at zero, AtlasS2'
_diffrn_measurement_method       'CCD plate'
_diffrn_radiation_type           MoK\a
_diffrn_radiation_wavelength     0.71073
_diffrn_reflns_av_R_equivalents  0.0323
_diffrn_reflns_av_unetI/netI     0.0539
_diffrn_reflns_Laue_measured_fraction_full 1.000
_diffrn_reflns_Laue_measured_fraction_max 1.000
_diffrn_reflns_limit_h_max       8
_diffrn_reflns_limit_h_min       -8
_diffrn_reflns_limit_k_max       9
_diffrn_reflns_limit_k_min       -10
_diffrn_reflns_limit_l_max       14
_diffrn_reflns_limit_l_min       -12
_diffrn_reflns_number            4628
_diffrn_reflns_point_group_measured_fraction_full 1.000
_diffrn_reflns_point_group_measured_fraction_max 1.000
_diffrn_reflns_theta_full        25.242
_diffrn_reflns_theta_max         25.495
_diffrn_reflns_theta_min         2.371
_diffrn_source                   'micro-focus sealed X-ray tube'
_exptl_absorpt_coefficient_mu    0.093
_exptl_absorpt_correction_T_max  1.00000
_exptl_absorpt_correction_T_min  0.44011
_exptl_absorpt_correction_type   multi-scan
_exptl_absorpt_process_details
;
CrysAlisPro 1.171.38.43f (Rigaku Oxford Diffraction, 2015)
Empirical absorption correction using spherical harmonics,
 implemented in SCALE3 ABSPACK scaling algorithm.
;
_exptl_crystal_colour            colourless
_exptl_crystal_density_diffrn    1.358
_exptl_crystal_description       block
_exptl_crystal_F_000             312
_exptl_crystal_size_max          0.140
_exptl_crystal_size_mid          0.130
_exptl_crystal_size_min          0.110
_refine_diff_density_max         0.270
_refine_diff_density_min         -0.290
_refine_diff_density_rms         0.054
_refine_ls_extinction_coef       0.067(7)
_refine_ls_extinction_expression Fc^*^=kFc[1+0.001xFc^2^\l^3^/sin(2\q)]^-1/4^
_refine_ls_extinction_method     'SHELXL-2017/1 (Sheldrick 2017)'
_refine_ls_goodness_of_fit_ref   1.053
_refine_ls_hydrogen_treatment    constr
_refine_ls_matrix_type           full
_refine_ls_number_parameters     202
_refine_ls_number_reflns         2684
_refine_ls_number_restraints     0
_refine_ls_restrained_S_all      1.053
_refine_ls_R_factor_all          0.0610
_refine_ls_R_factor_gt           0.0502
_refine_ls_shift/su_max          0.000
_refine_ls_shift/su_mean         0.000
_refine_ls_structure_factor_coef Fsqd
_refine_ls_weighting_details
'w=1/[\s^2^(Fo^2^)+(0.0639P)^2^+0.0759P] where P=(Fo^2^+2Fc^2^)/3'
_refine_ls_weighting_scheme      calc
_refine_ls_wR_factor_gt          0.1218
_refine_ls_wR_factor_ref         0.1342
_reflns_Friedel_coverage         0.000
_reflns_Friedel_fraction_full    .
_reflns_Friedel_fraction_max     .
_reflns_number_gt                2178
_reflns_number_total             2684
_reflns_threshold_expression     'I > 2\s(I)'
_cod_data_source_file            suppl_j_ncrs-2020-0602_suppl.cif
_cod_data_source_block           MZ-6-1
_cod_database_code               8104840
_shelx_space_group_comment
;
The symmetry employed for this shelxl refinement is uniquely defined
by the following loop, which should always be used as a source of
symmetry information in preference to the above space-group names.
They are only intended as comments.
;
_shelx_estimated_absorpt_t_min   0.987
_shelx_estimated_absorpt_t_max   0.990
_shelx_res_file
;
TITL MZ-6-1 in P-1
    MZ-6-1.res
    created by SHELXL-2017/1 at 12:49:33 on 26-Aug-2020
CELL 0.71073   7.3950   8.6697  11.6813  85.457  76.712  82.759
ZERR   2.00   0.0005   0.0005   0.0009   0.006   0.006   0.005
LATT 1
SFAC C  H  N  O
UNIT 36 34 2 6
OMIT  -3.00  51.00
L.S. 12
ACTA
BOND $H
FMAP 2
PLAN 20
HTAB C18 N1_$2
EQIV $2 x, y+1, z-1
HTAB C13 N1_$1
EQIV $1 -x, -y, -z+1
size 0.14 0.13 0.11
htab
conf
WGHT    0.063900    0.075900
EXTI    0.067021
FVAR       0.36824
MOLE 1
C1    1    0.288096    0.252717    0.073452    11.00000    0.01705    0.02531 =
         0.01860   -0.00216   -0.00232    0.00086
C2    1    0.299176    0.182442    0.193519    11.00000    0.01647    0.02310 =
         0.01881   -0.00012   -0.00283   -0.00073
C3    1    0.233981    0.289303    0.294612    11.00000    0.02488    0.02575 =
         0.01557   -0.00121   -0.00301    0.00169
AFIX  23
H3A   2    0.270553    0.239693    0.364486    11.00000   -1.20000
H3B   2    0.098742    0.310015    0.311771    11.00000   -1.20000
AFIX   0
C4    1    0.320895    0.442123    0.262020    11.00000    0.02758    0.02609 =
         0.02049   -0.00329   -0.00762   -0.00099
AFIX  23
H4A   2    0.273227    0.512734    0.325177    11.00000   -1.20000
H4B   2    0.455397    0.422068    0.252654    11.00000   -1.20000
AFIX   0
C5    1    0.249608    0.677205    0.130776    11.00000    0.02919    0.02592 =
         0.02330   -0.00411   -0.00694   -0.00491
AFIX  43
H5    2    0.255905    0.739861    0.190477    11.00000   -1.20000
AFIX   0
C6    1    0.213468    0.747629    0.026278    11.00000    0.02703    0.01963 =
         0.03154    0.00166   -0.00659   -0.00230
AFIX  43
H6    2    0.197058    0.855566    0.016120    11.00000   -1.20000
AFIX   0
C7    1    0.202105    0.655106   -0.062871    11.00000    0.01829    0.02757 =
         0.01974    0.00352   -0.00354   -0.00182
C8    1    0.226677    0.494474   -0.046374    11.00000    0.01988    0.02617 =
         0.01864   -0.00253   -0.00274   -0.00089
AFIX  43
H8    2    0.218229    0.432477   -0.105955    11.00000   -1.20000
AFIX   0
C9    1    0.263891    0.425056    0.058564    11.00000    0.01506    0.02398 =
         0.01729   -0.00025   -0.00110    0.00006
C10   1    0.276641    0.517075    0.149439    11.00000    0.01859    0.02487 =
         0.02169   -0.00037   -0.00359   -0.00287
C11   1    0.370142    0.033520    0.202578    11.00000    0.01743    0.02550 =
         0.01878   -0.00134   -0.00281   -0.00178
AFIX  43
H11   2    0.420132   -0.015397    0.132393    11.00000   -1.20000
AFIX   0
C12   1    0.377407   -0.061310    0.312342    11.00000    0.02324    0.02056 =
         0.02085   -0.00148   -0.00708   -0.00186
C13   1    0.224893   -0.055012    0.407986    11.00000    0.02268    0.02949 =
         0.02418    0.00221   -0.00456    0.00139
AFIX  43
H13   2    0.120697    0.014993    0.402483    11.00000   -1.20000
AFIX   0
C14   1    0.371228   -0.241135    0.515006    11.00000    0.03451    0.03503 =
         0.02208    0.00603   -0.00701    0.00257
AFIX  43
H14   2    0.370778   -0.301574    0.584473    11.00000   -1.20000
AFIX   0
C15   1    0.530428   -0.257063    0.424430    11.00000    0.02653    0.02335 =
         0.02563   -0.00274   -0.01007    0.00286
C16   1    0.532719   -0.167912    0.320634    11.00000    0.02203    0.02315 =
         0.02077   -0.00256   -0.00467   -0.00126
AFIX  43
H16   2    0.635593   -0.178714    0.257618    11.00000   -1.20000
AFIX   0
C17   1    0.848542   -0.363502    0.368958    11.00000    0.03508    0.06438 =
         0.03618   -0.00602   -0.01097    0.02581
AFIX 137
H17A  2    0.841206   -0.399577    0.294723    11.00000   -1.50000
H17B  2    0.939487   -0.431523    0.401059    11.00000   -1.50000
H17C  2    0.884841   -0.259922    0.357587    11.00000   -1.50000
AFIX   0
C18   1    0.146565    0.877904   -0.188545    11.00000    0.02890    0.02733 =
         0.03160    0.00972   -0.01032   -0.00428
AFIX 137
H18A  2    0.041879    0.923116   -0.131760    11.00000   -1.50000
H18B  2    0.127134    0.904731   -0.266476    11.00000   -1.50000
H18C  2    0.258528    0.917046   -0.180440    11.00000   -1.50000
AFIX   0
N1    3    0.219793   -0.144180    0.507557    11.00000    0.02743    0.03984 =
         0.02502    0.00613   -0.00091    0.00192
O1    4    0.164655    0.712437   -0.169139    11.00000    0.03819    0.02524 =
         0.02356    0.00436   -0.01055   -0.00093
O2    4    0.294419    0.170197   -0.008494    11.00000    0.03599    0.02528 =
         0.01898   -0.00355   -0.00520    0.00016
O3    4    0.672148   -0.362744    0.447668    11.00000    0.03459    0.04020 =
         0.02826    0.00203   -0.00987    0.01227
HKLF 4




REM  MZ-6-1 in P-1
REM R1 =  0.0502 for    2178 Fo > 4sig(Fo)  and  0.0610 for all    2684 data
REM    202 parameters refined using      0 restraints

END

WGHT      0.0639      0.0759

REM Instructions for potential hydrogen bonds
HTAB C13 N1_$1
HTAB C18 N1_$2

REM Highest difference peak  0.270,  deepest hole -0.290,  1-sigma level  0.054
Q1    1   0.4931 -0.2468  0.3607  11.00000  0.05    0.27
Q2    1   0.4067  0.0253  0.2772  11.00000  0.05    0.24
Q3    1   0.5652 -0.1718  0.3827  11.00000  0.05    0.22
Q4    1   0.1542  0.6948  0.0929  11.00000  0.05    0.21
Q5    1   0.4733 -0.0593  0.3384  11.00000  0.05    0.20
Q6    1   0.3284  0.5833  0.1374  11.00000  0.05    0.19
Q7    1   0.3325  0.2338  0.1387  11.00000  0.05    0.19
Q8    1   0.1813  0.4439  0.0167  11.00000  0.05    0.18
Q9    1   0.3654  0.7590 -0.2408  11.00000  0.05    0.18
Q10   1   0.1036  0.7299 -0.0073  11.00000  0.05    0.18
Q11   1   0.2811  0.4849  0.2098  11.00000  0.05    0.17
Q12   1   0.0617  0.0266  0.4789  11.00000  0.05    0.17
Q13   1   0.4396 -0.1160  0.3170  11.00000  0.05    0.17
Q14   1   0.2522  0.1019  0.2006  11.00000  0.05    0.17
Q15   1   0.4996  0.4141  0.2136  11.00000  0.05    0.17
Q16   1   0.0086  0.9509 -0.1617  11.00000  0.05    0.16
Q17   1   0.2744  0.3700  0.2824  11.00000  0.05    0.16
Q18   1   0.8383 -0.2850  0.3107  11.00000  0.05    0.16
Q19   1   0.5258  0.0491  0.2245  11.00000  0.05    0.16
Q20   1   0.4470 -0.2921  0.4585  11.00000  0.05    0.16
;
_shelx_hkl_file
;
   0   0  -2   54.06    1.68
   0   0  -3    4.90    0.35
   0   0  -4   27.32    1.16
   0   0  -5   10.58    0.69
   0   0   5   10.51    0.67
   0   0  -6   60.20    2.33
   0   0  -7    5.03    0.55
   0   0   7    4.26    0.49
   0   0  -8   43.10    2.05
   0   0   8   41.91    1.96
   0   0   9   24.82    1.50
   0   0  10    1.68    0.37
   0   0  11    2.50    0.49
   0   0  12    0.83    0.32
   0   0  13    0.91    0.36
   0   0  14    3.01    0.64
   0  -1  14   13.13    1.37
   0  -1  13    0.71    0.32
   0  -1  12    0.02    0.09
   0  -1  11    0.95    0.32
   0  -1  10    0.15    0.06
   0  -1   9    0.03    0.09
   0  -1   8    3.23    0.45
   0  -1   8    3.47    0.47
   0  -1   7    1.86    0.32
   0   1  -7    2.46    0.40
   0   1  -6   96.85    3.44
   0   1  -5   38.58    1.66
   0   1  -4   10.50    0.67
   0   1  -3  123.80    3.79
   0   1  -2  133.36    3.92
   0   1  -1    6.21    0.36
   0  -1   1    6.80    0.31
   0   1  -1    6.44    0.32
   0   1   0   15.16    0.59
   0  -1   0   13.95    0.58
   0  -1   0   13.67    0.58
   0   1   0   14.85    0.59
   0   1   1  211.15    5.95
   0  -1  -1  213.76    5.92
   0   1   2  487.89   13.49
   0  -1  -2  499.26   13.44
   0  -1  -3   47.64    1.64
   0   1   3   47.37    1.66
   0  -1  -4   24.83    1.06
   0   1   4   23.34    1.05
   0  -1  -4   22.41    1.01
   0  -1  -5   20.06    1.01
   0   1   5   20.60    1.04
   0  -1  -6   13.60    0.85
   0  -1  -7   16.47    1.03
   0   1   7   16.21    1.05
   0  -1  -8    2.63    0.41
   0   1   8    2.07    0.37
   0   1   9   61.05    2.69
   0   1  10  332.49   10.32
   0   1  11    0.35    0.23
   0   1  12   15.30    1.39
   0   1  13    0.09    0.13
   0   1  14    3.92    0.79
   0  -2  13    6.35    0.88
   0  -2  12    1.65    0.43
   0  -2  11    0.00    0.09
   0  -2  10   11.36    1.02
   0  -2  10   11.94    1.03
   0  -2   9    2.48    0.43
   0  -2   9    2.11    0.40
   0  -2   8   16.59    1.12
   0  -2   7    0.60    0.18
   0   2  -7    0.69    0.23
   0   2  -6   44.11    2.04
   0   2  -5   11.07    0.82
   0  -2   4  367.67   10.34
   0   2  -4  351.09   10.35
   0   2  -4  377.60   10.52
   0  -2   3   16.11    0.82
   0   2  -3   15.46    0.87
   0   2  -3   13.91    0.74
   0   2  -2   39.38    1.44
   0   2  -2   42.13    1.60
   0  -2   2   43.05    1.50
   0   2  -1    2.00    0.24
   0   2  -1    2.04    0.26
   0  -2   1    1.82    0.20
   0  -2   1    2.15    0.24
   0  -2   0  151.06    4.40
   0   2   0  152.08    4.38
   0  -2   0  145.33    4.49
   0  -2   0  148.56    4.46
   0  -2  -1    0.55    0.13
   0   2   1    0.36    0.11
   0  -2  -2  137.62    4.17
   0   2   2  139.83    4.31
   0  -2  -3    1.91    0.24
   0   2   3    1.76    0.26
   0  -2  -4  208.25    6.07
   0   2   4  203.24    6.23
   0   2   5   19.47    1.11
   0  -2  -5   19.71    1.02
   0  -2  -6   21.97    1.15
   0   2   7    0.37    0.18
   0  -2  -7    0.62    0.18
   0  -2  -8   26.18    1.44
   0   2   8   24.65    1.52
   0   2   9    7.40    0.82
   0   2  10    2.56    0.52
   0   2  11   22.33    1.68
   0   2  12   23.68    1.84
   0   2  13    1.63    0.50
   0   2  14    0.65    0.36
   0  -3  13    0.31    0.20
   0  -3  12    0.55    0.25
   0  -3  11    0.16    0.22
   0  -3  11    0.31    0.23
   0  -3  10   -0.03    0.11
   0  -3   9    3.19    0.51
   0  -3   8    5.92    0.65
   0   3  -8    6.28    0.78
   0   3  -7   -0.05    0.12
   0  -3   7    0.21    0.12
   0   3  -6    3.61    0.52
   0  -3   6    4.15    0.49
   0   3  -5   20.81    1.19
   0  -3   5   19.91    1.13
   0   3  -5   21.96    1.32
   0   3  -4   83.69    3.06
   0  -3   4   88.92    3.04
   0   3  -4   89.86    3.28
   0  -3   3   32.03    1.43
   0   3  -3   30.50    1.41
   0   3  -3   33.18    1.60
   0  -3   2    5.71    0.48
   0   3  -2    5.99    0.57
   0  -3   2    4.77    0.38
   0   3  -2    5.99    0.53
   0  -3   1   87.10    2.81
   0   3  -1   87.75    3.02
   0   3  -1   85.93    2.86
   0  -3   0    1.43    0.26
   0  -3   0    1.11    0.22
   0  -3   0    1.09    0.21
   0  -3  -1   14.85    0.88
   0   3   1   13.70    0.86
   0  -3  -1   14.96    0.84
   0  -3  -2   82.77    2.84
   0   3   2   77.19    2.87
   0   3   3    0.98    0.25
   0  -3  -3    1.08    0.22
   0   3   4  101.72    3.64
   0  -3  -4  102.61    3.39
   0   3   5   46.37    2.13
   0  -3  -5   47.74    1.91
   0  -3  -6  159.58    5.08
   0   3   7    7.28    0.78
   0  -3  -7    8.53    0.71
   0  -3  -7    8.17    0.71
   0   3   8   14.65    1.18
   0  -3  -8   14.37    1.02
   0   3   9    3.70    0.60
   0   3  10   12.57    1.24
   0   3  11    1.00    0.37
   0   3  12   34.70    2.38
   0   3  13    2.34    0.60
   0   3  14    9.80    1.33
   0  -4  13   -0.07    0.16
   0  -4  12    0.91    0.33
   0  -4  12    0.95    0.37
   0  -4  11    3.59    0.61
   0  -4  10    0.86    0.29
   0  -4   9   10.35    0.96
   0  -4   8    0.05    0.07
   0   4  -8    0.09    0.11
   0   4  -7   24.78    1.63
   0  -4   7   25.97    1.48
   0   4  -6    0.11    0.11
   0  -4   6    0.11    0.07
   0   4  -5    4.22    0.62
   0  -4   5    4.17    0.50
   0   4  -5    3.59    0.50
   0  -4   4    0.01    0.03
   0   4  -4    0.05    0.08
   0   4  -4    0.10    0.06
   0   4  -3    9.58    0.80
   0   4  -3    8.83    0.83
   0  -4   3    7.87    0.65
   0  -4   3    7.34    0.54
   0  -4   2    6.45    0.52
   0   4  -2    7.68    0.76
   0  -4   2    6.01    0.56
   0   4  -2    6.33    0.63
   0  -4   1   24.95    1.32
   0   4  -1   26.18    1.31
   0   4  -1   28.97    1.56
   0  -4   1   25.98    1.47
   0  -4   0   14.71    1.04
   0  -4   0   13.42    0.91
   0  -4   0   15.05    0.96
   0   4   1   22.38    1.29
   0  -4  -1   23.51    1.27
   0  -4  -1   23.56    1.23
   0  -4  -1   27.09    1.40
   0  -4  -2   17.74    1.10
   0   4   2   15.22    1.07
   0  -4  -3    3.67    0.45
   0   4   3    3.37    0.48
   0  -4  -4   11.11    0.80
   0   4   4   11.05    0.96
   0  -4  -5   15.29    0.96
   0  -4  -6    4.08    0.48
   0   4   6    4.43    0.64
   0  -4  -7    3.90    0.49
   0   4   7    4.38    0.65
   0   4   8    4.68    0.71
   0  -4  -8    5.12    0.58
   0   4   9    3.27    0.61
   0   4  10    0.15    0.14
   0   4  11    6.24    0.94
   0   4  12   -0.04    0.15
   0   4  13    1.01    0.41
   0   4  14    5.42    1.03
   0  -5  12    0.32    0.21
   0  -5  12    0.41    0.24
   0  -5  11    1.09    0.35
   0  -5  10    0.83    0.30
   0  -5   9   27.38    1.71
   0  -5   8    1.09    0.31
   0   5  -8    1.46    0.40
   0   5  -7    7.79    0.93
   0  -5   7   10.99    0.93
   0  -5   6   15.11    1.09
   0  -5   5    7.24    0.72
   0   5  -5    7.17    0.89
   0   5  -4   21.78    1.60
   0  -5   4   22.02    1.31
   0   5  -4   22.60    1.50
   0  -5   3    3.37    0.37
   0   5  -3    4.26    0.64
   0   5  -3    2.99    0.49
   0  -5   3    4.17    0.50
   0   5  -2   12.56    1.11
   0  -5   2   12.61    0.92
   0  -5   2   12.66    0.84
   0   5  -2   13.97    1.00
   0  -5   1   -0.03    0.04
   0  -5   1   -0.02    0.07
   0   5  -1   -0.13    0.09
   0  -5   1   -0.04    0.07
   0  -5   0   12.37    0.95
   0  -5   0   15.15    1.17
   0  -5   0   14.77    1.05
   0  -5  -1   25.02    1.40
   0  -5  -1   28.52    1.58
   0  -5  -1   23.80    1.41
   0  -5  -2    3.40    0.47
   0  -5  -2    4.29    0.57
   0   5   2    3.53    0.53
   0   5   3   20.39    1.40
   0  -5  -3   21.23    1.29
   0  -5  -4    5.67    0.60
   0  -5  -5    1.16    0.26
   0   5   6   -0.01    0.07
   0  -5  -6    0.03    0.06
   0  -5  -7    7.31    0.70
   0   5   7    8.07    1.00
   0   5   8   17.09    1.53
   0   5   9    0.16    0.13
   0   5  10   12.46    1.39
   0   5  11    4.03    0.79
   0   5  12   -0.09    0.24
   0   5  13   -0.16    0.38
   0  -6  11    0.14    0.15
   0  -6  10    3.01    0.56
   0  -6   9    7.40    0.86
   0  -6   8    0.69    0.27
   0   6  -7    0.61    0.30
   0  -6   7    0.33    0.14
   0   6  -6   36.29    2.28
   0  -6   6   36.11    1.93
   0  -6   5    0.57    0.23
   0  -6   4   -0.06    0.05
   0   6  -4    0.04    0.13
   0   6  -4    0.10    0.17
   0  -6   3    0.49    0.19
   0   6  -3    0.36    0.23
   0  -6   3    0.32    0.13
   0   6  -3    0.19    0.12
   0   6  -2   15.88    1.13
   0  -6   2   15.14    1.29
   0  -6   2   15.13    1.08
   0   6  -2   16.89    1.41
   0  -6   2   14.73    1.00
   0  -6   1    4.78    0.59
   0  -6   1    4.45    0.57
   0  -6   1    3.44    0.59
   0  -6   0    4.62    0.62
   0  -6   0    4.04    0.55
   0  -6   0    3.98    0.64
   0  -6  -1   50.00    2.48
   0  -6  -1   55.77    2.55
   0  -6  -2   13.07    1.03
   0  -6  -2   12.66    1.05
   0  -6  -3    0.80    0.26
   0  -6  -3    0.95    0.28
   0  -6  -4    0.25    0.13
   0   6   4    0.00    0.09
   0  -6  -5    4.71    0.57
   0   6   5    3.80    0.67
   0  -6  -6    5.81    0.62
   0   6   6    5.73    0.83
   0   6   7    3.40    0.66
   0   6   8   10.77    1.27
   0   6   9    1.25    0.39
   0   6  10    1.96    0.60
   0   6  11   -0.09    0.19
   0   6  12    1.10    0.48
   0   6  13    2.55    0.77
   0  -7  10    3.43    0.63
   0  -7   9    4.90    0.72
   0  -7   8    0.92    0.30
   0  -7   7    0.08    0.17
   0   7  -6   15.79    1.51
   0  -7   6   17.01    1.29
   0   7  -5    3.61    0.65
   0  -7   5    5.32    0.68
   0  -7   4   -0.04    0.09
   0   7  -3    8.16    0.85
   0  -7   3    7.07    0.65
   0  -7   3    7.18    0.95
   0  -7   3    6.97    0.76
   0  -7   2    9.81    1.13
   0   7  -2   11.72    1.01
   0  -7   2    9.34    0.88
   0  -7   2    9.81    0.86
   0  -7   1    0.54    0.24
   0  -7   1    0.53    0.19
   0  -7   1    0.76    0.25
   0  -7   0    2.18    0.46
   0  -7   0    2.32    0.52
   0  -7   0    2.17    0.43
   0  -7  -1    6.13    0.80
   0  -7  -1    4.69    0.67
   0  -7  -1    6.12    0.74
   0  -7  -2    1.32    0.32
   0  -7  -2    0.86    0.29
   0  -7  -3    0.46    0.19
   0   7   3    0.54    0.23
   0  -7  -3    0.80    0.27
   0  -7  -3    1.26    0.33
   0   7   4   26.09    1.85
   0  -7  -4   24.74    1.68
   0  -7  -4   26.00    1.56
   0   7   5    7.77    1.01
   0  -7  -5    7.67    0.93
   0  -7  -5    7.10    0.75
   0   7   6    1.57    0.47
   0   7   7    0.81    0.35
   0   7   8    0.24    0.21
   0   7   9    0.15    0.18
   0   7  10    4.19    0.87
   0   7  11    0.56    0.32
   0   7  12    3.40    0.88
   0   7  13   -1.09    0.51
   0  -8   9    0.38    0.21
   0  -8   8    0.00    0.21
   0  -8   7    0.68    0.29
   0  -8   6    0.30    0.18
   0  -8   5    1.09    0.34
   0  -8   4    3.32    0.57
   0  -8   3    8.28    0.87
   0  -8   3    8.63    0.76
   0  -8   2   52.74    2.36
   0  -8   2   47.65    2.43
   0  -8   1    1.21    0.34
   0  -8   1    1.09    0.28
   0  -8   0    0.32    0.26
   0  -8   0    0.25    0.18
   0  -8   0   -0.04    0.10
   0  -8  -1   10.94    1.16
   0  -8  -1    9.39    0.99
   0  -8  -1   11.19    1.13
   0  -8  -2    5.83    0.77
   0  -8  -2    5.49    0.81
   0  -8  -2    6.42    0.83
   0  -8  -3    1.66    0.41
   0  -8  -3    2.24    0.45
   0  -8  -3    1.88    0.44
   0   8   4    6.74    0.93
   0  -8  -4    6.76    0.84
   0  -8  -4    5.91    0.80
   0  -8  -5    3.50    0.62
   0   8   5    4.16    0.76
   0   8   6    0.04    0.07
   0  -8  -6   -0.03    0.11
   0   8   7   12.68    1.46
   0   8   8    0.18    0.14
   0   8   9    0.48    0.31
   0   8  10    0.45    0.29
   0   8  11   -0.09    0.30
   0   8  12   -0.06    0.28
   0  -9   8    0.80    0.28
   0  -9   7    8.86    1.01
   0  -9   6    7.43    0.91
   0  -9   5    3.25    0.59
   0  -9   4    1.02    0.34
   0  -9   3    9.78    0.84
   0  -9   3   11.19    1.06
   0  -9   2    1.02    0.27
   0  -9   2    1.09    0.33
   0  -9   1    0.14    0.07
   0  -9   1    0.59    0.23
   0  -9   0   16.52    1.39
   0  -9   0   17.76    1.40
   0  -9  -1    2.73    0.57
   0  -9  -1    2.26    0.48
   0  -9  -2    0.85    0.32
   0  -9  -2    0.92    0.36
   0  -9  -3    0.51    0.22
   0  -9  -3    1.25    0.37
   0  -9  -4    0.80    0.31
   0  -9  -4    0.83    0.31
   0  -9  -5    0.59    0.26
   0   9   5    0.60    0.31
   0  -9  -5    0.60    0.23
   0  -9  -6    6.46    0.88
   0  -9  -6    5.87    0.88
   0   9   7    0.73    0.33
   0  -9  -7    0.37    0.21
   0   9   8   20.70    2.02
   0  -9  -8   17.28    1.73
   0  -9  -9   -0.02    0.11
   0   9   9    0.07    0.18
   0 -10   7    7.81    0.98
   0 -10   6    6.22    0.87
   0 -10   5    7.43    0.93
   0 -10   4    0.79    0.32
   0 -10   3    0.16    0.21
   0 -10   2   11.70    1.13
   0 -10   1   11.61    1.14
   0 -10   0   13.51    1.25
   0 -10  -1   -0.10    0.15
   0 -10  -2    3.97    0.66
   0 -10  -3    6.80    0.96
   0 -10  -3    5.53    0.81
   0 -10  -4    5.29    0.82
   0 -10  -4    5.55    0.87
   0 -10  -5    1.24    0.40
   0 -10  -5    1.83    0.47
   0 -10  -6   -0.04    0.15
   0 -10  -7    0.46    0.22
   0 -10  -8   -0.04    0.16
   0 -10  -9    0.43    0.29
   0 -11   5    1.09    0.37
   0 -11   4    0.87    0.33
   0 -11   3    0.26    0.20
   0 -11   2    6.72    0.87
   0 -11   1    1.83    0.47
   1 -11  -2    0.79    0.28
   1 -11  -1    1.24    0.38
   1 -11   0    0.19    0.15
   1 -11   1    0.44    0.29
   1 -11   2    1.25    0.39
   1 -11   3    3.62    0.68
   1 -11   4    0.42    0.28
  -1  10   7    0.36    0.28
   1 -10  -6    9.54    1.20
  -1  10   6   10.13    1.46
   1 -10  -5    1.81    0.50
   1 -10  -4    0.60    0.30
   1 -10  -3    0.59    0.30
   1 -10  -2    6.35    0.95
   1 -10  -1   -0.02    0.18
   1 -10   0    0.40    0.25
   1 -10   1    2.25    0.54
   1 -10   2   -0.42    0.23
   1 -10   3    0.15    0.12
   1 -10   4    0.03    0.10
   1 -10   5    0.07    0.17
   1 -10   6    5.30    0.85
  -1   9  10   -0.09    0.46
  -1   9   9   34.44    2.98
  -1   9   8    3.04    0.81
   1  -9  -7   -0.12    0.22
  -1   9   7    0.29    0.39
   1  -9  -6   -0.08    0.11
  -1   9   6   -0.16    0.24
   1  -9  -5   -0.08    0.14
   1  -9  -5   -0.03    0.09
  -1   9   5   -0.01    0.18
   1  -9  -4    0.39    0.24
   1  -9  -4    0.54    0.24
  -1   9   4    0.58    0.29
   1  -9  -3    0.11    0.10
   1  -9  -3   -0.07    0.12
   1  -9  -2    0.25    0.23
   1  -9  -2    0.02    0.08
   1  -9  -1    2.80    0.52
   1  -9  -1    1.91    0.50
   1  -9   0    0.06    0.15
   1  -9   1    0.45    0.28
   1  -9   2    9.11    1.05
   1  -9   3    1.18    0.37
   1  -9   4   15.40    1.37
   1  -9   5    0.09    0.07
   1  -9   6    3.39    0.65
   1  -9   7    0.18    0.15
   1  -9   8    7.45    0.97
  -1   8  11    0.16    0.31
  -1   8  10    2.56    0.73
  -1   8   9    0.07    0.26
  -1   8   8    2.29    0.72
  -1   8   7    0.79    0.40
  -1   8   6    9.81    1.36
  -1   8   5    1.19    0.45
   1  -8  -5    0.34    0.18
   1  -8  -4    2.00    0.44
  -1   8   4    2.38    0.62
   1  -8  -4    2.14    0.50
  -1   8   3    9.93    1.21
   1  -8  -3    7.55    0.83
   1  -8  -3    7.85    0.98
   1  -8  -2    0.12    0.14
   1  -8  -2    0.11    0.14
   1  -8  -1    0.06    0.11
   1  -8  -1    0.01    0.12
   1  -8   0    8.85    1.02
   1  -8   0   10.07    0.91
   1  -8   1   69.77    2.61
   1  -8   1   57.86    3.07
   1  -8   2   28.37    1.28
   1  -8   2   28.03    1.89
   1  -8   3   13.95    1.24
   1  -8   4    0.06    0.07
   1  -8   5    0.15    0.20
   1  -8   6   -0.02    0.10
   1  -8   7    0.56    0.27
   1  -8   8    1.25    0.40
   1  -8   9    0.30    0.22
  -1   7  12    0.04    0.26
  -1   7  11    2.36    0.72
  -1   7  10    3.66    0.88
  -1   7   9    0.02    0.13
  -1   7   8    0.11    0.17
  -1   7   7    0.53    0.31
  -1   7   6   40.68    2.82
  -1   7   5   87.21    4.31
  -1   7   4   39.97    2.61
  -1   7   3    0.38    0.15
   1  -7  -3    0.00    0.07
   1  -7  -2    0.99    0.40
   1  -7  -2    0.96    0.25
  -1   7   2    1.18    0.36
   1  -7  -2    1.02    0.33
   1  -7  -1    1.58    0.40
   1  -7  -1    1.18    0.36
   1  -7  -1    1.08    0.27
   1  -7   0    4.67    0.71
   1  -7   0    4.84    0.60
   1  -7   0    4.49    0.80
   1  -7   1    0.17    0.08
   1  -7   1    0.27    0.19
   1  -7   2    0.65    0.28
   1  -7   2    0.38    0.12
   1  -7   3    6.69    0.82
  -1   7  -4   26.76    1.44
   1  -7   4   24.01    1.64
   1  -7   5    8.87    0.93
  -1   7  -5    8.41    0.81
   1  -7   6   10.59    1.08
   1  -7   7    0.42    0.20
   1  -7   8    0.04    0.13
   1  -7   9    1.74    0.45
   1  -7  10   18.00    1.51
  -1   6  12    2.01    0.70
  -1   6  11    9.74    1.46
  -1   6  10    1.98    0.65
  -1   6   9    1.37    0.53
  -1   6   8    0.87    0.36
  -1   6   7    8.78    1.19
  -1   6   6    0.06    0.21
  -1   6   5   31.76    2.29
   1  -6  -4  110.05    4.35
  -1   6   4  118.06    4.93
   1  -6  -3  147.20    5.39
  -1   6   3  141.90    5.62
  -1   6   2   18.30    1.50
   1  -6  -2   19.75    1.22
   1  -6  -1    0.17    0.16
   1  -6  -1    0.17    0.12
   1  -6  -1    0.30    0.17
   1  -6   0   18.80    1.16
   1  -6   0   17.33    1.53
   1  -6   0   15.66    1.30
   1  -6   1    5.90    0.87
   1  -6   1    4.92    0.49
   1  -6   1    4.92    0.68
   1  -6   2    1.14    0.37
   1  -6   2    0.91    0.17
   1  -6   2    1.02    0.29
   1  -6   3    9.35    0.93
   1  -6   3    8.66    1.04
  -1   6  -3    9.30    1.12
  -1   6  -3   10.54    0.75
  -1   6  -4   81.86    3.11
   1  -6   4   82.80    3.41
  -1   6  -5  130.70    4.63
   1  -6   5  121.56    4.62
   1  -6   6   18.58    1.38
  -1   6  -6   17.52    1.36
   1  -6   7    0.43    0.22
  -1   6  -8    0.90    0.31
   1  -6   8    1.51    0.37
   1  -6   9    0.06    0.14
   1  -6  10    0.04    0.12
   1  -6  11    0.05    0.10
  -1   5  13   -0.43    0.33
  -1   5  12    0.11    0.11
  -1   5  11    3.09    0.78
  -1   5  10   18.13    1.88
  -1   5   9   15.80    1.70
  -1   5   8    4.10    0.80
  -1   5   7    1.23    0.42
  -1   5   6    0.10    0.07
   1  -5  -5    3.32    0.51
  -1   5   5    3.47    0.64
  -1   5   4    4.99    0.77
   1  -5  -4    5.86    0.69
  -1   5   3    3.38    0.61
   1  -5  -3    4.74    0.63
   1  -5  -2   31.32    1.91
   1  -5  -1   14.11    0.91
   1  -5  -1   14.97    1.17
   1  -5   0   38.73    1.65
   1  -5   0   39.46    2.23
   1  -5   1    0.25    0.14
   1  -5   1    0.23    0.09
   1  -5   1    0.31    0.23
   1  -5   2   30.66    1.18
   1  -5   2   35.63    2.06
   1  -5   2   34.45    1.84
   1  -5   3    0.88    0.28
  -1   5  -3    1.32    0.38
  -1   5  -3    1.00    0.21
  -1   5  -4    1.06    0.27
   1  -5   4    1.02    0.28
  -1   5  -4    0.75    0.33
   1  -5   5   96.32    3.74
  -1   5  -5  102.49    3.76
   1  -5   6  172.66    5.70
  -1   5  -6  151.63    5.47
   1  -5   7   76.26    3.22
   1  -5   8    3.34    0.54
  -1   5  -8    3.01    0.54
  -1   5  -9    2.80    0.55
   1  -5   9    2.79    0.51
   1  -5  10    2.25    0.49
   1  -5  11    1.15    0.38
   1  -5  12    1.36    0.41
  -1   4  13    0.06    0.14
  -1   4  12    1.38    0.50
  -1   4  11    1.59    0.48
  -1   4  10   -0.01    0.11
  -1   4   9    1.64    0.47
  -1   4   8    1.96    0.49
  -1   4   7    0.89    0.31
   1  -4  -6    6.86    0.70
  -1   4   6    7.67    0.98
   1  -4  -5   13.53    1.02
  -1   4   5   12.48    1.21
   1  -4  -4    1.88    0.36
   1  -4  -3   11.89    0.98
  -1   4   2    8.58    0.90
   1  -4  -2   10.90    0.96
  -1   4   1    4.29    0.59
   1  -4  -1    5.47    0.65
   1  -4   0  253.82    8.29
   1  -4   0  261.50    7.46
   1  -4   0  261.80    8.12
   1  -4   1  147.76    4.27
   1  -4   1  134.62    4.87
   1  -4   1  137.59    5.09
  -1   4  -2    1.79    0.22
  -1   4  -2    1.69    0.38
   1  -4   2    2.53    0.41
   1  -4   2    1.71    0.37
   1  -4   2    1.80    0.18
  -1   4  -3    6.27    0.53
  -1   4  -3    5.81    0.74
   1  -4   3    4.49    0.56
   1  -4   4    0.67    0.21
  -1   4  -4    0.70    0.19
  -1   4  -5   26.94    1.38
   1  -4   5   29.61    1.58
  -1   4  -5   31.10    1.94
  -1   4  -6    0.32    0.13
  -1   4  -6    0.55    0.29
   1  -4   6    0.49    0.21
   1  -4   7    0.69    0.24
  -1   4  -8    4.16    0.58
   1  -4   8    4.67    0.62
  -1   4  -9    7.04    0.81
   1  -4   9    7.79    0.82
   1  -4  10    1.70    0.40
   1  -4  11    0.83    0.30
   1  -4  12    7.06    0.90
   1  -4  13    4.77    0.78
  -1   3  13    0.31    0.30
  -1   3  12    0.51    0.24
  -1   3  11   13.89    1.48
  -1   3  10    0.14    0.14
  -1   3   9    2.49    0.55
  -1   3   8   28.03    1.90
   1  -3  -7    4.81    0.58
  -1   3   7    5.37    0.75
   1  -3  -6   14.59    1.02
  -1   3   6   13.93    1.23
   1  -3  -5   10.38    0.82
   1  -3  -4   19.69    1.19
   1  -3  -3    0.40    0.15
  -1   3   3    0.27    0.14
  -1   3   2    0.53    0.18
   1  -3  -2    0.53    0.18
   1  -3  -1   29.42    1.53
  -1   3   1   26.72    1.53
   1  -3   0   27.80    1.46
  -1   3   0   25.93    1.44
   1  -3   0   27.39    1.05
   1  -3   0   30.26    1.59
   1  -3   1   16.23    0.64
   1  -3   1   15.99    1.05
   1  -3   1   17.12    1.13
   1  -3   2   10.36    0.80
  -1   3  -2    9.65    0.86
  -1   3  -2   10.05    0.55
   1  -3   3   14.24    0.96
  -1   3  -3   16.02    1.15
  -1   3  -3   14.76    0.72
  -1   3  -4    0.07    0.05
  -1   3  -4    0.02    0.07
   1  -3   4    0.07    0.08
  -1   3  -5   -0.02    0.04
  -1   3  -5   -0.02    0.08
   1  -3   6    4.35    0.52
  -1   3  -6    3.88    0.45
  -1   3  -6    4.08    0.61
   1  -3   7    7.15    0.70
   1  -3   8   -0.09    0.06
   1  -3   9    0.16    0.14
   1  -3  10   50.03    2.44
   1  -3  11    2.99    0.53
   1  -3  12    0.01    0.10
   1  -3  13    1.35    0.40
   1  -3  13    0.58    0.24
  -1   2  13    1.46    0.49
  -1   2  12    1.06    0.43
  -1   2  11    8.47    1.10
  -1   2  10    0.82    0.31
  -1   2   9   12.03    1.19
  -1   2   8    2.85    0.54
   1  -2  -7    4.87    0.56
  -1   2   7    5.08    0.68
   1  -2  -7    5.70    0.62
   1  -2  -6    0.58    0.19
  -1   2   6    0.79    0.25
   1  -2  -5   25.22    1.31
  -1   2   4  245.33    7.84
   1  -2  -4  258.33    7.55
  -1   2   3    7.41    0.72
   1  -2  -3    8.28    0.66
   1  -2  -2   42.19    1.80
  -1   2   2   42.21    1.91
  -1   2   1  130.65    4.26
   1  -2  -1  120.79    4.09
  -1   2   0   55.77    2.24
   1  -2   0   59.21    2.29
   1  -2   1  103.03    3.52
  -1   2  -2   35.95    1.65
  -1   2  -2   35.56    1.11
  -1   2  -3    3.27    0.43
  -1   2  -4  128.23    4.39
  -1   2  -5   29.28    1.58
  -1   2  -6    8.12    0.79
   1  -2   7    2.67    0.39
  -1   2  -7    2.61    0.47
   1  -2   8    0.17    0.11
   1  -2   9    8.04    0.79
   1  -2  10    5.80    0.69
   1  -2  11    4.44    0.64
   1  -2  12    5.62    0.78
   1  -2  12    5.54    0.74
   1  -2  13    0.98    0.34
   1  -2  14    4.70    0.79
  -1   1  13   -0.10    0.18
  -1   1  12    0.67    0.36
  -1   1  11   53.31    2.93
  -1   1  10    2.82    0.57
  -1   1   9    1.35    0.37
  -1   1   8   11.77    1.04
   1  -1  -7    1.03    0.25
  -1   1   7    0.72    0.24
   1  -1  -6    1.47    0.28
   1  -1  -6    1.61    0.29
   1  -1  -5   26.82    1.32
   1  -1  -4    5.13    0.46
   1  -1  -3  178.24    5.34
   1  -1  -2   45.01    1.72
   1  -1  -1   71.29    2.46
   1  -1   0    8.44    0.34
   1  -1   0    9.33    0.61
  -1   1  -1    5.12    0.42
  -1   1  -2   33.63    1.40
  -1   1  -3    8.67    0.62
  -1   1  -4   15.62    0.91
  -1   1  -5    0.98    0.22
   1  -1   5    1.05    0.21
  -1   1  -6  263.44    8.02
  -1   1  -7   25.01    1.46
   1  -1   7   24.96    1.30
  -1   1  -8    5.19    0.65
   1  -1   8    4.48    0.52
   1  -1   9   14.62    1.06
   1  -1  10    0.15    0.17
   1  -1  11    4.29    0.64
   1  -1  11    4.31    0.61
   1  -1  12    0.83    0.30
   1  -1  13    4.86    0.74
   1  -1  14    8.72    1.07
  -1   0  13    3.97    0.76
  -1   0  12    4.78    0.78
  -1   0  11    5.76    0.82
  -1   0  10    1.35    0.37
  -1   0   9   50.08    2.44
  -1   0   8   28.38    1.62
  -1   0   7   37.05    1.84
   1   0  -7   39.90    1.86
   1   0  -6    0.29    0.12
   1   0  -5    0.33    0.12
   1   0  -4    4.35    0.40
   1   0  -4    4.47    0.41
   1   0  -3   47.81    1.71
  -1   0   2   34.55    1.32
   1   0  -2   33.37    1.24
   1   0  -1  280.31    7.90
   1   0  -1  289.58    7.86
  -1   0   1  298.57    7.82
  -1   0   0  113.61    3.30
   1   0   0  113.36    3.27
  -1   0   0  108.35    3.23
   1   0   0  107.59    3.27
  -1   0  -1   14.66    0.63
  -1   0  -1   13.99    0.64
   1   0   1   16.42    0.66
   1   0   1   14.83    0.65
  -1   0  -2   33.24    1.20
   1   0   2   32.59    1.15
  -1   0  -3   31.03    1.20
   1   0   3   30.55    1.15
  -1   0  -4  174.93    5.08
   1   0   4  164.62    4.95
   1   0   5   32.38    1.35
  -1   0  -5   34.19    1.48
  -1   0  -6    5.34    0.54
  -1   0  -7   11.95    0.91
  -1   0  -8    0.34    0.16
   1   0   8    0.38    0.16
   1   0   9    0.43    0.15
   1   0   9    0.60    0.22
   1   0  10   14.78    1.13
   1   0  11    0.12    0.14
   1   0  12    0.62    0.25
   1   0  13    2.98    0.58
   1   0  14    1.32    0.44
  -1  -1  13    5.22    0.83
  -1  -1  12    5.68    0.82
  -1  -1  11   10.94    1.11
  -1  -1  10    0.87    0.29
  -1  -1   9   92.16    3.65
  -1  -1   8   18.73    1.24
  -1  -1   7   22.81    1.32
   1   1  -7   24.23    1.39
  -1  -1   6   15.32    0.97
   1   1  -6   15.85    1.01
  -1  -1   5    0.27    0.12
   1   1  -5    0.26    0.11
   1   1  -4   20.85    1.15
   1   1  -4   22.46    1.07
  -1  -1   4   23.00    1.07
  -1  -1   3  102.22    3.13
   1   1  -3   97.09    3.25
   1   1  -3   99.87    3.12
  -1  -1   2   10.75    0.54
   1   1  -2   10.52    0.53
  -1  -1   2    9.66    0.56
   1   1  -1   44.80    1.37
  -1  -1   1   40.21    1.54
  -1  -1   1   43.28    1.36
  -1  -1   0   25.42    1.13
  -1  -1  -1   46.28    1.67
   1   1   2  327.35    8.82
  -1  -1  -2  325.43    8.86
  -1  -1  -3  740.26   20.06
   1   1   3  746.68   20.03
   1   1   4   16.36    0.74
  -1  -1  -4   16.41    0.77
   1   1   5   11.50    0.68
   1   1   5   11.88    0.66
  -1  -1  -5   12.15    0.70
   1   1   6    1.63    0.24
  -1  -1  -6    1.97    0.29
  -1  -1  -7   25.08    1.32
   1   1   8   14.98    0.99
  -1  -1  -8   14.91    1.04
   1   1   9    2.97    0.46
  -1  -1  -9    3.60    0.54
   1   1  10   31.99    1.77
   1   1  11    5.53    0.71
   1   1  12    2.62    0.53
   1   1  13    6.12    0.85
   1   1  14    5.23    0.83
  -1  -2  13    2.85    0.61
  -1  -2  12    1.45    0.40
  -1  -2  11    7.00    0.87
  -1  -2  10    0.15    0.15
  -1  -2   9    0.76    0.26
  -1  -2   8   -0.03    0.08
   1   2  -7    2.05    0.44
   1   2  -7    1.53    0.34
  -1  -2   7    1.59    0.32
  -1  -2   6   48.19    2.08
  -1  -2   6   51.45    2.11
   1   2  -6   52.21    2.23
   1   2  -6   53.88    2.44
  -1  -2   5   95.95    3.32
   1   2  -5  100.59    3.43
   1   2  -4    0.62    0.17
   1   2  -4    0.42    0.15
   1   2  -3    8.34    0.66
   1   2  -3    8.91    0.58
  -1  -2   3    8.15    0.53
   1   2  -2    5.23    0.49
  -1  -2   2    5.92    0.39
   1   2  -2    5.52    0.40
  -1  -2   2    4.45    0.40
  -1  -2   1  156.95    4.76
   1   2  -1  157.75    4.89
  -1  -2   1  155.42    4.36
   1   2  -1  148.22    4.40
  -1  -2   0  104.16    3.48
  -1  -2   0  103.33    2.89
   1   2   0  101.99    3.46
   1   2   0  100.14    2.96
  -1  -2  -1 1000.00   26.71
   1   2   1  956.10   26.74
   1   2   2  347.74    9.56
  -1  -2  -2  351.49    9.49
   1   2   3   18.96    0.81
  -1  -2  -3   20.81    0.76
  -1  -2  -4   44.49    1.55
   1   2   4   45.34    1.60
  -1  -2  -5    0.24    0.08
   1   2   5    0.01    0.03
   1   2   6   16.41    0.92
  -1  -2  -6   17.04    0.91
  -1  -2  -7    1.61    0.27
   1   2   8    4.89    0.55
  -1  -2  -8    5.78    0.59
   1   2   9    4.57    0.56
  -1  -2  -9    4.52    0.56
   1   2  10    0.15    0.12
   1   2  11    0.12    0.14
   1   2  12    5.52    0.78
   1   2  13   24.37    1.84
   1   2  14    0.06    0.12
  -1  -3  13   13.81    1.38
  -1  -3  12    0.09    0.06
  -1  -3  11   13.98    1.25
  -1  -3  10   30.79    1.86
  -1  -3   9   -0.03    0.12
  -1  -3   8    3.99    0.55
  -1  -3   8    4.04    0.55
  -1  -3   7    7.26    0.71
   1   3  -7    7.73    0.90
   1   3  -6    0.50    0.22
  -1  -3   6    0.64    0.19
   1   3  -6    0.32    0.13
  -1  -3   5    3.34    0.40
   1   3  -5    3.44    0.47
   1   3  -4    6.72    0.60
   1   3  -4    6.62    0.68
  -1  -3   4    7.83    0.59
   1   3  -3   27.47    1.27
   1   3  -3   23.63    1.39
  -1  -3   3   25.03    1.21
  -1  -3   3   26.01    1.16
  -1  -3   2   26.63    1.10
  -1  -3   2   24.73    1.26
   1   3  -2   26.43    1.19
   1   3  -2   25.23    1.44
  -1  -3   1   18.66    1.13
   1   3  -1   19.99    1.23
  -1  -3   1   18.75    0.84
   1   3  -1   18.66    0.93
  -1  -3   0    2.63    0.23
  -1  -3   0    3.04    0.43
   1   3   0    2.72    0.29
   1   3   0    2.64    0.38
  -1  -3  -1    0.33    0.09
  -1  -3  -1    0.68    0.20
   1   3   1    0.25    0.11
  -1  -3  -1    0.74    0.13
   1   3   2   34.54    1.35
  -1  -3  -2   31.48    1.63
   1   3   3   75.94    2.62
  -1  -3  -3   79.53    2.44
   1   3   4  192.26    5.80
  -1  -3  -4  194.32    5.61
  -1  -3  -5   20.75    0.99
   1   3   5   21.13    1.11
  -1  -3  -5   20.61    0.95
  -1  -3  -6   11.43    0.71
   1   3   6   11.92    0.85
  -1  -3  -7    1.66    0.28
   1   3   8    0.35    0.17
  -1  -3  -8    0.19    0.13
  -1  -3  -9    0.84    0.24
   1   3   9    1.60    0.36
   1   3  10    0.23    0.15
   1   3  11   48.85    2.60
   1   3  12   20.06    1.64
   1   3  13    1.61    0.48
   1   3  14    2.69    0.64
  -1  -4  12    3.44    0.65
  -1  -4  11    0.27    0.21
  -1  -4  10   11.36    1.08
  -1  -4   9    0.66    0.23
  -1  -4   9    0.72    0.24
  -1  -4   8    0.15    0.09
  -1  -4   7   29.34    1.59
   1   4  -7   26.70    1.89
  -1  -4   6    0.40    0.16
   1   4  -6    0.65    0.23
   1   4  -6    0.50    0.22
   1   4  -5   32.64    1.74
  -1  -4   5   29.38    1.48
   1   4  -5   30.81    1.84
   1   4  -4    2.10    0.37
  -1  -4   4    2.20    0.32
   1   4  -3   55.40    2.33
  -1  -4   3   59.01    2.11
   1   4  -3   57.28    2.63
  -1  -4   2    0.71    0.20
   1   4  -2    0.74    0.21
   1   4  -2    0.65    0.21
  -1  -4   2    0.80    0.18
   1   4  -1  414.27   12.14
  -1  -4   1  404.67   12.39
   1   4  -1  398.11   12.50
   1   4   0   83.69    3.11
   1   4   0   92.33    3.45
  -1  -4   0   93.38    2.95
  -1  -4   0  100.48    3.62
  -1  -4   0   91.48    3.16
  -1  -4  -1    0.84    0.25
  -1  -4  -1    0.86    0.17
  -1  -4  -1    1.22    0.22
  -1  -4  -2    0.65    0.21
  -1  -4  -2    0.74    0.16
  -1  -4  -2    1.07    0.19
   1   4   2    0.68    0.17
   1   4   3    8.09    0.64
  -1  -4  -3    9.36    0.58
  -1  -4  -3    8.12    0.81
  -1  -4  -4    0.38    0.10
   1   4   4    0.41    0.15
  -1  -4  -5    0.45    0.13
   1   4   5    0.55    0.19
  -1  -4  -6    6.36    0.54
  -1  -4  -7    5.08    0.50
   1   4   7    6.02    0.67
  -1  -4  -8    1.76    0.31
   1   4   8    2.02    0.40
   1   4   9    0.61    0.24
  -1  -4  -9    0.91    0.23
   1   4  10    0.56    0.25
   1   4  11    0.05    0.10
   1   4  12    0.89    0.35
   1   4  13    1.96    0.51
   1   4  14   17.83    1.77
  -1  -5  12    2.53    0.56
  -1  -5  11    4.15    0.68
  -1  -5  10    0.45    0.22
  -1  -5  10    0.39    0.24
  -1  -5   9    1.46    0.38
  -1  -5   8   11.05    0.98
  -1  -5   7   40.58    2.02
   1   5  -6   56.26    2.99
  -1  -5   6   55.64    2.41
   1   5  -5   15.03    1.36
   1   5  -5   16.61    1.30
  -1  -5   5   12.85    0.95
  -1  -5   4   21.11    1.19
   1   5  -4   20.71    1.45
  -1  -5   4   20.33    1.19
  -1  -5   3   16.39    1.07
   1   5  -3   18.42    1.29
  -1  -5   3   16.69    1.00
   1   5  -2   43.75    2.36
   1   5  -2   45.01    2.21
  -1  -5   2   44.98    2.13
  -1  -5   2   49.18    1.93
  -1  -5   1   31.03    1.63
  -1  -5   1   29.97    1.38
   1   5  -1   31.02    1.78
  -1  -5   1   34.16    1.84
   1   5  -1   32.11    1.72
  -1  -5   0   17.58    1.30
   1   5   0   19.43    1.31
  -1  -5   0   19.49    1.20
  -1  -5   0   16.75    0.95
  -1  -5  -1   22.69    1.15
  -1  -5  -1   20.59    1.42
  -1  -5  -1   22.31    1.21
  -1  -5  -2   -0.04    0.06
  -1  -5  -2    0.03    0.05
  -1  -5  -2    0.12    0.08
   1   5   2    0.05    0.05
  -1  -5  -3   15.56    1.19
   1   5   3   13.40    0.96
  -1  -5  -3   15.95    0.89
  -1  -5  -4    3.54    0.38
   1   5   4    3.25    0.47
  -1  -5  -5   28.29    1.29
   1   5   5   29.36    1.63
  -1  -5  -6    6.23    0.54
   1   5   7   23.40    1.58
  -1  -5  -7   23.05    1.23
   1   5   8    0.92    0.29
  -1  -5  -8    1.03    0.24
  -1  -5  -9   28.52    1.52
   1   5   9   31.97    2.00
   1   5  10    5.86    0.85
   1   5  11    4.67    0.80
   1   5  12    1.06    0.39
   1   5  13    2.02    0.58
   1   5  14   -0.16    0.23
  -1  -6  11    3.49    0.65
  -1  -6  11    3.59    0.64
  -1  -6  10    1.31    0.38
  -1  -6   9    1.06    0.33
  -1  -6   8    1.18    0.29
  -1  -6   7    5.86    0.70
   1   6  -6  133.88    5.57
  -1  -6   6  127.08    4.57
   1   6  -5   99.59    4.47
  -1  -6   5   95.29    3.58
  -1  -6   4    6.27    0.65
   1   6  -4    7.58    0.94
   1   6  -4    9.50    1.11
  -1  -6   4    8.35    0.76
   1   6  -3    8.08    0.93
  -1  -6   3    8.10    0.77
  -1  -6   3    8.08    0.71
  -1  -6   2    1.31    0.33
   1   6  -2    1.62    0.40
  -1  -6   2    1.08    0.25
  -1  -6   1   28.27    1.75
   1   6  -1   27.09    1.67
  -1  -6   1   26.51    1.36
  -1  -6   1   26.16    1.63
  -1  -6   0   13.96    1.09
  -1  -6   0   11.21    0.82
  -1  -6   0   11.54    1.10
  -1  -6  -1    0.08    0.11
  -1  -6  -1    0.06    0.07
  -1  -6  -1    0.01    0.07
  -1  -6  -2    4.30    0.63
  -1  -6  -2    5.60    0.59
  -1  -6  -2    5.27    0.57
  -1  -6  -3  103.29    3.40
   1   6   3   97.72    3.63
  -1  -6  -3   91.15    3.85
  -1  -6  -3   90.66    3.45
   1   6   4   33.57    1.86
  -1  -6  -4   37.42    1.60
  -1  -6  -4   31.04    1.99
  -1  -6  -5    0.27    0.17
  -1  -6  -5    0.21    0.09
  -1  -6  -6    0.97    0.23
   1   6   7   10.64    1.07
  -1  -6  -7    9.02    0.72
  -1  -6  -8    1.29    0.27
  -1  -6  -8    1.45    0.29
   1   6   8    1.27    0.39
   1   6   9   11.66    1.28
   1   6  10    1.50    0.44
   1   6  11    6.69    1.03
   1   6  12    0.18    0.22
   1   6  13    0.14    0.20
   1   6  14    0.39    0.31
  -1  -7  11    3.39    0.65
  -1  -7  10    8.40    1.00
  -1  -7   9    0.86    0.29
  -1  -7   8    3.46    0.57
  -1  -7   7    2.49    0.48
  -1  -7   6    3.79    0.55
  -1  -7   5    0.37    0.15
   1   7  -5    0.51    0.30
   1   7  -4    6.24    0.93
  -1  -7   4    6.64    0.70
  -1  -7   4    6.94    0.73
   1   7  -3    1.10    0.38
  -1  -7   3    0.92    0.27
  -1  -7   3    0.76    0.23
   1   7  -3    0.53    0.26
   1   7  -2    0.75    0.28
  -1  -7   2    1.04    0.30
   1   7  -2    0.80    0.31
  -1  -7   2    0.75    0.23
  -1  -7   2    0.95    0.31
   1   7  -1    7.08    0.89
  -1  -7   1    6.86    0.85
  -1  -7   1    6.59    0.83
  -1  -7   1    6.52    0.65
  -1  -7   0    0.37    0.16
  -1  -7   0    0.37    0.19
  -1  -7   0    0.74    0.28
  -1  -7  -1    1.96    0.37
  -1  -7  -1    2.12    0.40
  -1  -7  -1    2.93    0.58
  -1  -7  -2    2.29    0.51
  -1  -7  -2    2.20    0.39
  -1  -7  -2    2.00    0.38
  -1  -7  -3   21.34    1.34
  -1  -7  -3   19.75    1.53
  -1  -7  -3   21.44    1.25
  -1  -7  -4  165.67    5.45
  -1  -7  -4  164.53    6.21
  -1  -7  -5   69.97    2.64
  -1  -7  -5   71.32    3.44
  -1  -7  -6    1.62    0.29
  -1  -7  -6    1.42    0.44
   1   7   6    2.11    0.47
  -1  -7  -7    0.09    0.10
   1   7   7   -0.01    0.15
   1   7   8    0.07    0.07
   1   7   9   10.13    1.20
   1   7  10    1.29    0.43
   1   7  11    2.25    0.61
   1   7  12    4.39    0.91
   1   7  13   18.58    2.03
  -1  -8   9    1.38    0.39
  -1  -8   8    1.77    0.43
  -1  -8   7    0.33    0.21
  -1  -8   6    1.22    0.32
  -1  -8   5    3.04    0.51
  -1  -8   4    5.37    0.66
  -1  -8   4    5.06    0.64
  -1  -8   3    0.16    0.12
   1   8  -3    0.13    0.08
  -1  -8   3    0.09    0.07
  -1  -8   2    1.20    0.38
  -1  -8   2    2.14    0.48
  -1  -8   2    1.98    0.38
   1   8  -2    1.78    0.47
  -1  -8   1   17.71    1.55
  -1  -8   1   19.65    1.26
  -1  -8   1   22.15    1.62
  -1  -8   0    1.57    0.32
  -1  -8   0    1.27    0.39
  -1  -8   0    1.72    0.40
  -1  -8  -1    1.29    0.40
  -1  -8  -1    1.15    0.33
  -1  -8  -1    1.15    0.29
  -1  -8  -2    4.99    0.64
  -1  -8  -2    4.93    0.62
  -1  -8  -2    4.39    0.76
  -1  -8  -3    0.00    0.12
  -1  -8  -3    0.19    0.13
  -1  -8  -3   -0.08    0.12
  -1  -8  -4    2.22    0.53
  -1  -8  -4    2.25    0.36
  -1  -8  -4    2.27    0.44
  -1  -8  -5    4.20    0.50
   1   8   5    5.79    0.80
  -1  -8  -5    5.32    0.68
  -1  -8  -5    4.85    0.79
  -1  -8  -6    2.21    0.55
   1   8   6    2.84    0.59
   1   8   7    1.25    0.43
  -1  -8  -7    0.89    0.39
   1   8   8   -0.08    0.13
  -1  -8  -8   -0.08    0.10
   1   8   9    1.83    0.54
   1   8  10    0.72    0.34
   1   8  11    2.56    0.69
  -1  -9   8    0.22    0.20
  -1  -9   7    1.99    0.46
  -1  -9   6    3.92    0.62
  -1  -9   5    0.95    0.30
  -1  -9   4    3.18    0.52
  -1  -9   4    3.17    0.51
  -1  -9   3    6.60    0.78
  -1  -9   3    6.99    0.78
  -1  -9   2    1.30    0.34
  -1  -9   2    1.64    0.42
  -1  -9   1    0.09    0.11
  -1  -9   1    0.20    0.18
  -1  -9   0    7.59    0.79
  -1  -9   0   10.45    1.18
  -1  -9  -1    2.93    0.49
  -1  -9  -1    3.30    0.68
  -1  -9  -2    0.33    0.18
  -1  -9  -2    0.17    0.11
  -1  -9  -3   -0.25    0.19
  -1  -9  -3    0.06    0.10
  -1  -9  -4    6.81    0.81
  -1  -9  -4    4.57    0.81
  -1  -9  -5    1.93    0.42
  -1  -9  -5    2.83    0.65
  -1  -9  -6    7.26    0.86
  -1  -9  -6    6.58    0.99
  -1  -9  -7    0.49    0.27
   1   9   7    1.18    0.41
  -1  -9  -8    4.95    0.93
  -1  -9  -9    7.32    1.18
  -1  -9 -10    0.06    0.09
  -1 -10   7    0.14    0.14
  -1 -10   6   -0.23    0.22
  -1 -10   5    0.87    0.29
  -1 -10   4   -0.05    0.08
  -1 -10   3   -0.04    0.14
  -1 -10   2    0.44    0.21
  -1 -10   1   10.15    1.11
  -1 -10   1    9.38    0.94
  -1 -10   0   12.49    1.07
  -1 -10   0   12.96    1.32
  -1 -10  -1    1.62    0.37
  -1 -10  -1    2.17    0.54
  -1 -10  -2   -0.01    0.17
  -1 -10  -2    0.33    0.13
  -1 -10  -3    0.19    0.11
  -1 -10  -4    4.03    0.78
  -1 -10  -5    0.74    0.32
  -1 -10  -6    2.45    0.63
  -1 -10  -7    4.07    0.80
  -1 -10  -8    0.28    0.24
  -1 -10  -9    1.16    0.50
   2 -11  -3   -0.03    0.17
   2 -11  -2    1.43    0.48
   2 -11  -1    0.43    0.23
   2 -11   0    1.15    0.44
   2 -11   1    0.57    0.28
   2 -11   2   10.60    1.28
  -2  10   7    0.92    0.51
  -2  10   6    0.26    0.30
   2 -10  -6    0.27    0.26
  -2  10   5    4.46    1.01
   2 -10  -5    2.85    0.68
   2 -10  -4    9.68    1.28
   2 -10  -3    0.72    0.26
   2 -10  -2   12.23    1.42
   2 -10  -1    0.05    0.21
   2 -10   0    0.19    0.26
   2 -10   1   -0.45    0.27
   2 -10   2   10.29    1.22
   2 -10   3    0.12    0.21
   2 -10   4    2.04    0.54
   2 -10   5    3.07    0.67
  -2   9   8    0.24    0.24
  -2   9   7    0.31    0.43
  -2   9   6    2.01    0.68
   2  -9  -5    0.37    0.25
  -2   9   5    0.11    0.11
  -2   9   4    0.12    0.25
   2  -9  -4    0.06    0.10
   2  -9  -3    0.28    0.17
   2  -9  -2    0.17    0.18
   2  -9  -1   -0.03    0.13
   2  -9   0   -0.07    0.09
   2  -9   1    1.53    0.46
   2  -9   2    0.34    0.16
   2  -9   3    0.55    0.30
   2  -9   4    0.49    0.29
   2  -9   5    7.95    1.03
   2  -9   6   13.01    1.32
   2  -9   7    2.56    0.60
  -2   8  10    0.76    0.44
  -2   8   9    0.08    0.14
  -2   8   8    0.36    0.39
  -2   8   7   25.57    2.51
  -2   8   6   40.35    3.11
  -2   8   5    0.25    0.23
   2  -8  -4    0.95    0.30
  -2   8   4    1.24    0.49
   2  -8  -3   -0.01    0.07
   2  -8  -3    0.05    0.14
  -2   8   3   -0.04    0.08
   2  -8  -2    1.51    0.46
   2  -8  -2    2.37    0.41
   2  -8  -1    3.69    0.72
   2  -8  -1    4.02    0.52
   2  -8   0    3.58    0.39
   2  -8   0    2.84    0.61
   2  -8   1   15.49    1.47
   2  -8   2   -0.12    0.14
   2  -8   3    1.14    0.38
   2  -8   4   -0.11    0.15
   2  -8   5    0.02    0.07
   2  -8   6   -0.08    0.08
   2  -8   7    0.14    0.16
   2  -8   8    0.04    0.11
   2  -8   9    0.29    0.18
  -2   7  10    3.84    0.94
  -2   7   9    0.20    0.29
  -2   7   8    8.53    1.39
  -2   7   7   10.02    1.52
  -2   7   6    0.28    0.31
  -2   7   5    0.15    0.09
  -2   7   4    0.46    0.27
  -2   7   3    5.03    0.91
   2  -7  -2    0.68    0.27
  -2   7   2    0.69    0.29
   2  -7  -2    0.63    0.19
   2  -7  -1    1.12    0.25
   2  -7  -1    0.99    0.37
   2  -7   0    2.20    0.32
   2  -7   0    2.10    0.52
   2  -7   1    0.07    0.13
   2  -7   2   13.66    1.32
   2  -7   3   14.13    1.34
   2  -7   4   85.15    3.80
   2  -7   5    3.82    0.66
   2  -7   6   16.82    1.42
   2  -7   7    0.20    0.19
   2  -7   8    1.80    0.45
   2  -7   9    4.27    0.74
   2  -7  10   16.28    1.47
  -2   6  11    1.06    0.50
  -2   6  10    1.72    0.63
  -2   6   9    4.50    0.98
  -2   6   8    2.02    0.64
  -2   6   7    4.54    0.93
  -2   6   6    0.42    0.26
  -2   6   5   24.74    2.19
  -2   6   4    3.43    0.77
  -2   6   3    2.83    0.67
  -2   6   2    4.13    0.75
   2  -6  -1    1.90    0.29
   2  -6  -1    2.12    0.50
  -2   6   1    2.47    0.57
   2  -6   0    0.81    0.30
   2  -6   0    0.63    0.16
   2  -6   1    1.21    0.37
   2  -6   2   34.41    2.13
   2  -6   3   19.97    1.55
   2  -6   4   12.19    1.16
  -2   6  -5    0.45    0.12
   2  -6   5    0.34    0.19
   2  -6   6    1.73    0.41
  -2   6  -6    2.24    0.36
   2  -6   7    2.56    0.51
   2  -6   8    0.20    0.19
   2  -6   9   10.32    1.09
   2  -6  10    2.02    0.49
   2  -6  11    5.73    0.84
  -2   5  12    0.49    0.45
  -2   5  11   28.73    2.74
  -2   5  10    0.86    0.46
  -2   5   9    0.17    0.27
  -2   5   8    0.49    0.31
  -2   5   7    8.59    1.23
  -2   5   6    5.17    0.92
  -2   5   5   17.90    1.72
  -2   5   4    0.31    0.22
  -2   5   3    0.07    0.08
   2  -5  -3    0.32    0.22
   2  -5  -2    6.50    0.88
  -2   5   2    4.82    0.79
  -2   5   1    0.43    0.21
   2  -5  -1    0.51    0.25
   2  -5   0   37.01    2.16
   2  -5   0   33.30    1.34
   2  -5   0   40.69    2.40
   2  -5   1   16.40    1.47
   2  -5   1   13.66    1.24
   2  -5   2    1.04    0.35
   2  -5   2    0.13    0.07
   2  -5   3   18.59    1.41
   2  -5   3   16.84    1.50
  -2   5  -4    4.11    0.29
   2  -5   4    4.79    0.68
   2  -5   5   42.23    2.28
  -2   5  -5   48.04    1.88
   2  -5   6   62.22    2.88
  -2   5  -6   63.90    2.50
  -2   5  -7    0.68    0.21
   2  -5   7    0.32    0.21
   2  -5   8    7.42    0.88
   2  -5   9    2.20    0.47
   2  -5  10    2.19    0.48
   2  -5  11    0.49    0.27
   2  -5  12    2.01    0.50
  -2   4  12    1.82    0.64
  -2   4  11    5.70    1.10
  -2   4  10    0.17    0.23
  -2   4   9   13.40    1.61
  -2   4   8   11.12    1.42
  -2   4   7    0.84    0.39
  -2   4   6    1.90    0.55
  -2   4   5    2.79    0.61
   2  -4  -4   36.37    2.00
  -2   4   4   35.98    2.32
  -2   4   3    1.64    0.43
   2  -4  -3    1.92    0.41
  -2   4   2    1.78    0.44
   2  -4  -2    1.69    0.40
   2  -4  -1  100.10    4.06
   2  -4   0    1.60    0.36
   2  -4   0    1.45    0.38
   2  -4   1   17.38    1.41
   2  -4   1   15.97    1.28
   2  -4   2    9.51    0.94
   2  -4   2    8.99    0.99
  -2   4  -3   25.18    1.73
   2  -4   3   22.86    1.51
   2  -4   3   22.44    1.64
  -2   4  -4    2.90    0.60
  -2   4  -4    3.17    0.30
   2  -4   4    2.76    0.47
   2  -4   5    1.02    0.28
  -2   4  -5    0.88    0.34
  -2   4  -5    0.86    0.17
  -2   4  -6    4.37    0.44
   2  -4   6    3.75    0.56
  -2   4  -7    0.06    0.05
   2  -4   7    0.02    0.12
   2  -4   8    1.96    0.41
  -2   4  -9    3.93    0.55
   2  -4   9    4.14    0.62
   2  -4  10   16.22    1.31
   2  -4  11    0.93    0.29
   2  -4  12    0.06    0.07
   2  -4  13    2.83    0.59
  -2   3  12    6.80    1.21
  -2   3  11    0.50    0.34
  -2   3  10   -0.07    0.29
  -2   3   9    5.11    0.93
  -2   3   8    2.00    0.50
  -2   3   7    1.67    0.50
  -2   3   6   25.65    1.94
   2  -3  -5   71.92    3.07
  -2   3   5   87.29    3.90
  -2   3   4    1.84    0.47
   2  -3  -4    1.37    0.31
   2  -3  -3    0.32    0.14
   2  -3  -2   36.25    1.95
   2  -3  -1   12.70    1.06
  -2   3   0    0.26    0.15
   2  -3   0    0.12    0.04
   2  -3   0    0.24    0.16
   2  -3   1  184.34    6.32
   2  -3   2    0.01    0.11
  -2   3  -3   30.32    1.82
  -2   3  -4    0.57    0.10
  -2   3  -4    0.51    0.23
  -2   3  -5    0.48    0.22
  -2   3  -6   27.48    1.88
   2  -3   6   27.99    1.56
   2  -3   7    0.28    0.15
   2  -3   8    5.13    0.64
   2  -3   9   13.10    1.09
   2  -3  10    0.14    0.13
   2  -3  11    0.66    0.26
   2  -3  12    0.24    0.15
   2  -3  13    0.14    0.17
  -2   2  13    7.06    1.20
  -2   2  12   -0.09    0.11
  -2   2  11    3.69    0.79
  -2   2  10    1.27    0.38
  -2   2   9   -0.06    0.19
  -2   2   8   15.41    1.43
  -2   2   7    1.69    0.45
  -2   2   6    1.54    0.42
   2  -2  -6    1.10    0.29
   2  -2  -5  173.06    5.69
  -2   2   5  177.68    6.28
   2  -2  -4   12.94    0.96
   2  -2  -3    0.76    0.21
   2  -2  -2   23.65    1.37
   2  -2  -1    8.43    0.78
   2  -2  -1    8.37    0.49
   2  -2   0    0.66    0.11
   2  -2   0    0.82    0.22
   2  -2   1   45.17    2.13
   2  -2   2    0.32    0.15
  -2   2  -3    4.80    0.60
  -2   2  -4  141.66    5.01
  -2   2  -5   13.24    1.10
  -2   2  -6    3.40    0.55
   2  -2   6    3.82    0.49
   2  -2   7    1.39    0.31
  -2   2  -7    1.87    0.42
   2  -2   8    3.42    0.49
   2  -2   9    0.84    0.24
   2  -2  10    0.13    0.11
   2  -2  11   10.37    0.99
   2  -2  12    2.25    0.47
   2  -2  13    7.11    0.90
   2  -2  14    0.55    0.28
   2  -2  14    0.26    0.20
  -2   1  13    1.76    0.61
  -2   1  12   33.55    2.52
  -2   1  11   54.12    3.20
  -2   1  10   88.44    4.18
  -2   1   9   20.02    1.65
  -2   1   8    8.45    0.99
  -2   1   7    4.95    0.72
   2  -1  -6    0.15    0.10
  -2   1   6    0.15    0.10
   2  -1  -5   74.27    2.82
   2  -1  -4    2.18    0.34
   2  -1  -3   65.05    2.50
   2  -1  -2   11.31    0.80
   2  -1  -2   11.58    0.71
   2  -1  -1   36.69    1.63
  -2   1   1   36.78    1.73
   2  -1   0   16.86    0.81
  -2   1   0   18.62    1.12
   2  -1   0   19.25    1.06
  -2   1   0   15.52    0.69
  -2   1  -1   60.62    2.50
   2  -1   1   62.76    2.51
   2  -1   1   67.41    2.19
  -2   1  -1   68.61    2.14
   2  -1   2    1.49    0.28
   2  -1   2    1.98    0.31
  -2   1  -2    1.79    0.21
  -2   1  -3   23.82    1.32
   2  -1   3   23.74    1.22
   2  -1   4  195.50    5.87
  -2   1  -4  186.62    6.08
   2  -1   5  200.01    6.17
  -2   1  -5  205.58    6.52
  -2   1  -6   21.71    1.40
   2  -1   7    0.04    0.04
  -2   1  -7    0.38    0.21
  -2   1  -8    0.48    0.23
   2  -1   8    0.36    0.15
   2  -1   9    0.38    0.16
   2  -1  10    0.20    0.15
   2  -1  11    0.91    0.28
   2  -1  12    0.56    0.22
   2  -1  13    2.56    0.52
   2  -1  13    2.67    0.54
   2  -1  14    3.37    0.65
  -2   0  13    0.87    0.42
  -2   0  12    1.07    0.42
  -2   0  11    0.78    0.32
  -2   0  10   16.71    1.50
  -2   0   9   68.73    3.30
  -2   0   8    0.21    0.18
  -2   0   7    1.19    0.33
   2   0  -6   65.74    2.61
  -2   0   6   64.49    2.81
   2   0  -6   64.05    2.58
  -2   0   5   20.34    1.29
   2   0  -5   19.51    1.12
   2   0  -4   29.82    1.40
  -2   0   4   32.10    1.62
   2   0  -4   31.29    1.60
   2   0  -3   57.96    2.34
   2   0  -3   61.66    2.24
   2   0  -2  394.29   10.94
  -2   0   2  364.96   11.13
   2   0  -2  395.74   10.99
   2   0  -1  738.21   20.71
  -2   0   1  784.15   20.62
   2   0  -1  793.61   20.77
   2   0   0  922.47   24.64
  -2   0   0  873.26   24.77
   2   0   0  889.56   24.72
  -2   0   0  918.55   24.58
   2   0   1    0.07    0.07
   2   0   1    0.00    0.06
  -2   0  -1   -0.04    0.05
  -2   0  -2    0.60    0.14
  -2   0  -2    0.69    0.16
   2   0   2    0.86    0.18
  -2   0  -3   23.34    1.16
   2   0   3   22.31    1.04
  -2   0  -4   24.65    1.22
   2   0   4   22.09    1.05
   2   0   5   89.89    2.96
  -2   0  -5   85.78    3.13
  -2   0  -6   13.04    0.93
  -2   0  -7    4.07    0.52
  -2   0  -8    0.94    0.27
   2   0   8    1.16    0.26
   2   0   9   11.68    0.89
   2   0  10   13.10    1.00
   2   0  11    1.71    0.38
   2   0  11    1.56    0.35
   2   0  12    1.30    0.36
   2   0  13    1.69    0.42
   2   0  14   11.32    1.19
  -2  -1  13    2.83    0.68
  -2  -1  12    0.27    0.18
  -2  -1  11    0.10    0.22
  -2  -1  10    9.86    1.08
  -2  -1   9   46.97    2.47
  -2  -1   8    5.26    0.69
  -2  -1   7   14.43    1.09
  -2  -1   6    0.02    0.09
   2   1  -6    0.01    0.06
   2   1  -6    0.02    0.07
   2   1  -5    0.29    0.14
  -2  -1   5    0.05    0.07
   2   1  -4    1.66    0.26
  -2  -1   4    1.86    0.30
   2   1  -3    4.73    0.41
  -2  -1   3    5.50    0.50
   2   1  -3    4.97    0.43
  -2  -1   2    0.59    0.15
   2   1  -2    1.01    0.16
  -2  -1   2    0.72    0.17
  -2  -1   1   65.62    2.19
  -2  -1   1   58.85    2.29
   2   1  -1   63.11    2.03
  -2  -1   0  489.14   13.76
   2   1   0  519.58   13.64
   2   1   0  471.04   14.20
  -2  -1   0  496.23   14.15
   2   1   1  698.47   18.98
  -2  -1  -1  709.00   19.00
   2   1   1  688.24   19.48
  -2  -1  -1  693.89   19.50
  -2  -1  -2    0.00    0.05
   2   1   2    0.03    0.03
   2   1   2    0.00    0.08
  -2  -1  -3   67.61    2.18
   2   1   3   63.18    2.04
   2   1   4   11.01    0.58
  -2  -1  -4   11.84    0.68
  -2  -1  -5    2.71    0.33
   2   1   5    2.56    0.27
   2   1   6    4.64    0.41
  -2  -1  -6    4.89    0.49
  -2  -1  -7  109.65    3.80
   2   1   8  144.53    4.71
  -2  -1  -8  150.47    4.98
   2   1   9  149.01    4.90
  -2  -1  -9  141.32    5.05
   2   1   9  145.54    4.81
   2   1  10   93.23    3.57
   2   1  11    0.47    0.20
   2   1  12    3.21    0.55
   2   1  13    0.81    0.29
   2   1  14    1.95    0.49
   2   1  15   -0.01    0.19
  -2  -2  13    0.03    0.23
  -2  -2  12    1.40    0.40
  -2  -2  11   -0.03    0.14
  -2  -2  10    6.86    0.86
  -2  -2   9    1.73    0.40
  -2  -2   8   37.04    1.97
  -2  -2   7   32.13    1.71
   2   2  -6  138.69    5.27
  -2  -2   6  140.25    4.73
   2   2  -6  144.00    4.76
  -2  -2   5   20.10    1.14
   2   2  -5   20.84    1.16
   2   2  -5   20.34    1.43
  -2  -2   4   34.38    1.52
   2   2  -4   36.10    1.54
  -2  -2   3   17.03    0.85
  -2  -2   3   14.22    0.90
   2   2  -3   15.58    0.81
  -2  -2   2    6.80    0.45
   2   2  -2    5.99    0.42
  -2  -2   1    0.51    0.11
   2   2  -1    0.38    0.09
  -2  -2   1    0.37    0.16
  -2  -2   0   47.61    1.44
  -2  -2   0   49.48    2.12
  -2  -2  -1  239.74    7.45
  -2  -2  -2   41.85    1.90
   2   2   3   17.15    0.58
  -2  -2  -3   16.27    1.10
  -2  -2  -4    0.11    0.06
   2   2   4    0.07    0.04
   2   2   5   12.73    0.63
   2   2   5   11.99    0.66
  -2  -2  -5   13.42    0.72
  -2  -2  -6    4.01    0.41
   2   2   6    3.80    0.38
  -2  -2  -7   -0.03    0.07
   2   2   8    0.10    0.09
  -2  -2  -8    0.01    0.07
  -2  -2  -9    8.45    0.81
   2   2   9    7.85    0.71
   2   2  10  115.49    4.17
   2   2  11   56.79    2.62
   2   2  12    1.02    0.33
   2   2  13   -0.09    0.19
   2   2  14    0.34    0.21
   2   2  15   -0.15    0.16
  -2  -3  12    0.73    0.31
  -2  -3  11    0.06    0.14
  -2  -3  10    0.70    0.28
  -2  -3   9   17.31    1.32
  -2  -3   8   20.83    1.39
  -2  -3   7   19.83    1.27
  -2  -3   6    5.53    0.58
   2   3  -6    5.92    0.82
   2   3  -6    6.06    0.66
  -2  -3   5   14.70    0.93
   2   3  -5   13.85    1.20
   2   3  -5   15.92    1.03
   2   3  -4    9.67    0.95
   2   3  -4   10.45    0.75
  -2  -3   4   10.60    0.72
  -2  -3   4   10.77    0.81
  -2  -3   3    3.85    0.37
  -2  -3   3    3.76    0.46
   2   3  -3    4.57    0.43
  -2  -3   3    4.62    0.42
  -2  -3   2    0.01    0.03
   2   3  -2    0.05    0.05
  -2  -3   2   -0.01    0.03
  -2  -3   2    0.01    0.07
   2   3  -2   -0.02    0.07
  -2  -3   1   10.79    0.91
  -2  -3   1   10.98    0.53
   2   3  -1   12.59    0.64
   2   3  -1    9.93    0.96
  -2  -3   1   11.40    0.57
  -2  -3   0   10.83    0.43
   2   3   0   10.56    0.51
  -2  -3   0   11.57    0.97
   2   3   0   11.05    0.98
   2   3   1    4.88    0.61
  -2  -3  -1    4.33    0.57
  -2  -3  -2  105.02    3.87
   2   3   3  116.38    3.01
  -2  -3  -3  116.29    3.94
  -2  -3  -4  449.11   12.18
   2   3   4  447.24   12.32
  -2  -3  -5   11.91    0.57
   2   3   5    6.70    0.49
  -2  -3  -6   67.25    2.28
   2   3   6   65.13    2.32
  -2  -3  -7    1.81    0.27
  -2  -3  -8   13.90    0.92
   2   3   8   14.55    0.95
   2   3   9    5.84    0.62
  -2  -3  -9    5.33    0.58
   2   3  10    0.92    0.24
   2   3  11    8.53    0.89
   2   3  12    0.07    0.11
   2   3  13    6.63    0.90
   2   3  14    0.42    0.29
   2   3  15    0.66    0.32
  -2  -4  12   -0.09    0.15
  -2  -4  11    5.71    0.83
  -2  -4  10   -0.01    0.08
  -2  -4   9    0.66    0.27
  -2  -4   8    1.32    0.34
  -2  -4   7   10.67    0.90
  -2  -4   6    0.00    0.05
  -2  -4   6    0.10    0.12
   2   4  -5   13.02    1.27
  -2  -4   5   11.82    0.83
  -2  -4   5   11.06    0.83
   2   4  -5   13.00    0.98
  -2  -4   4    2.60    0.35
  -2  -4   4    2.18    0.38
   2   4  -4    2.28    0.36
   2   4  -4    1.99    0.47
   2   4  -3   55.35    2.16
  -2  -4   3   52.47    2.33
  -2  -4   3   51.86    1.99
  -2  -4   2    4.01    0.55
   2   4  -2    3.66    0.40
  -2  -4   2    3.77    0.35
  -2  -4   1   12.33    0.62
  -2  -4   1   11.81    1.05
   2   4  -1   11.32    0.73
   2   4   0    8.99    0.60
  -2  -4   0    9.37    0.47
  -2  -4   0   10.27    0.99
   2   4   0   11.50    1.04
  -2  -4  -1   56.25    1.75
  -2  -4  -1   53.43    2.62
   2   4   1   55.32    2.62
  -2  -4  -1   55.93    1.68
  -2  -4  -2   97.25    3.72
  -2  -4  -2   93.84    2.58
  -2  -4  -2   89.48    2.59
   2   4   3  139.50    4.15
  -2  -4  -3  139.72    4.01
  -2  -4  -3  145.00    5.07
  -2  -4  -4    2.36    0.48
   2   4   4    2.84    0.32
  -2  -4  -4    2.53    0.20
   2   4   5   10.46    0.72
  -2  -4  -5   11.91    0.58
   2   4   6   14.97    0.92
  -2  -4  -6   15.43    0.77
  -2  -4  -7    0.94    0.19
  -2  -4  -8    1.37    0.25
   2   4   8    1.68    0.32
   2   4   9    0.32    0.18
  -2  -4  -9    0.38    0.14
  -2  -4 -10    0.02    0.07
   2   4  10    0.06    0.10
   2   4  11    0.28    0.22
   2   4  12    1.14    0.40
   2   4  13    5.25    0.85
   2   4  14   34.44    2.44
   2   4  15    1.82    0.55
  -2  -5  12    5.53    0.85
  -2  -5  11    0.19    0.16
  -2  -5  10    1.91    0.46
  -2  -5   9    4.97    0.68
  -2  -5   8    3.34    0.53
  -2  -5   7   32.09    1.77
  -2  -5   7   33.41    1.78
  -2  -5   6    0.05    0.12
  -2  -5   5    5.09    0.55
   2   5  -5    4.11    0.58
   2   5  -5    5.42    0.87
  -2  -5   4   26.87    1.54
   2   5  -4   22.62    1.44
   2   5  -4   25.53    1.93
  -2  -5   4   24.41    1.27
  -2  -5   3    0.30    0.18
   2   5  -3    0.34    0.16
   2   5  -3    0.28    0.20
  -2  -5   3    0.32    0.13
   2   5  -2   15.91    1.07
   2   5  -2   14.79    1.38
  -2  -5   2   13.92    1.16
  -2  -5   2   14.75    0.83
   2   5  -1   20.18    1.21
  -2  -5   1   22.25    0.99
  -2  -5   1   20.93    1.52
  -2  -5   0    1.31    0.24
   2   5   0    1.08    0.24
  -2  -5   0    1.78    0.44
  -2  -5  -1    5.04    0.35
  -2  -5  -1    5.46    0.41
  -2  -5  -1    4.19    0.67
  -2  -5  -2   53.54    1.73
  -2  -5  -2   49.98    2.64
  -2  -5  -2   54.18    1.75
   2   5   3    0.34    0.11
  -2  -5  -3    0.32    0.09
  -2  -5  -3    0.12    0.11
  -2  -5  -4   15.18    0.69
   2   5   4   16.06    0.93
  -2  -5  -4   15.13    1.30
  -2  -5  -5   10.45    0.55
   2   5   5   10.90    0.80
  -2  -5  -5   11.36    1.18
   2   5   6    8.13    0.75
  -2  -5  -6    9.03    0.54
  -2  -5  -7   10.85    0.67
   2   5   8   -0.04    0.11
  -2  -5  -8    0.14    0.09
   2   5   9    9.98    0.94
  -2  -5  -9    8.79    0.71
   2   5  10    7.21    0.84
  -2  -5 -10    6.30    0.64
   2   5  11    3.06    0.58
   2   5  12    0.61    0.28
   2   5  13   15.05    1.50
   2   5  14    0.22    0.10
   2   5  15    0.38    0.38
  -2  -6  11    0.45    0.25
  -2  -6  10    0.00    0.09
  -2  -6   9   -0.01    0.10
  -2  -6   8    0.69    0.24
  -2  -6   8    1.16    0.34
  -2  -6   7    4.07    0.59
  -2  -6   7    3.93    0.55
  -2  -6   6   38.39    1.93
  -2  -6   5    0.21    0.08
  -2  -6   4    1.42    0.28
  -2  -6   4    1.47    0.34
   2   6  -4    1.05    0.31
   2   6  -4    1.33    0.47
   2   6  -3    5.50    0.90
   2   6  -3    6.50    0.78
  -2  -6   3    6.47    0.58
  -2  -6   3    5.89    0.74
   2   6  -2   23.99    1.85
   2   6  -2   22.06    1.47
  -2  -6   2   19.69    1.49
  -2  -6   2   21.44    1.11
   2   6  -1    4.44    0.59
  -2  -6   1    4.24    0.68
   2   6  -1    4.25    0.70
  -2  -6   1    2.98    0.44
  -2  -6   1    3.97    0.39
  -2  -6   0   22.52    1.30
  -2  -6   0   25.41    1.12
  -2  -6   0   27.60    1.89
   2   6   0   24.77    1.80
  -2  -6  -1   15.36    1.40
  -2  -6  -1   14.53    0.88
  -2  -6  -1   17.48    0.83
   2   6   1   16.58    1.43
  -2  -6  -2   16.51    0.83
  -2  -6  -2   16.87    1.44
  -2  -6  -2   18.37    0.86
  -2  -6  -3   21.19    0.92
  -2  -6  -3   19.21    1.56
  -2  -6  -4    1.98    0.46
   2   6   4    1.81    0.31
  -2  -6  -4    1.78    0.21
  -2  -6  -4    1.91    0.28
  -2  -6  -5    8.06    0.52
   2   6   5    8.97    0.78
  -2  -6  -5    7.75    0.99
  -2  -6  -6    1.33    0.43
  -2  -6  -6    0.82    0.15
   2   6   6    0.80    0.24
  -2  -6  -7    4.87    0.42
   2   6   8   17.56    1.37
  -2  -6  -8   15.01    0.87
   2   6   9    9.04    0.99
  -2  -6  -9    6.47    0.59
   2   6  10    0.37    0.16
   2   6  11    0.44    0.23
   2   6  12    1.91    0.51
   2   6  13   -0.01    0.28
   2   6  14    3.61    0.79
  -2  -7  10    2.24    0.51
  -2  -7   9    0.78    0.27
  -2  -7   9    0.46    0.25
  -2  -7   8    0.81    0.29
  -2  -7   8    0.47    0.19
  -2  -7   7    6.39    0.76
  -2  -7   6    1.63    0.36
  -2  -7   5    1.43    0.32
  -2  -7   4    3.28    0.55
  -2  -7   4    3.11    0.45
   2   7  -3    9.89    1.09
  -2  -7   3    7.39    0.89
  -2  -7   3    9.49    0.75
   2   7  -2    0.02    0.09
  -2  -7   2    0.04    0.10
  -2  -7   2    0.09    0.06
   2   7  -2    0.08    0.18
  -2  -7   2    0.03    0.19
   2   7  -1    1.19    0.38
   2   7  -1    2.43    0.47
  -2  -7   1    1.88    0.30
  -2  -7   1    1.30    0.41
  -2  -7   1    2.15    0.43
   2   7   0    1.78    0.46
  -2  -7   0    1.42    0.32
  -2  -7   0    1.84    0.28
  -2  -7   0    1.47    0.42
  -2  -7  -1    0.32    0.12
  -2  -7  -1    0.30    0.12
  -2  -7  -1    0.26    0.17
  -2  -7  -2    0.63    0.15
  -2  -7  -2    0.59    0.14
  -2  -7  -2    1.00    0.34
  -2  -7  -3   19.41    0.94
  -2  -7  -3   19.53    1.05
  -2  -7  -3   19.00    1.64
  -2  -7  -4   11.46    0.66
  -2  -7  -4   10.67    1.20
  -2  -7  -5   11.34    0.67
  -2  -7  -5   11.67    0.85
   2   7   5   14.08    1.06
  -2  -7  -5   10.87    1.25
  -2  -7  -6   -0.05    0.16
  -2  -7  -6    0.06    0.04
  -2  -7  -7    0.70    0.16
  -2  -7  -7    0.81    0.39
  -2  -7  -8    1.40    0.54
   2   7   8    1.18    0.34
   2   7   9    1.77    0.43
   2   7  10    5.80    0.86
   2   7  11    0.06    0.18
   2   7  12    4.60    0.88
  -2  -8  10    4.48    0.74
  -2  -8   9    0.72    0.32
  -2  -8   9    0.73    0.28
  -2  -8   8    0.04    0.10
  -2  -8   8   -0.03    0.06
  -2  -8   7    0.23    0.11
  -2  -8   6    1.13    0.31
  -2  -8   5   29.53    1.68
  -2  -8   4    0.53    0.26
  -2  -8   4    0.48    0.19
  -2  -8   3    5.27    0.77
  -2  -8   3    7.14    0.88
  -2  -8   3    7.17    0.69
  -2  -8   2   11.25    0.84
   2   8  -2   10.35    1.13
  -2  -8   2    7.83    0.93
  -2  -8   2   10.70    1.15
  -2  -8   1    2.31    0.47
  -2  -8   1    2.89    0.40
  -2  -8   1    3.55    0.66
  -2  -8   0    9.98    1.19
  -2  -8   0    9.94    0.90
  -2  -8   0   10.67    0.78
  -2  -8  -1    2.59    0.40
  -2  -8  -1    2.49    0.35
  -2  -8  -1    1.96    0.51
  -2  -8  -2    0.32    0.11
  -2  -8  -2    0.38    0.23
  -2  -8  -2    0.34    0.13
  -2  -8  -3    2.23    0.57
  -2  -8  -3    1.73    0.26
  -2  -8  -3    1.95    0.31
  -2  -8  -4    0.26    0.22
  -2  -8  -4    0.00    0.04
  -2  -8  -4    0.12    0.07
  -2  -8  -5    0.53    0.29
  -2  -8  -5    0.42    0.16
  -2  -8  -5    0.49    0.13
  -2  -8  -6    0.03    0.15
  -2  -8  -6    0.71    0.22
  -2  -8  -7    6.02    1.00
   2   8   7    8.32    0.96
   2   8   8    1.71    0.45
  -2  -8  -8    2.29    0.63
  -2  -8  -9    0.04    0.12
   2   8   9   -0.26    0.19
  -2  -8 -10    4.22    0.97
  -2  -8 -11   -0.49    0.34
  -2  -9   8    0.01    0.08
  -2  -9   8   -0.12    0.12
  -2  -9   7   11.14    1.09
  -2  -9   6    0.61    0.24
  -2  -9   5    1.21    0.32
  -2  -9   4    1.08    0.34
  -2  -9   4    0.67    0.23
  -2  -9   3    0.15    0.11
  -2  -9   3    0.26    0.19
  -2  -9   2    4.84    0.57
  -2  -9   2    4.97    0.80
  -2  -9   1    2.92    0.42
  -2  -9   1    2.61    0.57
  -2  -9   0    4.42    0.80
  -2  -9   0    5.68    0.58
  -2  -9  -1    0.20    0.13
  -2  -9  -1    0.40    0.23
  -2  -9  -2    0.19    0.11
  -2  -9  -2    0.33    0.27
  -2  -9  -3    1.96    0.32
  -2  -9  -3    1.86    0.55
  -2  -9  -4    2.92    0.69
  -2  -9  -5   15.64    1.64
  -2  -9  -6   -0.12    0.19
  -2  -9  -7    7.47    1.14
  -2  -9  -8    7.68    1.20
  -2  -9  -9   -0.09    0.16
  -2  -9 -10    4.16    0.94
  -2 -10   4    5.52    0.79
  -2 -10   3    2.19    0.50
  -2 -10   2    0.18    0.19
  -2 -10   1    3.48    0.69
  -2 -10   0    1.10    0.38
  -2 -10  -1    0.20    0.19
  -2 -10  -2    2.80    0.70
  -2 -10  -3    7.64    1.14
  -2 -10  -4    0.03    0.14
  -2 -10  -5    0.61    0.34
  -2 -10  -6    0.06    0.11
  -2 -10  -7    0.75    0.36
  -2 -10  -8    2.83    0.73
  -2 -10  -9    1.09    0.52
  -2 -11  -1    2.53    0.60
  -2 -11  -2    1.76    0.52
  -2 -11  -3   11.16    1.44
  -2 -11  -4    8.13    1.22
  -2 -11  -5    2.70    0.71
  -2 -11  -6    0.68    0.36
  -2 -11  -7    1.71    0.61
   3 -10  -4    0.08    0.20
   3 -10  -3    4.64    0.90
   3 -10  -2   -0.10    0.18
   3 -10  -1    0.05    0.17
   3 -10   0   -0.35    0.25
   3 -10   1    0.99    0.41
   3 -10   2    1.21    0.50
   3 -10   3    1.67    0.53
  -3   9   6    1.17    0.61
  -3   9   5    0.00    0.16
   3  -9  -4    0.72    0.34
  -3   9   4    1.22    0.58
   3  -9  -3   -0.06    0.10
   3  -9  -2    1.96    0.57
   3  -9  -1    2.24    0.62
   3  -9   0    8.53    1.21
   3  -9   1    0.62    0.34
   3  -9   2   -0.15    0.13
   3  -9   3    0.28    0.27
   3  -9   4    4.41    0.83
   3  -9   5    0.30    0.24
   3  -9   6    1.56    0.49
  -3   8   8    1.27    0.60
  -3   8   7    4.92    1.15
  -3   8   6    0.10    0.19
  -3   8   5    3.76    0.95
  -3   8   4    0.34    0.25
   3  -8  -3    8.71    1.18
  -3   8   3    8.61    1.35
   3  -8  -2    1.38    0.47
   3  -8  -1   11.72    1.41
   3  -8   0    6.39    1.02
   3  -8   1   10.60    1.31
   3  -8   2    0.36    0.20
   3  -8   3    2.97    0.68
   3  -8   4    0.54    0.30
   3  -8   5    0.51    0.25
   3  -8   6    0.24    0.28
   3  -8   7    0.12    0.17
   3  -8   8    1.62    0.48
  -3   7   9    1.69    0.73
  -3   7   8    3.68    1.01
  -3   7   7   23.29    2.50
  -3   7   6   19.99    2.25
  -3   7   5    6.39    1.23
  -3   7   4   14.80    1.81
  -3   7   3   14.14    1.70
   3  -7  -2    0.18    0.10
   3  -7  -2    0.00    0.14
  -3   7   2   -0.06    0.26
   3  -7  -1    1.08    0.21
   3  -7  -1    1.04    0.42
   3  -7  -1    1.35    0.20
   3  -7   0    0.27    0.26
   3  -7   1   17.06    1.65
   3  -7   2   -0.01    0.19
   3  -7   3    3.61    0.72
   3  -7   4    0.15    0.24
   3  -7   5    0.27    0.19
   3  -7   6    6.32    0.89
   3  -7   7    1.23    0.40
   3  -7   8    2.29    0.56
   3  -7   9   29.97    2.17
  -3   6  10    3.32    0.93
  -3   6   9    4.51    1.07
  -3   6   8    0.23    0.28
  -3   6   7    7.40    1.36
  -3   6   6    0.10    0.14
  -3   6   5  238.53    9.52
  -3   6   4   28.20    2.48
  -3   6   3   28.19    2.39
  -3   6   2    5.03    0.93
  -3   6   1    2.18    0.58
   3  -6  -1    2.89    0.30
   3  -6  -1    2.41    0.30
   3  -6   0    0.58    0.29
   3  -6   1   16.42    1.55
   3  -6   2    1.46    0.45
   3  -6   3   24.48    1.89
   3  -6   4   27.55    1.99
   3  -6   5   11.69    1.22
   3  -6   6    4.85    0.74
   3  -6   7   15.08    1.37
   3  -6   8    3.45    0.65
   3  -6   9   -0.13    0.18
   3  -6  10    1.19    0.40
   3  -6  11   18.91    1.63
  -3   5  11   18.27    2.27
  -3   5  10    9.90    1.61
  -3   5   9    1.24    0.52
  -3   5   8    0.34    0.41
  -3   5   7    2.93    0.77
  -3   5   6    5.64    1.05
  -3   5   5    1.13    0.51
  -3   5   4    3.17    0.77
  -3   5   3   57.88    3.49
  -3   5   2    0.54    0.31
  -3   5   1    6.03    0.95
   3  -5  -1    7.15    0.51
   3  -5   0   10.58    1.19
  -3   5   0   11.13    1.26
   3  -5   0    9.55    0.48
   3  -5   0   10.19    0.50
   3  -5   1    5.83    0.87
   3  -5   2   -0.45    0.24
   3  -5   3    0.94    0.38
   3  -5   4    4.17    0.70
   3  -5   5  419.31   13.04
   3  -5   6   17.66    1.43
  -3   5  -6   17.80    0.80
   3  -5   7   30.84    1.98
  -3   5  -7   32.69    1.44
   3  -5   8    8.46    0.99
   3  -5   9    1.30    0.39
   3  -5  10    0.13    0.19
   3  -5  11    5.19    0.79
   3  -5  12    0.74    0.32
  -3   4  11    0.68    0.42
  -3   4  10    0.05    0.15
  -3   4   9   13.28    1.78
  -3   4   8    1.35    0.58
  -3   4   7   13.03    1.61
  -3   4   6    0.15    0.14
  -3   4   5    0.25    0.16
  -3   4   4    0.31    0.23
  -3   4   3   36.07    2.57
   3  -4  -2    3.17    0.39
  -3   4   2    3.83    0.74
   3  -4  -2    3.15    0.60
   3  -4  -1   71.08    3.36
  -3   4   1   66.08    3.48
   3  -4  -1   68.71    2.35
   3  -4   0   25.35    1.81
  -3   4   0   26.19    1.90
   3  -4   0   24.08    0.99
   3  -4   1    1.86    0.46
   3  -4   1    1.37    0.40
   3  -4   2    1.11    0.40
   3  -4   2    0.98    0.31
   3  -4   3    5.58    0.79
   3  -4   3    4.73    0.79
   3  -4   4    8.59    0.94
   3  -4   4    6.28    0.91
   3  -4   5   10.66    1.05
  -3   4  -5    9.68    0.48
  -3   4  -6    0.57    0.12
   3  -4   6    0.56    0.23
   3  -4   7   89.74    3.75
  -3   4  -7   91.15    3.03
   3  -4   8    6.80    0.83
  -3   4  -8    5.42    0.54
   3  -4   9    0.61    0.28
   3  -4  10    7.09    0.87
   3  -4  11    0.47    0.22
   3  -4  12    0.23    0.19
   3  -4  13    0.43    0.26
  -3   3  11    5.11    1.09
  -3   3  10    5.55    1.09
  -3   3   9    4.61    0.98
  -3   3   8   19.34    1.99
  -3   3   7    3.03    0.75
  -3   3   6    0.72    0.37
  -3   3   5    6.58    1.02
  -3   3   4    0.59    0.33
   3  -3  -4    0.31    0.19
   3  -3  -3   10.88    1.03
  -3   3   3   12.58    1.34
   3  -3  -3   12.46    0.91
  -3   3   2    0.06    0.08
   3  -3  -2    0.28    0.11
   3  -3  -2    0.02    0.12
   3  -3  -1   52.39    2.59
   3  -3  -1   46.97    1.82
   3  -3   0    1.38    0.21
   3  -3   0    1.10    0.32
   3  -3   1  115.75    4.74
   3  -3   1  121.43    3.55
   3  -3   2    2.41    0.51
   3  -3   3   41.89    2.40
  -3   3  -4   13.19    1.24
   3  -3   4   14.04    1.17
   3  -3   4   13.67    1.27
  -3   3  -4   12.55    0.63
  -3   3  -5   32.83    2.17
   3  -3   5   34.27    1.93
   3  -3   6   -0.07    0.09
   3  -3   7   50.39    2.43
   3  -3   8    6.05    0.76
   3  -3   9   17.41    1.33
   3  -3  10    1.75    0.40
   3  -3  11    0.04    0.09
   3  -3  12    0.06    0.08
   3  -3  13    0.27    0.21
  -3   2  12    3.38    0.86
  -3   2  11    1.11    0.49
  -3   2  10    0.02    0.23
  -3   2   9    2.63    0.66
  -3   2   8    4.97    0.89
  -3   2   7    0.83    0.35
  -3   2   6    2.98    0.65
  -3   2   5    0.55    0.26
   3  -2  -5    1.19    0.32
   3  -2  -4   34.72    1.90
  -3   2   4   37.33    2.41
   3  -2  -4   39.24    1.99
   3  -2  -3   11.88    0.99
  -3   2   3   10.06    1.12
   3  -2  -3   11.68    0.89
   3  -2  -2   26.66    1.56
   3  -2  -2   20.08    1.14
   3  -2  -1    0.01    0.14
   3  -2  -1    0.04    0.04
   3  -2   0   25.97    1.58
   3  -2   0   25.80    1.22
   3  -2   1   97.81    3.94
  -3   2  -1   93.85    3.89
   3  -2   1  104.22    3.27
  -3   2  -1   98.73    2.95
   3  -2   2   14.21    1.19
  -3   2  -2   15.34    0.69
   3  -2   3    3.16    0.54
  -3   2  -3    3.37    0.34
  -3   2  -4   32.16    1.96
  -3   2  -4   35.91    1.46
  -3   2  -5    4.31    0.68
   3  -2   5    5.34    0.63
  -3   2  -6    5.67    0.80
   3  -2   6    6.10    0.67
   3  -2   7    0.88    0.25
  -3   2  -7    0.67    0.28
   3  -2   8   10.78    0.96
   3  -2   9   11.25    0.99
   3  -2  10    0.32    0.17
   3  -2  11   29.30    1.81
   3  -2  12    0.14    0.08
   3  -2  13    1.61    0.43
   3  -2  14    0.10    0.16
  -3   1  12    2.90    0.76
  -3   1  11    7.14    1.17
  -3   1  10    0.81    0.37
  -3   1   9    5.13    0.88
  -3   1   8    4.54    0.81
  -3   1   7    1.79    0.49
  -3   1   6    5.54    0.83
  -3   1   5    0.22    0.06
   3  -1  -5    0.29    0.18
   3  -1  -5    0.40    0.15
   3  -1  -4   34.83    1.76
  -3   1   4   38.34    2.26
   3  -1  -4   35.12    1.87
   3  -1  -3    1.93    0.35
  -3   1   3    2.15    0.49
   3  -1  -3    1.22    0.28
   3  -1  -2   42.88    1.99
   3  -1  -2   40.83    1.88
   3  -1  -1   33.95    1.71
  -3   1   1   37.10    1.99
  -3   1   0    0.07    0.08
   3  -1   0    0.07    0.04
  -3   1   0    0.12    0.07
   3  -1   0    0.18    0.10
   3  -1   1    0.12    0.09
  -3   1  -1   -0.01    0.04
  -3   1  -1    0.06    0.04
   3  -1   2   43.35    2.10
  -3   1  -2   45.80    1.83
   3  -1   2   41.47    2.09
   3  -1   2   42.49    1.73
   3  -1   3   28.77    1.58
  -3   1  -3   27.76    1.33
   3  -1   3   28.74    1.66
  -3   1  -4    0.85    0.21
  -3   1  -4    0.73    0.25
   3  -1   4    0.77    0.23
  -3   1  -5   35.71    1.99
  -3   1  -6   56.00    2.71
  -3   1  -7   36.81    2.18
   3  -1   7   40.48    1.93
  -3   1  -8    0.16    0.14
   3  -1   8   -0.06    0.09
   3  -1   9    0.01    0.05
   3  -1  10    2.61    0.45
   3  -1  11    5.81    0.71
   3  -1  12    0.49    0.24
   3  -1  13    0.24    0.16
   3  -1  14    6.65    0.89
   3  -1  14    5.74    0.85
  -3   0  12   -0.01    0.13
  -3   0  11    9.47    1.29
  -3   0  10    0.82    0.37
  -3   0   9   14.12    1.44
  -3   0   8    2.07    0.50
  -3   0   7    3.50    0.63
  -3   0   6    0.37    0.20
   3   0  -5    0.35    0.15
  -3   0   5    0.31    0.18
   3   0  -5    0.22    0.11
   3   0  -4   43.26    1.92
  -3   0   4   46.23    2.35
   3   0  -4   44.93    2.23
   3   0  -3   40.20    1.77
  -3   0   3   43.89    2.17
   3   0  -2    0.08    0.07
  -3   0   2    0.00    0.04
  -3   0   2   -0.01    0.06
   3   0  -2    0.05    0.04
   3   0  -1   71.98    2.66
  -3   0   1   74.74    2.96
  -3   0   1   69.38    2.52
   3   0  -1   67.35    2.75
  -3   0   0    1.36    0.32
   3   0   0    1.21    0.28
  -3   0   0    1.11    0.24
   3   0   0    1.03    0.27
   3   0   1   94.32    3.49
  -3   0  -1  100.27    3.64
   3   0   1  103.07    3.70
   3   0   2    0.84    0.22
   3   0   2    0.95    0.22
   3   0   2    0.88    0.23
  -3   0  -2    0.94    0.23
   3   0   3    5.36    0.54
   3   0   3    4.95    0.57
  -3   0  -3    4.42    0.51
  -3   0  -4   29.94    1.60
   3   0   4   30.65    1.47
  -3   0  -4   32.84    1.63
  -3   0  -5   16.64    1.15
   3   0   5   15.00    0.93
  -3   0  -6   17.65    1.24
  -3   0  -7    0.09    0.11
  -3   0  -8   24.71    1.65
   3   0   8   22.99    1.29
   3   0   9   14.29    1.01
   3   0  10    0.07    0.11
   3   0  11    2.70    0.46
   3   0  12    3.65    0.58
   3   0  13    0.41    0.22
   3   0  13    0.92    0.34
   3   0  14    0.31    0.23
   3   0  15   19.38    1.66
  -3  -1  12    7.63    1.20
  -3  -1  11   11.47    1.38
  -3  -1  10   11.56    1.31
  -3  -1   9    0.17    0.18
  -3  -1   8   14.15    1.31
  -3  -1   7   15.59    1.32
  -3  -1   6    2.69    0.50
   3   1  -5    0.19    0.09
   3   1  -5    0.11    0.11
  -3  -1   5    0.24    0.14
   3   1  -5    0.25    0.15
   3   1  -4   27.35    1.34
  -3  -1   4   29.73    1.62
   3   1  -3   26.11    1.21
  -3  -1   3   26.41    1.44
  -3  -1   3   22.40    1.24
   3   1  -3   22.10    1.44
   3   1  -2   17.83    0.92
  -3  -1   2   16.03    1.01
   3   1  -2   15.56    1.17
   3   1  -1  159.94    4.72
  -3  -1   1  166.04    5.14
  -3  -1   1  148.49    5.03
   3   1  -1  137.97    5.20
   3   1   0    0.15    0.06
  -3  -1   0    0.14    0.08
  -3  -1   0    0.55    0.18
   3   1   0    0.65    0.22
   3   1   1   16.25    1.16
   3   1   1   13.89    0.81
  -3  -1  -1   14.95    0.91
  -3  -1  -1   15.14    1.10
  -3  -1  -2    0.17    0.09
   3   1   2    0.11    0.08
   3   1   2    0.24    0.11
   3   1   2    0.11    0.05
  -3  -1  -3   28.51    1.54
   3   1   3   28.80    1.26
   3   1   3   27.39    1.38
  -3  -1  -4    0.83    0.25
   3   1   4    0.84    0.16
  -3  -1  -4    0.87    0.20
  -3  -1  -5   14.62    0.96
   3   1   5   13.20    0.78
  -3  -1  -6    8.79    0.76
   3   1   6    8.18    0.59
  -3  -1  -7    1.29    0.31
   3   1   8    1.30    0.26
  -3  -1  -8    2.99    0.48
  -3  -1  -9    2.09    0.42
   3   1   9    1.68    0.32
   3   1  10    4.31    0.54
   3   1  11    2.69    0.45
   3   1  11    2.55    0.45
   3   1  12    0.03    0.07
   3   1  13    9.33    1.00
   3   1  14    4.98    0.76
   3   1  15    3.03    0.63
  -3  -2  12    0.19    0.19
  -3  -2  11    4.81    0.85
  -3  -2  10    0.11    0.18
  -3  -2   9    3.04    0.58
  -3  -2   8    4.54    0.70
  -3  -2   7   80.49    3.43
  -3  -2   6    4.85    0.64
   3   2  -5   28.71    1.45
  -3  -2   5   28.48    1.59
   3   2  -5   25.95    1.84
  -3  -2   4   13.06    0.95
   3   2  -4   10.52    1.06
   3   2  -4   13.23    0.85
   3   2  -3    7.94    0.59
  -3  -2   3    8.09    0.69
  -3  -2   3    6.97    0.68
   3   2  -2   37.52    1.49
   3   2  -2   38.29    1.47
  -3  -2   2   34.99    1.80
   3   2  -1  154.64    4.50
  -3  -2   1  162.19    4.83
   3   2   0   45.93    1.52
  -3  -2   0   44.70    1.74
  -3  -2   0   45.82    2.24
   3   2   1    0.47    0.22
  -3  -2  -1    0.62    0.14
  -3  -2  -1    0.72    0.25
   3   2   2  115.99    3.57
   3   2   2  117.86    3.55
   3   2   2  121.92    4.40
  -3  -2  -3   13.29    1.06
   3   2   3   15.23    0.62
  -3  -2  -4   10.16    0.95
  -3  -2  -4   10.04    0.64
   3   2   4   10.50    0.52
  -3  -2  -5   -0.12    0.11
   3   2   5    0.05    0.03
  -3  -2  -5    0.04    0.07
  -3  -2  -6   31.14    1.49
   3   2   6   32.16    1.27
  -3  -2  -7    1.49    0.29
   3   2   7    1.93    0.26
  -3  -2  -8    0.60    0.20
   3   2   9   27.38    1.45
   3   2   9   28.14    1.39
  -3  -2  -9   27.35    1.60
   3   2  10    9.51    0.84
  -3  -2 -10    9.03    0.91
   3   2  11    0.20    0.16
   3   2  12    0.23    0.16
   3   2  13    4.43    0.67
   3   2  14    0.01    0.13
   3   2  15    0.59    0.26
  -3  -3  12    1.10    0.42
  -3  -3  11   12.91    1.39
  -3  -3  10   10.19    1.14
  -3  -3   9    3.50    0.62
  -3  -3   8   10.03    1.00
  -3  -3   7    0.91    0.28
  -3  -3   6    2.80    0.45
  -3  -3   5   39.43    1.84
   3   3  -5   35.65    1.74
   3   3  -4    0.01    0.05
  -3  -3   4    0.06    0.08
  -3  -3   4    0.13    0.15
   3   3  -4    0.10    0.07
  -3  -3   3   21.86    1.12
  -3  -3   3   20.02    1.29
   3   3  -3   18.69    1.53
   3   3  -3   21.92    1.08
  -3  -3   2   12.77    0.75
  -3  -3   2   11.33    0.99
   3   3  -2   10.33    0.65
  -3  -3   1    1.82    0.24
   3   3  -1    1.86    0.22
  -3  -3   1    1.45    0.34
  -3  -3   0   15.57    0.73
  -3  -3   0   15.26    1.26
   3   3   0   13.71    0.61
  -3  -3  -1   33.78    1.95
   3   3   1   29.79    0.96
  -3  -3  -2    4.12    0.62
   3   3   3   89.10    2.49
   3   3   3   89.27    2.62
  -3  -3  -3   91.23    3.70
   3   3   4   12.30    0.51
  -3  -3  -4    9.98    0.51
  -3  -3  -4   10.82    1.04
   3   3   5    6.14    0.40
  -3  -3  -5    6.13    0.45
   3   3   6    9.34    0.57
  -3  -3  -6    9.04    0.63
  -3  -3  -7    0.61    0.16
   3   3   7    0.88    0.19
  -3  -3  -8   16.75    1.05
   3   3   9   31.41    1.54
  -3  -3  -9   29.11    1.59
  -3  -3 -10    0.19    0.15
   3   3  10    0.38    0.15
   3   3  11    0.30    0.18
   3   3  12    6.25    0.76
   3   3  13    3.20    0.57
   3   3  14    5.27    0.80
   3   3  15   -0.15    0.20
  -3  -4  11    0.71    0.34
  -3  -4  10   14.58    1.36
  -3  -4   9    1.02    0.30
  -3  -4   8    0.08    0.07
  -3  -4   7   41.90    2.10
  -3  -4   6   37.23    1.86
  -3  -4   5   67.92    2.67
   3   4  -5   67.13    2.77
  -3  -4   4    2.69    0.37
   3   4  -4    3.16    0.43
  -3  -4   4    2.46    0.45
   3   4  -4    2.11    0.56
  -3  -4   3    1.02    0.20
   3   4  -3    1.02    0.23
  -3  -4   3    1.25    0.32
   3   4  -3    1.00    0.32
  -3  -4   2   45.76    1.75
   3   4  -2   51.87    1.93
   3   4  -2   50.92    2.83
  -3  -4   2   48.52    2.45
  -3  -4   1  129.13    4.89
  -3  -4   1  130.11    3.78
   3   4  -1  122.32    3.89
   3   4  -1  124.83    5.14
  -3  -4   0    9.55    0.47
   3   4   0   10.40    0.55
  -3  -4   0   10.64    1.09
   3   4   0    9.47    1.06
   3   4   1    3.06    0.55
   3   4   1    2.27    0.20
  -3  -4  -1    2.93    0.58
  -3  -4  -2   47.27    2.49
   3   4   2   37.94    2.29
  -3  -4  -3    0.00    0.10
  -3  -4  -4    3.24    0.60
   3   4   4    3.45    0.26
   3   4   5   55.13    1.90
  -3  -4  -5   57.42    1.82
  -3  -4  -5   56.28    2.92
  -3  -4  -6    0.21    0.08
   3   4   6    0.15    0.09
  -3  -4  -7    1.71    0.25
   3   4   7    1.71    0.27
  -3  -4  -8    2.03    0.31
   3   4   9    8.84    0.75
  -3  -4  -9    8.44    0.71
   3   4  10    0.42    0.17
  -3  -4 -10    0.28    0.13
   3   4  11    8.60    0.87
   3   4  12    0.98    0.33
   3   4  13   12.74    1.24
   3   4  14    0.72    0.32
   3   4  15    1.08    0.40
  -3  -5  11    0.23    0.19
  -3  -5  10    0.05    0.13
  -3  -5   9    6.45    0.83
  -3  -5   8    1.49    0.38
  -3  -5   7   19.97    1.34
  -3  -5   6    0.13    0.10
   3   5  -5    0.20    0.12
  -3  -5   5    0.42    0.16
  -3  -5   5    0.24    0.14
  -3  -5   4    2.28    0.33
   3   5  -4    1.96    0.37
  -3  -5   4    1.84    0.41
   3   5  -3    0.25    0.16
  -3  -5   3    0.29    0.10
  -3  -5   3    0.29    0.20
  -3  -5   2    5.75    0.44
   3   5  -2    5.73    0.91
   3   5  -2    7.05    0.61
  -3  -5   2    5.80    0.79
  -3  -5   1   28.71    1.10
   3   5  -1   28.78    2.10
   3   5  -1   29.05    1.39
  -3  -5   1   28.62    1.93
   3   5   0   69.21    3.41
  -3  -5   0   66.15    2.00
   3   5   0   65.13    2.36
   3   5   1    3.30    0.63
  -3  -5  -1    2.46    0.54
   3   5   2    2.11    0.51
  -3  -5  -2    2.08    0.52
  -3  -5  -3   40.35    2.42
  -3  -5  -4   43.89    2.54
   3   5   5  106.45    3.36
  -3  -5  -5  110.38    4.67
   3   5   6   12.74    0.80
  -3  -5  -6   11.68    0.57
  -3  -5  -6   12.36    1.33
  -3  -5  -7    2.47    0.64
   3   5   7    2.28    0.34
  -3  -5  -7    2.64    0.29
  -3  -5  -8   16.48    0.92
   3   5   9   18.91    1.25
  -3  -5  -9   18.81    1.08
  -3  -5 -10    0.37    0.16
   3   5  10    0.42    0.20
   3   5  11    0.18    0.14
   3   5  12    4.03    0.66
   3   5  13   -0.16    0.22
   3   5  14    0.24    0.20
   3   5  15    6.88    1.06
  -3  -6  11    2.41    0.56
  -3  -6  10    4.40    0.71
  -3  -6   9    2.65    0.53
  -3  -6   8   10.91    1.03
  -3  -6   7   38.64    2.01
  -3  -6   6   68.30    2.81
  -3  -6   5   36.03    1.74
  -3  -6   5   37.09    2.09
  -3  -6   4    1.60    0.29
  -3  -6   4    1.37    0.37
   3   6  -4    1.38    0.36
  -3  -6   3    0.22    0.12
  -3  -6   3    0.17    0.07
  -3  -6   3    0.30    0.25
   3   6  -3    0.46    0.20
  -3  -6   2   21.99    1.07
  -3  -6   2   20.10    0.97
   3   6  -2   22.19    1.37
  -3  -6   2   20.23    1.61
  -3  -6   1    7.01    0.50
  -3  -6   1    7.64    0.47
   3   6  -1    8.76    0.77
  -3  -6   1    6.22    0.89
  -3  -6   0    0.58    0.15
   3   6   0    0.54    0.28
   3   6   0    0.54    0.16
  -3  -6   0    0.54    0.12
  -3  -6   0    0.52    0.09
  -3  -6   0    0.77    0.33
   3   6   1    4.96    0.82
  -3  -6  -1    3.10    0.66
  -3  -6  -2    3.77    0.72
  -3  -6  -3   37.80    2.48
  -3  -6  -4    1.64    0.47
  -3  -6  -5    3.20    0.65
   3   6   5    3.90    0.38
   3   6   6   10.72    0.77
  -3  -6  -6   10.14    0.49
  -3  -6  -6   10.75    1.27
  -3  -6  -7    2.18    0.24
  -3  -6  -7    2.34    0.61
   3   6   7    1.96    0.36
  -3  -6  -8    0.57    0.31
  -3  -6  -8    0.93    0.18
   3   6   9   20.94    1.46
  -3  -6  -9   25.55    2.33
   3   6  10    9.65    0.99
   3   6  11    0.02    0.10
   3   6  12    0.30    0.13
   3   6  13    0.56    0.22
  -3  -7  10    0.44    0.22
  -3  -7   9    0.31    0.16
  -3  -7   8    0.00    0.15
  -3  -7   7    2.65    0.47
  -3  -7   6    6.28    0.67
  -3  -7   5    1.08    0.26
  -3  -7   5    0.99    0.33
  -3  -7   4   12.17    0.90
  -3  -7   4   11.45    0.83
  -3  -7   4    9.98    1.07
  -3  -7   3    5.99    0.57
  -3  -7   3    5.16    0.50
   3   7  -3    5.85    0.78
  -3  -7   3    5.80    0.83
  -3  -7   2    3.06    0.37
   3   7  -2    3.36    0.57
  -3  -7   2    2.46    0.56
   3   7  -1    4.43    0.61
  -3  -7   1    6.21    0.89
  -3  -7   1    5.53    0.60
  -3  -7   1    4.97    0.43
  -3  -7   0   17.30    0.98
  -3  -7   0   18.90    1.71
  -3  -7   0   18.76    0.85
  -3  -7  -1    4.09    0.30
  -3  -7  -1    3.78    0.77
  -3  -7  -1    5.27    0.34
  -3  -7  -2    6.21    0.32
  -3  -7  -2    5.48    0.91
  -3  -7  -3   86.75    4.27
  -3  -7  -4   89.98    4.39
  -3  -7  -5   41.87    2.75
  -3  -7  -6    5.82    0.94
   3   7   6    7.57    0.66
  -3  -7  -6    5.66    0.31
  -3  -7  -7    3.86    0.82
   3   7   7    4.01    0.54
  -3  -7  -8   18.46    1.89
  -3  -7  -9   -0.10    0.15
   3   7   9   -0.31    0.17
  -3  -7 -10   -0.46    0.33
   3   7  10    0.36    0.23
  -3  -7 -11    0.17    0.29
  -3  -8   9    3.48    0.61
  -3  -8   8    0.09    0.11
  -3  -8   7    0.73    0.27
  -3  -8   6    0.30    0.17
  -3  -8   5    1.91    0.39
  -3  -8   5    1.99    0.37
  -3  -8   5    2.09    0.48
  -3  -8   4    4.27    0.54
  -3  -8   4    4.62    0.52
  -3  -8   4    3.89    0.69
  -3  -8   3    1.76    0.31
  -3  -8   3    0.92    0.38
  -3  -8   2    1.46    0.26
  -3  -8   2    0.92    0.36
  -3  -8   1    4.07    0.77
  -3  -8   1    4.65    0.44
  -3  -8   0    2.10    0.57
  -3  -8   0    2.11    0.26
  -3  -8  -1    0.06    0.03
  -3  -8  -1    0.04    0.04
  -3  -8  -1    0.01    0.18
  -3  -8  -2    0.59    0.10
  -3  -8  -2    0.35    0.06
  -3  -8  -2    0.57    0.32
  -3  -8  -3    3.07    0.73
  -3  -8  -4    7.75    1.15
  -3  -8  -5   16.51    1.72
  -3  -8  -6    1.22    0.48
  -3  -8  -7    1.36    0.53
  -3  -8  -8    0.52    0.27
  -3  -8  -9    0.85    0.36
  -3  -8 -10    6.29    1.18
  -3  -8 -11    0.23    0.36
  -3  -9   5    4.11    0.57
  -3  -9   4    0.84    0.22
  -3  -9   4    1.10    0.38
  -3  -9   3   -0.08    0.07
  -3  -9   3    0.01    0.13
  -3  -9   2    4.91    0.86
  -3  -9   2    3.81    0.46
  -3  -9   1    1.62    0.27
  -3  -9   1    1.35    0.46
  -3  -9   0    5.27    0.93
  -3  -9  -1    9.41    1.28
  -3  -9  -2    0.62    0.34
  -3  -9  -3    0.01    0.21
  -3  -9  -4    0.63    0.41
  -3  -9  -5    2.88    0.72
  -3  -9  -6    2.19    0.65
  -3  -9  -7    0.43    0.27
  -3  -9  -8    0.91    0.38
  -3  -9  -9    1.50    0.58
  -3 -10   4    1.14    0.40
  -3 -10   3    2.48    0.57
  -3 -10   2    2.23    0.58
  -3 -10   1    1.29    0.46
  -3 -10   0    3.19    0.73
  -3 -10  -1    0.49    0.28
  -3 -10  -2    2.02    0.60
  -3 -10  -3    1.09    0.47
  -3 -10  -4    3.34    0.80
  -3 -10  -5    1.03    0.48
  -3 -10  -6    1.34    0.55
  -3 -10  -7    0.21    0.34
  -3 -10  -8    1.83    0.59
  -3 -11   1    5.22    0.93
  -3 -11   0    0.07    0.12
  -3 -11  -1    1.31    0.49
  -3 -11  -2   -0.09    0.26
  -3 -11  -3    0.29    0.19
  -3 -11  -4    0.73    0.38
  -3 -11  -5    1.53    0.54
  -3 -11  -6    0.03    0.17
   4  -9  -4    0.10    0.13
   4  -9  -3    0.04    0.24
   4  -9  -2    1.37    0.54
   4  -9  -1    1.91    0.58
   4  -9   0    0.87    0.39
   4  -9   1    0.34    0.26
   4  -9   2    0.75    0.38
   4  -9   3    0.14    0.16
   4  -9   4    0.00    0.11
  -4   8   6   14.08    2.06
  -4   8   5    0.44    0.39
  -4   8   4    0.18    0.16
   4  -8  -3    2.90    0.73
  -4   8   3    2.48    0.78
   4  -8  -2    0.26    0.26
   4  -8  -1    2.88    0.74
   4  -8   0   -0.41    0.28
   4  -8   1    4.48    0.90
   4  -8   2    1.94    0.62
   4  -8   3    2.92    0.72
   4  -8   4    2.32    0.65
   4  -8   5    2.32    0.63
   4  -8   6    0.03    0.12
   4  -8   7    2.38    0.61
  -4   7   7    0.40    0.35
  -4   7   6    1.47    0.68
  -4   7   5    1.00    0.52
  -4   7   4   -0.76    0.45
  -4   7   3    4.33    0.99
   4  -7  -2    0.78    0.41
  -4   7   2    0.91    0.50
   4  -7  -1    0.42    0.28
   4  -7   0    4.38    0.89
   4  -7   1   21.22    1.99
   4  -7   2    0.59    0.37
   4  -7   3    1.12    0.40
   4  -7   4   17.58    1.73
   4  -7   5    0.45    0.29
   4  -7   6    1.93    0.56
   4  -7   7    0.64    0.32
   4  -7   8    0.63    0.34
   4  -7   9    1.36    0.45
  -4   6   8    0.29    0.36
  -4   6   7    9.15    1.65
  -4   6   6   17.60    2.23
  -4   6   5    2.72    0.89
  -4   6   4    3.19    0.83
  -4   6   3    2.43    0.71
  -4   6   2    0.03    0.10
   4  -6  -2    0.30    0.16
   4  -6  -1    0.50    0.27
  -4   6   1    0.63    0.32
   4  -6  -1    0.17    0.07
   4  -6   0    3.45    0.76
   4  -6   1   -0.15    0.11
   4  -6   2    1.84    0.51
   4  -6   3    0.13    0.13
   4  -6   4    0.67    0.35
   4  -6   5    6.63    1.02
   4  -6   6    0.97    0.37
   4  -6   7    1.20    0.40
   4  -6   8    0.11    0.23
   4  -6   9    5.73    0.89
   4  -6  10    0.03    0.14
  -4   5   9    0.45    0.43
  -4   5   8    2.19    0.79
  -4   5   7   10.55    1.66
  -4   5   6    0.73    0.31
  -4   5   5    2.14    0.79
  -4   5   4   23.55    2.37
   4  -5  -4   21.90    1.56
  -4   5   3    8.81    1.38
   4  -5  -3    9.76    0.89
  -4   5   2   42.33    3.05
   4  -5  -2   39.40    1.89
  -4   5   1    3.08    0.74
   4  -5  -1    2.80    0.37
  -4   5   0    5.75    1.01
   4  -5   0    7.87    1.11
   4  -5   0    8.00    0.54
   4  -5   1    1.74    0.51
   4  -5   2    0.31    0.17
   4  -5   3    9.48    1.20
   4  -5   4    3.35    0.68
   4  -5   5    1.60    0.47
   4  -5   6    3.77    0.69
   4  -5   7   -0.10    0.06
   4  -5   8    0.19    0.15
   4  -5   9    1.89    0.51
   4  -5  10    0.91    0.34
   4  -5  11    1.49    0.47
  -4   4  10    8.83    1.60
  -4   4   9    0.46    0.44
  -4   4   8    8.62    1.45
  -4   4   7    0.38    0.18
  -4   4   6    2.41    0.70
  -4   4   5    6.58    1.21
  -4   4   4  139.76    6.39
   4  -4  -4  127.93    4.92
  -4   4   3   27.95    2.43
   4  -4  -3   27.47    1.62
  -4   4   2   15.95    1.74
   4  -4  -2   15.22    1.08
  -4   4   1    1.58    0.52
   4  -4  -1    1.73    0.31
  -4   4   0    3.40    0.73
   4  -4   0    3.85    0.44
   4  -4   1    0.52    0.09
   4  -4   1    0.64    0.30
   4  -4   2   17.64    1.63
   4  -4   3    8.96    1.12
   4  -4   4    2.00    0.50
   4  -4   5    0.40    0.23
  -4   4  -6    8.04    0.40
  -4   4  -6    8.84    0.53
   4  -4   7   10.08    1.08
  -4   4  -7   10.48    0.73
   4  -4   8   30.30    1.98
   4  -4   9   -0.01    0.13
   4  -4  10   12.82    1.28
   4  -4  11    5.28    0.80
   4  -4  12    2.67    0.58
  -4   3  10    0.34    0.40
  -4   3   9    1.61    0.66
  -4   3   8    0.48    0.39
  -4   3   7    1.28    0.48
  -4   3   6    8.85    1.34
  -4   3   5   10.41    1.41
   4  -3  -4    2.51    0.48
  -4   3   4    3.78    0.81
  -4   3   3    8.89    1.28
   4  -3  -3    7.81    0.82
  -4   3   2    1.08    0.42
   4  -3  -2    0.91    0.25
   4  -3  -1   58.75    3.02
  -4   3   1   57.57    3.28
   4  -3  -1   51.39    2.29
   4  -3   0   23.08    1.72
  -4   3   0   23.52    1.88
   4  -3   0   21.54    1.27
  -4   3  -1    3.42    0.67
   4  -3   1    4.54    0.46
   4  -3   1    4.13    0.71
   4  -3   2    9.46    1.12
   4  -3   2    7.88    1.03
   4  -3   3    0.84    0.35
   4  -3   3    1.51    0.42
  -4   3  -3    1.32    0.13
  -4   3  -4    0.66    0.13
   4  -3   4    0.47    0.24
   4  -3   5    0.04    0.10
  -4   3  -5    0.02    0.06
   4  -3   6  114.64    4.44
  -4   3  -6  105.46    3.65
   4  -3   7   52.53    2.74
  -4   3  -7   61.75    2.54
   4  -3   8    0.22    0.11
   4  -3   9    2.47    0.52
   4  -3  10    4.33    0.68
   4  -3  11    0.35    0.20
   4  -3  12    2.03    0.49
   4  -3  13    2.19    0.51
  -4   2  11    0.55    0.48
  -4   2  10    0.87    0.42
  -4   2   9    0.19    0.13
  -4   2   8   28.07    2.55
  -4   2   7   -0.16    0.15
  -4   2   6   31.92    2.58
  -4   2   5   52.35    3.28
  -4   2   4    8.34    1.15
   4  -2  -4    8.29    0.92
   4  -2  -3    8.71    0.90
  -4   2   3    9.11    1.16
   4  -2  -3    8.20    0.87
   4  -2  -2    1.09    0.32
   4  -2  -2    0.82    0.24
  -4   2   2    0.94    0.36
  -4   2   1    0.55    0.24
   4  -2  -1    0.37    0.19
   4  -2  -1    0.23    0.12
  -4   2   0    4.34    0.73
   4  -2   0    2.34    0.49
   4  -2   0    3.72    0.51
   4  -2   1   -0.01    0.04
  -4   2  -1    0.03    0.08
  -4   2  -1    0.01    0.04
   4  -2   1    0.03    0.07
   4  -2   2   37.71    2.23
   4  -2   2   36.70    2.23
  -4   2  -2   35.50    1.45
   4  -2   2   36.34    1.58
   4  -2   3    8.65    0.99
   4  -2   3    7.59    0.96
  -4   2  -3    8.76    0.64
  -4   2  -4   19.67    1.13
   4  -2   4   19.04    1.46
   4  -2   4   18.36    1.55
  -4   2  -5    1.14    0.26
   4  -2   5    0.99    0.35
   4  -2   6    1.87    0.42
  -4   2  -6    1.75    0.34
  -4   2  -6    2.10    0.52
   4  -2   7   10.68    0.99
   4  -2   8   19.80    1.41
   4  -2   9   38.94    2.16
   4  -2  10    1.85    0.42
   4  -2  11    4.79    0.69
   4  -2  12    0.27    0.19
   4  -2  13   -0.04    0.17
   4  -2  14    0.16    0.20
  -4   1  11   25.75    2.51
  -4   1  10   14.47    1.78
  -4   1   9   -0.05    0.28
  -4   1   8    0.17    0.17
  -4   1   7    3.12    0.75
  -4   1   6    0.55    0.29
  -4   1   5    0.56    0.30
   4  -1  -4   13.03    1.06
  -4   1   4   15.09    1.51
   4  -1  -4   14.92    1.30
   4  -1  -3    9.12    0.87
  -4   1   3    9.76    1.13
   4  -1  -3    8.72    0.91
   4  -1  -2   43.42    2.15
   4  -1  -2   41.12    2.13
   4  -1  -1    3.20    0.50
   4  -1  -1    2.18    0.41
  -4   1   1    2.92    0.60
   4  -1   0   32.19    1.86
  -4   1   0   36.89    2.17
  -4   1   0   31.23    1.45
   4  -1   0   35.39    1.87
   4  -1   1    1.33    0.30
  -4   1  -1    0.90    0.27
  -4   1  -1    0.80    0.20
   4  -1   1    1.10    0.32
   4  -1   2   69.62    3.11
  -4   1  -2   70.00    2.70
   4  -1   2   66.62    2.72
   4  -1   3    1.70    0.41
  -4   1  -3    2.00    0.36
   4  -1   4  188.54    6.50
  -4   1  -4  178.12    5.92
  -4   1  -5   49.34    2.56
   4  -1   5   51.25    2.42
  -4   1  -5   49.80    2.26
  -4   1  -6   15.61    1.38
   4  -1   6   15.34    1.13
  -4   1  -6   16.38    1.21
  -4   1  -7    9.65    1.11
   4  -1   7   10.17    0.90
   4  -1   8   12.47    1.04
   4  -1   9   -0.05    0.11
   4  -1  10    5.11    0.66
   4  -1  11    5.76    0.74
   4  -1  12    2.21    0.46
   4  -1  13    7.34    0.89
   4  -1  14    0.13    0.18
  -4   0  11   32.96    2.76
  -4   0  10   19.43    1.99
  -4   0   9   12.93    1.53
  -4   0   8    0.72    0.38
  -4   0   7   12.52    1.39
  -4   0   6    0.83    0.33
  -4   0   5   11.50    1.25
   4   0  -4    0.32    0.14
  -4   0   4    0.27    0.22
   4   0  -4    0.37    0.21
   4   0  -3   12.87    0.96
  -4   0   3   13.03    1.26
   4   0  -3   10.74    1.05
   4   0  -2  151.42    4.95
  -4   0   2  147.60    5.48
  -4   0   2  142.21    4.75
   4   0  -2  146.31    5.30
   4   0  -1  201.19    6.46
   4   0  -1  207.76    6.89
  -4   0   1  194.33    6.30
   4   0   0   46.09    2.16
  -4   0   0   49.47    2.46
  -4   0   0   46.48    2.10
   4   0   0   47.43    2.40
   4   0   1    2.69    0.48
  -4   0  -1    2.23    0.43
   4   0   1    2.01    0.38
  -4   0  -1    2.31    0.40
   4   0   2    2.18    0.41
   4   0   2    2.19    0.41
  -4   0  -2    2.98    0.48
   4   0   2    2.25    0.41
   4   0   3   25.99    1.55
   4   0   3   24.85    1.57
   4   0   3   27.27    1.56
  -4   0  -3   24.51    1.55
   4   0   4    5.22    0.61
   4   0   4    4.52    0.70
  -4   0  -4    4.50    0.61
  -4   0  -5   -0.04    0.07
  -4   0  -5    0.15    0.11
  -4   0  -6   37.96    2.16
  -4   0  -6   39.66    2.16
  -4   0  -7    0.95    0.31
   4   0   7    0.93    0.24
  -4   0  -8   -0.48    0.23
   4   0   8    0.12    0.14
   4   0   9    0.87    0.24
   4   0  10    9.82    0.89
   4   0  11    0.64    0.24
   4   0  12    3.59    0.57
   4   0  13    0.67    0.27
   4   0  14   27.03    1.85
   4   0  14   27.90    1.93
  -4  -1  11    0.43    0.35
  -4  -1  10    0.89    0.31
  -4  -1   9    0.10    0.22
  -4  -1   8    0.42    0.27
  -4  -1   7    6.26    0.91
  -4  -1   6    6.30    0.89
   4   1  -5    0.62    0.20
  -4  -1   5    0.41    0.23
   4   1  -4    3.86    0.47
  -4  -1   4    3.40    0.59
   4   1  -4    2.81    0.56
   4   1  -3    0.11    0.07
  -4  -1   3    0.34    0.18
  -4  -1   3    0.06    0.08
   4   1  -3    0.04    0.12
   4   1  -2   36.79    1.62
  -4  -1   2   31.60    1.71
   4   1  -2   33.41    2.08
   4   1  -1  248.56    7.50
  -4  -1   1  253.44    7.96
  -4  -1   1  256.04    7.88
   4   1  -1  244.06    8.27
   4   1   0  238.49    8.04
  -4  -1   0  231.51    7.58
   4   1   0  240.76    7.22
  -4  -1   0  247.57    7.67
   4   1   1  104.15    4.26
   4   1   1  104.83    3.69
  -4  -1  -1  104.29    3.84
  -4  -1  -1  109.76    4.13
   4   1   2    7.01    0.65
  -4  -1  -2    7.57    0.84
   4   1   2    6.70    0.79
   4   1   3   45.59    1.99
   4   1   3   44.33    2.05
  -4  -1  -3   41.25    2.26
   4   1   3   45.43    2.31
   4   1   4   41.04    1.76
   4   1   4   35.40    1.88
  -4  -1  -4   36.81    2.05
  -4  -1  -5   13.93    1.03
   4   1   5   15.14    0.90
  -4  -1  -6    3.24    0.59
  -4  -1  -6    2.87    0.48
   4   1   6    3.46    0.42
  -4  -1  -7    2.72    0.59
  -4  -1  -7    2.45    0.46
  -4  -1  -8  124.09    4.71
   4   1   8  117.13    4.04
  -4  -1  -9   34.09    2.16
   4   1   9   40.48    1.83
   4   1  10   11.25    0.90
   4   1  11    3.56    0.51
   4   1  12    1.72    0.38
   4   1  13    5.84    0.74
   4   1  13    6.64    0.83
   4   1  14    5.56    0.80
   4   1  15    0.91    0.32
  -4  -2  11    0.36    0.29
  -4  -2  10   19.71    1.85
  -4  -2   9    6.11    0.96
  -4  -2   8    0.05    0.11
  -4  -2   7    2.63    0.56
  -4  -2   6   35.86    2.14
  -4  -2   5   10.67    1.03
   4   2  -4    0.27    0.10
   4   2  -4    0.14    0.09
   4   2  -3   32.12    1.47
  -4  -2   3   34.51    1.84
  -4  -2   3   32.74    1.77
   4   2  -3   31.67    2.14
   4   2  -2   21.46    1.07
  -4  -2   2   25.29    1.47
  -4  -2   2   20.58    1.38
   4   2  -2   23.18    1.74
   4   2  -1   19.39    0.95
  -4  -2   1   19.85    1.24
  -4  -2   1   20.13    1.41
   4   2  -1   21.03    1.63
  -4  -2   0    8.30    0.90
   4   2   0    8.62    0.57
  -4  -2   0    8.24    0.73
   4   2   0    9.46    1.06
   4   2   1    6.33    0.48
  -4  -2  -1    7.21    0.62
  -4  -2  -1    7.12    0.86
   4   2   1    7.52    0.91
   4   2   2    0.65    0.26
   4   2   2    0.62    0.16
  -4  -2  -2    0.58    0.23
   4   2   3    0.23    0.10
  -4  -2  -3    0.30    0.14
   4   2   3    0.35    0.20
   4   2   3    0.18    0.09
   4   2   4   30.80    1.28
   4   2   4   31.59    1.56
  -4  -2  -4   31.48    1.95
   4   2   5   10.03    0.62
  -4  -2  -5    9.21    1.00
   4   2   6    0.53    0.14
  -4  -2  -6    0.87    0.30
  -4  -2  -6    0.44    0.16
  -4  -2  -7    0.07    0.16
   4   2   7    0.14    0.08
  -4  -2  -7    0.09    0.06
  -4  -2  -8   14.23    1.14
  -4  -2  -9  100.97    4.12
   4   2   9  105.46    3.57
   4   2  10  106.15    3.76
  -4  -2 -10  107.98    4.39
   4   2  11    8.28    0.78
   4   2  11    9.36    0.87
   4   2  12    0.44    0.20
   4   2  13    0.79    0.29
   4   2  14    5.81    0.80
   4   2  15    0.51    0.25
  -4  -3  11    0.02    0.25
  -4  -3  10    0.12    0.23
  -4  -3   9    4.73    0.80
  -4  -3   8    0.99    0.37
  -4  -3   7    1.49    0.40
  -4  -3   6    0.13    0.10
  -4  -3   5    0.12    0.10
  -4  -3   4    0.07    0.07
  -4  -3   4    0.26    0.16
   4   3  -4    0.24    0.12
  -4  -3   3   10.05    0.84
  -4  -3   3    9.89    0.94
   4   3  -3    9.20    0.68
   4   3  -2    0.60    0.16
  -4  -3   2    0.40    0.15
  -4  -3   2    0.55    0.25
   4   3  -2    0.41    0.20
   4   3  -1    3.62    0.34
  -4  -3   1    3.79    0.46
  -4  -3   1    3.59    0.59
   4   3  -1    3.13    0.65
   4   3   0   46.51    1.59
   4   3   0   44.10    1.52
  -4  -3   0   45.33    1.81
  -4  -3   0   44.44    2.49
   4   3   0   48.83    2.73
   4   3   1   79.16    2.41
  -4  -3  -1   84.54    2.70
  -4  -3  -1   82.92    3.76
   4   3   1   87.38    3.85
   4   3   2    4.00    0.68
   4   3   2    4.76    0.38
   4   3   2    4.35    0.27
  -4  -3  -2    4.81    0.75
   4   3   3   19.23    0.83
   4   3   3   20.42    0.75
  -4  -3  -3   21.72    1.66
   4   3   3   22.30    1.68
   4   3   4   49.61    1.89
  -4  -3  -4   48.65    2.72
   4   3   4   52.12    1.58
  -4  -3  -5    2.24    0.54
   4   3   5    3.21    0.24
  -4  -3  -6    6.11    0.56
   4   3   6    6.48    0.41
   4   3   7    1.38    0.20
  -4  -3  -7    1.78    0.54
  -4  -3  -7    1.43    0.29
  -4  -3  -8    1.12    0.42
  -4  -3  -8    0.94    0.25
   4   3   9   12.07    0.85
  -4  -3  -9   13.20    1.08
   4   3  10    0.00    0.07
  -4  -3 -10    0.05    0.12
   4   3  11    3.76    0.52
   4   3  12    0.35    0.15
   4   3  13    0.00    0.06
   4   3  14    2.28    0.50
   4   3  15    0.40    0.20
  -4  -4  11   -0.62    0.32
  -4  -4  10   -0.08    0.18
  -4  -4   9   -0.04    0.12
  -4  -4   8    0.33    0.20
  -4  -4   7   10.59    1.06
  -4  -4   6   29.56    1.77
  -4  -4   5   11.39    0.97
  -4  -4   4   11.58    0.91
  -4  -4   4   12.60    1.14
   4   4  -4   11.86    0.87
  -4  -4   3    7.79    0.89
   4   4  -3    8.07    0.66
  -4  -4   2    7.29    0.61
  -4  -4   2    8.92    1.00
   4   4  -2    7.66    0.58
  -4  -4   1   10.21    0.69
  -4  -4   1   10.72    1.10
   4   4  -1   10.06    1.22
   4   4  -1   10.24    0.62
  -4  -4   0    6.40    0.45
  -4  -4   0    6.60    0.90
   4   4   0    7.79    1.04
   4   4   0    6.35    0.41
   4   4   1    5.46    0.32
  -4  -4  -1    6.34    0.89
   4   4   1    6.09    0.89
  -4  -4  -2    9.32    1.12
   4   4   2    7.50    0.99
  -4  -4  -3   16.09    1.51
   4   4   3   22.46    1.78
  -4  -4  -4    0.38    0.29
   4   4   5    7.93    0.40
  -4  -4  -5    8.12    1.05
   4   4   6    6.69    0.43
  -4  -4  -6    5.96    0.95
  -4  -4  -7    0.56    0.28
  -4  -4  -7    0.68    0.17
   4   4   7    0.51    0.14
  -4  -4  -8    0.31    0.26
  -4  -4  -8    0.23    0.12
  -4  -4  -9    0.13    0.15
  -4  -4  -9    0.26    0.15
   4   4   9    0.05    0.05
   4   4  10    0.54    0.17
  -4  -4 -10    0.69    0.23
   4   4  11   22.41    1.40
   4   4  12    1.44    0.34
   4   4  13    3.28    0.56
   4   4  14    6.16    0.86
   4   4  15    0.03    0.21
  -4  -5  11    2.78    0.67
  -4  -5  10    1.87    0.51
  -4  -5   9    1.49    0.46
  -4  -5   8    9.27    1.03
  -4  -5   7    1.80    0.39
  -4  -5   6    0.52    0.20
  -4  -5   5    0.25    0.21
  -4  -5   5    0.22    0.13
  -4  -5   4   50.82    2.17
  -4  -5   4   51.53    2.66
   4   5  -4   47.86    2.24
  -4  -5   3   24.41    1.26
  -4  -5   3   22.93    1.70
   4   5  -3   24.31    1.34
  -4  -5   2    1.85    0.27
   4   5  -2    1.68    0.28
  -4  -5   2    1.15    0.37
   4   5  -1    0.81    0.17
  -4  -5   1    0.35    0.10
  -4  -5   1    0.65    0.31
   4   5   0    0.28    0.10
  -4  -5   0    0.18    0.06
  -4  -5   0    0.33    0.17
   4   5   1    0.03    0.02
  -4  -5  -1    0.17    0.07
  -4  -5  -2   12.48    1.36
  -4  -5  -3    1.73    0.49
  -4  -5  -4   23.55    1.95
  -4  -5  -5   20.33    1.81
   4   5   6   17.56    0.82
  -4  -5  -6   15.84    1.60
  -4  -5  -7    0.29    0.25
  -4  -5  -7    0.21    0.08
   4   5   7    0.12    0.07
  -4  -5  -8    0.15    0.25
  -4  -5  -8   -0.03    0.06
   4   5   8    0.13    0.08
  -4  -5  -9   18.91    1.14
  -4  -5  -9   21.84    2.14
  -4  -5 -10    0.78    0.48
   4   5  10    0.46    0.19
   4   5  11    1.11    0.31
   4   5  12    7.31    0.85
   4   5  13    1.31    0.37
  -4  -6  10    0.65    0.32
  -4  -6   9    0.19    0.21
  -4  -6   8    9.38    1.01
  -4  -6   7    7.62    0.84
  -4  -6   6   29.42    1.69
  -4  -6   5   26.87    1.51
  -4  -6   5   29.39    1.96
   4   6  -4    1.23    0.32
  -4  -6   4    1.60    0.30
  -4  -6   4    1.32    0.39
   4   6  -3    1.99    0.36
  -4  -6   3    2.91    0.37
  -4  -6   3    2.82    0.60
  -4  -6   2    0.15    0.10
  -4  -6   2    0.26    0.23
   4   6  -2    0.03    0.06
  -4  -6   1    9.55    0.55
   4   6  -1   10.13    0.79
  -4  -6   1   11.31    1.25
   4   6   0    5.12    0.49
  -4  -6   0    5.56    0.90
  -4  -6  -1    3.78    0.77
  -4  -6  -2   21.37    1.91
  -4  -6  -3    3.47    0.75
  -4  -6  -4    1.04    0.44
  -4  -6  -5    0.05    0.12
  -4  -6  -6   20.87    1.94
   4   6   7   11.85    0.73
  -4  -6  -7   10.84    1.41
  -4  -6  -8    4.98    0.98
   4   6   8    6.17    0.61
  -4  -6  -9    5.86    1.12
  -4  -6 -10    0.79    0.44
   4   6  10    0.76    0.23
  -4  -6 -11    0.18    0.32
  -4  -6 -12    4.99    1.15
  -4  -7   9   -0.02    0.14
  -4  -7   8    0.82    0.31
  -4  -7   7    0.01    0.11
  -4  -7   6   -0.06    0.06
  -4  -7   5   12.74    0.96
  -4  -7   5   12.88    1.29
  -4  -7   4    3.25    0.42
  -4  -7   4    2.64    0.58
  -4  -7   3    2.25    0.32
  -4  -7   3    2.29    0.54
  -4  -7   2    1.77    0.24
  -4  -7   2    1.84    0.54
  -4  -7   1    2.80    0.26
   4   7  -1    2.74    0.45
  -4  -7   1    3.27    0.69
  -4  -7   1    2.57    0.34
  -4  -7   0   -0.04    0.13
  -4  -7  -1    1.88    0.57
  -4  -7  -2   10.67    1.37
  -4  -7  -3   18.20    1.83
  -4  -7  -4   10.35    1.37
  -4  -7  -5   43.95    3.05
  -4  -7  -6    3.82    0.84
  -4  -7  -7    3.39    0.80
  -4  -7  -8    2.04    0.67
  -4  -7  -9    1.39    0.56
  -4  -7 -10    2.06    0.72
  -4  -7 -11    1.55    0.59
  -4  -8   5    4.67    0.80
  -4  -8   4    2.47    0.59
  -4  -8   3   21.85    1.85
  -4  -8   2    0.09    0.14
  -4  -8   1    2.14    0.59
  -4  -8   0    1.17    0.47
  -4  -8  -1    0.24    0.27
  -4  -8  -2    1.03    0.41
  -4  -8  -3    0.28    0.22
  -4  -8  -4    1.45    0.52
  -4  -8  -5    4.84    0.97
  -4  -8  -6    1.13    0.45
  -4  -8  -7    0.98    0.47
  -4  -8  -8   12.71    1.69
  -4  -8  -9   -0.04    0.17
  -4  -8 -10    1.01    0.46
  -4  -9   5    1.46    0.48
  -4  -9   4    0.14    0.19
  -4  -9   3    0.73    0.32
  -4  -9   2    7.07    1.08
  -4  -9   1    2.00    0.60
  -4  -9   0    3.65    0.79
  -4  -9  -1    5.36    1.01
  -4  -9  -2    0.56    0.30
  -4  -9  -3    3.11    0.77
  -4  -9  -4   13.88    1.73
  -4  -9  -5    0.44    0.34
  -4  -9  -6    2.38    0.75
  -4  -9  -7   12.77    1.73
  -4  -9  -8    0.92    0.47
  -4  -9  -9    1.38    0.60
  -4 -10   4    0.39    0.24
  -4 -10   3    1.64    0.49
  -4 -10   2    0.33    0.24
  -4 -10   1    1.35    0.47
  -4 -10   0    0.14    0.21
  -4 -10  -1    1.86    0.59
  -4 -10  -2    1.96    0.64
  -4 -10  -3    4.78    1.01
  -4 -10  -4    2.56    0.74
  -4 -10  -5    1.01    0.52
  -4 -10  -6    0.31    0.35
  -4 -10  -7    1.29    0.52
  -4 -11   2    2.33    0.61
  -4 -11   1    0.14    0.16
  -4 -11   0    2.43    0.68
  -4 -11  -1    2.24    0.65
  -4 -11  -2    6.31    1.14
  -4 -11  -3    6.51    1.18
  -4 -11  -4    5.59    1.12
   5  -8  -3    1.68    0.59
  -5   8   3    2.95    0.98
   5  -8  -2   -0.03    0.19
   5  -8  -1    4.92    1.02
   5  -8   0    6.68    1.21
   5  -8   1    1.91    0.66
   5  -8   2   -0.08    0.23
   5  -8   3    1.54    0.59
   5  -8   4    2.17    0.69
  -5   7   5    1.41    0.72
  -5   7   4    0.19    0.34
  -5   7   3    1.50    0.64
   5  -7  -2    0.13    0.17
  -5   7   2    0.02    0.17
   5  -7  -1    1.08    0.50
   5  -7   0    8.60    1.34
   5  -7   1    4.37    0.96
   5  -7   2    0.83    0.38
   5  -7   3    4.71    0.98
   5  -7   4    0.50    0.29
   5  -7   5    0.33    0.29
   5  -7   6    7.79    1.19
   5  -7   7    0.34    0.21
  -5   6   6   38.42    3.59
  -5   6   5   64.88    4.71
  -5   6   4    7.52    1.48
  -5   6   3    0.34    0.36
  -5   6   2    0.02    0.22
   5  -6  -1    2.51    0.70
  -5   6   1    2.81    0.82
   5  -6   0   17.72    1.90
   5  -6   1   -0.10    0.34
   5  -6   2    6.89    1.17
   5  -6   3    1.14    0.42
   5  -6   4    9.62    1.31
   5  -6   5    0.42    0.29
   5  -6   6    1.93    0.57
   5  -6   7    0.61    0.34
   5  -6   8   -0.10    0.11
   5  -6   9    1.77    0.53
  -5   5   7    1.20    0.68
  -5   5   6    0.67    0.45
  -5   5   5   12.81    1.92
  -5   5   4   15.72    2.07
  -5   5   3    5.42    1.17
  -5   5   2    0.22    0.20
  -5   5   1   19.34    2.07
   5  -5  -1   18.23    1.28
   5  -5   0    0.39    0.13
   5  -5   0    0.02    0.21
  -5   5   0    0.41    0.32
   5  -5   1    3.30    0.75
   5  -5   2   22.04    2.09
   5  -5   3   54.70    3.42
   5  -5   4   72.43    3.96
   5  -5   5  100.92    4.83
   5  -5   6    8.12    1.14
   5  -5   7    0.66    0.31
   5  -5   8    4.44    0.80
   5  -5   9    3.32    0.69
   5  -5  10    6.25    0.97
  -5   4   8    0.38    0.23
  -5   4   7    8.21    1.52
  -5   4   6    1.81    0.73
  -5   4   5    4.43    1.12
  -5   4   4   35.23    3.09
  -5   4   3    0.60    0.41
   5  -4  -3    0.30    0.19
  -5   4   2   11.15    1.58
   5  -4  -2   12.62    1.14
  -5   4   1    7.36    1.22
   5  -4  -1    7.75    0.85
  -5   4   0    0.55    0.26
   5  -4   0    0.52    0.21
   5  -4   1    5.06    0.93
   5  -4   1    4.91    0.45
   5  -4   2    0.60    0.20
   5  -4   3    1.28    0.43
   5  -4   4    0.68    0.25
   5  -4   5   20.58    1.83
   5  -4   6   48.34    2.90
   5  -4   7    9.82    1.16
   5  -4   8    2.37    0.57
   5  -4   9    2.12    0.52
   5  -4  10    1.66    0.48
   5  -4  11    1.13    0.41
   5  -4  12   12.37    1.33
  -5   3   9    2.47    0.85
  -5   3   8    0.24    0.29
  -5   3   7    0.05    0.12
  -5   3   6    1.47    0.57
  -5   3   5    2.53    0.78
  -5   3   4    0.85    0.38
  -5   3   3   21.90    2.20
   5  -3  -3   18.39    1.49
  -5   3   2   66.88    3.89
   5  -3  -2   50.82    2.70
  -5   3   1  136.89    5.96
   5  -3  -1  118.81    4.71
  -5   3   0    0.10    0.09
   5  -3   0    0.43    0.22
  -5   3  -1   20.59    1.89
   5  -3   1   21.84    1.34
   5  -3   2    4.25    0.80
   5  -3   2    3.45    0.40
   5  -3   3    4.63    0.83
  -5   3  -3    5.33    0.38
   5  -3   4    1.96    0.53
  -5   3  -4    1.38    0.20
  -5   3  -5    4.56    0.45
   5  -3   5    5.49    0.86
   5  -3   6   34.01    2.28
  -5   3  -6   37.96    1.76
  -5   3  -7   -0.09    0.09
   5  -3   7    0.10    0.11
   5  -3   8   22.79    1.71
  -5   3  -8   20.25    1.37
  -5   3  -9    0.23    0.22
   5  -3   9    0.12    0.12
  -5   3 -10    0.62    0.25
   5  -3  10    1.63    0.48
   5  -3  11   -0.16    0.16
   5  -3  12    0.57    0.27
   5  -3  13    0.56    0.31
  -5   2   9    1.29    0.57
  -5   2   8    2.33    0.83
  -5   2   7    1.07    0.50
  -5   2   6   -0.01    0.15
  -5   2   5    2.85    0.73
  -5   2   4   22.26    2.15
  -5   2   3   29.44    2.48
   5  -2  -3   26.73    1.88
  -5   2   2   11.05    1.40
   5  -2  -2    8.69    0.99
  -5   2   1    6.88    1.09
   5  -2  -1    7.83    0.92
  -5   2   0   15.62    1.59
   5  -2   0   16.44    1.34
   5  -2   1    0.48    0.22
  -5   2  -1    0.10    0.21
  -5   2  -1    0.16    0.09
   5  -2   1    0.00    0.09
   5  -2   2    1.05    0.26
   5  -2   2    1.43    0.47
  -5   2  -2    0.88    0.20
   5  -2   2    1.13    0.38
   5  -2   3    0.50    0.27
  -5   2  -3    0.42    0.14
   5  -2   4    0.45    0.22
  -5   2  -4    0.06    0.04
  -5   2  -5    5.29    0.63
   5  -2   5    5.52    0.80
  -5   2  -6    0.09    0.07
   5  -2   6    0.19    0.11
  -5   2  -7    2.05    0.42
   5  -2   7    2.11    0.47
   5  -2   8    9.74    1.03
  -5   2  -8   11.52    1.08
   5  -2   9   67.88    3.26
  -5   2  -9   77.07    3.50
  -5   2 -10    0.20    0.20
   5  -2  10    0.09    0.16
   5  -2  11   17.91    1.47
   5  -2  12    0.00    0.11
   5  -2  13    2.41    0.56
  -5   1  10    0.67    0.55
  -5   1   9    4.63    1.09
  -5   1   8    3.26    0.91
  -5   1   7    2.89    0.79
  -5   1   6   14.70    1.73
  -5   1   5    0.20    0.18
  -5   1   4    1.18    0.44
  -5   1   3   12.93    1.43
   5  -1  -3    8.39    1.05
   5  -1  -2    1.92    0.47
  -5   1   2    1.95    0.53
   5  -1  -1   30.31    1.85
  -5   1   1   34.69    2.36
   5  -1  -1   29.18    1.96
   5  -1   0   32.63    1.98
  -5   1   0   35.70    2.32
  -5   1   0   27.45    1.48
   5  -1   0   32.23    2.03
   5  -1   1    0.02    0.14
  -5   1  -1    0.03    0.07
  -5   1  -1    0.15    0.10
   5  -1   1    0.13    0.14
   5  -1   2   36.57    2.26
   5  -1   2   30.58    2.00
  -5   1  -2   31.66    1.66
   5  -1   2   33.90    1.90
   5  -1   3    0.07    0.11
   5  -1   3    0.22    0.17
   5  -1   3    0.15    0.17
  -5   1  -3    0.22    0.17
   5  -1   4    0.96    0.34
   5  -1   4    1.19    0.38
  -5   1  -4    0.62    0.20
   5  -1   5   14.62    1.26
   5  -1   5   15.00    1.46
  -5   1  -5   12.50    1.12
   5  -1   6   13.41    1.18
  -5   1  -6   13.35    1.16
  -5   1  -7   28.14    1.84
   5  -1   7   31.36    1.83
   5  -1   8   27.82    1.72
  -5   1  -8   28.00    1.91
  -5   1  -9    1.52    0.46
   5  -1   9    1.14    0.36
   5  -1  10    5.53    0.74
  -5   1 -10    6.06    0.95
   5  -1  11    1.40    0.35
   5  -1  12    0.48    0.23
   5  -1  13    1.21    0.39
   5  -1  14    3.65    0.66
  -5   0  10    2.36    0.80
  -5   0   9    0.61    0.38
  -5   0   8    0.86    0.38
  -5   0   7    1.59    0.57
  -5   0   6   -0.05    0.12
  -5   0   5   10.98    1.38
  -5   0   4    1.20    0.42
  -5   0   3   10.49    1.22
   5   0  -2   16.76    1.20
  -5   0   2   18.40    1.59
  -5   0   2   17.07    1.14
   5   0  -2   16.35    1.48
   5   0  -1    6.01    0.68
  -5   0   1    5.53    0.83
  -5   0   1    5.19    0.61
   5   0  -1    6.11    0.86
  -5   0   0    0.46    0.24
   5   0   0    0.40    0.20
  -5   0   0    0.57    0.22
   5   0   0    0.62    0.29
   5   0   1   33.09    1.87
  -5   0  -1   29.26    1.92
  -5   0  -1   28.34    1.69
   5   0   1   33.91    2.11
   5   0   2    2.25    0.48
  -5   0  -2    2.39    0.46
   5   0   2    1.67    0.38
   5   0   3   18.26    1.45
  -5   0  -3   20.56    1.50
   5   0   3   21.97    1.54
   5   0   4   19.92    1.57
  -5   0  -4   20.00    1.51
  -5   0  -5    0.33    0.18
   5   0   5    0.28    0.24
   5   0   5    0.53    0.23
   5   0   6    5.44    0.66
   5   0   6    5.71    0.88
  -5   0  -6    5.04    0.74
  -5   0  -7   13.87    1.33
   5   0   7   14.72    1.10
  -5   0  -7   13.05    1.26
  -5   0  -8    3.36    0.64
  -5   0  -8    2.78    0.59
   5   0   8    3.64    0.54
   5   0   9   27.94    1.65
  -5   0  -9   28.19    2.15
   5   0  10   26.92    1.63
  -5   0 -10   29.24    2.30
   5   0  11   13.95    1.14
   5   0  12    1.42    0.40
   5   0  13    0.34    0.18
   5   0  14    4.15    0.67
   5   0  15    7.32    0.95
  -5  -1  10    1.21    0.47
  -5  -1   9    2.54    0.72
  -5  -1   8   21.28    2.02
  -5  -1   7    0.02    0.18
  -5  -1   6    4.91    0.89
  -5  -1   5    1.43    0.44
  -5  -1   4    5.35    0.87
   5   1  -3    4.81    0.55
  -5  -1   3    5.57    0.81
   5   1  -2    3.97    0.49
  -5  -1   2    4.53    0.71
  -5  -1   2    4.71    0.62
   5   1  -2    3.92    0.74
   5   1  -1   47.74    2.10
  -5  -1   1   49.63    2.58
  -5  -1   1   43.87    2.27
   5   1  -1   48.80    2.78
  -5  -1   0    0.00    0.10
   5   1   0   -0.02    0.05
  -5  -1   0   -0.07    0.08
   5   1   0    0.11    0.14
   5   1   1    1.55    0.44
  -5  -1  -1    2.45    0.47
   5   1   1    1.35    0.31
  -5  -1  -1    1.81    0.42
   5   1   2    9.42    0.84
  -5  -1  -2    9.82    1.05
   5   1   2    8.59    1.00
   5   1   3   15.53    1.19
   5   1   3   15.09    1.16
  -5  -1  -3   14.59    1.32
   5   1   3   17.10    1.43
   5   1   4    1.72    0.39
   5   1   4    1.16    0.30
  -5  -1  -4    0.91    0.32
   5   1   5   11.61    1.12
  -5  -1  -5    9.05    1.05
  -5  -1  -6    0.59    0.25
   5   1   6    1.46    0.43
  -5  -1  -7    4.23    0.75
  -5  -1  -7    3.10    0.57
   5   1   7    3.80    0.48
  -5  -1  -8   14.46    1.34
   5   1   8   13.52    0.99
  -5  -1  -8   14.30    1.46
   5   1   9    0.62    0.19
  -5  -1  -9    0.88    0.35
  -5  -1  -9    0.49    0.25
  -5  -1 -10    2.58    0.68
   5   1  10    2.36    0.41
   5   1  11    0.27    0.13
   5   1  12    5.63    0.70
   5   1  13    4.68    0.66
   5   1  14    1.64    0.45
   5   1  14    1.26    0.38
   5   1  15    0.81    0.35
  -5  -2  10   13.92    1.68
  -5  -2   9    0.86    0.39
  -5  -2   8    5.95    1.01
  -5  -2   7   18.68    1.73
  -5  -2   6    7.14    1.00
  -5  -2   5    1.90    0.47
   5   2  -4    1.08    0.25
  -5  -2   4    1.11    0.35
   5   2  -3    1.08    0.24
  -5  -2   3    1.15    0.34
  -5  -2   3    1.69    0.44
   5   2  -2    0.25    0.11
  -5  -2   2    0.31    0.15
  -5  -2   2    0.19    0.13
   5   2  -1   15.62    0.92
  -5  -2   1   15.29    1.20
  -5  -2   1   16.52    1.34
   5   2  -1   13.59    1.44
   5   2   0    0.86    0.31
  -5  -2   0    0.53    0.20
   5   2   0    0.76    0.18
  -5  -2   0    0.99    0.31
   5   2   1   42.89    1.79
  -5  -2  -1   42.75    2.05
  -5  -2  -1   41.09    2.44
   5   2   1   47.64    2.74
   5   2   2   22.11    1.21
  -5  -2  -2   22.23    1.73
   5   2   2   23.73    1.80
   5   2   3    0.90    0.36
   5   2   3    0.34    0.14
   5   2   3    0.46    0.16
  -5  -2  -3    0.89    0.30
  -5  -2  -4    0.74    0.31
   5   2   4    0.88    0.25
   5   2   4    1.37    0.26
   5   2   5    7.90    0.62
  -5  -2  -5    6.08    0.91
   5   2   6   10.22    1.06
   5   2   6   10.03    0.70
  -5  -2  -6    9.42    1.14
  -5  -2  -7    0.79    0.33
  -5  -2  -8   10.16    1.03
  -5  -2  -8    9.69    1.25
  -5  -2  -9    3.53    0.63
   5   2   9    3.37    0.43
  -5  -2 -10    0.93    0.45
   5   2  10    0.51    0.19
  -5  -2 -10    0.66    0.20
  -5  -2 -11    0.13    0.19
   5   2  11    0.21    0.14
   5   2  12    0.88    0.26
   5   2  13    4.86    0.70
   5   2  14    1.85    0.46
   5   2  15    0.44    0.20
  -5  -3  10    2.74    0.75
  -5  -3   9    1.36    0.47
  -5  -3   8    1.05    0.41
  -5  -3   7    9.48    1.14
  -5  -3   6    0.48    0.26
  -5  -3   5    7.74    0.94
  -5  -3   4    1.77    0.40
  -5  -3   4    1.89    0.45
   5   3  -3    2.79    0.38
  -5  -3   3    3.82    0.59
  -5  -3   3    2.48    0.49
   5   3  -2    2.66    0.35
   5   3  -2    2.74    0.34
  -5  -3   2    2.84    0.55
  -5  -3   2    3.01    0.49
   5   3  -1    0.31    0.11
  -5  -3   1    0.60    0.24
  -5  -3   1    0.56    0.20
   5   3   0   87.31    2.76
  -5  -3   0   81.63    3.19
  -5  -3   0   86.23    3.87
   5   3   1    0.01    0.07
  -5  -3  -1   -0.03    0.03
   5   3   1    0.03    0.03
  -5  -3  -1    0.13    0.15
   5   3   2   16.47    0.80
  -5  -3  -2   20.42    1.70
   5   3   2   19.14    1.67
   5   3   3   31.09    1.32
   5   3   3   34.86    1.43
  -5  -3  -3   30.40    2.23
   5   3   3   34.91    2.36
   5   3   4    8.01    0.62
   5   3   4   10.06    0.57
  -5  -3  -4    9.98    1.20
   5   3   5    6.44    0.65
   5   3   5    7.56    0.47
  -5  -3  -5    6.63    1.00
  -5  -3  -6    2.01    0.56
   5   3   6    3.13    0.51
   5   3   6    2.28    0.25
  -5  -3  -7    1.36    0.43
   5   3   7    2.34    0.27
  -5  -3  -8   -0.01    0.20
  -5  -3  -8   -0.05    0.13
   5   3   8   -0.03    0.05
  -5  -3  -9    9.93    1.00
  -5  -3  -9    9.86    1.36
   5   3  10    3.54    0.43
  -5  -3 -10    2.81    0.76
   5   3  10    3.26    0.45
  -5  -3 -10    3.10    0.58
  -5  -3 -11    2.76    0.79
   5   3  11    2.42    0.41
  -5  -3 -12    4.47    1.05
   5   3  12    4.46    0.60
   5   3  13    2.58    0.48
   5   3  14    0.39    0.19
   5   3  15    2.51    0.54
  -5  -4  10    4.68    0.89
  -5  -4   9    5.05    0.88
  -5  -4   8    0.22    0.17
  -5  -4   7    0.05    0.08
  -5  -4   6    0.14    0.16
  -5  -4   5    9.81    0.98
  -5  -4   4    2.15    0.42
  -5  -4   4    1.19    0.37
   5   4  -3    0.06    0.07
  -5  -4   3   -0.04    0.10
  -5  -4   3    0.09    0.12
  -5  -4   2   31.31    1.66
  -5  -4   2   33.26    2.15
   5   4  -2   29.07    1.38
  -5  -4   1    6.50    0.61
  -5  -4   1    6.77    0.91
   5   4  -1    6.70    0.51
  -5  -4   0    5.97    0.54
  -5  -4   0    6.31    0.93
   5   4   0    6.98    0.46
   5   4   1    0.50    0.10
  -5  -4  -1    0.49    0.25
   5   4   2    1.49    0.21
   5   4   2    1.42    0.14
  -5  -4  -2    1.32    0.47
  -5  -4  -3   17.15    1.68
  -5  -4  -4    0.21    0.30
   5   4   5   14.87    0.58
   5   4   5   15.38    0.73
  -5  -4  -5   14.56    1.57
  -5  -4  -6    2.81    0.68
   5   4   6    2.85    0.25
   5   4   6    3.39    0.43
  -5  -4  -7    0.26    0.30
   5   4   7    0.41    0.11
  -5  -4  -8   -0.06    0.17
   5   4   8    0.11    0.07
  -5  -4  -9    8.68    1.30
   5   4  10   18.36    1.11
  -5  -4 -10   17.39    1.97
  -5  -4 -11    0.40    0.44
   5   4  11    0.08    0.07
   5   4  12    6.84    0.75
  -5  -4 -12    9.40    1.57
  -5  -4 -13    2.98    0.86
   5   4  13    2.75    0.49
  -5  -5  10   -0.08    0.13
  -5  -5   9    2.31    0.61
  -5  -5   8    0.05    0.21
  -5  -5   7    0.24    0.15
  -5  -5   6    0.51    0.24
  -5  -5   5    3.61    0.56
  -5  -5   5    5.13    0.77
  -5  -5   4   10.14    0.90
  -5  -5   4   12.69    1.26
  -5  -5   3    2.87    0.44
  -5  -5   3    2.47    0.56
   5   5  -3    2.31    0.37
  -5  -5   2   20.20    1.19
  -5  -5   2   21.76    1.78
   5   5  -2   21.66    1.16
  -5  -5   1   14.80    0.89
  -5  -5   1   14.26    1.42
   5   5  -1   16.10    0.90
  -5  -5   0   24.34    1.08
   5   5   0   29.74    1.18
  -5  -5   0   25.99    2.06
   5   5   1   28.72    1.07
  -5  -5  -1   30.77    2.29
  -5  -5  -2    6.51    1.02
  -5  -5  -3    0.23    0.14
  -5  -5  -4    2.65    0.70
  -5  -5  -5    5.35    0.96
  -5  -5  -6    2.37    0.64
  -5  -5  -7    1.89    0.57
   5   5   7    2.15    0.23
   5   5   7    2.83    0.38
   5   5   8   13.86    0.79
  -5  -5  -8   13.83    1.68
  -5  -5  -9    0.50    0.27
  -5  -5 -10   -0.05    0.13
   5   5  10    0.42    0.17
  -5  -5 -11   -0.05    0.15
  -5  -5 -12    0.07    0.15
  -5  -6   9    1.53    0.49
  -5  -6   8   15.04    1.42
  -5  -6   7   23.57    1.71
  -5  -6   6   24.79    1.65
  -5  -6   5    0.11    0.15
  -5  -6   5    0.89    0.37
  -5  -6   4    5.54    0.63
  -5  -6   4    6.70    0.93
  -5  -6   3    2.57    0.38
  -5  -6   3    2.83    0.62
  -5  -6   2    0.05    0.05
  -5  -6   2   -0.03    0.09
   5   6  -1    0.18    0.13
  -5  -6   1    0.12    0.06
  -5  -6   1    0.10    0.08
   5   6   0    3.71    0.38
  -5  -6   0    3.20    0.71
  -5  -6  -1    1.52    0.51
  -5  -6  -2    0.31    0.24
  -5  -6  -3    0.78    0.34
  -5  -6  -4    0.06    0.12
  -5  -6  -5    0.01    0.14
  -5  -6  -6    5.84    1.11
  -5  -6  -7    0.20    0.20
  -5  -6  -8   17.10    1.93
  -5  -6  -9   25.20    2.49
  -5  -6 -10    6.33    1.22
  -5  -6 -11    3.14    0.91
  -5  -7   5    2.71    0.61
  -5  -7   4    6.98    1.02
  -5  -7   3   24.58    1.99
  -5  -7   2    8.17    1.16
  -5  -7   1    0.25    0.23
  -5  -7   0    1.24    0.43
  -5  -7  -1    6.00    1.04
  -5  -7  -2   26.24    2.31
  -5  -7  -3   51.55    3.41
  -5  -7  -4   38.05    2.94
  -5  -7  -5    0.14    0.33
  -5  -7  -6    3.10    0.83
  -5  -7  -7    8.05    1.35
  -5  -7  -8   -0.09    0.27
  -5  -7  -9   -0.05    0.12
  -5  -7 -10    0.46    0.47
  -5  -8   5    0.54    0.27
  -5  -8   4   11.07    1.32
  -5  -8   3   10.98    1.32
  -5  -8   2   -0.07    0.16
  -5  -8   1    4.72    0.89
  -5  -8   0    1.66    0.55
  -5  -8  -1   -0.38    0.28
  -5  -8  -2    6.56    1.16
  -5  -8  -3   13.21    1.68
  -5  -8  -4   19.62    2.12
  -5  -8  -5   11.00    1.61
  -5  -8  -6    0.65    0.43
  -5  -8  -7   16.91    2.09
  -5  -8  -8    7.68    1.41
  -5  -8  -9    0.77    0.50
  -5  -9   4   -0.11    0.15
  -5  -9   3    0.33    0.24
  -5  -9   2    1.22    0.46
  -5  -9   1    7.76    1.19
  -5  -9   0    1.07    0.47
  -5  -9  -1   -0.48    0.32
  -5  -9  -2    0.07    0.25
  -5  -9  -3    0.10    0.24
  -5  -9  -4    1.29    0.58
  -5  -9  -5    2.37    0.76
  -5  -9  -6    2.16    0.76
  -5  -9  -7    5.41    1.19
  -5 -10   2    2.52    0.66
  -5 -10   1    2.45    0.67
  -5 -10   0    0.46    0.35
  -5 -10  -1    1.46    0.52
  -5 -10  -2    2.62    0.73
  -5 -10  -3    5.58    1.14
  -5 -10  -4   -0.03    0.11
  -5 -10  -5    0.28    0.29
   6  -7  -1    0.66    0.42
   6  -7   0    0.09    0.21
   6  -7   1    3.91    0.94
   6  -7   2    1.98    0.66
   6  -7   3    2.20    0.69
   6  -7   4    0.76    0.50
  -6   6   4   -1.30    0.65
  -6   6   3   -0.19    0.24
  -6   6   2    1.64    0.69
   6  -6  -1    0.42    0.39
  -6   6   1    0.13    0.19
   6  -6   0    4.83    1.05
   6  -6   1    1.50    0.62
   6  -6   2    0.89    0.40
   6  -6   3    1.33    0.58
   6  -6   4    5.20    1.05
   6  -6   5    2.06    0.67
   6  -6   6   -0.64    0.36
   6  -6   7    7.03    1.15
  -6   5   5    0.89    0.59
  -6   5   4    7.72    1.52
  -6   5   3    0.77    0.53
  -6   5   2    2.61    0.83
  -6   5   1    1.01    0.45
   6  -5   0    3.06    0.77
  -6   5   0    1.79    0.67
   6  -5   1    2.36    0.71
   6  -5   2   11.98    1.64
   6  -5   3    0.53    0.31
   6  -5   4    3.70    0.88
   6  -5   5    0.27    0.28
   6  -5   6    2.12    0.62
   6  -5   7   -0.08    0.26
   6  -5   8    3.47    0.78
   6  -5   9    1.78    0.50
  -6   4   7    3.70    1.06
  -6   4   6    2.77    1.02
  -6   4   5    4.86    1.22
  -6   4   4    6.24    1.37
  -6   4   3   18.23    2.26
  -6   4   2   12.76    1.82
  -6   4   1    0.24    0.22
  -6   4   0    0.18    0.21
   6  -4   1    5.46    1.08
   6  -4   2    2.10    0.68
   6  -4   3    0.31    0.24
   6  -4   4   16.39    1.79
   6  -4   5    5.44    1.01
   6  -4   6    8.90    1.24
   6  -4   7    0.14    0.17
   6  -4   8    0.76    0.33
   6  -4   9    0.86    0.36
   6  -4  10    1.72    0.50
   6  -4  11    0.17    0.22
  -6   3   7    0.22    0.36
  -6   3   6    3.15    0.90
  -6   3   5    4.89    1.17
  -6   3   4    5.82    1.21
  -6   3   3    2.55    0.80
  -6   3   2   32.40    2.80
   6  -3  -2   26.09    2.07
  -6   3   1    7.70    1.31
   6  -3  -1    7.99    1.04
  -6   3   0    5.45    1.03
   6  -3   0    8.53    1.01
   6  -3   1    0.70    0.27
   6  -3   1    0.08    0.22
  -6   3  -1    0.35    0.29
   6  -3   2    7.67    1.21
   6  -3   2    7.64    0.75
   6  -3   3   22.64    2.11
   6  -3   4   12.68    1.49
  -6   3  -4   10.67    0.66
   6  -3   5   12.60    1.45
  -6   3  -5   12.83    0.80
   6  -3   6    0.06    0.09
  -6   3  -6   -0.01    0.04
   6  -3   7   20.99    1.80
  -6   3  -7   19.98    1.30
   6  -3   8    1.02    0.39
   6  -3   9    3.58    0.70
   6  -3  10    0.10    0.12
   6  -3  11    0.92    0.41
   6  -3  12    0.46    0.33
  -6   2   8    3.90    1.04
  -6   2   7    7.17    1.38
  -6   2   6   14.75    1.97
  -6   2   5    4.34    1.02
  -6   2   4    0.65    0.40
  -6   2   3    2.77    0.78
  -6   2   2    0.32    0.22
   6  -2  -2    0.08    0.11
  -6   2   1    0.03    0.09
   6  -2  -1    0.12    0.12
  -6   2   0   16.36    1.74
   6  -2   0   14.29    1.40
   6  -2   1    1.93    0.44
  -6   2  -1    2.51    0.68
   6  -2   2   27.47    2.25
  -6   2  -2   25.55    1.34
   6  -2   2   25.31    1.67
   6  -2   3    9.32    1.27
  -6   2  -3    9.93    0.80
   6  -2   4    0.68    0.34
  -6   2  -4    0.46    0.17
   6  -2   5    0.35    0.27
  -6   2  -5    0.36    0.18
   6  -2   6   14.06    1.43
  -6   2  -6   15.70    1.24
  -6   2  -7    0.11    0.15
   6  -2   7    0.16    0.19
   6  -2   8   17.31    1.48
  -6   2  -8   14.31    1.32
  -6   2  -9    0.99    0.35
   6  -2   9    1.63    0.45
  -6   2 -10    0.11    0.19
   6  -2  10    0.23    0.24
   6  -2  11    2.21    0.51
   6  -2  12    0.16    0.12
   6  -2  13    6.84    0.94
  -6   1   8    0.31    0.42
  -6   1   7    5.19    1.13
  -6   1   6    0.77    0.33
  -6   1   5    6.75    1.20
  -6   1   4    1.19    0.56
  -6   1   3    0.11    0.16
  -6   1   2   50.69    3.30
  -6   1   1   44.45    2.97
   6  -1  -1   43.77    2.78
  -6   1   0   72.90    3.84
  -6   1   0   67.18    2.80
   6  -1   0   70.29    3.60
   6  -1   1    0.04    0.11
  -6   1  -1   -0.02    0.13
  -6   1  -1    0.05    0.06
   6  -1   2    6.38    0.99
  -6   1  -2    5.77    0.69
   6  -1   2    6.09    0.84
   6  -1   3   15.51    1.54
  -6   1  -3   12.70    1.06
   6  -1   3   13.06    1.21
   6  -1   4   40.34    2.57
  -6   1  -4   40.94    2.22
   6  -1   5   15.13    1.43
  -6   1  -5   16.79    1.38
   6  -1   6    0.08    0.12
  -6   1  -6    0.19    0.13
  -6   1  -7    2.56    0.58
   6  -1   7    2.21    0.50
  -6   1  -8    0.95    0.32
   6  -1   8    0.94    0.32
  -6   1  -9    2.26    0.56
   6  -1   9    2.33    0.49
  -6   1 -10    5.83    0.94
   6  -1  10    6.29    0.83
  -6   1 -11    0.01    0.13
   6  -1  11    0.22    0.16
  -6   1 -12    2.68    0.71
   6  -1  12    1.79    0.44
   6  -1  13    2.64    0.55
   6  -1  14    0.42    0.27
  -6   0   9    0.57    0.40
  -6   0   8    0.32    0.38
  -6   0   7    0.20    0.21
  -6   0   6    0.39    0.39
  -6   0   5    0.19    0.28
  -6   0   4    0.02    0.25
  -6   0   3   14.19    1.57
  -6   0   2   53.67    3.25
  -6   0   1    0.51    0.27
  -6   0   1    0.61    0.22
   6   0   0    0.90    0.37
  -6   0   0    0.89    0.40
   6   0   0    0.90    0.32
  -6   0   0    1.29    0.34
   6   0   1   13.75    1.24
  -6   0  -1   16.65    1.49
  -6   0  -1   17.11    1.32
   6   0   1   16.16    1.53
   6   0   2   14.05    1.27
  -6   0  -2   14.65    1.23
   6   0   2   15.99    1.45
   6   0   3    0.07    0.10
   6   0   3    0.02    0.11
  -6   0  -3    0.02    0.13
   6   0   3    0.11    0.13
   6   0   4    6.81    0.90
  -6   0  -4    6.29    0.87
   6   0   4    5.08    0.83
   6   0   5   30.85    1.99
   6   0   5   30.33    2.26
  -6   0  -5   34.63    2.23
   6   0   6    1.36    0.36
  -6   0  -6    1.72    0.47
  -6   0  -7    1.99    0.52
   6   0   7    1.90    0.40
   6   0   8    9.34    0.93
  -6   0  -8    8.18    1.11
   6   0   9   16.04    1.29
  -6   0  -9   16.42    1.61
   6   0  10   32.77    1.92
  -6   0 -10   31.65    2.44
  -6   0 -11    2.33    0.65
   6   0  11    2.70    0.51
  -6   0 -12    1.74    0.61
   6   0  12    2.23    0.46
  -6   0 -13    6.65    1.22
   6   0  13    6.30    0.82
  -6   0 -14   16.14    1.98
   6   0  14   15.92    1.39
  -6  -1   9    3.96    1.05
  -6  -1   8   -0.10    0.19
  -6  -1   7    0.43    0.39
  -6  -1   6   12.13    1.55
  -6  -1   5    1.20    0.49
  -6  -1   4    0.27    0.17
  -6  -1   3    3.18    0.67
  -6  -1   2   86.77    4.15
  -6  -1   2   90.03    3.72
   6   1  -1   75.97    3.08
  -6  -1   1   73.88    3.65
  -6  -1   1   78.75    3.36
   6   1   0   72.67    3.08
  -6  -1   0   82.30    3.71
  -6  -1   0   84.05    3.57
   6   1   1    0.81    0.35
  -6  -1  -1    0.75    0.28
   6   1   1    0.67    0.23
  -6  -1  -1    0.53    0.25
   6   1   2    0.26    0.23
   6   1   2    0.17    0.14
  -6  -1  -2    0.03    0.11
   6   1   3    7.56    0.84
  -6  -1  -3    5.97    0.88
   6   1   3    5.91    0.90
  -6  -1  -4    3.56    0.68
   6   1   4    4.01    0.67
   6   1   5    1.84    0.48
   6   1   5    1.86    0.39
  -6  -1  -5    1.66    0.48
  -6  -1  -6    0.29    0.24
   6   1   6   -0.05    0.13
   6   1   6   -0.02    0.14
   6   1   7   20.88    1.34
  -6  -1  -7   18.27    1.75
   6   1   8   31.05    1.71
  -6  -1  -8   27.99    2.24
  -6  -1  -9    0.39    0.20
   6   1   9    0.30    0.18
  -6  -1 -10    0.02    0.09
   6   1  10    0.00    0.07
  -6  -1 -11    4.10    0.89
   6   1  11    4.17    0.58
  -6  -1 -12    6.01    1.13
   6   1  12    6.32    0.75
  -6  -1 -13    1.17    0.48
   6   1  13    1.81    0.41
   6   1  14   11.78    1.13
  -6  -1 -14   13.06    1.80
  -6  -2   9    4.19    0.97
  -6  -2   8    1.83    0.66
  -6  -2   7    5.81    1.04
  -6  -2   6   19.41    1.92
  -6  -2   5    1.72    0.55
  -6  -2   4    0.16    0.17
  -6  -2   3    3.75    0.61
  -6  -2   3    3.19    0.63
   6   2  -2    4.37    0.51
  -6  -2   2    5.64    0.80
  -6  -2   2    5.68    0.77
  -6  -2   1    2.77    0.54
   6   2  -1    2.09    0.34
  -6  -2   1    2.82    0.56
  -6  -2   0    0.22    0.17
   6   2   0    0.16    0.13
  -6  -2   0    0.32    0.24
   6   2   1    9.27    0.76
  -6  -2  -1    8.08    0.87
  -6  -2  -1    9.09    1.06
   6   2   2    0.08    0.07
  -6  -2  -2    0.39    0.24
   6   2   3    3.42    0.52
  -6  -2  -3    2.56    0.60
   6   2   4   28.54    1.59
  -6  -2  -4   30.60    2.21
   6   2   5   20.83    1.53
  -6  -2  -5   18.83    1.80
  -6  -2  -6    0.39    0.21
   6   2   6    1.13    0.39
  -6  -2  -7    3.34    0.75
   6   2   7    3.19    0.67
   6   2   8   79.48    4.21
   6   2   8   74.77    2.86
  -6  -2  -8   74.37    4.07
  -6  -2  -9   51.85    3.48
   6   2   9   66.84    2.57
  -6  -2 -10   55.03    3.61
   6   2  10   57.56    2.42
  -6  -2 -11    7.25    1.23
   6   2  11    6.79    0.70
  -6  -2 -12    1.54    0.52
   6   2  12    0.49    0.19
   6   2  13    2.61    0.46
  -6  -2 -13    4.53    1.05
  -6  -2 -14    0.89    0.51
   6   2  14    1.08    0.36
  -6  -3   9    4.40    0.97
  -6  -3   8    1.35    0.48
  -6  -3   7    0.50    0.34
  -6  -3   6    0.15    0.24
  -6  -3   5    1.52    0.50
  -6  -3   4    6.96    0.93
  -6  -3   4    7.93    0.95
  -6  -3   3    0.61    0.27
  -6  -3   3    1.11    0.35
   6   3  -2    0.07    0.07
  -6  -3   2    0.04    0.17
   6   3  -2    0.01    0.07
  -6  -3   2    0.07    0.10
   6   3  -1    0.89    0.19
  -6  -3   1    0.87    0.33
  -6  -3   1    1.22    0.33
  -6  -3   0    1.27    0.33
   6   3   0    0.92    0.20
  -6  -3   0    1.12    0.42
   6   3   1   26.60    1.21
  -6  -3  -1   25.85    1.50
  -6  -3  -1   28.58    2.10
   6   3   2    2.36    0.31
  -6  -3  -2    3.46    0.71
   6   3   3   15.02    1.04
   6   3   3   15.50    0.91
  -6  -3  -3   17.72    1.71
   6   3   4    4.58    0.52
   6   3   4    4.82    0.49
  -6  -3  -4    4.81    0.90
   6   3   5    3.32    0.37
   6   3   5    2.59    0.41
  -6  -3  -5    3.58    0.79
  -6  -3  -6    0.51    0.36
   6   3   6    0.31    0.17
   6   3   6    0.42    0.14
  -6  -3  -7    2.64    0.68
   6   3   7    3.27    0.62
   6   3   7    2.06    0.28
  -6  -3  -8    4.37    0.91
   6   3   8    5.03    0.89
  -6  -3  -9    0.30    0.29
   6   3  10    5.18    0.53
  -6  -3 -10    5.05    1.06
   6   3  11    3.99    0.49
  -6  -3 -11    4.46    1.03
  -6  -3 -12    0.61    0.46
   6   3  12    0.44    0.18
  -6  -3 -13    7.08    1.35
   6   3  13    6.61    0.78
  -6  -4   9    1.96    0.60
  -6  -4   8    1.97    0.58
  -6  -4   7    0.64    0.33
  -6  -4   6    0.06    0.18
  -6  -4   5    0.92    0.35
  -6  -4   4    9.82    1.08
  -6  -4   4   10.04    1.15
  -6  -4   3    1.93    0.50
  -6  -4   3    2.06    0.43
   6   4  -2    1.82    0.30
  -6  -4   2    2.32    0.55
  -6  -4   2    2.10    0.41
  -6  -4   1    3.42    0.68
   6   4  -1    2.22    0.31
  -6  -4   1    2.68    0.44
  -6  -4   0   15.82    1.04
  -6  -4   0   14.08    1.45
   6   4   0   14.92    0.82
   6   4   1    1.44    0.21
  -6  -4  -1    2.16    0.58
   6   4   2    0.07    0.05
   6   4   2    0.07    0.04
   6   4   2    0.08    0.04
  -6  -4  -2    0.11    0.24
   6   4   3    6.39    0.33
   6   4   3    7.15    0.49
  -6  -4  -3    7.01    1.08
   6   4   4    3.90    0.27
  -6  -4  -4    5.23    0.96
   6   4   5    3.21    0.31
  -6  -4  -5    3.74    0.83
   6   4   6   13.82    0.54
   6   4   6   15.87    0.93
  -6  -4  -6   15.03    1.73
  -6  -4  -7    0.56    0.41
  -6  -4  -8   -0.06    0.20
   6   4   8    0.07    0.08
  -6  -4  -9   -0.01    0.22
   6   4  10   10.61    0.79
  -6  -4 -10   10.75    1.62
  -6  -4 -11    7.58    1.37
  -6  -4 -12    3.68    1.00
  -6  -5   8    0.43    0.24
  -6  -5   7    2.71    0.60
  -6  -5   6    5.96    0.85
  -6  -5   5    1.91    0.44
  -6  -5   4    0.20    0.18
  -6  -5   4    0.08    0.13
  -6  -5   3    4.43    0.60
  -6  -5   3    4.79    0.81
  -6  -5   2    0.04    0.12
  -6  -5   2    0.17    0.11
  -6  -5   1    1.52    0.51
  -6  -5   1    1.39    0.28
  -6  -5   0    2.40    0.31
  -6  -5   0    1.92    0.52
   6   5   1    3.63    0.31
  -6  -5  -1    3.64    0.79
  -6  -5  -2    4.04    0.85
  -6  -5  -3    2.16    0.67
  -6  -5  -4    0.17    0.27
  -6  -5  -5    3.60    0.87
  -6  -5  -6    8.42    1.34
  -6  -5  -7    3.24    0.84
  -6  -5  -8   -0.15    0.27
  -6  -5  -9    8.82    1.45
  -6  -5 -10    1.83    0.68
  -6  -5 -11    0.85    0.43
  -6  -5 -12   -0.08    0.16
  -6  -6   5    1.46    0.46
  -6  -6   4    3.19    0.71
  -6  -6   3    1.46    0.47
  -6  -6   2    3.23    0.72
  -6  -6   1    3.68    0.77
  -6  -6   0    2.42    0.62
  -6  -6  -1    4.58    0.92
  -6  -6  -2    3.45    0.82
  -6  -6  -3   10.99    1.50
  -6  -6  -4   17.11    1.92
  -6  -6  -5    0.04    0.21
  -6  -6  -6    1.30    0.58
  -6  -6  -7    1.12    0.50
  -6  -6  -8   -0.19    0.27
  -6  -6  -9    0.94    0.50
  -6  -6 -10    2.85    0.87
  -6  -6 -11    1.10    0.57
  -6  -7   5    4.07    0.80
  -6  -7   4    0.86    0.34
  -6  -7   3    1.79    0.57
  -6  -7   2    0.14    0.23
  -6  -7   1    5.30    0.99
  -6  -7   0    0.45    0.30
  -6  -7  -1    1.73    0.59
  -6  -7  -2   36.78    2.88
  -6  -7  -3    1.96    0.69
  -6  -7  -4    0.38    0.48
  -6  -7  -5    3.62    0.93
  -6  -7  -6    4.61    1.10
  -6  -7  -7    1.70    0.65
  -6  -7  -8    1.14    0.55
  -6  -7  -9    0.46    0.30
  -6  -8   3    1.23    0.45
  -6  -8   2    3.71    0.80
  -6  -8   1    2.89    0.77
  -6  -8   0    1.74    0.60
  -6  -8  -1    0.09    0.15
  -6  -8  -2    1.64    0.56
  -6  -8  -3    1.71    0.61
  -6  -8  -4    6.80    1.26
  -6  -8  -5   -0.17    0.43
  -6  -8  -6    0.96    0.61
  -6  -8  -7    3.86    1.01
  -6  -8  -8    0.06    0.28
  -6  -9   1    4.11    0.91
  -6  -9   0    0.99    0.47
  -6  -9  -1   -0.16    0.31
  -6  -9  -2   -0.30    0.24
  -6  -9  -3    6.04    1.19
  -6  -9  -4    4.14    1.04
  -6  -9  -5    1.44    0.70
   7  -6   1    3.75    1.02
   7  -6   2    2.22    0.78
   7  -6   3   -0.24    0.32
   7  -6   4    0.77    0.57
  -7   5   3    2.38    0.87
  -7   5   2    4.77    1.19
  -7   5   1    0.48    0.41
   7  -5   0   -0.69    0.43
   7  -5   1    1.17    0.53
   7  -5   2    0.51    0.33
   7  -5   3   61.88    4.25
   7  -5   4   39.06    3.21
   7  -5   5    6.97    1.23
   7  -5   6    0.19    0.17
   7  -5   7    0.20    0.32
  -7   4   4    0.52    0.37
  -7   4   3    1.37    0.68
  -7   4   2   11.57    1.84
  -7   4   1    0.12    0.38
  -7   4   0    7.52    1.37
   7  -4   1    0.79    0.43
   7  -4   2    1.37    0.54
   7  -4   3    6.02    1.21
   7  -4   4   32.31    2.80
   7  -4   5   32.68    2.75
   7  -4   6   19.99    2.05
   7  -4   7    0.92    0.42
   7  -4   8    6.56    1.10
   7  -4   9    0.17    0.18
  -7   3   5   19.45    2.50
  -7   3   4    1.44    0.69
  -7   3   3    2.23    0.80
  -7   3   2    0.04    0.22
  -7   3   1   26.99    2.66
  -7   3   0    4.48    1.00
   7  -3   1    0.52    0.30
   7  -3   2    3.73    0.90
   7  -3   3    2.49    0.75
   7  -3   4    3.55    0.84
   7  -3   5    2.49    0.70
   7  -3   6    1.39    0.46
   7  -3   7    1.57    0.59
   7  -3   8   12.14    1.40
   7  -3   9    4.64    0.84
   7  -3  10    6.00    0.93
   7  -3  11    1.40    0.45
  -7   2   6    0.11    0.32
  -7   2   5    2.22    0.86
  -7   2   4    2.56    0.84
  -7   2   3    2.32    0.77
  -7   2   2    0.20    0.34
  -7   2   1    1.33    0.51
  -7   2   0   -0.11    0.09
   7  -2   1    1.17    0.41
  -7   2  -1    1.36    0.50
   7  -2   2    0.69    0.30
   7  -2   2    0.84    0.40
  -7   2  -2    0.57    0.19
   7  -2   3    1.41    0.53
  -7   2  -3    1.44    0.30
   7  -2   4    0.42    0.28
  -7   2  -4    0.60    0.21
   7  -2   5   24.56    2.12
  -7   2  -5   22.67    1.45
   7  -2   6   28.77    2.23
  -7   2  -6   22.51    1.55
   7  -2   7    0.56    0.32
  -7   2  -7    0.33    0.25
   7  -2   8    2.21    0.54
   7  -2   9   15.26    1.48
   7  -2  10    0.79    0.36
   7  -2  11    1.02    0.38
   7  -2  12    0.01    0.12
  -7   1   7    0.71    0.49
  -7   1   6    1.92    0.70
  -7   1   5    0.41    0.48
  -7   1   4    0.90    0.45
  -7   1   3    3.45    0.87
  -7   1   2    2.20    0.70
  -7   1   1    6.19    1.10
  -7   1   0    1.27    0.55
  -7   1  -1    2.67    0.69
  -7   1  -1    3.87    0.56
   7  -1   2    7.36    1.16
  -7   1  -2    6.00    0.72
   7  -1   2    7.20    1.01
   7  -1   3    1.51    0.47
   7  -1   3    2.23    0.61
  -7   1  -3    1.69    0.38
   7  -1   4    1.64    0.53
  -7   1  -4    1.71    0.40
   7  -1   5    1.19    0.44
  -7   1  -5    1.04    0.34
   7  -1   6    2.08    0.54
  -7   1  -6    2.17    0.55
   7  -1   7    4.51    0.76
  -7   1  -7    3.69    0.69
   7  -1   8    0.58    0.29
  -7   1  -8    0.63    0.25
  -7   1  -9    0.12    0.19
   7  -1   9   -0.08    0.11
  -7   1 -10    1.54    0.50
   7  -1  10    0.96    0.34
   7  -1  11    0.23    0.24
   7  -1  12    1.29    0.40
   7  -1  13    0.93    0.33
  -7   0   7    3.68    1.00
  -7   0   6    3.28    0.85
  -7   0   5    7.43    1.31
  -7   0   4    6.88    1.23
  -7   0   3   10.78    1.46
  -7   0   2    2.50    0.69
  -7   0   1    0.15    0.19
  -7   0   1    0.36    0.19
  -7   0   0    1.31    0.50
  -7   0   0    1.28    0.36
  -7   0  -1   53.80    3.14
  -7   0  -1   53.63    2.69
   7   0   2   12.22    1.43
  -7   0  -2    9.99    1.06
   7   0   3    2.38    0.62
  -7   0  -3    3.60    0.62
   7   0   4   12.64    1.36
  -7   0  -4    8.91    1.08
   7   0   5    1.78    0.49
  -7   0  -5    1.56    0.44
   7   0   6    0.04    0.12
  -7   0  -6   -0.36    0.23
   7   0   7    8.14    0.96
  -7   0  -7    8.25    1.16
   7   0   8    2.66    0.52
  -7   0  -8    2.15    0.64
  -7   0  -9    4.92    0.93
   7   0   9    5.54    0.75
  -7   0 -10    0.78    0.38
   7   0  10    0.84    0.30
   7   0  11    9.11    0.98
  -7   0 -11    8.92    1.34
  -7   0 -12    0.65    0.39
   7   0  12    0.02    0.13
   7   0  13   -0.06    0.14
  -7  -1   8    0.93    0.54
  -7  -1   7    0.17    0.26
  -7  -1   6    0.23    0.14
  -7  -1   5    0.07    0.22
  -7  -1   4    0.03    0.21
  -7  -1   3   13.36    1.56
  -7  -1   2    9.02    1.22
  -7  -1   2    9.56    1.01
  -7  -1   1   19.86    1.78
  -7  -1   1   21.54    1.60
  -7  -1   0   16.00    1.51
  -7  -1   0   15.88    1.37
  -7  -1  -1   14.51    1.39
  -7  -1  -1   15.39    1.41
   7   1   2   14.49    1.45
   7   1   2   11.98    1.13
  -7  -1  -2   11.36    1.21
   7   1   3    1.01    0.37
   7   1   3    1.52    0.43
  -7  -1  -3    1.45    0.44
   7   1   4   13.40    1.31
   7   1   4   12.61    1.27
  -7  -1  -4   14.46    1.48
   7   1   5    0.45    0.19
   7   1   5    0.54    0.24
  -7  -1  -5    0.14    0.07
   7   1   6    4.11    0.63
  -7  -1  -6    3.00    0.69
   7   1   7    9.89    0.95
  -7  -1  -7   10.11    1.35
  -7  -1  -8    4.48    0.91
   7   1   8    3.56    0.55
  -7  -1  -9    1.12    0.48
   7   1   9    0.84    0.27
  -7  -1 -10   -0.14    0.14
   7   1  10    0.10    0.16
  -7  -1 -11   19.58    2.11
   7   1  11   19.79    1.40
  -7  -1 -12    4.59    1.05
   7   1  12    3.66    0.60
  -7  -1 -13    0.41    0.34
  -7  -2   8   16.75    2.00
  -7  -2   7    2.95    0.79
  -7  -2   6    0.13    0.13
  -7  -2   5    1.84    0.55
  -7  -2   4    0.25    0.17
  -7  -2   3    5.85    0.83
  -7  -2   3    4.80    0.86
  -7  -2   2   -0.30    0.21
  -7  -2   2    0.18    0.22
  -7  -2   1    0.56    0.30
  -7  -2   1    1.38    0.44
   7   2   0    5.62    0.62
  -7  -2   0    5.81    0.83
  -7  -2   0    5.37    0.84
   7   2   1   20.61    1.32
  -7  -2  -1   23.36    1.65
  -7  -2  -1   21.80    1.78
   7   2   2    3.43    0.63
   7   2   2    2.75    0.44
  -7  -2  -2    2.60    0.59
   7   2   3    6.49    0.85
   7   2   3    4.34    0.61
  -7  -2  -3    5.88    0.94
   7   2   4   -0.10    0.10
   7   2   4    0.05    0.10
  -7  -2  -4    0.04    0.15
   7   2   5    0.59    0.21
   7   2   5    0.71    0.24
  -7  -2  -5    0.41    0.20
   7   2   6    0.06    0.12
   7   2   6    0.08    0.10
  -7  -2  -6   -0.04    0.10
   7   2   7    9.77    0.83
  -7  -2  -7   10.34    1.42
  -7  -2  -8    5.85    1.08
   7   2   8    6.10    0.66
  -7  -2  -9    5.83    1.12
   7   2   9    5.15    0.60
  -7  -2 -10    9.25    1.44
   7   2  10    8.47    0.78
  -7  -2 -11    3.25    0.90
  -7  -2 -12    6.58    1.28
  -7  -2 -13    0.73    0.44
  -7  -3   8    1.04    0.43
  -7  -3   7    6.47    1.11
  -7  -3   6    2.35    0.66
  -7  -3   5    2.91    0.67
  -7  -3   4    0.54    0.29
  -7  -3   3    1.72    0.50
  -7  -3   3    2.32    0.55
  -7  -3   2    0.24    0.23
  -7  -3   2    0.43    0.20
  -7  -3   1    7.45    0.90
  -7  -3   1    6.73    0.97
  -7  -3   0   10.12    1.00
  -7  -3   0   11.10    1.31
  -7  -3  -1    1.36    0.44
   7   3   2   42.68    1.84
  -7  -3  -2   46.90    2.93
  -7  -3  -3    1.25    0.45
   7   3   4    3.15    0.46
  -7  -3  -4    1.99    0.58
  -7  -3  -5    0.07    0.18
   7   3   5    0.06    0.08
   7   3   6   -0.09    0.03
  -7  -3  -6   -0.13    0.17
  -7  -3  -7    9.18    1.41
  -7  -3  -8    2.58    0.74
  -7  -3  -9   -0.19    0.23
  -7  -3 -10    7.81    1.39
  -7  -3 -11    5.96    1.23
  -7  -3 -12    2.80    0.91
  -7  -4   7    0.20    0.12
  -7  -4   6    0.36    0.25
  -7  -4   5    2.26    0.56
  -7  -4   4    0.61    0.29
  -7  -4   4    0.43    0.26
  -7  -4   3    0.08    0.19
  -7  -4   3   -0.03    0.15
  -7  -4   2    5.62    0.75
  -7  -4   2    8.23    1.09
  -7  -4   1    0.29    0.17
  -7  -4   1    1.09    0.39
  -7  -4   0   -0.07    0.13
  -7  -4   0    0.13    0.28
  -7  -4  -1    0.40    0.20
   7   4   2    0.83    0.24
  -7  -4  -2    0.61    0.33
   7   4   3   17.28    1.03
  -7  -4  -3   15.05    1.71
  -7  -4  -4    0.83    0.37
  -7  -4  -5    5.93    1.12
  -7  -4  -6    2.22    0.72
  -7  -4  -7    0.86    0.48
  -7  -4  -8   -0.91    0.47
  -7  -4  -9   15.01    1.98
  -7  -4 -10    1.68    0.62
  -7  -4 -11    3.86    1.03
  -7  -4 -12   14.52    2.06
  -7  -5   4    6.19    0.96
  -7  -5   3   15.99    1.60
  -7  -5   2    2.12    0.56
  -7  -5   1    7.60    1.15
  -7  -5   0    1.12    0.42
  -7  -5  -1   -0.15    0.19
  -7  -5  -2    1.15    0.48
  -7  -5  -3   -0.02    0.16
  -7  -5  -4    1.84    0.63
  -7  -5  -5    0.30    0.29
  -7  -5  -6    2.23    0.69
  -7  -5  -7    0.55    0.35
  -7  -5  -8   12.35    1.82
  -7  -5  -9    0.53    0.53
  -7  -5 -10    0.68    0.30
  -7  -5 -11    0.34    0.15
  -7  -6   3    0.17    0.26
  -7  -6   2    6.43    1.03
  -7  -6   1    0.99    0.40
  -7  -6   0    0.04    0.11
  -7  -6  -1    0.58    0.36
  -7  -6  -2    1.40    0.61
  -7  -6  -3    1.35    0.54
  -7  -6  -4   -0.11    0.13
  -7  -6  -5    1.52    0.57
  -7  -6  -6    4.35    1.04
  -7  -6  -7    5.91    1.24
  -7  -6  -8    7.62    1.46
  -7  -6  -9   14.51    2.06
  -7  -7   2    0.13    0.12
  -7  -7   1    0.00    0.13
  -7  -7   0   -0.02    0.11
  -7  -7  -1    2.86    0.77
  -7  -7  -2   26.59    2.50
  -7  -7  -3    3.87    0.93
  -7  -7  -4    3.69    0.96
  -7  -7  -5    3.15    0.92
  -7  -7  -6    0.06    0.32
  -7  -7  -7    0.46    0.42
  -7  -7  -8    1.56    0.72
  -7  -8  -1    2.01    0.66
  -7  -8  -2   11.93    1.65
  -7  -8  -3   16.06    2.00
  -7  -8  -4   15.64    2.03
  -8   4   1    2.62    0.91
   8  -4   0    1.20    0.54
   8  -4   1    6.42    1.37
   8  -4   2   -0.06    0.42
   8  -4   3    5.69    1.24
   8  -4   4    3.64    0.98
   8  -4   5    0.45    0.31
   8  -4   6    4.44    1.03
   8  -4   7    0.27    0.17
  -8   3   3    0.07    0.30
  -8   3   2   10.58    1.75
  -8   3   1   13.00    1.88
  -8   3   0    2.69    0.79
   8  -3   1    0.18    0.15
   8  -3   2    0.09    0.37
   8  -3   3    2.02    0.68
   8  -3   4    5.57    1.15
   8  -3   5    1.21    0.54
   8  -3   6    8.26    1.34
   8  -3   7    8.34    1.30
   8  -3   8    0.91    0.43
   8  -3   9    0.23    0.08
  -8   2   4    5.66    1.28
  -8   2   3    1.32    0.63
  -8   2   2    3.65    0.99
  -8   2   1   -0.01    0.14
  -8   2   0    4.42    0.99
   8  -2   1    1.17    0.55
   8  -2   2    0.47    0.29
   8  -2   3    0.76    0.42
   8  -2   4    0.06    0.26
   8  -2   5    7.76    1.25
   8  -2   6    1.38    0.45
   8  -2   7    3.11    0.75
   8  -2   8   12.17    1.43
   8  -2   9    1.00    0.38
   8  -2  10    0.42    0.26
   8  -2  11    0.15    0.20
  -8   1   5    3.57    0.99
  -8   1   4    4.78    1.14
  -8   1   3    3.95    0.98
  -8   1   2    1.00    0.49
  -8   1   1    0.55    0.35
  -8   1   0    2.65    0.72
  -8   1  -1    0.33    0.19
   8  -1   2    4.01    0.91
  -8   1  -2    2.62    0.49
   8  -1   3   10.34    1.50
  -8   1  -3    8.16    0.90
   8  -1   4    1.14    0.49
  -8   1  -4    1.28    0.35
   8  -1   5    9.46    1.30
  -8   1  -5    8.64    0.98
   8  -1   6    0.15    0.15
  -8   1  -6   -0.08    0.12
   8  -1   7    0.51    0.33
   8  -1   8    6.80    0.99
   8  -1   9    0.08    0.18
   8  -1  10    3.69    0.69
   8  -1  11    0.81    0.30
   8  -1  12    0.11    0.16
  -8   0   6    0.76    0.53
  -8   0   5   -0.25    0.33
  -8   0   4    0.50    0.37
  -8   0   3    3.10    0.80
  -8   0   2    0.56    0.35
  -8   0   1    0.24    0.24
  -8   0   0    1.86    0.57
  -8   0   0    1.85    0.44
  -8   0  -1    1.11    0.34
   8   0   2    4.30    0.93
  -8   0  -2    4.09    0.67
   8   0   3    9.78    1.35
  -8   0  -3    7.91    1.00
   8   0   4    7.50    1.12
  -8   0  -4    5.71    0.85
   8   0   5   12.96    1.41
  -8   0  -5   10.39    1.22
   8   0   6    4.17    0.78
  -8   0  -6    5.61    0.90
   8   0   7    5.19    0.82
  -8   0  -7    3.73    0.79
   8   0   8    2.12    0.50
  -8   0  -8    1.70    0.52
   8   0   9   -0.06    0.17
  -8   0  -9    0.37    0.31
   8   0  10    0.87    0.32
   8   0  11    0.03    0.10
  -8  -1   6    1.56    0.62
  -8  -1   5   -0.05    0.29
  -8  -1   4   -0.21    0.14
  -8  -1   3    9.74    1.41
  -8  -1   2   44.34    3.02
  -8  -1   1   19.14    1.83
  -8  -1   1   20.39    1.64
  -8  -1   0    0.46    0.24
  -8  -1   0    0.06    0.17
  -8  -1  -1    3.33    0.66
   8   1   2    3.69    0.79
  -8  -1  -2    3.55    0.71
   8   1   3    1.73    0.54
  -8  -1  -3    1.70    0.49
   8   1   4    0.83    0.39
  -8  -1  -4    0.97    0.39
   8   1   5    0.03    0.06
  -8  -1  -5   -0.18    0.24
   8   1   6    2.81    0.58
  -8  -1  -6    3.18    0.74
   8   1   7    6.86    0.84
  -8  -1  -7    7.04    1.16
   8   1   8    0.98    0.30
  -8  -1  -8    1.90    0.59
   8   1   9    0.65    0.25
  -8  -1  -9    0.79    0.44
  -8  -1 -10    0.74    0.38
  -8  -1 -11    1.99    0.72
  -8  -2   6    0.39    0.28
  -8  -2   5    0.12    0.23
  -8  -2   4    0.41    0.31
  -8  -2   3    1.26    0.47
  -8  -2   2    2.78    0.68
  -8  -2   2    3.79    0.71
  -8  -2   1    9.31    1.17
  -8  -2   1   10.55    1.20
  -8  -2   0    1.06    0.40
  -8  -2   0    1.42    0.44
  -8  -2  -1    8.13    1.12
   8   2   2   20.30    1.76
  -8  -2  -2   15.32    1.59
   8   2   3    8.27    1.05
  -8  -2  -3    7.31    1.07
   8   2   4    6.83    0.89
  -8  -2  -4    5.89    1.03
   8   2   5    9.90    1.02
  -8  -2  -5   10.54    1.41
  -8  -2  -6    0.27    0.17
   8   2   6    0.52    0.25
  -8  -2  -7   19.58    2.07
  -8  -2  -8   54.50    3.78
  -8  -2  -9   15.02    1.93
  -8  -2 -10   -0.31    0.43
  -8  -2 -11    1.29    0.56
  -8  -2 -12    1.67    0.60
  -8  -3   4    0.22    0.20
  -8  -3   3    0.81    0.35
  -8  -3   3    0.36    0.26
  -8  -3   2    0.25    0.16
  -8  -3   2    0.22    0.24
  -8  -3   1   -0.11    0.07
  -8  -3   1    0.31    0.23
  -8  -3   0    0.99    0.32
  -8  -3   0    1.75    0.55
  -8  -3  -1   16.97    1.70
   8   3   2   19.39    1.57
  -8  -3  -2   15.94    1.66
   8   3   3    0.59    0.21
  -8  -3  -3    1.54    0.54
  -8  -3  -4    8.32    1.28
  -8  -3  -5    1.83    0.63
  -8  -3  -6    0.13    0.26
  -8  -3  -7    1.53    0.65
  -8  -3  -8   10.64    1.63
  -8  -3  -9    6.31    1.28
  -8  -3 -10    4.85    1.14
  -8  -3 -11    4.83    1.19
  -8  -4   3    4.51    0.83
  -8  -4   2    0.98    0.42
  -8  -4   1    1.30    0.45
  -8  -4   0    3.38    0.75
  -8  -4  -1    0.08    0.13
  -8  -4  -2    0.06    0.13
  -8  -4  -3   -0.03    0.16
  -8  -4  -4   25.33    2.36
  -8  -4  -5    0.28    0.37
  -8  -4  -6   -0.11    0.25
  -8  -4  -7    0.69    0.39
  -8  -4  -8    1.02    0.50
  -8  -4  -9    0.27    0.34
  -8  -4 -10    7.45    1.48
  -8  -5   2    1.40    0.48
  -8  -5   1    0.29    0.26
  -8  -5   0    0.80    0.36
  -8  -5  -1    1.86    0.60
  -8  -5  -2    0.60    0.28
  -8  -5  -3    0.75    0.40
  -8  -5  -4    2.61    0.75
  -8  -5  -5    1.12    0.57
  -8  -5  -6    1.83    0.70
  -8  -5  -7    4.46    1.07
  -8  -5  -8    6.33    1.35
  -8  -5  -9    0.61    0.53
  -8  -6   0    6.68    1.14
  -8  -6  -1    1.77    0.57
  -8  -6  -2    0.26    0.13
  -8  -6  -3   -0.07    0.17
  -8  -6  -4    1.69    0.68
  -8  -6  -5    0.27    0.24
  -8  -6  -6    1.04    0.55
  -8  -6  -7    1.42    0.68
   9  -3   2    1.20    0.59
   9  -3   3    0.43    0.34
   9  -3   4    1.04    0.56
   9  -3   5    0.51    0.42
  -9   2   1    0.95    0.49
   9  -2   0    0.72    0.33
   9  -2   1   10.74    1.82
   9  -2   2    0.43    0.34
   9  -2   3    1.61    0.66
   9  -2   4    0.45    0.28
   9  -2   5    0.26    0.36
   9  -2   6   10.89    1.54
   9  -2   7    0.07    0.22
   9  -2   8    2.96    0.71
   9  -2   9    4.34    0.86
  -9   1   2    1.25    0.61
  -9   1   1    0.24    0.18
  -9   1   0    0.28    0.18
   9  -1   1    3.89    1.00
   9  -1   2    0.67    0.36
   9  -1   3    0.98    0.47
   9  -1   4    0.42    0.39
   9  -1   5    0.85    0.38
   9  -1   6    2.59    0.70
   9  -1   7    0.40    0.29
   9  -1   8   -0.18    0.30
   9  -1   9    0.88    0.34
  -9   0   3    1.37    0.60
  -9   0   2    6.08    1.15
  -9   0   1    6.74    1.18
  -9   0   0    0.00    0.14
   9   0   1    2.07    0.69
  -9   0  -1    2.10    0.49
   9   0   2    0.67    0.37
  -9   0  -2    0.38    0.25
   9   0   3    1.42    0.54
  -9   0  -3    0.95    0.35
   9   0   4    0.44    0.41
  -9   0  -4    0.10    0.17
   9   0   5    0.64    0.30
  -9   0  -5    0.91    0.37
   9   0   6    1.58    0.52
   9   0   7    1.93    0.54
  -9  -1   4   -0.10    0.14
  -9  -1   3   18.20    2.00
  -9  -1   2    1.50    0.54
  -9  -1   1    0.13    0.13
  -9  -1   0   -0.08    0.24
  -9  -1   0   -0.19    0.18
   9   1   1    1.11    0.47
  -9  -1  -1    0.80    0.34
   9   1   2    8.17    1.27
  -9  -1  -2    5.23    0.86
   9   1   3    0.48    0.18
  -9  -1  -3    0.76    0.38
   9   1   4    5.04    0.93
  -9  -1  -4    3.94    0.78
   9   1   5    0.78    0.32
  -9  -1  -5    1.08    0.42
  -9  -1  -6    4.95    0.95
  -9  -1  -7    3.45    0.80
  -9  -1  -8    3.64    0.90
  -9  -2   1    1.86    0.51
  -9  -2   0    1.71    0.50
  -9  -2  -1    0.46    0.31
  -9  -2  -2    1.91    0.59
  -9  -2  -3    1.07    0.45
  -9  -2  -4    0.72    0.28
  -9  -2  -5    0.87    0.46
  -9  -2  -6    1.67    0.56
  -9  -2  -7   20.43    2.18
  -9  -2  -8    0.21    0.31
  -9  -2  -9    0.94    0.55
  -9  -2 -10    0.29    0.38
  -9  -3   1    4.55    0.85
  -9  -3   0    0.03    0.10
  -9  -3  -1   11.61    1.43
  -9  -3  -2    5.79    1.01
  -9  -3  -3    1.68    0.58
  -9  -3  -4    1.44    0.50
  -9  -3  -5    1.81    0.64
  -9  -3  -6    0.24    0.26
  -9  -3  -7    4.48    1.07
  -9  -3  -8   -1.08    0.53
  -9  -3  -9    3.51    1.04
  -9  -4  -1   -0.06    0.19
  -9  -4  -2    0.52    0.33
  -9  -4  -3   23.06    2.20
  -9  -4  -4    7.31    1.27
  -9  -4  -5    1.59    0.55
  -9  -4  -6    0.29    0.29
  -9  -4  -7    0.18    0.25
  -9  -4  -8    2.29    0.88
  10  -1   2    0.87    0.31
  10  -1   3    2.28    0.78
 -10  -1  -1   -0.02    0.09
 -10  -1  -2    0.78    0.30
 -10  -2  -2   -0.14    0.21
 -10  -2  -3    0.60    0.38
 -10  -2  -4    0.34    0.28
 -10  -2  -5    0.16    0.18
 -10  -2  -6    0.70    0.39
   0   0   0    0.00    0.00
;
loop_
_space_group_symop_operation_xyz
'x, y, z'
'-x, -y, -z'
loop_
_atom_site_label
_atom_site_type_symbol
_atom_site_fract_x
_atom_site_fract_y
_atom_site_fract_z
_atom_site_U_iso_or_equiv
_atom_site_adp_type
_atom_site_occupancy
_atom_site_site_symmetry_order
_atom_site_calc_flag
_atom_site_refinement_flags_posn
_atom_site_refinement_flags_adp
_atom_site_refinement_flags_occupancy
_atom_site_disorder_assembly
_atom_site_disorder_group
C1 C 0.2881(2) 0.25272(19) 0.07345(14) 0.0208(4) Uani 1 1 d . . . . .
C2 C 0.2992(2) 0.18244(18) 0.19352(14) 0.0198(4) Uani 1 1 d . . . . .
C3 C 0.2340(2) 0.28930(18) 0.29461(14) 0.0227(4) Uani 1 1 d . . . . .
H3A H 0.270553 0.239693 0.364486 0.027 Uiso 1 1 calc R U . . .
H3B H 0.098742 0.310015 0.311771 0.027 Uiso 1 1 calc R U . . .
C4 C 0.3209(3) 0.44212(19) 0.26202(15) 0.0244(4) Uani 1 1 d . . . . .
H4A H 0.273227 0.512734 0.325177 0.029 Uiso 1 1 calc R U . . .
H4B H 0.455397 0.422068 0.252654 0.029 Uiso 1 1 calc R U . . .
C5 C 0.2496(2) 0.67721(19) 0.13078(15) 0.0256(4) Uani 1 1 d . . . . .
H5 H 0.255905 0.739861 0.190477 0.031 Uiso 1 1 calc R U . . .
C6 C 0.2135(2) 0.74763(19) 0.02628(16) 0.0262(4) Uani 1 1 d . . . . .
H6 H 0.197058 0.855566 0.016120 0.031 Uiso 1 1 calc R U . . .
C7 C 0.2021(2) 0.65511(19) -0.06287(14) 0.0223(4) Uani 1 1 d . . . . .
C8 C 0.2267(2) 0.49447(19) -0.04637(15) 0.0219(4) Uani 1 1 d . . . . .
H8 H 0.218229 0.432477 -0.105955 0.026 Uiso 1 1 calc R U . . .
C9 C 0.2639(2) 0.42506(18) 0.05856(14) 0.0194(4) Uani 1 1 d . . . . .
C10 C 0.2766(2) 0.51708(19) 0.14944(15) 0.0219(4) Uani 1 1 d . . . . .
C11 C 0.3701(2) 0.03352(19) 0.20258(15) 0.0208(4) Uani 1 1 d . . . . .
H11 H 0.420132 -0.015397 0.132393 0.025 Uiso 1 1 calc R U . . .
C12 C 0.3774(2) -0.06131(18) 0.31234(15) 0.0212(4) Uani 1 1 d . . . . .
C13 C 0.2249(2) -0.0550(2) 0.40799(15) 0.0261(4) Uani 1 1 d . . . . .
H13 H 0.120697 0.014993 0.402483 0.031 Uiso 1 1 calc R U . . .
C14 C 0.3712(3) -0.2411(2) 0.51501(16) 0.0314(5) Uani 1 1 d . . . . .
H14 H 0.370778 -0.301574 0.584473 0.038 Uiso 1 1 calc R U . . .
C15 C 0.5304(2) -0.25706(19) 0.42443(15) 0.0249(4) Uani 1 1 d . . . . .
C16 C 0.5327(2) -0.16791(18) 0.32063(15) 0.0220(4) Uani 1 1 d . . . . .
H16 H 0.635593 -0.178714 0.257618 0.026 Uiso 1 1 calc R U . . .
C17 C 0.8485(3) -0.3635(3) 0.36896(19) 0.0473(6) Uani 1 1 d . . . . .
H17A H 0.841206 -0.399577 0.294723 0.071 Uiso 1 1 calc R U . . .
H17B H 0.939487 -0.431523 0.401059 0.071 Uiso 1 1 calc R U . . .
H17C H 0.884841 -0.259922 0.357587 0.071 Uiso 1 1 calc R U . . .
C18 C 0.1466(3) 0.87790(19) -0.18855(17) 0.0292(5) Uani 1 1 d . . . . .
H18A H 0.041879 0.923116 -0.131760 0.044 Uiso 1 1 calc R U . . .
H18B H 0.127134 0.904731 -0.266476 0.044 Uiso 1 1 calc R U . . .
H18C H 0.258528 0.917046 -0.180440 0.044 Uiso 1 1 calc R U . . .
N1 N 0.2198(2) -0.14418(18) 0.50756(13) 0.0325(4) Uani 1 1 d . . . . .
O1 O 0.16465(17) 0.71244(13) -0.16914(10) 0.0289(3) Uani 1 1 d . . . . .
O2 O 0.29442(17) 0.17020(13) -0.00849(10) 0.0271(3) Uani 1 1 d . . . . .
O3 O 0.67215(18) -0.36274(15) 0.44767(11) 0.0355(4) Uani 1 1 d . . . . .
loop_
_atom_site_aniso_label
_atom_site_aniso_U_11
_atom_site_aniso_U_22
_atom_site_aniso_U_33
_atom_site_aniso_U_23
_atom_site_aniso_U_13
_atom_site_aniso_U_12
C1 0.0170(9) 0.0253(9) 0.0186(9) -0.0022(7) -0.0023(7) 0.0009(7)
C2 0.0165(8) 0.0231(8) 0.0188(9) -0.0001(7) -0.0028(7) -0.0007(7)
C3 0.0249(9) 0.0257(9) 0.0156(9) -0.0012(7) -0.0030(7) 0.0017(7)
C4 0.0276(10) 0.0261(9) 0.0205(9) -0.0033(7) -0.0076(8) -0.0010(8)
C5 0.0292(10) 0.0259(9) 0.0233(10) -0.0041(7) -0.0069(8) -0.0049(8)
C6 0.0270(10) 0.0196(8) 0.0315(10) 0.0017(7) -0.0066(8) -0.0023(7)
C7 0.0183(9) 0.0276(9) 0.0197(9) 0.0035(7) -0.0035(7) -0.0018(7)
C8 0.0199(9) 0.0262(9) 0.0186(9) -0.0025(7) -0.0027(7) -0.0009(7)
C9 0.0151(8) 0.0240(8) 0.0173(9) -0.0003(7) -0.0011(7) 0.0001(7)
C10 0.0186(9) 0.0249(8) 0.0217(9) -0.0004(7) -0.0036(7) -0.0029(7)
C11 0.0174(9) 0.0255(8) 0.0188(9) -0.0013(7) -0.0028(7) -0.0018(7)
C12 0.0232(9) 0.0206(8) 0.0208(9) -0.0015(7) -0.0071(8) -0.0019(7)
C13 0.0227(9) 0.0295(9) 0.0242(10) 0.0022(7) -0.0046(8) 0.0014(8)
C14 0.0345(11) 0.0350(10) 0.0221(10) 0.0060(8) -0.0070(9) 0.0026(9)
C15 0.0265(10) 0.0233(8) 0.0256(10) -0.0027(7) -0.0101(8) 0.0029(8)
C16 0.0220(9) 0.0232(8) 0.0208(9) -0.0026(7) -0.0047(8) -0.0013(7)
C17 0.0351(12) 0.0644(14) 0.0362(12) -0.0060(11) -0.0110(10) 0.0258(11)
C18 0.0289(10) 0.0273(9) 0.0316(10) 0.0097(8) -0.0103(9) -0.0043(8)
N1 0.0274(9) 0.0398(9) 0.0250(9) 0.0061(7) -0.0009(7) 0.0019(7)
O1 0.0382(8) 0.0252(6) 0.0236(7) 0.0044(5) -0.0105(6) -0.0009(6)
O2 0.0360(8) 0.0253(6) 0.0190(7) -0.0036(5) -0.0052(6) 0.0002(6)
O3 0.0346(8) 0.0402(8) 0.0283(8) 0.0020(6) -0.0099(6) 0.0123(6)
loop_
_atom_type_symbol
_atom_type_description
_atom_type_scat_dispersion_real
_atom_type_scat_dispersion_imag
_atom_type_scat_source
C C 0.0033 0.0016 'International Tables Vol C Tables 4.2.6.8 and 6.1.1.4'
H H 0.0000 0.0000 'International Tables Vol C Tables 4.2.6.8 and 6.1.1.4'
N N 0.0061 0.0033 'International Tables Vol C Tables 4.2.6.8 and 6.1.1.4'
O O 0.0106 0.0060 'International Tables Vol C Tables 4.2.6.8 and 6.1.1.4'
loop_
_geom_angle_atom_site_label_1
_geom_angle_atom_site_label_2
_geom_angle_atom_site_label_3
_geom_angle
_geom_angle_site_symmetry_1
_geom_angle_site_symmetry_3
O2 C1 C9 121.48(15) . .
O2 C1 C2 121.03(14) . .
C9 C1 C2 117.47(14) . .
C11 C2 C1 118.19(15) . .
C11 C2 C3 125.28(15) . .
C1 C2 C3 116.50(14) . .
C2 C3 C4 109.61(14) . .
C2 C3 H3A 109.7 . .
C4 C3 H3A 109.7 . .
C2 C3 H3B 109.7 . .
C4 C3 H3B 109.7 . .
H3A C3 H3B 108.2 . .
C10 C4 C3 111.03(13) . .
C10 C4 H4A 109.4 . .
C3 C4 H4A 109.4 . .
C10 C4 H4B 109.4 . .
C3 C4 H4B 109.4 . .
H4A C4 H4B 108.0 . .
C10 C5 C6 122.41(16) . .
C10 C5 H5 118.8 . .
C6 C5 H5 118.8 . .
C7 C6 C5 119.21(15) . .
C7 C6 H6 120.4 . .
C5 C6 H6 120.4 . .
O1 C7 C8 116.21(15) . .
O1 C7 C6 124.06(15) . .
C8 C7 C6 119.72(15) . .
C7 C8 C9 120.59(15) . .
C7 C8 H8 119.7 . .
C9 C8 H8 119.7 . .
C8 C9 C10 120.38(15) . .
C8 C9 C1 119.11(14) . .
C10 C9 C1 120.51(15) . .
C5 C10 C9 117.68(15) . .
C5 C10 C4 121.89(15) . .
C9 C10 C4 120.42(14) . .
C2 C11 C12 126.76(16) . .
C2 C11 H11 116.6 . .
C12 C11 H11 116.6 . .
C13 C12 C16 117.89(15) . .
C13 C12 C11 121.02(15) . .
C16 C12 C11 120.95(15) . .
N1 C13 C12 123.68(16) . .
N1 C13 H13 118.2 . .
C12 C13 H13 118.2 . .
N1 C14 C15 123.48(16) . .
N1 C14 H14 118.3 . .
C15 C14 H14 118.3 . .
O3 C15 C16 125.88(16) . .
O3 C15 C14 115.32(15) . .
C16 C15 C14 118.80(16) . .
C15 C16 C12 118.68(16) . .
C15 C16 H16 120.7 . .
C12 C16 H16 120.7 . .
O3 C17 H17A 109.5 . .
O3 C17 H17B 109.5 . .
H17A C17 H17B 109.5 . .
O3 C17 H17C 109.5 . .
H17A C17 H17C 109.5 . .
H17B C17 H17C 109.5 . .
O1 C18 H18A 109.5 . .
O1 C18 H18B 109.5 . .
H18A C18 H18B 109.5 . .
O1 C18 H18C 109.5 . .
H18A C18 H18C 109.5 . .
H18B C18 H18C 109.5 . .
C14 N1 C13 117.41(15) . .
C7 O1 C18 116.47(13) . .
C15 O3 C17 117.80(14) . .
loop_
_geom_bond_atom_site_label_1
_geom_bond_atom_site_label_2
_geom_bond_distance
_geom_bond_site_symmetry_2
C1 O2 1.229(2) .
C1 C9 1.483(2) .
C1 C2 1.500(2) .
C2 C11 1.337(2) .
C2 C3 1.511(2) .
C3 C4 1.528(2) .
C3 H3A 0.9700 .
C3 H3B 0.9700 .
C4 C10 1.506(2) .
C4 H4A 0.9700 .
C4 H4B 0.9700 .
C5 C10 1.385(2) .
C5 C6 1.387(2) .
C5 H5 0.9300 .
C6 C7 1.387(2) .
C6 H6 0.9300 .
C7 O1 1.3749(19) .
C7 C8 1.385(2) .
C8 C9 1.392(2) .
C8 H8 0.9300 .
C9 C10 1.404(2) .
C11 C12 1.475(2) .
C11 H11 0.9300 .
C12 C13 1.392(2) .
C12 C16 1.397(2) .
C13 N1 1.340(2) .
C13 H13 0.9300 .
C14 N1 1.328(2) .
C14 C15 1.391(3) .
C14 H14 0.9300 .
C15 O3 1.364(2) .
C15 C16 1.383(2) .
C16 H16 0.9300 .
C17 O3 1.412(2) .
C17 H17A 0.9600 .
C17 H17B 0.9600 .
C17 H17C 0.9600 .
C18 O1 1.429(2) .
C18 H18A 0.9600 .
C18 H18B 0.9600 .
C18 H18C 0.9600 .
loop_
_geom_hbond_atom_site_label_D
_geom_hbond_atom_site_label_H
_geom_hbond_atom_site_label_A
_geom_hbond_distance_DH
_geom_hbond_distance_HA
_geom_hbond_distance_DA
_geom_hbond_angle_DHA
_geom_hbond_site_symmetry_A
_geom_hbond_publ_flag
C18 H18B N1 0.96 2.62 3.483(2) 149.0 1_564 yes
C13 H13 N1 0.93 2.64 3.481(2) 151.1 2_556 yes
loop_
_geom_torsion_atom_site_label_1
_geom_torsion_atom_site_label_2
_geom_torsion_atom_site_label_3
_geom_torsion_atom_site_label_4
_geom_torsion
_geom_torsion_site_symmetry_1
_geom_torsion_site_symmetry_2
_geom_torsion_site_symmetry_3
_geom_torsion_site_symmetry_4
O2 C1 C2 C11 19.5(2) . . . .
C9 C1 C2 C11 -162.21(14) . . . .
O2 C1 C2 C3 -162.48(16) . . . .
C9 C1 C2 C3 15.8(2) . . . .
C11 C2 C3 C4 130.24(17) . . . .
C1 C2 C3 C4 -47.65(19) . . . .
C2 C3 C4 C10 55.83(18) . . . .
C10 C5 C6 C7 0.6(3) . . . .
C5 C6 C7 O1 179.13(15) . . . .
C5 C6 C7 C8 0.1(3) . . . .
O1 C7 C8 C9 -179.56(14) . . . .
C6 C7 C8 C9 -0.4(3) . . . .
C7 C8 C9 C10 0.1(3) . . . .
C7 C8 C9 C1 179.58(14) . . . .
O2 C1 C9 C8 7.3(2) . . . .
C2 C1 C9 C8 -171.02(14) . . . .
O2 C1 C9 C10 -173.29(16) . . . .
C2 C1 C9 C10 8.4(2) . . . .
C6 C5 C10 C9 -0.9(3) . . . .
C6 C5 C10 C4 178.32(15) . . . .
C8 C9 C10 C5 0.5(2) . . . .
C1 C9 C10 C5 -178.95(15) . . . .
C8 C9 C10 C4 -178.71(14) . . . .
C1 C9 C10 C4 1.9(2) . . . .
C3 C4 C10 C5 146.13(16) . . . .
C3 C4 C10 C9 -34.7(2) . . . .
C1 C2 C11 C12 -173.91(14) . . . .
C3 C2 C11 C12 8.2(3) . . . .
C2 C11 C12 C13 42.8(2) . . . .
C2 C11 C12 C16 -141.59(17) . . . .
C16 C12 C13 N1 0.7(2) . . . .
C11 C12 C13 N1 176.44(15) . . . .
N1 C14 C15 O3 -179.76(16) . . . .
N1 C14 C15 C16 -0.1(3) . . . .
O3 C15 C16 C12 -178.12(15) . . . .
C14 C15 C16 C12 2.2(2) . . . .
C13 C12 C16 C15 -2.5(2) . . . .
C11 C12 C16 C15 -178.24(14) . . . .
C15 C14 N1 C13 -1.7(3) . . . .
C12 C13 N1 C14 1.4(3) . . . .
C8 C7 O1 C18 -177.58(14) . . . .
C6 C7 O1 C18 3.3(2) . . . .
C16 C15 O3 C17 11.9(2) . . . .
C14 C15 O3 C17 -168.44(17) . . . .
