#------------------------------------------------------------------------------
#$Date: 2022-03-28 11:30:54 +0300 (Mon, 28 Mar 2022) $
#$Revision: 274032 $
#$URL: file:///home/coder/svn-repositories/cod/cif/8/10/48/8104895.cif $
#------------------------------------------------------------------------------
#
# This file is available in the Crystallography Open Database (COD),
# http://www.crystallography.net/
#
# All data on this site have been placed in the public domain by the
# contributors.
#
data_8104895
loop_
_publ_author_name
'Yan, Wei-Hong'
'Pan, Hui-Yan'
_publ_section_title
;
 Crystal structure of 1,4-bis(methylpyridinium benzene)
 bis(1,2-dicyanoethene-1,2-dithiolato-\k2 S:S)nickel(II), C26H18N6NiS4
;
_journal_issue                   1
_journal_name_full
'Zeitschrift f\"ur Kristallographie - New Crystal Structures'
_journal_page_first              107
_journal_page_last               108
_journal_paper_doi               10.1515/ncrs-2020-0407
_journal_volume                  236
_journal_year                    2021
_chemical_formula_sum            'C26 H18 N6 Ni S4'
_chemical_formula_weight         601.41
_space_group_crystal_system      triclinic
_space_group_IT_number           2
_space_group_name_Hall           '-P 1'
_space_group_name_H-M_alt        'P -1'
_atom_sites_solution_hydrogens   geom
_cell_angle_alpha                70.9880(10)
_cell_angle_beta                 79.9710(10)
_cell_angle_gamma                82.5670(10)
_cell_formula_units_Z            1
_cell_length_a                   8.2947(4)
_cell_length_b                   8.9964(5)
_cell_length_c                   9.4210(5)
_cell_measurement_reflns_used    1387
_cell_measurement_temperature    296(2)
_cell_measurement_theta_max      25.0000
_cell_measurement_theta_min      2.3025
_cell_volume                     652.52(6)
_computing_structure_refinement  'SHELXL-2016/4 (Sheldrick, 2016)'
_diffrn_ambient_temperature      296(2)
_diffrn_measured_fraction_theta_full 0.994
_diffrn_measured_fraction_theta_max 0.994
_diffrn_measurement_device_type  'Bruker CCD APEX II'
_diffrn_radiation_type           MoK\a
_diffrn_radiation_wavelength     0.71073
_diffrn_reflns_av_R_equivalents  0.0456
_diffrn_reflns_av_unetI/netI     0.0594
_diffrn_reflns_Laue_measured_fraction_full 0.994
_diffrn_reflns_Laue_measured_fraction_max 0.994
_diffrn_reflns_limit_h_max       8
_diffrn_reflns_limit_h_min       -9
_diffrn_reflns_limit_k_max       10
_diffrn_reflns_limit_k_min       -10
_diffrn_reflns_limit_l_max       10
_diffrn_reflns_limit_l_min       -11
_diffrn_reflns_number            3709
_diffrn_reflns_point_group_measured_fraction_full 0.994
_diffrn_reflns_point_group_measured_fraction_max 0.994
_diffrn_reflns_theta_full        24.988
_diffrn_reflns_theta_max         24.988
_diffrn_reflns_theta_min         2.310
_exptl_absorpt_coefficient_mu    1.092
_exptl_absorpt_correction_T_max  0.840
_exptl_absorpt_correction_T_min  0.822
_exptl_absorpt_correction_type   multi-scan
_exptl_absorpt_process_details   SADABS
_exptl_crystal_colour            red
_exptl_crystal_density_diffrn    1.530
_exptl_crystal_description       block
_exptl_crystal_F_000             308
_exptl_crystal_size_max          0.180
_exptl_crystal_size_mid          0.160
_exptl_crystal_size_min          0.160
_refine_diff_density_max         0.251
_refine_diff_density_min         -0.417
_refine_diff_density_rms         0.060
_refine_ls_extinction_coef       .
_refine_ls_extinction_method     none
_refine_ls_goodness_of_fit_ref   1.058
_refine_ls_hydrogen_treatment    constr
_refine_ls_matrix_type           full
_refine_ls_number_parameters     169
_refine_ls_number_reflns         2285
_refine_ls_number_restraints     0
_refine_ls_restrained_S_all      1.058
_refine_ls_R_factor_all          0.0444
_refine_ls_R_factor_gt           0.0340
_refine_ls_shift/su_max          0.000
_refine_ls_shift/su_mean         0.000
_refine_ls_structure_factor_coef Fsqd
_refine_ls_weighting_details
'w=1/[\s^2^(Fo^2^)+(0.0100P)^2^] where P=(Fo^2^+2Fc^2^)/3'
_refine_ls_weighting_scheme      calc
_refine_ls_wR_factor_gt          0.0621
_refine_ls_wR_factor_ref         0.0643
_reflns_Friedel_coverage         0.000
_reflns_Friedel_fraction_full    .
_reflns_Friedel_fraction_max     .
_reflns_number_gt                1795
_reflns_number_total             2285
_reflns_threshold_expression     'I > 2\s(I)'
_cod_data_source_file            suppl_j_ncrs-2020-0407_suppl.cif
_cod_data_source_block           b
_cod_database_code               8104895
_shelx_space_group_comment
;
The symmetry employed for this shelxl refinement is uniquely defined
by the following loop, which should always be used as a source of
symmetry information in preference to the above space-group names.
They are only intended as comments.
;
_shelx_estimated_absorpt_t_min   0.828
_shelx_estimated_absorpt_t_max   0.845
_shelx_res_file
;
TITL b in   P-1
 b.res created by SHELXL-2016/4 at 11:42:52 on 27-Nov-2019
CELL  0.71073    8.2947    8.9964    9.4210    70.988    79.971    82.567
ZERR  1           0.0004    0.0005    0.0005     0.001     0.001     0.001
LATT 1
SFAC C  H  N  Ni S
UNIT 26  18  6  1  4
OMIT -3 50
L.S. 5
ACTA
BOND $H
FMAP 2
PLAN 20
SIZE 0.18  0.16 0.16
CONF
TEMP    23
WGHT    0.010000
FVAR       0.21315
NI1   4    1.000000    0.000000    0.000000    10.50000    0.03490    0.04347 =
         0.03127   -0.00814   -0.00051   -0.00513
N1    3    0.992840    0.346388    0.389632    11.00000    0.06530    0.07441 =
         0.05549   -0.03009    0.00497   -0.02020
N2    3    0.681690   -0.020140    0.574563    11.00000    0.06242    0.07251 =
         0.04199   -0.01003    0.00414   -0.00889
N3    3    0.310894    0.687161    0.147843    11.00000    0.03799    0.04896 =
         0.03319   -0.00296   -0.00618    0.00206
S1    5    1.085277    0.169686    0.082862    11.00000    0.04843    0.06540 =
         0.03981   -0.01893    0.00717   -0.02179
S2    5    0.842117   -0.096610    0.211128    11.00000    0.05511    0.05029 =
         0.03737   -0.01202    0.00715   -0.01721
C1    1    0.966463    0.140893    0.259648    11.00000    0.03948    0.05192 =
         0.03169   -0.01007   -0.00281   -0.00506
C2    1    0.979789    0.252537    0.335933    11.00000    0.03971    0.06052 =
         0.03617   -0.01204    0.00201   -0.01300
C3    1    0.862218    0.026618    0.314500    11.00000    0.03784    0.04996 =
         0.02894   -0.00849   -0.00469   -0.00302
C4    1    0.761805    0.001655    0.459067    11.00000    0.04343    0.04802 =
         0.03562   -0.00680   -0.00393   -0.00563
C5    1    0.238475    0.594268    0.099492    11.00000    0.04790    0.06793 =
         0.05048   -0.00333   -0.01140   -0.01128
AFIX  43
H5    2    0.157649    0.532901    0.165014    11.00000   -1.20000
AFIX   0
C6    1    0.280059    0.586303   -0.045871    11.00000    0.08289    0.08262 =
         0.05908   -0.02920   -0.02906    0.01179
AFIX  43
H6    2    0.229756    0.518930   -0.078264    11.00000   -1.20000
AFIX   0
C7    1    0.395833    0.678661   -0.140876    11.00000    0.07621    0.10089 =
         0.03912   -0.01454   -0.01219    0.04155
AFIX  43
H7    2    0.424905    0.676181   -0.240025    11.00000   -1.20000
AFIX   0
C8    1    0.469453    0.775087   -0.090724    11.00000    0.06536    0.09413 =
         0.04164    0.00971    0.00930    0.00180
AFIX  43
H8    2    0.548828    0.838877   -0.155504    11.00000   -1.20000
AFIX   0
C9    1    0.426527    0.777702    0.054103    11.00000    0.05995    0.05819 =
         0.05368    0.00216   -0.00376   -0.01406
AFIX  43
H9    2    0.477593    0.842725    0.088758    11.00000   -1.20000
AFIX   0
C10   1    0.264505    0.691831    0.307502    11.00000    0.04606    0.07603 =
         0.03402   -0.01448   -0.00374    0.00750
AFIX  23
H10A  2    0.156406    0.653663    0.347180    11.00000   -1.20000
H10B  2    0.259375    0.799967    0.308079    11.00000   -1.20000
AFIX   0
C11   1    0.386291    0.592514    0.407757    11.00000    0.03720    0.05260 =
         0.02799   -0.01074    0.00158    0.00050
C12   1    0.366231    0.435020    0.483384    11.00000    0.04572    0.06030 =
         0.04959   -0.00993   -0.01012   -0.01149
AFIX  43
H12   2    0.275454    0.390074    0.473794    11.00000   -1.20000
AFIX   0
C13   1    0.520154    0.656068    0.426984    11.00000    0.05384    0.04601 =
         0.04822   -0.00250   -0.00879   -0.00917
AFIX  43
H13   2    0.534207    0.762540    0.378551    11.00000   -1.20000
AFIX   0
HKLF 4




REM  b in   P-1
REM R1 =  0.0340 for    1795 Fo > 4sig(Fo)  and  0.0444 for all    2285 data
REM    169 parameters refined using      0 restraints

END

WGHT      0.0272      0.0000

REM Highest difference peak  0.251,  deepest hole -0.417,  1-sigma level  0.060
Q1    1   1.1165 -0.0887  0.0377  11.00000  0.05    0.25
Q2    1   1.0570  0.0323  0.0980  11.00000  0.05    0.20
Q3    1   1.2233  0.0456  0.1186  11.00000  0.05    0.19
Q4    1   0.2762  0.9458 -0.0372  11.00000  0.05    0.19
Q5    1   0.1355  0.9121  0.1778  11.00000  0.05    0.18
Q6    1   0.7300 -0.0313  0.1676  11.00000  0.05    0.18
Q7    1   0.3392  0.5379  0.4838  11.00000  0.05    0.18
Q8    1   0.1697  0.8156  0.0867  11.00000  0.05    0.18
Q9    1   0.3959  0.5163  0.3967  11.00000  0.05    0.18
Q10   1   1.0015  0.3037 -0.0137  11.00000  0.05    0.17
Q11   1   1.2151  0.2305  0.0933  11.00000  0.05    0.17
Q12   1   1.0254  0.1211 -0.0065  11.00000  0.05    0.17
Q13   1   0.9417 -0.2126  0.2481  11.00000  0.05    0.17
Q14   1   0.1380  0.2988  0.4797  11.00000  0.05    0.16
Q15   1   0.2601  0.6232 -0.2198  11.00000  0.05    0.16
Q16   1   0.8308 -0.0612  0.5308  11.00000  0.05    0.16
Q17   1   0.9266 -0.0994  0.2990  11.00000  0.05    0.15
Q18   1   0.5296  0.7715  0.1269  11.00000  0.05    0.15
Q19   1   0.2464  0.9877  0.1857  11.00000  0.05    0.15
Q20   1   0.3870  0.6537  0.4323  11.00000  0.05    0.15
;
_shelx_hkl_file
;
   0   0  -1   67.23    0.59
   0   0  -2   65.95    0.84
   0   0  -2   67.48    0.96
   0   0  -3    4.35    0.30
   0   0  -3    4.55    0.35
   0   0  -3    4.39    0.18
   0   0  -4    0.08    0.11
   0   0  -4    0.06    0.12
   0   0  -4    0.02    0.05
   0   0  -5    1.64    0.29
   0   0  -5    1.90    0.35
   0   0  -5    1.93    0.15
   0   0  -6    1.62    0.31
   0   0  -6    1.77    0.37
   0   0  -6    1.88    0.17
   0   0  -7    0.15    0.17
   0   0  -7    0.15    0.19
   0   0  -8    0.57    0.29
   0   0   8    0.50    0.24
   0   0  -9    5.82    0.71
   0   0   9    7.11    0.67
   0   0 -10    5.04    0.82
   0   0 -11    0.38    0.33
   0   1 -11    0.27    0.36
   0   1 -10    0.09    0.27
   0   1  -9    8.73    0.87
   0  -1   8    1.45    0.34
   0   1  -8    1.53    0.44
   0  -1   7    2.11    0.37
   0   1  -7    2.37    0.49
   0  -1   6    0.05    0.12
   0   1  -6    0.05    0.18
   0   1  -6    0.04    0.10
   0   1  -5   17.87    0.87
   0   1  -5   18.23    0.58
   0   1  -4  145.08    1.67
   0   1  -4  142.73    2.12
   0   1  -4  149.40    1.54
   0   1  -3   62.31    0.93
   0   1  -3   60.13    1.21
   0   1  -2    1.36    0.21
   0  -1   1   49.67    0.41
   0  -1   0   78.48    0.75
   0   1   0   80.32    0.66
   0  -1  -2    9.23    0.36
   0  -1  -2    9.94    0.35
   0   1   2   10.16    0.16
   0  -1  -3    2.98    0.27
   0  -1  -3    2.76    0.27
   0  -1  -4    4.04    0.34
   0  -1  -4    4.93    0.39
   0  -1  -5   11.28    0.60
   0  -1  -5   12.04    0.66
   0  -1  -6    4.04    0.43
   0  -1  -6    4.17    0.48
   0  -1  -7    3.92    0.46
   0  -1  -7    4.32    0.51
   0  -1  -8    1.31    0.36
   0  -1  -8    1.64    0.43
   0  -1  -9   11.96    0.95
   0  -1 -10   10.29    0.95
   0  -1 -11    5.60    0.89
   0   1  11    6.28    0.73
   0  -1 -12    0.11    0.31
   0   2 -10    0.31    0.34
   0   2  -9    1.09    0.42
   0   2  -8    3.87    0.68
   0   2  -7    0.24    0.24
   0  -2   6    0.99    0.23
   0   2  -6    0.68    0.30
   0   2  -6    0.45    0.17
   0  -2   5   35.81    0.90
   0   2  -5   36.66    1.29
   0   2  -5   35.20    0.96
   0  -2   4  125.15    1.45
   0   2  -4  129.57    2.16
   0   2  -4  127.87    1.74
   0  -2   3   47.53    0.74
   0   2  -3   43.38    1.12
   0  -2   2   35.23    0.48
   0   2  -2   32.79    0.85
   0  -2   1    1.36    0.09
   0   2  -1    1.23    0.19
   0  -2   0    4.05    0.16
   0   2   0    3.60    0.22
   0  -2  -1   33.26    0.59
   0  -2  -2   44.15    0.84
   0  -2  -3   27.59    0.78
   0  -2  -3   28.96    0.73
   0   2   3   30.50    0.47
   0  -2  -4   14.68    0.65
   0  -2  -4   16.22    0.64
   0  -2  -5   40.56    1.17
   0  -2  -5   43.57    1.18
   0  -2  -6   66.72    1.64
   0  -2  -6   67.42    1.64
   0  -2  -7   26.32    1.12
   0  -2  -7   27.39    1.16
   0  -2  -8    1.04    0.33
   0  -2  -8    0.92    0.33
   0  -2  -9   14.94    0.98
   0  -2  -9   15.26    1.04
   0  -2 -10    7.51    0.76
   0  -2 -10    6.40    0.74
   0  -2 -11    5.68    0.88
   0   2  11    5.05    0.78
   0  -2 -12    0.33    0.35
   0   2  12    0.06    0.26
   0   3 -10    0.20    0.34
   0   3  -9    6.96    0.84
   0   3  -8    8.04    0.85
   0   3  -7   38.85    1.64
   0   3  -6    6.85    0.69
   0   3  -6    6.90    0.53
   0  -3   5   21.84    0.65
   0   3  -5   22.76    1.09
   0   3  -5   21.81    0.87
   0  -3   4   11.33    0.41
   0   3  -4   10.66    0.71
   0   3  -4   12.53    0.64
   0  -3   3   15.98    0.38
   0   3  -3   15.83    0.75
   0   3  -2    2.50    0.34
   0  -3   1   64.72    0.51
   0   3  -1   58.15    1.11
   0  -3   0   64.78    0.74
   0   3   0   59.87    1.00
   0  -3  -1    2.90    0.23
   0  -3  -2   46.74    0.94
   0  -3  -3    6.81    0.43
   0  -3  -4    6.79    0.47
   0  -3  -4    7.43    0.45
   0   3   4    6.98    0.30
   0  -3  -5   28.42    0.95
   0   3   5   28.47    0.48
   0  -3  -6   73.56    1.77
   0  -3  -6   75.04    1.70
   0  -3  -7   35.27    1.34
   0  -3  -7   35.79    1.30
   0  -3  -8    0.42    0.25
   0  -3  -8    0.20    0.23
   0  -3  -9    0.25    0.21
   0  -3  -9   -0.05    0.19
   0  -3 -10    2.45    0.54
   0  -3 -10    1.94    0.50
   0  -3 -11    0.04    0.26
   0  -3 -12    0.00    0.28
   0   3  12    0.23    0.28
   0   4  -9    2.26    0.62
   0   4  -8    3.93    0.72
   0   4  -7    4.18    0.71
   0   4  -6    8.96    0.81
   0   4  -6    9.24    0.67
   0   4  -5    1.21    0.38
   0   4  -5    1.69    0.36
   0   4  -4    2.78    0.48
   0   4  -4    3.18    0.39
   0   4  -3   23.21    0.98
   0   4  -2    1.10    0.27
   0  -4   1    4.48    0.17
   0   4  -1    4.16    0.37
   0  -4   0    0.19    0.08
   0   4   0    0.12    0.11
   0  -4  -1   26.12    0.66
   0   4   1   25.59    0.72
   0  -4  -2  128.78    1.67
   0  -4  -3   34.39    0.98
   0  -4  -4   15.34    0.73
   0  -4  -5    6.87    0.56
   0   4   5    7.90    0.37
   0  -4  -6   37.89    1.33
   0  -4  -6   40.02    1.25
   0   4   6   41.05    0.71
   0  -4  -7   22.36    1.11
   0  -4  -7   22.12    1.03
   0  -4  -8    2.76    0.53
   0  -4  -8    2.67    0.49
   0  -4  -9    0.30    0.25
   0  -4  -9    0.33    0.26
   0  -4 -10    0.82    0.37
   0  -4 -10    0.82    0.35
   0  -4 -11    0.77    0.37
   0  -4 -11    0.72    0.38
   0  -4 -12    0.72    0.42
   0   4  12    0.87    0.41
   0   5  -9    0.06    0.28
   0   5  -8    0.67    0.39
   0   5  -7    4.62    0.78
   0   5  -6    1.09    0.39
   0   5  -6    1.23    0.35
   0   5  -5    1.93    0.47
   0   5  -5    2.00    0.41
   0   5  -4   -0.02    0.19
   0   5  -4   -0.08    0.12
   0   5  -3   11.96    0.79
   0   5  -3   14.81    0.84
   0   5  -2   26.27    1.03
   0  -5   1    2.84    0.16
   0   5  -1    2.44    0.38
   0  -5   0   21.76    0.54
   0   5   0   20.66    0.79
   0  -5  -1   11.24    0.48
   0   5   1   10.16    0.53
   0  -5  -2  179.10    2.09
   0   5   2  189.53    2.15
   0  -5  -3   41.55    1.13
   0  -5  -4    4.89    0.46
   0  -5  -5    0.22    0.19
   0   5   5    0.20    0.13
   0  -5  -6    0.89    0.31
   0   5   6    1.02    0.21
   0  -5  -7    0.21    0.22
   0  -5  -8    0.28    0.24
   0  -5  -9    0.12    0.19
   0  -5  -9    0.09    0.22
   0  -5 -10    0.30    0.28
   0  -5 -10    0.51    0.30
   0  -5 -11    2.41    0.60
   0  -5 -11    3.00    0.65
   0  -5 -12    2.57    0.65
   0  -5 -12    3.15    0.68
   0   6  -8    0.35    0.37
   0   6  -7    6.21    0.93
   0   6  -6    0.05    0.28
   0   6  -6    0.21    0.24
   0   6  -5    0.34    0.30
   0   6  -5    0.42    0.26
   0   6  -4    0.03    0.22
   0   6  -4   -0.10    0.14
   0   6  -3    2.55    0.50
   0   6  -3    2.76    0.49
   0   6  -2   11.73    0.77
   0   6  -2   14.16    0.89
   0   6  -1   10.67    0.69
   0  -6   0   11.57    0.44
   0   6   0   10.59    0.65
   0  -6  -1    0.18    0.13
   0   6   1    0.28    0.17
   0  -6  -2   16.14    0.69
   0   6   2   16.71    0.73
   0  -6  -3   10.04    0.61
   0  -6  -4    0.17    0.17
   0   6   4    0.15    0.15
   0  -6  -5    0.21    0.19
   0   6   5    0.04    0.11
   0  -6  -6   -0.05    0.17
   0   6   6    0.08    0.12
   0  -6  -7    7.77    0.73
   0  -6  -8    2.67    0.55
   0  -6  -9    1.98    0.50
   0  -6 -10    0.01    0.23
   0  -6 -11    1.31    0.49
   0  -6 -12    4.00    0.81
   0   7  -7    0.54    0.41
   0   7  -6    3.03    0.67
   0   7  -6    3.55    0.66
   0   7  -5    0.82    0.38
   0   7  -5    0.88    0.35
   0   7  -4    1.21    0.41
   0   7  -4    1.10    0.38
   0   7  -3    3.35    0.59
   0   7  -3    2.52    0.52
   0   7  -2   10.10    0.78
   0   7  -2   11.62    0.88
   0   7  -1    8.66    0.68
   0   7  -1   10.63    0.82
   0   7   0    8.02    0.63
   0   7   0    9.75    0.76
   0   7   1    0.36    0.21
   0   7   1    0.57    0.26
   0  -7  -2    2.02    0.33
   0   7   2    1.62    0.33
   0   7   2    1.82    0.39
   0  -7  -3    0.78    0.25
   0   7   3    0.86    0.25
   0   7   3    0.67    0.25
   0  -7  -4    6.75    0.58
   0   7   4    6.79    0.57
   0  -7  -5    3.00    0.50
   0   7   5    3.56    0.42
   0  -7  -6   -0.01    0.18
   0   7   6    0.04    0.13
   0  -7  -7   10.49    0.86
   0  -7  -8    7.03    0.75
   0  -7  -9    6.94    0.80
   0  -7 -10    0.39    0.30
   0  -7 -11    0.16    0.29
   0   8  -6    1.10    0.47
   0   8  -6    1.33    0.49
   0   8  -5    3.63    0.71
   0   8  -5    4.87    0.80
   0   8  -4    1.46    0.47
   0   8  -4    1.56    0.48
   0   8  -3    1.06    0.40
   0   8  -3    1.29    0.44
   0   8  -2    2.17    0.49
   0   8  -2    1.93    0.49
   0   8  -1    3.68    0.58
   0   8  -1    4.45    0.69
   0   8   0    0.91    0.31
   0   8   0    0.99    0.36
   0   8   1    2.54    0.45
   0   8   1    2.57    0.51
   0   8   2    0.03    0.16
   0   8   2   -0.01    0.16
   0  -8  -3    6.40    0.55
   0   8   3    6.10    0.54
   0   8   3    6.29    0.63
   0  -8  -4    4.29    0.49
   0   8   4    4.52    0.47
   0   8   4    4.41    0.52
   0  -8  -5    0.36    0.23
   0   8   5    0.52    0.24
   0  -8  -6    0.24    0.24
   0   8   6    0.18    0.18
   0  -8  -7    0.23    0.26
   0  -8  -8    6.86    0.78
   0  -8  -9    6.42    0.92
   0  -8 -10   -0.14    0.25
   0  -8 -11    0.20    0.34
   0   9  -4    0.64    0.40
   0   9  -4    1.14    0.45
   0   9  -3    0.12    0.27
   0   9  -3    0.00    0.24
   0   9  -2    0.18    0.26
   0   9  -2    0.26    0.28
   0   9  -1    3.38    0.60
   0   9  -1    3.27    0.66
   0   9   0    3.78    0.60
   0   9   0    4.60    0.75
   0   9   1    2.33    0.46
   0   9   1    3.02    0.60
   0   9   2    0.95    0.32
   0   9   2    0.92    0.36
   0   9   3    1.14    0.33
   0   9   3    0.90    0.33
   0  -9  -4    6.27    0.61
   0   9   4    5.78    0.58
   0   9   4    5.74    0.64
   0  -9  -5    7.12    0.70
   0   9   5    6.47    0.66
   0  -9  -6    1.79    0.45
   0   9   6    2.19    0.45
   0  -9  -7    1.77    0.48
   0  -9  -8    1.40    0.48
   0  -9  -9    1.92    0.56
   0  -9 -10   -0.18    0.24
   0  10  -3    0.20    0.31
   0  10  -2   -0.05    0.24
   0  10  -1    1.22    0.47
   0  10   0    2.18    0.57
   0  10   1    1.42    0.46
   0  10   2    1.04    0.42
   0  10   3    0.54    0.33
   0  10   4    3.52    0.64
   0  10   5    2.74    0.56
   0 -10  -6    0.82    0.35
   0  10   6    0.58    0.31
   0 -10  -7   -0.07    0.21
   0 -10  -8   -0.03    0.24
   0 -10  -9    0.21    0.33
   0  11  -1    0.05    0.28
   0  11   0    0.85    0.45
   0  11   1    1.10    0.46
   0  11   2    0.90    0.42
   0  11   3    0.12    0.28
   0  11   4    0.84    0.39
   0  11   5    1.08    0.40
   0  11   6    0.60    0.34
   0 -11  -8   -0.14    0.29
  -1  11   5    1.87    0.52
  -1  11   4    1.08    0.43
  -1  11   3    0.63    0.37
  -1  11   2    0.09    0.28
  -1  11   1    0.43    0.35
  -1  11   0    0.81    0.43
   1 -10  -8    0.84    0.42
   1 -10  -7    0.14    0.28
  -1  10   6   -0.11    0.18
  -1  10   5    1.00    0.38
  -1  10   4    6.21    0.73
  -1  10   2    0.58    0.30
  -1  10   2    1.12    0.43
  -1  10   1   -0.05    0.21
  -1  10   1   -0.04    0.22
  -1  10   0    0.12    0.25
  -1  10   0    0.04    0.24
  -1  10  -1    0.27    0.31
  -1  10  -1    0.53    0.35
  -1  10  -2    0.07    0.32
  -1  10  -2    0.40    0.35
  -1  10  -3    0.23    0.32
  -1  10  -3    0.10    0.28
   1  -9  -9    0.46    0.35
   1  -9  -8    5.11    0.83
   1  -9  -7    3.38    0.65
  -1   9   6    0.74    0.29
   1  -9  -6    0.90    0.36
  -1   9   5    1.83    0.43
  -1   9   5    1.57    0.40
   1  -9  -5    1.48    0.41
  -1   9   4    1.26    0.37
  -1   9   4    0.90    0.33
  -1   9   3    2.84    0.52
  -1   9   1    0.73    0.33
  -1   9   0    0.09    0.22
  -1   9  -1    3.43    0.62
  -1   9  -1    3.69    0.70
  -1   9  -2    0.35    0.30
  -1   9  -2    0.81    0.37
  -1   9  -3    0.22    0.31
  -1   9  -3    0.45    0.29
  -1   9  -4   -0.13    0.28
  -1   9  -4    0.16    0.27
   1  -8 -10    0.04    0.26
   1  -8  -9    1.50    0.49
   1  -8  -8    8.85    0.89
   1  -8  -7    3.28    0.62
  -1   8   6    3.89    0.47
   1  -8  -6    4.35    0.66
   1  -8  -5    0.19    0.20
  -1   8   4    0.15    0.18
   1  -8  -4    0.41    0.24
  -1   8   3    3.51    0.54
   1  -8  -3    4.16    0.46
  -1   8   2    0.56    0.27
  -1   8   1    1.91    0.42
  -1   8   0    0.40    0.26
  -1   8  -1    5.75    0.63
  -1   8  -2    5.38    0.65
  -1   8  -3    0.55    0.36
  -1   8  -3    0.81    0.36
  -1   8  -4    0.73    0.38
  -1   8  -4    0.86    0.36
  -1   8  -5    0.45    0.37
  -1   8  -5    0.14    0.25
  -1   8  -6    0.65    0.43
  -1   8  -6    0.61    0.35
  -1   7  11    2.35    0.61
   1  -7 -10    0.56    0.35
   1  -7  -9    0.57    0.36
   1  -7  -8    2.50    0.57
   1  -7  -7    1.57    0.43
  -1   7   6    0.89    0.25
   1  -7  -6    1.12    0.37
   1  -7  -5    2.85    0.50
   1  -7  -4    0.01    0.16
  -1   7   3    8.22    0.62
   1  -7  -3    8.73    0.61
  -1   7   2   13.86    0.80
   1  -7  -2   13.67    0.68
  -1   7   1    7.18    0.43
  -1   7   1    6.64    0.58
  -1   7   0    2.42    0.45
  -1   7  -1    7.39    0.66
  -1   7  -2   16.52    1.01
  -1   7  -3    6.21    0.69
  -1   7  -4    0.95    0.38
  -1   7  -4    1.07    0.37
  -1   7  -5    0.22    0.30
  -1   7  -5    0.11    0.21
  -1   7  -6   -0.02    0.27
  -1   7  -6    0.14    0.26
  -1   7  -7    0.94    0.47
  -1   6  11    1.45    0.48
   1  -6 -10    0.80    0.40
   1  -6  -9    1.47    0.46
   1  -6  -8    1.10    0.39
   1  -6  -7    3.17    0.57
   1  -6  -6    0.62    0.29
   1  -6  -5    0.04    0.16
   1  -6  -4    0.85    0.27
   1  -6  -3    5.52    0.48
  -1   6   2   50.44    1.37
   1  -6  -2   49.45    1.19
  -1   6   1   21.16    0.91
   1  -6  -1   20.53    0.68
  -1   6   0    8.08    0.35
  -1   6   0    6.29    0.56
  -1   6  -1    2.83    0.47
  -1   6  -2    3.63    0.56
  -1   6  -3   12.07    0.86
  -1   6  -4    0.40    0.28
  -1   6  -5   -0.12    0.21
  -1   6  -5    0.15    0.19
  -1   6  -6    0.08    0.25
  -1   6  -6    0.13    0.22
  -1   6  -7    3.32    0.70
  -1   6  -8    0.93    0.47
  -1   5  12    2.04    0.59
  -1   5  11    1.71    0.51
   1  -5  -9    1.73    0.48
   1  -5  -8    0.34    0.26
   1  -5  -7    0.24    0.21
   1  -5  -6   31.58    1.30
   1  -5  -5   19.64    0.96
   1  -5  -4    0.43    0.21
   1  -5  -3   20.82    0.83
   1  -5  -2   28.13    0.86
  -1   5   1   35.35    1.07
   1  -5  -1   34.69    0.83
  -1   5   0    1.76    0.17
  -1   5   0    1.88    0.33
  -1   5  -1    0.57    0.23
  -1   5  -2    0.11    0.17
  -1   5  -3    0.21    0.23
  -1   5  -4    7.57    0.71
  -1   5  -5    2.23    0.51
  -1   5  -6    1.59    0.46
  -1   5  -6    1.20    0.35
  -1   5  -7   16.37    1.18
  -1   5  -8    5.36    0.88
  -1   5  -9    2.20    0.64
  -1   4  12   -0.02    0.26
   1  -4 -12    0.26    0.35
  -1   4  11   -0.12    0.18
   1  -4 -11   -0.06    0.23
  -1   4  10    1.96    0.52
   1  -4 -10    1.33    0.44
   1  -4  -9    0.88    0.36
   1  -4  -9    0.62    0.32
   1  -4  -8    0.18    0.23
   1  -4  -8    0.15    0.21
   1  -4  -7    3.19    0.54
   1  -4  -7    3.74    0.56
   1  -4  -6   48.63    1.54
   1  -4  -5   73.38    1.75
   1  -4  -4    8.99    0.59
   1  -4  -3    7.34    0.49
   1  -4  -2   72.07    1.29
  -1   4   1   15.50    0.65
   1  -4  -1   16.43    0.54
  -1   4   0    0.08    0.06
  -1   4   0    0.13    0.13
  -1   4  -1    3.68    0.38
  -1   4  -2    0.33    0.19
  -1   4  -3   23.32    1.02
  -1   4  -4   12.60    0.83
  -1   4  -5    8.04    0.73
  -1   4  -6    0.29    0.26
  -1   4  -7    4.93    0.77
  -1   4  -8    1.41    0.48
  -1   4  -9    2.97    0.69
  -1   3  12    0.44    0.34
   1  -3 -12    0.79    0.44
  -1   3  11    0.09    0.24
   1  -3 -11   -0.11    0.22
  -1   3  10   10.15    0.92
   1  -3 -10    9.84    0.92
   1  -3  -9    5.26    0.76
   1  -3  -8    2.88    0.54
   1  -3  -8    3.10    0.55
   1  -3  -7    7.01    0.64
   1  -3  -7    7.27    0.65
   1  -3  -6   74.18    1.85
   1  -3  -6   76.36    1.82
   1  -3  -5   26.58    1.02
   1  -3  -5   26.06    0.98
   1  -3  -4   13.98    0.69
   1  -3  -3    0.26    0.14
   1  -3  -2    1.02    0.20
   1  -3  -1    7.90    0.36
  -1   3   0    5.97    0.25
  -1   3   0    5.55    0.37
  -1   3  -1    4.42    0.35
  -1   3  -2    0.64    0.20
  -1   3  -3   26.76    0.99
  -1   3  -4   43.23    1.37
   1  -3   4   45.30    0.62
  -1   3  -5   22.59    1.10
  -1   3  -6    9.01    0.78
  -1   3  -7    0.08    0.25
  -1   3  -8    1.71    0.51
  -1   3  -9    2.37    0.61
  -1   3 -10    0.17    0.32
  -1   2  12    0.09    0.28
   1  -2 -12    0.08    0.31
  -1   2  11    0.94    0.40
   1  -2 -11    0.25    0.32
  -1   2  10   14.68    1.07
   1  -2 -10   13.70    1.09
  -1   2   9    6.29    0.67
   1  -2  -9    7.00    0.75
  -1   2   8    7.14    0.67
   1  -2  -8    5.76    0.64
   1  -2  -7    0.03    0.16
   1  -2  -7   -0.01    0.18
   1  -2  -6   15.84    0.85
   1  -2  -6   15.59    0.85
   1  -2  -5    9.85    0.62
   1  -2  -5   10.00    0.63
   1  -2  -4   51.15    1.24
   1  -2  -4   53.28    1.25
   1  -2  -3    1.40    0.24
   1  -2  -3    1.44    0.24
   1  -2  -2   59.23    1.05
  -1   2   0  333.02    2.63
  -1   2   0  308.36    2.82
  -1   2  -1  278.66    1.59
  -1   2  -1  271.59    3.23
  -1   2  -2   54.64    1.15
  -1   2  -3    0.14    0.07
  -1   2  -3    0.07    0.13
  -1   2  -4   76.17    1.03
  -1   2  -4   71.60    1.62
  -1   2  -5   28.25    0.75
  -1   2  -5   27.16    1.12
  -1   2  -6   -0.04    0.18
  -1   2  -7    6.27    0.69
  -1   2  -8    0.50    0.33
  -1   2  -9    4.97    0.81
  -1   2 -10    0.11    0.30
  -1   2 -11   -0.02    0.29
  -1   1  11    0.96    0.40
   1  -1 -11    1.58    0.51
  -1   1  10    8.29    0.80
   1  -1 -10    7.71    0.85
  -1   1   9   14.66    0.98
   1  -1  -9   14.71    1.07
  -1   1   8    5.17    0.57
   1  -1  -8    5.28    0.63
  -1   1   7    2.69    0.46
   1  -1  -7    2.78    0.50
   1  -1  -6    0.14    0.20
   1  -1  -5   10.93    0.63
   1  -1  -5   11.35    0.67
   1  -1  -4   53.36    1.22
   1  -1  -4   55.84    1.28
   1  -1  -3    4.15    0.33
   1  -1  -3    3.82    0.33
  -1   1   2   82.21    1.16
   1  -1  -2   83.80    1.17
  -1   1   1   58.73    0.82
  -1   1   0  113.95    0.89
  -1   1  -1  209.15    1.85
  -1   1  -1  214.59    3.19
  -1   1  -2    0.46    0.09
  -1   1  -2    0.35    0.14
  -1   1  -3    5.05    0.27
  -1   1  -3    5.08    0.39
  -1   1  -4   64.36    1.06
  -1   1  -4   64.87    1.44
  -1   1  -5   25.37    0.77
  -1   1  -5   24.42    1.01
  -1   1  -6    0.26    0.16
  -1   1  -6    0.05    0.19
  -1   1  -7    0.92    0.26
  -1   1  -7    0.96    0.35
  -1   1  -8    0.19    0.19
  -1   1  -8    0.25    0.27
  -1   1  -9    2.61    0.59
  -1   1 -10    4.32    0.77
  -1   1 -11    1.51    0.55
   1   0 -11    0.25    0.35
  -1   0  10    1.01    0.36
   1   0 -10    1.05    0.41
  -1   0   9    3.09    0.55
   1   0  -9    2.49    0.58
  -1   0   8    6.29    0.60
   1   0  -8    6.71    0.71
  -1   0   7    7.37    0.60
   1   0  -7    7.52    0.68
  -1   0   6    1.08    0.28
   1   0  -6    1.00    0.32
  -1   0   5    2.22    0.34
   1   0  -5    2.20    0.38
   1   0  -5    2.44    0.19
  -1   0   4   57.30    1.22
   1   0  -4   59.02    1.35
   1   0  -4   59.26    0.79
  -1   0   3  260.79    2.28
   1   0  -3  274.67    2.51
   1   0  -3  277.10    2.20
  -1   0   2    9.39    0.39
   1   0  -2    9.77    0.42
   1   0  -2    9.50    0.29
  -1   0   1   51.66    0.73
   1   0  -1   56.30    0.75
   1   0  -1   54.05    0.63
  -1   0   0   72.55    0.72
  -1   0  -1   44.52    0.57
  -1   0  -1   46.52    0.60
  -1   0  -2   11.51    0.36
  -1   0  -2   11.09    0.40
  -1   0  -3    1.62    0.20
  -1   0  -3    1.70    0.25
  -1   0  -4    5.92    0.37
  -1   0  -4    5.97    0.44
  -1   0  -5   13.45    0.61
  -1   0  -5   12.97    0.70
  -1   0  -6   24.93    0.91
  -1   0  -6   26.35    1.09
  -1   0  -7    0.25    0.19
  -1   0  -7    0.42    0.26
  -1   0  -8    0.00    0.15
  -1   0  -8    0.02    0.20
  -1   0  -9   10.09    0.76
  -1   0  -9   10.15    0.89
  -1   0 -10    9.18    0.91
  -1   0 -11    6.46    0.95
   1   1 -11    3.10    0.71
   1   1 -10   -0.09    0.22
   1   1  -9    0.30    0.29
  -1  -1   8    9.59    0.71
   1   1  -8    9.93    0.86
  -1  -1   7    3.75    0.43
   1   1  -7    3.84    0.62
  -1  -1   6   11.94    0.67
   1   1  -6   12.73    0.83
   1   1  -6   12.89    0.53
  -1  -1   5    6.53    0.46
   1   1  -5    6.30    0.56
   1   1  -5    6.20    0.37
  -1  -1   4   74.95    1.34
   1   1  -4   76.29    1.59
   1   1  -4   76.24    1.14
  -1  -1   3  173.73    1.79
   1   1  -3  176.04    2.11
   1   1  -3  182.79    1.66
  -1  -1   2    1.32    0.18
   1   1  -2    1.13    0.19
   1   1  -2    1.33    0.18
  -1  -1   1   39.53    0.63
   1   1  -1   41.58    0.68
   1   1  -1   44.54    0.71
  -1  -1   0  331.16    3.21
   1   1   0  421.95    3.07
   1   1   0  420.00    4.83
  -1  -1  -1   71.57    0.84
  -1  -1  -1   85.58    0.48
   1   1   1   93.49    0.88
  -1  -1  -2   38.65    0.73
  -1  -1  -2   43.67    0.64
   1   1   2   44.65    0.58
  -1  -1  -3   27.71    0.68
  -1  -1  -4   12.42    0.55
  -1  -1  -4   13.51    0.58
  -1  -1  -5    1.71    0.29
  -1  -1  -5    1.52    0.30
  -1  -1  -6    9.38    0.60
  -1  -1  -6    8.05    0.61
  -1  -1  -7   38.71    1.28
  -1  -1  -7   37.27    1.35
  -1  -1  -8    0.03    0.17
  -1  -1  -8   -0.06    0.19
  -1  -1  -9    3.40    0.55
  -1  -1  -9    3.69    0.64
  -1  -1 -10    5.45    0.64
  -1  -1 -10    5.91    0.73
  -1  -1 -11    4.86    0.83
  -1  -1 -12    0.54    0.40
   1   2 -10    0.86    0.43
   1   2  -9    1.50    0.48
   1   2  -8    5.54    0.81
  -1  -2   7    4.53    0.46
   1   2  -7    4.32    0.67
  -1  -2   6    5.05    0.45
   1   2  -6    6.36    0.64
   1   2  -6    5.99    0.44
  -1  -2   5    6.68    0.45
   1   2  -5    6.30    0.59
   1   2  -5    7.00    0.46
  -1  -2   4   74.44    1.29
   1   2  -4   74.63    1.65
   1   2  -4   78.50    1.38
  -1  -2   3   34.64    0.78
   1   2  -3   35.81    1.03
   1   2  -3   35.92    0.90
  -1  -2   2   65.99    0.94
   1   2  -2   67.52    1.20
   1   2  -2   69.53    1.17
  -1  -2   1    4.30    0.24
   1   2  -1    5.17    0.32
  -1  -2   0   38.72    0.64
   1   2   0   48.03    0.61
   1   2   0   49.41    0.88
  -1  -2  -1   53.95    0.83
   1   2   1   63.88    0.47
   1   2   1   67.90    0.96
  -1  -2  -2    1.82    0.21
  -1  -2  -2    2.13    0.15
   1   2   2    2.13    0.18
  -1  -2  -3   13.16    0.45
   1   2   3   13.45    0.37
  -1  -2  -4    8.77    0.50
  -1  -2  -4    9.53    0.47
  -1  -2  -5    2.77    0.34
  -1  -2  -5    2.77    0.32
  -1  -2  -6   63.31    1.56
  -1  -2  -6   65.77    1.55
  -1  -2  -7   45.16    1.44
  -1  -2  -7   47.15    1.47
  -1  -2  -8    8.18    0.68
  -1  -2  -8    9.43    0.75
  -1  -2  -9    0.04    0.17
  -1  -2  -9    0.03    0.20
  -1  -2 -10    2.70    0.54
  -1  -2 -10    2.47    0.56
  -1  -2 -11    4.96    0.76
  -1  -2 -11    4.89    0.81
  -1  -2 -12    0.18    0.32
   1   3 -10    1.24    0.50
   1   3  -9    0.34    0.33
   1   3  -8   14.74    1.11
   1   3  -7    1.63    0.45
   1   3  -6    5.77    0.64
   1   3  -6    5.58    0.50
  -1  -3   5    0.20    0.15
   1   3  -5    0.16    0.21
   1   3  -5    0.34    0.18
  -1  -3   4   -0.01    0.10
   1   3  -4    0.00    0.17
   1   3  -4    0.01    0.12
  -1  -3   3   55.57    0.95
   1   3  -3   58.11    1.39
   1   3  -3   60.71    1.34
  -1  -3   2   19.30    0.51
   1   3  -2   20.23    0.73
   1   3  -2   20.87    0.76
  -1  -3   1    2.71    0.21
   1   3  -1    3.48    0.30
   1   3  -1    3.19    0.30
  -1  -3   0   12.48    0.42
   1   3   0   13.11    0.42
   1   3   0   15.59    0.60
  -1  -3  -1   12.49    0.46
   1   3   1   13.39    0.35
   1   3   1   15.55    0.57
  -1  -3  -2  105.74    1.44
   1   3   2  119.77    1.47
  -1  -3  -3  143.05    1.86
   1   3   3  168.33    1.63
  -1  -3  -4   11.53    0.60
  -1  -3  -4   12.75    0.52
   1   3   4   12.96    0.43
  -1  -3  -5   17.50    0.80
  -1  -3  -5   19.88    0.75
   1   3   5   19.70    0.47
  -1  -3  -6   33.45    1.19
  -1  -3  -6   36.82    1.14
  -1  -3  -7   34.73    1.31
  -1  -3  -7   37.43    1.28
  -1  -3  -8   -0.10    0.16
  -1  -3  -8   -0.03    0.18
  -1  -3  -9   -0.02    0.16
  -1  -3  -9    0.10    0.23
  -1  -3 -10    0.24    0.25
  -1  -3 -10    0.04    0.22
  -1  -3 -11    0.76    0.37
  -1  -3 -11    0.93    0.40
  -1  -3 -12    0.28    0.30
  -1  -3 -12    0.24    0.32
   1   4  -9    0.75    0.42
   1   4  -8    2.84    0.63
   1   4  -7   13.81    1.04
   1   4  -6   25.33    1.30
   1   4  -6   24.68    1.08
   1   4  -5    1.54    0.41
   1   4  -5    1.93    0.38
   1   4  -4    3.47    0.53
   1   4  -4    3.58    0.42
  -1  -4   3    1.52    0.21
   1   4  -3    1.59    0.34
   1   4  -3    1.62    0.33
  -1  -4   2    1.76    0.19
   1   4  -2    2.34    0.36
   1   4  -2    2.45    0.38
  -1  -4   1    0.27    0.11
   1   4  -1    0.27    0.15
   1   4  -1    0.26    0.15
  -1  -4   0    0.88    0.17
   1   4   0    1.06    0.20
   1   4   0    1.00    0.23
  -1  -4  -1    1.26    0.21
   1   4   1    1.24    0.18
   1   4   1    1.43    0.26
  -1  -4  -2   54.36    1.11
   1   4   2   62.26    0.90
   1   4   2   63.26    1.26
  -1  -4  -3   66.65    1.36
   1   4   3   73.42    1.30
  -1  -4  -4   21.21    0.85
   1   4   4   22.64    0.69
  -1  -4  -5    0.52    0.21
  -1  -4  -5    0.61    0.20
   1   4   5    0.79    0.17
  -1  -4  -6   29.89    1.18
  -1  -4  -6   32.63    1.05
   1   4   6   32.23    0.68
  -1  -4  -7   12.34    0.83
  -1  -4  -7   14.13    0.80
  -1  -4  -8    0.23    0.21
  -1  -4  -8    0.07    0.20
  -1  -4  -9    0.10    0.20
  -1  -4  -9    0.02    0.19
  -1  -4 -10    0.62    0.33
  -1  -4 -10    0.69    0.34
  -1  -4 -11   -0.07    0.22
  -1  -4 -11    0.10    0.25
  -1  -4 -12    1.98    0.57
  -1  -4 -12    2.74    0.65
   1   5  -8    0.18    0.30
   1   5  -7    1.77    0.51
   1   5  -6    9.67    0.86
   1   5  -6    8.94    0.74
   1   5  -5    1.08    0.38
   1   5  -5    0.83    0.30
   1   5  -4    0.39    0.25
   1   5  -4    0.35    0.23
   1   5  -3    4.80    0.52
   1   5  -3    4.72    0.50
  -1  -5   2   14.79    0.45
   1   5  -2   17.59    0.83
   1   5  -2   18.32    0.91
  -1  -5   1   26.70    0.63
   1   5  -1   27.59    0.92
   1   5  -1   32.05    1.15
  -1  -5   0    3.14    0.27
   1   5   0    3.07    0.32
   1   5   0    4.14    0.42
  -1  -5  -1   33.78    0.86
   1   5   1   30.33    0.79
   1   5   1   37.05    1.15
  -1  -5  -2   15.17    0.65
   1   5   2   15.86    0.55
   1   5   2   17.07    0.76
  -1  -5  -3   58.46    1.35
   1   5   3   64.33    1.40
  -1  -5  -4    3.82    0.42
   1   5   4    3.70    0.35
  -1  -5  -5   -0.01    0.14
   1   5   5    0.19    0.14
  -1  -5  -6    0.58    0.25
   1   5   6    0.85    0.21
  -1  -5  -7    2.24    0.46
  -1  -5  -7    2.10    0.38
  -1  -5  -8    3.34    0.59
  -1  -5  -8    4.43    0.52
  -1  -5  -9    2.89    0.58
  -1  -5  -9    3.59    0.58
  -1  -5 -10    0.22    0.25
  -1  -5 -10    0.15    0.23
  -1  -5 -11    1.40    0.47
  -1  -5 -11    1.51    0.47
  -1  -5 -12    1.87    0.57
  -1  -5 -12    1.72    0.54
   1   6  -8    0.03    0.30
   1   6  -7   -0.08    0.24
   1   6  -6    2.36    0.55
   1   6  -6    2.49    0.52
   1   6  -5    0.10    0.24
   1   6  -5    0.24    0.23
   1   6  -4    1.57    0.42
   1   6  -4    1.73    0.43
   1   6  -3    4.19    0.52
   1   6  -3    5.37    0.58
   1   6  -2   24.82    1.05
   1   6  -2   27.54    1.22
   1   6  -1   31.83    1.09
   1   6  -1   35.07    1.33
  -1  -6   0   17.48    0.60
   1   6   0   17.10    0.74
   1   6   0   18.17    0.93
  -1  -6  -1    0.84    0.21
   1   6   1    1.14    0.25
   1   6   1    0.88    0.27
  -1  -6  -2    7.15    0.49
   1   6   2    6.89    0.43
   1   6   2    8.25    0.60
  -1  -6  -3   13.76    0.72
   1   6   3   14.85    0.60
   1   6   3   14.00    0.75
  -1  -6  -4    6.02    0.53
   1   6   4    6.66    0.51
  -1  -6  -5    0.08    0.16
   1   6   5    0.08    0.13
  -1  -6  -6   10.41    0.78
   1   6   6   11.30    0.62
  -1  -6  -7    1.08    0.36
  -1  -6  -8    5.91    0.68
  -1  -6  -9    3.82    0.68
  -1  -6 -10    2.28    0.55
  -1  -6 -11    1.31    0.47
  -1  -6 -12    2.65    0.66
   1   7  -7   -0.14    0.26
   1   7  -6    2.13    0.56
   1   7  -6    2.62    0.57
   1   7  -5    2.49    0.58
   1   7  -5    1.51    0.44
   1   7  -4    1.73    0.48
   1   7  -4    1.81    0.47
   1   7  -3    2.55    0.51
   1   7  -3    2.78    0.55
   1   7  -2    2.54    0.47
   1   7  -2    2.50    0.51
   1   7  -1   21.42    0.98
   1   7  -1   25.37    1.24
   1   7   0    8.99    0.62
   1   7   0   10.50    0.79
  -1  -7  -1    0.03    0.14
   1   7   1   -0.05    0.13
   1   7   1    0.10    0.16
  -1  -7  -2    8.94    0.57
   1   7   2    8.19    0.53
   1   7   2    9.69    0.72
  -1  -7  -3    0.61    0.24
   1   7   3    0.72    0.21
   1   7   3    0.79    0.27
  -1  -7  -4   11.02    0.73
   1   7   4   11.67    0.60
   1   7   4   12.14    0.76
  -1  -7  -5    0.77    0.29
   1   7   5    0.58    0.24
  -1  -7  -6    2.58    0.49
   1   7   6    2.54    0.40
  -1  -7  -7    5.54    0.63
  -1  -7  -8    6.36    0.72
  -1  -7  -9   13.94    1.08
  -1  -7 -10    0.59    0.33
  -1  -7 -11    0.24    0.29
  -1  -7 -12    0.55    0.40
   1   8  -6    2.72    0.67
   1   8  -6    2.95    0.68
   1   8  -5    2.46    0.60
   1   8  -5    2.30    0.57
   1   8  -4    3.57    0.66
   1   8  -4    3.57    0.68
   1   8  -3   -0.22    0.18
   1   8  -3    0.10    0.25
   1   8  -2    0.25    0.25
   1   8  -2    0.01    0.19
   1   8  -1    0.63    0.29
   1   8  -1    0.90    0.36
   1   8   0    8.34    0.65
   1   8   0    9.17    0.81
   1   8   1   -0.08    0.17
   1   8   1   -0.06    0.17
   1   8   2    2.74    0.41
   1   8   2    3.50    0.58
  -1  -8  -3    3.77    0.45
   1   8   3    3.44    0.40
   1   8   3    3.86    0.59
  -1  -8  -4    5.40    0.56
   1   8   4    5.04    0.45
   1   8   4    5.19    0.56
  -1  -8  -5    6.66    0.64
   1   8   5    7.09    0.62
  -1  -8  -6    2.70    0.53
   1   8   6    2.89    0.47
  -1  -8  -7    2.93    0.58
  -1  -8  -8    3.44    0.66
  -1  -8  -9    5.13    0.81
  -1  -8 -10    0.68    0.35
  -1  -8 -11    0.28    0.33
   1   9  -4    3.55    0.72
   1   9  -3    0.13    0.24
   1   9  -2    1.13    0.44
   1   9  -1    0.23    0.27
   1   9   0    0.66    0.33
   1   9   1    0.10    0.21
   1   9   2    0.08    0.20
   1   9   3    2.75    0.55
  -1  -9  -4    4.95    0.56
   1   9   4    4.41    0.67
  -1  -9  -5   10.89    0.83
   1   9   5   11.06    0.85
  -1  -9  -6    3.66    0.63
   1   9   6    3.46    0.55
  -1  -9  -7   -0.04    0.20
  -1  -9  -8    0.41    0.30
  -1  -9  -9    0.28    0.29
  -1  -9 -10    0.75    0.41
   1  10  -3    0.05    0.28
   1  10  -2   -0.07    0.23
   1  10  -1    1.29    0.48
   1  10   0    2.04    0.56
   1  10   1    2.40    0.59
   1  10   2    1.96    0.52
   1  10   3    0.20    0.25
   1  10   4    0.93    0.36
   1  10   5    3.15    0.61
  -1 -10  -6    2.22    0.53
   1  10   6    1.34    0.42
  -1 -10  -7    0.00    0.24
  -1 -10  -8    1.35    0.48
  -1 -10  -9    0.08    0.29
   1  11  -1    0.29    0.35
   1  11   0    1.51    0.54
   1  11   1    3.81    0.78
   1  11   2    1.15    0.46
   1  11   3    0.32    0.30
   1  11   4    0.18    0.28
   1  11   5    0.27    0.29
   1  11   6    0.66    0.36
  -1 -11  -8    0.33    0.33
   1  12   4   -0.04    0.25
  -2  11   5    0.06    0.23
  -2  11   4    1.06    0.44
  -2  11   3    0.85    0.38
  -2  11   2    0.16    0.27
  -2  11   1    0.27    0.31
  -2  10   8    1.42    0.48
  -2  10   7    1.53    0.48
  -2  10   6    0.76    0.36
  -2  10   5    1.52    0.45
  -2  10   4    1.48    0.45
  -2  10   3    1.49    0.45
  -2  10   2    0.35    0.29
  -2  10   1   -0.17    0.21
  -2  10   0    0.59    0.35
  -2  10  -1    1.48    0.50
  -2  10  -2    0.79    0.42
  -2  10  -2    0.92    0.43
  -2   9   9    0.09    0.23
  -2   9   8    3.88    0.73
  -2   9   7    1.49    0.46
  -2   9   6    0.18    0.24
  -2   9   5   -0.04    0.16
  -2   9   5    0.01    0.19
  -2   9   4   -0.02    0.18
  -2   9   3    1.79    0.46
  -2   9   2    1.83    0.46
  -2   9   1    0.10    0.23
  -2   9   0    0.71    0.34
  -2   9  -1    1.36    0.45
  -2   9  -2    2.71    0.61
  -2   9  -3    0.79    0.42
  -2   9  -4    0.63    0.42
  -2   9  -4    0.77    0.40
  -2   8  10    0.75    0.41
  -2   8   9    0.05    0.22
  -2   8   8    3.06    0.63
  -2   8   7    3.43    0.64
  -2   8   6    3.29    0.60
  -2   8   5    0.08    0.19
  -2   8   4    1.17    0.33
  -2   8   4    0.86    0.32
  -2   8   3    3.14    0.48
  -2   8   3    2.79    0.52
  -2   8   2    2.24    0.47
  -2   8   1    1.42    0.39
  -2   8   0    0.54    0.30
  -2   8  -1    2.47    0.53
  -2   8  -2    3.71    0.66
  -2   8  -3    3.88    0.70
  -2   8  -4    0.61    0.36
  -2   8  -5    0.51    0.36
  -2   8  -5    0.71    0.36
  -2   7  11    1.80    0.57
  -2   7  10    0.47    0.31
  -2   7   9   -0.03    0.20
  -2   7   8    0.27    0.24
  -2   7   7    0.78    0.33
  -2   7   6    5.59    0.64
  -2   7   5    0.06    0.16
  -2   7   4    0.03    0.16
  -2   7   3    0.61    0.23
  -2   7   3    0.51    0.25
  -2   7   2    4.77    0.43
  -2   7   2    4.81    0.55
  -2   7   1   15.64    0.93
  -2   7   0   -0.08    0.17
  -2   7  -1    7.82    0.71
  -2   7  -2    0.32    0.27
  -2   7  -3    2.48    0.55
  -2   7  -4    0.50    0.34
  -2   7  -5    0.01    0.26
  -2   7  -6   -0.04    0.29
  -2   7  -6   -0.04    0.19
  -2   7  -7    0.54    0.42
  -2   6  11    1.81    0.57
  -2   6  10    2.13    0.57
  -2   6   9    1.09    0.42
  -2   6   8    0.11    0.21
  -2   6   7   -0.05    0.16
  -2   6   4    2.24    0.41
  -2   6   3    5.20    0.48
  -2   6   2   29.24    0.97
  -2   6   2   28.37    1.13
  -2   6   1   50.78    1.12
  -2   6   1   48.69    1.48
  -2   6   0    5.55    0.33
  -2   6   0    5.93    0.57
  -2   6  -1    0.03    0.18
  -2   6  -2    4.38    0.63
  -2   6  -3    2.40    0.50
  -2   6  -4    5.67    0.67
  -2   6  -5    0.12    0.27
  -2   6  -6    1.11    0.45
  -2   6  -7    0.07    0.30
  -2   6  -8    1.61    0.58
  -2   5  11    0.39    0.31
  -2   5  10    0.39    0.29
  -2   5   9    0.02    0.18
  -2   5   8   -0.06    0.13
  -2   5   7   -0.01    0.14
  -2   5   6   19.15    1.05
  -2   5   4   14.18    0.79
  -2   5   3    4.39    0.42
  -2   5   2   16.74    0.71
  -2   5   1   50.41    1.08
  -2   5   1   49.53    1.38
  -2   5   0    1.33    0.20
  -2   5   0    1.00    0.28
  -2   5  -1    1.19    0.14
  -2   5  -1    1.20    0.32
  -2   5  -2    9.98    0.71
  -2   5  -3    9.35    0.74
  -2   5  -4    3.37    0.58
  -2   5  -5    4.05    0.67
  -2   5  -6   -0.06    0.22
  -2   5  -7    1.46    0.50
  -2   5  -8    1.74    0.56
  -2   5  -9    0.41    0.38
  -2   4  11    0.10    0.26
   2  -4 -11   -0.14    0.23
  -2   4  10    0.44    0.30
   2  -4 -10    0.88    0.41
  -2   4   9    3.77    0.68
  -2   4   8    1.90    0.46
  -2   4   7    1.10    0.35
  -2   4   6   52.34    1.66
  -2   4   5   30.50    1.19
  -2   4   4    5.93    0.51
  -2   4   3    3.24    0.36
  -2   4   2    0.16    0.12
  -2   4   1   30.69    0.81
  -2   4   0    5.91    0.32
  -2   4   0    6.19    0.48
  -2   4  -1   36.25    0.59
  -2   4  -1   34.22    1.12
  -2   4  -2    1.52    0.35
  -2   4  -3    0.67    0.28
  -2   4  -4   21.76    1.09
  -2   4  -5    3.18    0.57
  -2   4  -6   12.45    0.96
  -2   4  -7    2.54    0.59
  -2   4  -8    7.52    0.85
  -2   4  -9    2.63    0.67
  -2   3  11   -0.13    0.19
   2  -3 -11   -0.13    0.25
  -2   3  10    9.17    0.89
   2  -3 -10    8.07    0.88
  -2   3   9   15.82    1.10
   2  -3  -9   14.94    1.09
  -2   3   8   11.32    0.88
   2  -3  -8   10.47    0.86
  -2   3   7    4.09    0.61
   2  -3  -7    4.41    0.54
  -2   3   6    4.85    0.53
   2  -3  -6    4.77    0.54
  -2   3   4    8.30    0.57
  -2   3   3    1.92    0.31
  -2   3   2    3.45    0.31
  -2   3   1    0.23    0.10
  -2   3   0    0.17    0.09
  -2   3   0    0.14    0.11
  -2   3  -1    8.01    0.30
  -2   3  -1    8.33    0.52
  -2   3  -2    3.46    0.17
  -2   3  -2    3.65    0.38
  -2   3  -3   19.25    0.34
  -2   3  -3   17.61    0.85
  -2   3  -4   13.66    0.36
  -2   3  -4   12.56    0.78
  -2   3  -5   65.48    1.87
  -2   3  -6    3.12    0.56
  -2   3  -7   -0.12    0.17
  -2   3  -8    0.16    0.27
  -2   3  -9    0.04    0.30
  -2   3 -10    1.30    0.52
  -2   2  11    1.13    0.45
   2  -2 -11    1.21    0.48
  -2   2  10    6.65    0.77
   2  -2 -10    5.94    0.89
  -2   2   9   15.75    1.08
   2  -2  -9   15.32    1.09
  -2   2   8   12.80    0.92
   2  -2  -8   12.79    0.95
  -2   2   7    0.15    0.20
   2  -2  -7    0.41    0.26
  -2   2   6    3.91    0.47
   2  -2  -6    4.03    0.49
  -2   2   5    3.17    0.46
   2  -2  -5    2.56    0.43
  -2   2   4   51.25    1.33
   2  -2  -4   52.55    1.35
  -2   2   3    0.82    0.21
  -2   2   2    0.21    0.11
  -2   2   1    7.18    0.38
  -2   2   0    1.47    0.18
  -2   2   0    1.30    0.22
  -2   2  -1  131.61    1.20
  -2   2  -1  125.80    1.72
  -2   2  -2    1.21    0.15
  -2   2  -2    1.82    0.30
  -2   2  -3    7.24    0.30
  -2   2  -3    7.07    0.52
  -2   2  -4   19.74    0.55
  -2   2  -4   17.28    0.84
  -2   2  -5   45.94    0.94
  -2   2  -5   44.90    1.46
  -2   2  -6   11.01    0.54
  -2   2  -6   11.90    0.86
  -2   2  -7    0.86    0.36
  -2   2  -8    0.08    0.26
  -2   2  -9   -0.05    0.23
  -2   2 -10    4.54    0.83
  -2   2 -11    0.56    0.41
  -2   1  11    0.35    0.32
   2  -1 -11    0.38    0.35
  -2   1  10    0.32    0.27
   2  -1 -10    0.25    0.29
  -2   1   9    3.05    0.58
   2  -1  -9    3.27    0.64
  -2   1   8    9.08    0.77
  -2   1   7    0.19    0.19
   2  -1  -7    0.19    0.21
  -2   1   6    0.09    0.16
   2  -1  -6    0.11    0.18
  -2   1   5    0.07    0.12
   2  -1  -5    0.08    0.16
  -2   1   4    0.24    0.15
   2  -1  -4    0.32    0.17
  -2   1   3   49.76    1.16
   2  -1  -3   51.83    1.19
  -2   1   2    9.25    0.47
  -2   1   1   55.32    0.99
  -2   1   0  219.17    1.75
  -2   1  -1 1035.40    7.93
  -2   1  -1  979.14    9.78
  -2   1  -2   40.47    0.71
  -2   1  -2   42.35    0.96
  -2   1  -3    0.46    0.13
  -2   1  -3    0.55    0.19
  -2   1  -4    2.71    0.26
  -2   1  -4    2.17    0.36
  -2   1  -5    3.94    0.34
  -2   1  -5    3.02    0.46
  -2   1  -6    0.94    0.23
  -2   1  -6    0.69    0.29
  -2   1  -7    0.21    0.17
  -2   1  -7    0.04    0.22
  -2   1  -8    0.08    0.15
  -2   1  -8    0.08    0.23
  -2   1  -9   -0.09    0.23
  -2   1 -10    5.35    0.86
  -2   1 -11    1.41    0.53
   2   0 -11    0.34    0.35
  -2   0  10    0.13    0.26
   2   0 -10    0.78    0.41
  -2   0   9    0.31    0.25
   2   0  -9    0.24    0.29
  -2   0   8    4.42    0.64
   2   0  -8    3.53    0.62
  -2   0   7    0.34    0.20
   2   0  -7    0.35    0.25
  -2   0   6    2.51    0.42
   2   0  -6    2.11    0.44
  -2   0   5    2.66    0.40
   2   0  -5    2.74    0.44
  -2   0   4   40.72    1.13
   2   0  -4   43.18    1.22
  -2   0   3  152.52    1.98
   2   0  -3  158.11    2.06
  -2   0   2  144.59    1.74
   2   0  -2  150.50    1.76
  -2   0   1    2.15    0.24
  -2   0  -1  132.64    1.34
  -2   0  -1  149.10    1.35
  -2   0  -2    1.32    0.19
  -2   0  -2    1.42    0.21
  -2   0  -3   11.00    0.46
  -2   0  -3   10.96    0.50
  -2   0  -4   21.42    0.70
  -2   0  -4   22.83    0.81
  -2   0  -5   14.45    0.64
  -2   0  -5   14.93    0.75
  -2   0  -6    2.64    0.38
  -2   0  -6    2.50    0.44
  -2   0  -7    9.28    0.62
  -2   0  -7   10.26    0.78
  -2   0  -8    8.17    0.64
  -2   0  -8    8.15    0.76
  -2   0  -9    0.38    0.24
  -2   0  -9    0.13    0.26
  -2   0 -10    5.84    0.86
  -2   0 -11    5.78    0.93
   2   1 -10    1.55    0.54
   2   1  -9    0.23    0.29
  -2  -1   8    5.73    0.61
   2   1  -8    5.48    0.68
  -2  -1   7    1.61    0.37
   2   1  -7    2.69    0.54
  -2  -1   6    6.30    0.54
   2   1  -6    6.11    0.62
   2   1  -6    6.50    0.43
  -2  -1   5    2.94    0.42
   2   1  -5    2.76    0.46
   2   1  -5    2.65    0.29
  -2  -1   4   84.06    1.58
   2   1  -4   86.20    1.75
   2   1  -4   87.64    1.36
  -2  -1   3  145.44    1.90
   2   1  -3  151.54    2.06
   2   1  -3  145.27    1.69
  -2  -1   2   41.16    0.93
   2   1  -2   41.79    0.94
   2   1  -2   43.91    0.90
  -2  -1   1   64.88    1.07
   2   1  -1   74.27    1.03
   2   1  -1   73.00    1.11
  -2  -1   0   27.69    0.67
   2   1   0   31.47    0.71
  -2  -1  -1    0.43    0.13
  -2  -1  -1    0.52    0.09
   2   1   1    0.45    0.13
  -2  -1  -2    2.31    0.24
  -2  -1  -2    2.60    0.19
  -2  -1  -3   16.76    0.60
  -2  -1  -3   19.11    0.58
  -2  -1  -4    0.92    0.21
  -2  -1  -4    0.98    0.22
  -2  -1  -5    4.88    0.41
  -2  -1  -5    5.03    0.43
  -2  -1  -6   46.99    1.30
  -2  -1  -6   50.85    1.41
  -2  -1  -7   30.69    1.14
  -2  -1  -7   33.05    1.27
  -2  -1  -8   18.36    0.96
  -2  -1  -8   17.48    1.02
  -2  -1  -9    0.71    0.28
  -2  -1  -9    0.94    0.37
  -2  -1 -10    4.83    0.59
  -2  -1 -10    5.01    0.78
  -2  -1 -11    3.32    0.69
  -2  -1 -12    2.37    0.65
   2   2 -10    0.19    0.32
   2   2  -9   -0.10    0.23
   2   2  -8   10.63    0.94
  -2  -2   7   41.45    1.39
   2   2  -7   44.08    1.71
  -2  -2   6   42.82    1.31
   2   2  -6   41.84    1.54
   2   2  -6   43.64    1.18
  -2  -2   5   21.33    0.87
   2   2  -5   21.15    1.02
   2   2  -5   21.51    0.81
  -2  -2   4    6.67    0.47
   2   2  -4    5.92    0.52
   2   2  -4    6.45    0.45
  -2  -2   3    7.69    0.46
   2   2  -3    8.43    0.53
   2   2  -3    7.36    0.46
  -2  -2   2    6.09    0.38
   2   2  -2    6.01    0.40
   2   2  -2    7.20    0.43
  -2  -2   1    1.32    0.21
   2   2  -1    1.70    0.21
   2   2  -1    1.20    0.22
  -2  -2   0   97.77    1.29
   2   2   0  120.57    1.01
   2   2   0  120.90    1.55
  -2  -2  -1   20.91    0.63
   2   2   1   26.27    0.70
  -2  -2  -2   11.88    0.51
  -2  -2  -2   14.19    0.28
   2   2   2   14.42    0.51
  -2  -2  -3   95.94    1.51
  -2  -2  -3  111.67    1.16
   2   2   3  114.58    1.35
  -2  -2  -4    3.90    0.37
  -2  -2  -4    4.44    0.33
  -2  -2  -5    2.51    0.38
  -2  -2  -5    2.44    0.34
  -2  -2  -6   22.66    0.96
  -2  -2  -6   24.93    0.94
  -2  -2  -7   64.86    1.71
  -2  -2  -7   72.56    1.77
  -2  -2  -8   14.30    0.88
  -2  -2  -8   15.56    0.93
  -2  -2  -9    1.75    0.42
  -2  -2  -9    1.88    0.46
  -2  -2 -10    0.12    0.21
  -2  -2 -10   -0.05    0.22
  -2  -2 -11    0.19    0.26
  -2  -2 -11    0.17    0.28
  -2  -2 -12    0.07    0.26
  -2  -2 -12   -0.06    0.26
   2   3 -10   -0.11    0.26
   2   3  -9    1.37    0.50
   2   3  -8    4.45    0.75
   2   3  -7    6.56    0.72
  -2  -3   6   23.09    0.95
   2   3  -6   22.69    1.19
   2   3  -6   24.11    1.00
  -2  -3   5    3.80    0.40
   2   3  -5    4.31    0.53
   2   3  -5    4.64    0.46
  -2  -3   4    2.00    0.31
   2   3  -4    2.10    0.40
   2   3  -4    2.11    0.36
  -2  -3   3    0.15    0.13
   2   3  -3    0.33    0.19
   2   3  -3    0.19    0.16
  -2  -3   2   48.92    1.02
   2   3  -2   54.58    1.19
   2   3  -2   55.28    1.29
  -2  -3   1    0.27    0.13
   2   3  -1    0.99    0.19
   2   3  -1    0.37    0.16
  -2  -3   0    2.53    0.27
   2   3   0    2.68    0.20
   2   3   0    2.72    0.30
  -2  -3  -1    8.53    0.44
   2   3   1   11.15    0.22
   2   3   1   10.80    0.52
  -2  -3  -2   35.57    0.92
   2   3   2   43.26    0.98
  -2  -3  -3  137.96    1.92
  -2  -3  -3  162.40    1.21
   2   3   3  165.30    1.82
  -2  -3  -4   54.12    0.94
   2   3   4   53.31    1.00
  -2  -3  -5    4.68    0.46
  -2  -3  -5    5.14    0.38
   2   3   5    5.18    0.32
  -2  -3  -6    5.26    0.52
  -2  -3  -6    5.31    0.45
  -2  -3  -7   22.62    1.07
  -2  -3  -7   22.55    0.96
  -2  -3  -8    9.57    0.75
  -2  -3  -8   11.29    0.77
  -2  -3  -9    1.40    0.40
  -2  -3  -9    2.00    0.45
  -2  -3 -10    0.32    0.26
  -2  -3 -10    0.11    0.22
  -2  -3 -11   -0.07    0.21
  -2  -3 -11    0.03    0.23
  -2  -3 -12    0.59    0.36
  -2  -3 -12    0.27    0.34
   2   4  -9    1.66    0.54
   2   4  -8   -0.04    0.25
   2   4  -7    0.54    0.32
   2   4  -6    6.18    0.68
   2   4  -6    6.02    0.59
   2   4  -5    0.57    0.30
   2   4  -5    0.76    0.28
  -2  -4   4    8.11    0.51
   2   4  -4    9.96    0.72
   2   4  -4    9.65    0.67
  -2  -4   3    3.22    0.33
   2   4  -3    3.32    0.47
   2   4  -3    3.03    0.46
  -2  -4   2   20.34    0.68
   2   4  -2   23.44    0.86
   2   4  -2   25.18    0.98
  -2  -4   1   74.77    1.24
   2   4  -1   87.64    1.41
   2   4  -1   89.97    1.77
  -2  -4   0    6.65    0.40
   2   4   0    7.73    0.37
   2   4   0    9.04    0.55
  -2  -4  -1   37.97    0.94
   2   4   1   43.15    0.64
   2   4   1   47.45    1.20
  -2  -4  -2   36.64    0.98
   2   4   2   36.90    0.46
   2   4   2   45.22    1.13
  -2  -4  -3  188.11    2.37
   2   4   3  230.15    2.44
  -2  -4  -4   25.36    0.95
   2   4   4   30.85    0.87
  -2  -4  -5    3.36    0.40
  -2  -4  -5    3.45    0.31
   2   4   5    3.58    0.32
  -2  -4  -6    4.93    0.51
  -2  -4  -6    5.97    0.46
   2   4   6    6.17    0.38
  -2  -4  -7    0.53    0.25
  -2  -4  -7    0.62    0.23
  -2  -4  -8    0.55    0.27
  -2  -4  -8    0.51    0.26
  -2  -4  -9    0.51    0.29
  -2  -4  -9    0.49    0.27
  -2  -4 -10    0.75    0.33
  -2  -4 -10    1.00    0.35
  -2  -4 -11    0.04    0.23
  -2  -4 -11    0.03    0.23
  -2  -4 -12    4.84    0.82
  -2  -4 -12    6.38    0.92
   2   5  -8    1.58    0.53
   2   5  -7   -0.01    0.25
   2   5  -6    6.71    0.73
   2   5  -6    6.01    0.63
   2   5  -5    0.00    0.21
   2   5  -5    0.15    0.20
   2   5  -4    0.02    0.20
   2   5  -4   -0.02    0.17
   2   5  -3   -0.01    0.19
   2   5  -3    0.06    0.17
  -2  -5   2   16.59    0.63
   2   5  -2   20.78    0.87
   2   5  -2   20.53    0.98
  -2  -5   1   31.51    0.85
   2   5  -1   38.58    1.04
   2   5  -1   39.97    1.31
  -2  -5   0   36.89    0.94
   2   5   0   39.00    0.91
   2   5   0   41.47    1.29
  -2  -5  -1   19.01    0.72
   2   5   1   19.24    0.55
   2   5   1   23.61    0.95
  -2  -5  -2    2.52    0.35
   2   5   2    2.37    0.20
   2   5   2    2.91    0.35
  -2  -5  -3   19.90    0.83
   2   5   3   22.20    0.51
   2   5   3   23.96    0.90
  -2  -5  -4    3.51    0.40
   2   5   4    4.13    0.39
  -2  -5  -5    0.42    0.22
   2   5   5    0.20    0.16
  -2  -5  -6    0.61    0.26
   2   5   6    0.57    0.20
  -2  -5  -7    0.62    0.29
  -2  -5  -7    0.32    0.20
  -2  -5  -8   10.71    0.84
  -2  -5  -8   12.27    0.76
  -2  -5  -9    5.48    0.65
  -2  -5  -9    6.70    0.63
  -2  -5 -10    2.28    0.55
  -2  -5 -10    3.56    0.60
  -2  -5 -11    0.05    0.23
  -2  -5 -11    0.51    0.32
  -2  -5 -12    1.07    0.46
  -2  -5 -12    0.89    0.40
   2   6  -7   -0.15    0.23
   2   6  -6    2.91    0.61
   2   6  -6    2.91    0.58
   2   6  -5    8.78    0.80
   2   6  -5    8.89    0.79
   2   6  -4    2.65    0.51
   2   6  -4    1.88    0.45
   2   6  -3    3.85    0.56
   2   6  -3    4.57    0.55
   2   6  -2    5.70    0.54
   2   6  -2    5.58    0.59
  -2  -6   1   15.88    0.63
   2   6  -1   18.46    0.81
   2   6  -1   17.66    0.97
  -2  -6   0   21.85    0.77
   2   6   0   23.00    0.80
   2   6   0   25.54    1.13
  -2  -6  -1    7.48    0.50
   2   6   1    7.70    0.44
   2   6   1    8.19    0.64
  -2  -6  -2    2.38    0.37
   2   6   2    2.47    0.25
   2   6   2    2.83    0.45
  -2  -6  -3    0.11    0.17
   2   6   3    0.21    0.11
   2   6   3    0.13    0.16
  -2  -6  -4    2.94    0.46
   2   6   4    3.85    0.43
  -2  -6  -5    7.09    0.62
   2   6   5    8.85    0.60
  -2  -6  -6    2.83    0.51
   2   6   6    3.13    0.38
  -2  -6  -7    2.40    0.49
  -2  -6  -8   11.35    0.90
  -2  -6  -9    9.22    0.87
  -2  -6 -10    7.80    0.85
  -2  -6 -11   -0.05    0.23
  -2  -6 -12    0.17    0.29
   2   7  -6    2.19    0.56
   2   7  -6    2.79    0.61
   2   7  -5    6.08    0.73
   2   7  -5    6.73    0.75
   2   7  -4   14.40    1.00
   2   7  -4   12.87    0.98
   2   7  -3    1.92    0.44
   2   7  -3    2.02    0.49
   2   7  -2    0.73    0.30
   2   7  -2    0.62    0.30
   2   7  -1    1.10    0.31
   2   7  -1    1.04    0.35
   2   7   0    2.07    0.36
   2   7   0    1.98    0.44
  -2  -7  -1    1.26    0.28
   2   7   1    1.29    0.27
   2   7   1    1.28    0.36
  -2  -7  -2   12.22    0.69
   2   7   2   10.95    0.52
   2   7   2   14.31    0.88
  -2  -7  -3    0.41    0.23
   2   7   3    0.54    0.16
   2   7   3    0.28    0.23
  -2  -7  -4    7.12    0.63
   2   7   4    7.34    0.62
  -2  -7  -5   13.39    0.85
   2   7   5   16.22    0.87
  -2  -7  -6    1.32    0.38
   2   7   6    1.47    0.34
  -2  -7  -7    1.23    0.39
   2   7   7    1.55    0.34
  -2  -7  -8    1.53    0.44
  -2  -7  -9    5.62    0.82
  -2  -7 -10    5.68    0.85
  -2  -7 -11   -0.02    0.24
  -2  -7 -12    0.10    0.27
   2   8  -5    1.54    0.50
   2   8  -5    1.17    0.45
   2   8  -4    2.18    0.53
   2   8  -4    4.24    0.73
   2   8  -3    1.48    0.43
   2   8  -3    1.88    0.51
   2   8  -2    0.60    0.30
   2   8  -2    0.79    0.35
   2   8  -1    0.56    0.32
   2   8   0    6.36    0.70
   2   8   1    4.18    0.65
  -2  -8  -2    1.36    0.31
   2   8   2    1.85    0.45
  -2  -8  -3    1.49    0.35
   2   8   3    1.57    0.41
  -2  -8  -4    7.49    0.66
   2   8   4    5.58    0.59
  -2  -8  -5    8.05    0.71
   2   8   5    9.35    0.74
  -2  -8  -6   18.67    1.10
   2   8   6   20.18    1.04
  -2  -8  -7    1.24    0.42
  -2  -8  -8    0.68    0.34
  -2  -8  -9    1.20    0.43
  -2  -8 -10    0.88    0.42
  -2  -8 -11   -0.05    0.24
   2   9  -4    0.22    0.32
   2   9  -3    0.29    0.29
   2   9  -2    1.01    0.42
   2   9  -1   -0.04    0.22
   2   9   0    4.55    0.76
   2   9   1    5.93    0.71
   2   9   2    5.51    0.80
   2   9   3    3.98    0.65
  -2  -9  -4    0.42    0.26
   2   9   4    0.18    0.23
  -2  -9  -5    8.20    0.76
   2   9   5    9.97    0.84
  -2  -9  -6    1.51    0.44
   2   9   6    1.49    0.42
  -2  -9  -7    1.48    0.44
  -2  -9  -8    0.94    0.38
  -2  -9  -9    0.14    0.27
  -2  -9 -10    0.59    0.36
   2  10  -2    0.44    0.36
   2  10  -1    0.13    0.28
   2  10   0    0.08    0.25
   2  10   1    4.54    0.80
   2  10   2    3.06    0.66
   2  10   3    2.42    0.57
   2  10   4    0.07    0.24
  -2 -10  -5    0.40    0.28
   2  10   5    0.39    0.31
  -2 -10  -6    2.37    0.54
   2  10   6    2.28    0.54
  -2 -10  -7    0.21    0.28
  -2 -10  -8    0.23    0.30
  -2 -10  -9    0.20    0.30
  -2 -10 -10    0.88    0.43
   2  11   0    0.40    0.35
   2  11   1    1.35    0.52
   2  11   2    1.05    0.47
   2  11   3    0.41    0.34
   2  11   4    0.29    0.31
   2  11   5    0.18    0.30
   2  11   6    0.69    0.40
  -2 -11  -7    0.52    0.36
  -2 -11  -8    0.12    0.31
   2  12   4    0.25    0.33
  -3  11   4    0.74    0.40
  -3  11   3    1.00    0.43
  -3  11   2    0.13    0.32
  -3  10   7    2.69    0.61
  -3  10   6    0.89    0.40
  -3  10   5    0.10    0.26
  -3  10   4   -0.08    0.21
  -3  10   3    0.55    0.34
  -3  10   2    1.15    0.44
  -3  10   1    0.16    0.29
  -3  10   0    0.02    0.28
  -3  10  -1    0.04    0.28
  -3   9   8    0.63    0.38
  -3   9   7    3.43    0.67
  -3   9   6    1.39    0.43
  -3   9   5    0.72    0.32
  -3   9   5    1.05    0.38
  -3   9   4    0.00    0.20
  -3   9   3    0.00    0.21
  -3   9   2    2.25    0.54
  -3   9   1    0.06    0.21
  -3   9   0    0.19    0.25
  -3   9  -1    0.76    0.38
  -3   9  -2    1.58    0.52
  -3   9  -3    1.32    0.51
  -3   9  -4    0.18    0.34
  -3   8   9    0.04    0.22
  -3   8   8    0.39    0.30
  -3   8   7    0.78    0.35
  -3   8   6    0.66    0.32
  -3   8   5    0.04    0.18
  -3   8   4    0.35    0.25
  -3   8   4    0.63    0.30
  -3   8   3    1.27    0.40
  -3   8   2    1.84    0.47
  -3   8   1    8.81    0.82
  -3   8   0    1.23    0.40
  -3   8  -1    0.56    0.33
  -3   8  -2    3.18    0.63
  -3   8  -3    2.91    0.64
  -3   8  -4    2.32    0.60
  -3   8  -5    0.05    0.31
  -3   7  10    1.00    0.45
  -3   7   9    0.28    0.27
  -3   7   8    1.27    0.43
  -3   7   7    1.35    0.43
  -3   7   6    0.62    0.30
  -3   7   5    0.89    0.32
  -3   7   4    1.32    0.35
  -3   7   3    0.54    0.23
  -3   7   3    0.41    0.25
  -3   7   2    8.25    0.59
  -3   7   2    7.57    0.71
  -3   7   1   11.46    0.86
  -3   7   0   13.74    0.94
  -3   7  -1    0.12    0.21
  -3   7  -2    1.02    0.38
  -3   7  -3    0.93    0.39
  -3   7  -4    2.01    0.55
  -3   7  -5    0.70    0.40
  -3   7  -6    0.10    0.29
  -3   6  10    0.08    0.24
  -3   6   9    0.10    0.23
  -3   6   8    0.61    0.34
  -3   6   7    0.15    0.22
  -3   6   6    0.99    0.35
  -3   6   5   18.26    1.04
  -3   6   4    8.95    0.69
  -3   6   3    0.04    0.15
  -3   6   2    3.57    0.40
  -3   6   2    3.46    0.54
  -3   6   1   18.12    0.75
  -3   6   1   17.77    0.98
  -3   6   0    5.31    0.58
  -3   6  -1    5.66    0.61
  -3   6  -2    1.37    0.40
  -3   6  -3    0.13    0.23
  -3   6  -4    0.56    0.33
  -3   6  -5    1.45    0.47
  -3   6  -6    0.02    0.27
  -3   6  -7    0.75    0.41
  -3   5  11   -0.09    0.24
  -3   5  10    0.25    0.27
  -3   5   9    0.89    0.38
  -3   5   8    3.77    0.66
  -3   5   7    0.32    0.23
  -3   5   6    3.45    0.58
  -3   5   5   53.21    1.70
  -3   5   4   27.97    1.16
  -3   5   3    5.05    0.49
  -3   5   2    1.16    0.27
  -3   5   1    9.11    0.54
  -3   5   1   10.34    0.71
  -3   5   0    3.90    0.33
  -3   5   0    4.11    0.49
  -3   5  -1    2.47    0.25
  -3   5  -1    2.12    0.43
  -3   5  -2    1.12    0.33
  -3   5  -3    0.47    0.28
  -3   5  -4   12.69    0.94
  -3   5  -5    7.46    0.79
  -3   5  -6    2.28    0.57
  -3   5  -7    0.19    0.30
  -3   5  -8    0.43    0.38
  -3   4  11   -0.08    0.24
  -3   4  10    0.30    0.28
  -3   4   9   17.12    1.20
  -3   4   8    1.91    0.49
  -3   4   7    9.87    0.83
  -3   4   6    1.86    0.43
  -3   4   5   32.86    1.31
  -3   4   4   22.77    1.02
  -3   4   3    0.34    0.18
  -3   4   2    0.66    0.21
  -3   4   1    0.78    0.21
  -3   4   0    4.31    0.34
  -3   4   0    4.06    0.44
  -3   4  -1    1.59    0.23
  -3   4  -1    1.37    0.33
  -3   4  -2    0.54    0.14
  -3   4  -2    0.45    0.23
  -3   4  -3    5.96    0.60
  -3   4  -4    6.09    0.65
  -3   4  -5   18.59    1.12
  -3   4  -6   11.24    0.95
  -3   4  -7    0.18    0.30
  -3   4  -8   -0.07    0.26
  -3   4  -9   -0.04    0.28
  -3   3  11    0.04    0.26
   3  -3 -11    0.53    0.39
  -3   3  10    1.31    0.47
   3  -3 -10    1.12    0.44
  -3   3   9   11.74    1.00
   3  -3  -9   11.98    1.02
  -3   3   8   10.53    0.89
  -3   3   7    1.46    0.39
  -3   3   6    0.71    0.29
  -3   3   5    3.02    0.49
  -3   3   4    0.46    0.21
  -3   3   3    2.41    0.38
  -3   3   2    1.36    0.27
  -3   3   1    1.05    0.22
  -3   3   0   57.91    1.12
  -3   3   0   58.68    1.41
  -3   3  -1  178.38    1.78
  -3   3  -1  174.89    2.48
  -3   3  -2   95.90    1.20
  -3   3  -2  102.81    1.99
  -3   3  -3    7.87    0.35
  -3   3  -3    7.61    0.62
  -3   3  -4    1.36    0.19
  -3   3  -4    1.03    0.34
  -3   3  -5   10.66    0.82
  -3   3  -6    5.25    0.65
  -3   3  -7    0.03    0.24
  -3   3  -8    0.21    0.29
  -3   3  -9   -0.12    0.26
  -3   3 -10    0.22    0.38
  -3   2  11    1.49    0.52
   3  -2 -11    1.79    0.58
  -3   2  10    1.71    0.52
   3  -2 -10    1.93    0.55
  -3   2   9    5.93    0.73
   3  -2  -9    6.39    0.77
  -3   2   8    6.63    0.72
   3  -2  -8    7.52    0.78
  -3   2   7    3.34    0.56
   3  -2  -7    3.24    0.57
  -3   2   6   16.54    0.96
   3  -2  -6   17.92    1.01
  -3   2   5    1.65    0.36
  -3   2   4    2.32    0.39
  -3   2   3   27.78    0.99
  -3   2   2   17.99    0.74
  -3   2   1    5.29    0.39
  -3   2   0    7.41    0.42
  -3   2  -1   31.47    0.77
  -3   2  -1   30.27    0.95
  -3   2  -2  148.64    1.59
  -3   2  -2  151.77    2.20
  -3   2  -3    2.04    0.23
  -3   2  -3    2.38    0.39
  -3   2  -4    1.75    0.25
  -3   2  -4    1.74    0.37
  -3   2  -5   15.34    0.60
  -3   2  -5   16.65    0.93
  -3   2  -6    3.26    0.34
  -3   2  -6    2.23    0.49
  -3   2  -7    0.11    0.25
  -3   2  -8    0.07    0.26
  -3   2  -9    0.35    0.31
  -3   2 -10    2.34    0.65
  -3   1  11    2.49    0.64
   3  -1 -11    2.35    0.65
  -3   1  10   -0.08    0.20
   3  -1 -10    0.14    0.28
  -3   1   9    1.05    0.39
   3  -1  -9    1.26    0.44
  -3   1   8    0.51    0.29
   3  -1  -8    0.54    0.31
  -3   1   7    5.66    0.62
   3  -1  -7    4.92    0.59
  -3   1   6    9.16    0.71
   3  -1  -6    9.30    0.75
  -3   1   5    2.38    0.42
   3  -1  -5    2.09    0.42
  -3   1   4   18.43    0.86
   3  -1  -4   19.11    0.88
  -3   1   2  173.05    2.23
  -3   1   1    5.98    0.41
  -3   1   0    1.35    0.23
  -3   1  -1   73.78    1.21
  -3   1  -1   76.21    1.33
  -3   1  -2    0.46    0.15
  -3   1  -2    0.48    0.17
  -3   1  -3    2.49    0.27
  -3   1  -3    2.53    0.36
  -3   1  -4    0.16    0.13
  -3   1  -4    0.15    0.16
  -3   1  -5    2.70    0.33
  -3   1  -5    2.79    0.46
  -3   1  -6    9.71    0.57
  -3   1  -6    8.65    0.71
  -3   1  -7    9.32    0.61
  -3   1  -7    9.02    0.77
  -3   1  -8    1.41    0.44
  -3   1  -9    1.60    0.49
  -3   1 -10    3.62    0.74
  -3   1 -11    4.78    0.87
  -3   0  10    2.39    0.58
   3   0 -10    2.58    0.65
  -3   0   9    1.59    0.45
   3   0  -9    1.55    0.48
  -3   0   8    4.04    0.64
   3   0  -8    3.03    0.60
  -3   0   7   17.81    1.03
   3   0  -7   17.68    1.09
  -3   0   6   17.62    0.96
   3   0  -6   19.16    1.05
  -3   0   5   24.65    1.05
   3   0  -5   27.14    1.14
  -3   0   4    6.10    0.51
   3   0  -4    6.37    0.53
  -3   0   3  117.21    1.96
   3   0  -3  120.55    1.96
  -3   0   2   89.11    1.59
  -3   0   1   11.10    0.54
  -3   0   0   33.05    0.87
  -3   0  -1   11.89    0.52
  -3   0  -1   13.59    0.50
  -3   0  -2   22.86    0.71
  -3   0  -2   24.75    0.71
  -3   0  -3    0.33    0.15
  -3   0  -3    0.46    0.17
  -3   0  -4    0.01    0.11
  -3   0  -4   -0.03    0.12
  -3   0  -5    4.25    0.40
  -3   0  -5    3.60    0.42
  -3   0  -6    1.78    0.33
  -3   0  -6    1.81    0.39
  -3   0  -7   18.52    0.87
  -3   0  -7   20.35    1.07
  -3   0  -8   19.15    0.95
  -3   0  -8   17.69    1.08
  -3   0  -9   -0.03    0.17
  -3   0  -9    0.05    0.25
  -3   0 -10    1.39    0.48
  -3   0 -11    0.75    0.42
   3   1 -10    0.57    0.38
  -3  -1   9    0.09    0.23
   3   1  -9    0.07    0.25
  -3  -1   8    0.77    0.33
   3   1  -8    0.65    0.33
  -3  -1   7   20.89    1.09
   3   1  -7   23.44    1.27
  -3  -1   6    8.37    0.67
   3   1  -6    8.26    0.73
  -3  -1   5   22.24    0.99
   3   1  -5   23.06    1.07
   3   1  -5   22.33    0.81
  -3  -1   4    6.56    0.52
   3   1  -4    6.55    0.55
   3   1  -4    6.41    0.45
  -3  -1   3   49.35    1.27
   3   1  -3   50.48    1.28
   3   1  -3   51.64    1.16
  -3  -1   2   26.53    0.88
   3   1  -2   27.55    0.84
   3   1  -2   28.05    0.84
  -3  -1   1   28.94    0.87
   3   1  -1   30.02    0.85
   3   1   0   22.54    0.73
  -3  -1  -2   26.19    0.79
  -3  -1  -2   28.90    0.65
  -3  -1  -3   10.71    0.55
  -3  -1  -3   11.14    0.47
  -3  -1  -4   14.80    0.66
  -3  -1  -4   16.34    0.65
  -3  -1  -5   12.00    0.65
  -3  -1  -5   11.40    0.62
  -3  -1  -6    3.11    0.44
  -3  -1  -6    3.27    0.47
  -3  -1  -7   33.10    1.20
  -3  -1  -7   35.56    1.32
  -3  -1  -8   28.51    1.19
  -3  -1  -8   31.45    1.35
  -3  -1  -9    1.53    0.39
  -3  -1  -9    1.00    0.37
  -3  -1 -10    0.16    0.23
  -3  -1 -10    0.08    0.25
  -3  -1 -11    1.33    0.48
  -3  -1 -12    0.58    0.40
   3   2 -10    1.46    0.54
   3   2  -9    1.35    0.49
   3   2  -8    2.57    0.59
  -3  -2   7   13.39    0.89
   3   2  -7   13.24    0.99
  -3  -2   6    4.49    0.50
   3   2  -6    4.62    0.67
  -3  -2   5    3.74    0.45
   3   2  -5    3.37    0.53
   3   2  -5    3.78    0.42
  -3  -2   4    0.11    0.15
   3   2  -4    0.24    0.20
   3   2  -4    0.22    0.17
  -3  -2   3    2.49    0.37
   3   2  -3    2.72    0.39
   3   2  -3    2.37    0.36
  -3  -2   2   55.69    1.27
   3   2  -2   61.35    1.26
   3   2  -2   61.18    1.34
  -3  -2   1   33.88    0.95
   3   2  -1   37.52    0.85
   3   2  -1   37.15    1.01
  -3  -2   0    2.36    0.28
   3   2   0    2.81    0.31
  -3  -2  -1    5.30    0.39
   3   2   1    6.43    0.42
  -3  -2  -2   68.86    1.34
  -3  -2  -2   69.08    0.75
   3   2   2   84.79    1.42
  -3  -2  -3   95.46    1.64
  -3  -2  -3  106.42    1.17
  -3  -2  -4  116.31    1.91
  -3  -2  -4  133.34    1.60
  -3  -2  -5    9.07    0.60
  -3  -2  -5    9.35    0.53
  -3  -2  -6    3.76    0.44
  -3  -2  -6    4.33    0.43
  -3  -2  -7    8.44    0.66
  -3  -2  -7    9.40    0.67
  -3  -2  -8    5.27    0.57
  -3  -2  -8    6.49    0.64
  -3  -2  -9   -0.01    0.17
  -3  -2  -9   -0.08    0.18
  -3  -2 -10   -0.10    0.21
  -3  -2 -10    0.30    0.27
  -3  -2 -11    0.11    0.22
  -3  -2 -11    0.40    0.33
  -3  -2 -12    0.40    0.36
   3   3  -9    1.70    0.55
   3   3  -8    0.43    0.32
   3   3  -7    5.88    0.70
  -3  -3   6    7.94    0.66
   3   3  -6    9.29    0.80
  -3  -3   5   25.53    1.03
   3   3  -5   28.95    1.25
   3   3  -5   28.43    1.10
  -3  -3   4   19.92    0.88
   3   3  -4   20.96    0.99
   3   3  -4   22.11    0.95
  -3  -3   3    5.00    0.44
   3   3  -3    5.80    0.49
   3   3  -3    5.51    0.49
  -3  -3   2    3.36    0.37
   3   3  -2    3.56    0.35
   3   3  -2    3.66    0.41
  -3  -3   1    4.85    0.40
   3   3  -1    5.77    0.37
   3   3  -1    5.70    0.46
  -3  -3   0   15.05    0.65
   3   3   0   18.36    0.49
   3   3   0   17.72    0.74
  -3  -3  -1    3.31    0.35
   3   3   1    3.64    0.36
  -3  -3  -2    3.93    0.36
   3   3   2    5.09    0.40
  -3  -3  -3   58.89    1.36
  -3  -3  -3   73.33    0.71
   3   3   3   72.52    1.38
  -3  -3  -4   44.26    1.24
  -3  -3  -4   51.23    0.86
   3   3   4   50.86    1.14
  -3  -3  -5    8.71    0.61
  -3  -3  -5   11.00    0.52
  -3  -3  -6    0.03    0.17
  -3  -3  -6    0.12    0.15
  -3  -3  -7    9.53    0.72
  -3  -3  -7   10.65    0.67
  -3  -3  -8    6.51    0.63
  -3  -3  -8    6.55    0.60
  -3  -3  -9    0.23    0.23
  -3  -3  -9    0.36    0.26
  -3  -3 -10    1.29    0.41
  -3  -3 -10    1.71    0.45
  -3  -3 -11    0.62    0.33
  -3  -3 -11    0.36    0.31
  -3  -3 -12    0.20    0.30
  -3  -3 -12    0.18    0.31
   3   4  -9    1.65    0.55
   3   4  -8    0.16    0.29
   3   4  -7    0.62    0.35
   3   4  -6    4.56    0.69
   3   4  -5   10.08    0.78
   3   4  -5   10.21    0.75
  -3  -4   4    1.68    0.33
   3   4  -4    1.27    0.35
   3   4  -4    1.61    0.37
  -3  -4   3   -0.05    0.15
   3   4  -3    0.05    0.17
   3   4  -3   -0.07    0.15
  -3  -4   2    6.69    0.50
   3   4  -2    8.27    0.54
   3   4  -2    7.76    0.61
  -3  -4   1   36.22    1.03
   3   4  -1   40.84    0.97
   3   4  -1   40.60    1.27
  -3  -4   0   37.23    1.04
   3   4   0   44.56    0.82
   3   4   0   44.95    1.29
  -3  -4  -1   17.54    0.74
   3   4   1   23.03    0.39
   3   4   1   23.57    0.92
  -3  -4  -2   26.20    0.92
   3   4   2   32.65    1.04
  -3  -4  -3    1.90    0.33
   3   4   3    2.43    0.36
  -3  -4  -4   43.86    1.30
  -3  -4  -4   50.75    0.72
   3   4   4   52.43    1.25
  -3  -4  -5    0.02    0.14
  -3  -4  -5    0.08    0.11
   3   4   5    0.07    0.14
  -3  -4  -6    0.54    0.26
  -3  -4  -6    0.49    0.18
  -3  -4  -7   -0.12    0.14
  -3  -4  -7   -0.06    0.14
  -3  -4  -8    1.52    0.41
  -3  -4  -8    1.31    0.34
  -3  -4  -9    9.44    0.83
  -3  -4  -9   11.63    0.81
  -3  -4 -10    1.05    0.37
  -3  -4 -10    1.75    0.45
  -3  -4 -11    0.50    0.33
  -3  -4 -11    0.55    0.32
  -3  -4 -12    0.24    0.31
  -3  -4 -12    0.68    0.37
   3   5  -8    0.29    0.34
   3   5  -7    0.23    0.29
   3   5  -6   -0.16    0.19
   3   5  -5   12.74    0.91
   3   5  -5   11.53    0.86
   3   5  -4    3.99    0.58
   3   5  -4    3.59    0.57
  -3  -5   3    5.54    0.48
   3   5  -3    5.61    0.55
   3   5  -3    5.97    0.60
  -3  -5   2   10.93    0.61
   3   5  -2   12.99    0.70
   3   5  -2   13.70    0.84
  -3  -5   1   20.93    0.82
   3   5  -1   27.37    0.87
   3   5  -1   26.12    1.12
  -3  -5   0   39.52    1.11
   3   5   0   49.25    0.96
   3   5   0   49.60    1.48
  -3  -5  -1    4.60    0.43
   3   5   1    5.30    0.26
   3   5   1    5.53    0.51
  -3  -5  -2    1.03    0.27
   3   5   2    1.17    0.30
  -3  -5  -3    0.26    0.18
   3   5   3    0.43    0.21
  -3  -5  -4    5.82    0.54
   3   5   4    8.01    0.56
  -3  -5  -5    8.90    0.69
   3   5   5    9.55    0.60
  -3  -5  -6    0.48    0.25
  -3  -5  -6    0.52    0.18
   3   5   6    0.40    0.20
  -3  -5  -7    7.01    0.68
  -3  -5  -7    8.02    0.53
   3   5   7    8.33    0.53
  -3  -5  -8    0.06    0.20
  -3  -5  -8    0.25    0.18
  -3  -5  -9    7.12    0.74
  -3  -5 -10    6.26    0.75
  -3  -5 -11    1.00    0.42
  -3  -5 -12    2.09    0.58
   3   6  -7   -0.03    0.29
   3   6  -6   -0.12    0.22
   3   6  -5    6.14    0.70
   3   6  -5    6.55    0.73
   3   6  -4    7.57    0.71
   3   6  -4    7.69    0.75
   3   6  -3    8.87    0.69
   3   6  -3    8.88    0.76
   3   6  -2    2.64    0.43
   3   6  -2    2.46    0.50
  -3  -6   1    6.74    0.50
   3   6  -1    7.67    0.53
   3   6  -1    8.48    0.71
  -3  -6   0   19.81    0.83
   3   6   0   23.46    0.76
   3   6   0   23.38    1.12
  -3  -6  -1   13.04    0.70
   3   6   1   14.54    0.50
   3   6   1   15.70    0.90
  -3  -6  -2    2.37    0.40
   3   6   2    3.48    0.53
  -3  -6  -3    8.05    0.62
   3   6   3   10.09    0.70
  -3  -6  -4    1.37    0.35
   3   6   4    1.78    0.37
  -3  -6  -5   14.57    0.89
   3   6   5   16.64    0.84
  -3  -6  -6    5.12    0.57
   3   6   6    6.70    0.56
  -3  -6  -7    3.46    0.59
   3   6   7    4.49    0.46
  -3  -6  -8    7.60    0.77
  -3  -6  -9    4.62    0.73
  -3  -6 -10    7.73    0.85
  -3  -6 -11    0.76    0.39
  -3  -6 -12    0.12    0.27
   3   7  -6    0.03    0.26
   3   7  -5    6.73    0.76
   3   7  -5    6.75    0.77
   3   7  -4    3.92    0.63
   3   7  -4    3.81    0.68
   3   7  -3    6.33    0.63
   3   7  -3    5.86    0.68
   3   7  -2    0.93    0.30
   3   7  -2    0.56    0.31
   3   7  -1    0.83    0.34
  -3  -7   0    3.49    0.42
   3   7   0    3.88    0.62
  -3  -7  -1    7.77    0.58
   3   7   1    9.21    0.76
  -3  -7  -2    2.27    0.41
   3   7   2    2.74    0.51
  -3  -7  -3    7.04    0.60
   3   7   3    8.29    0.70
  -3  -7  -4   16.44    0.93
   3   7   4   20.52    1.04
  -3  -7  -5    5.42    0.60
   3   7   5    7.01    0.63
  -3  -7  -6   11.21    0.86
   3   7   6   12.19    0.78
  -3  -7  -7    7.70    0.76
   3   7   7    8.66    0.65
  -3  -7  -8    0.52    0.30
  -3  -7  -9    2.33    0.56
  -3  -7 -10    1.47    0.48
  -3  -7 -11    0.06    0.26
  -3  -7 -12    0.15    0.32
   3   8  -5    1.28    0.48
   3   8  -4    2.09    0.56
   3   8  -3    2.70    0.60
   3   8  -2    0.04    0.22
   3   8  -1    5.13    0.77
   3   8   0   -0.02    0.19
   3   8   1    2.74    0.56
  -3  -8  -2    0.37    0.23
   3   8   2    0.43    0.28
  -3  -8  -3    5.06    0.54
   3   8   3    6.07    0.66
  -3  -8  -4    2.65    0.49
   3   8   4    2.77    0.53
  -3  -8  -5   10.72    0.83
   3   8   5   12.59    0.89
  -3  -8  -6   10.96    0.88
   3   8   6   12.30    0.86
  -3  -8  -7    2.52    0.55
   3   8   7    3.42    0.55
  -3  -8  -8   -0.14    0.18
  -3  -8  -9    0.00    0.20
  -3  -8 -10    0.48    0.33
  -3  -8 -11    0.76    0.42
   3   9  -4   -0.09    0.28
   3   9  -3    0.95    0.43
   3   9  -2    0.07    0.25
   3   9  -1    0.16    0.28
   3   9   0    1.47    0.47
   3   9   1    4.84    0.77
   3   9   2    9.28    0.88
  -3  -9  -3    1.97    0.44
   3   9   3    2.05    0.51
  -3  -9  -4    1.02    0.35
   3   9   4    1.18    0.42
  -3  -9  -5    0.05    0.20
   3   9   5    0.03    0.22
  -3  -9  -6    4.13    0.68
   3   9   6    5.30    0.66
  -3  -9  -7    0.77    0.36
   3   9   7    0.68    0.33
  -3  -9  -8    0.12    0.25
  -3  -9  -9    1.03    0.42
  -3  -9 -10   -0.02    0.22
   3  10  -2    0.74    0.40
   3  10  -1    0.53    0.37
   3  10   0    0.15    0.26
   3  10   1    3.63    0.74
   3  10   2    7.81    0.87
   3  10   3    0.68    0.39
   3  10   4    0.20    0.30
  -3 -10  -5    0.66    0.32
   3  10   5    0.62    0.36
  -3 -10  -6   -0.01    0.20
   3  10   6    0.04    0.24
  -3 -10  -7    1.34    0.45
  -3 -10  -8    0.38    0.32
  -3 -10  -9    0.16    0.31
   3  11   0    0.23    0.32
   3  11   1    0.28    0.32
   3  11   2    0.87    0.43
   3  11   3    0.95    0.45
   3  11   4   -0.06    0.24
   3  11   5    0.34    0.35
   3  11   6    0.11    0.30
  -3 -11  -7    0.79    0.40
  -3 -11  -8    0.44    0.37
  -4  10   6    0.67    0.39
  -4  10   5    0.09    0.28
  -4  10   4    0.17    0.30
  -4  10   3    0.05    0.26
  -4  10   2    0.55    0.38
  -4  10   1    0.80    0.41
  -4  10   0   -0.22    0.22
  -4   9   7    1.16    0.45
  -4   9   6    0.71    0.36
  -4   9   5    0.82    0.40
  -4   9   4    0.61    0.35
  -4   9   3    0.07    0.23
  -4   9   2    0.50    0.32
  -4   9   1    0.97    0.42
  -4   9   0    1.40    0.47
  -4   9  -1   -0.16    0.22
  -4   9  -2    1.10    0.48
  -4   9  -3    0.10    0.35
  -4   8   8    0.21    0.28
  -4   8   7    0.05    0.23
  -4   8   6    0.62    0.34
  -4   8   5    1.26    0.39
  -4   8   4    0.34    0.25
  -4   8   4    0.17    0.22
  -4   8   3    0.05    0.22
  -4   8   2    1.90    0.50
  -4   8   1    0.52    0.32
  -4   8   0    5.28    0.80
  -4   8  -1    0.02    0.24
  -4   8  -2    1.01    0.42
  -4   8  -3    0.31    0.32
  -4   8  -4    0.04    0.30
  -4   8  -5    0.04    0.32
  -4   7   9    0.38    0.34
  -4   7   8    0.02    0.22
  -4   7   7    0.07    0.24
  -4   7   6    0.32    0.26
  -4   7   5    1.64    0.43
  -4   7   4    7.18    0.68
  -4   7   3    3.53    0.54
  -4   7   3    3.16    0.59
  -4   7   2    0.40    0.23
  -4   7   2    0.26    0.25
  -4   7   1   14.15    1.01
  -4   7   0    5.48    0.66
  -4   7  -1    0.47    0.29
  -4   7  -2    0.27    0.28
  -4   7  -3    0.16    0.29
  -4   7  -4    1.73    0.54
  -4   7  -5    0.50    0.39
  -4   7  -6    0.36    0.38
  -4   6  10    0.79    0.40
  -4   6   9    0.18    0.24
  -4   6   8    0.19    0.26
  -4   6   7    1.16    0.41
  -4   6   6   -0.07    0.17
  -4   6   5   14.05    0.96
  -4   6   4   17.21    1.00
  -4   6   3    4.68    0.51
  -4   6   2    2.02    0.39
  -4   6   2    2.16    0.46
  -4   6   1    0.94    0.26
  -4   6   1    0.99    0.34
  -4   6   0   16.38    1.02
  -4   6  -1    0.49    0.28
  -4   6  -2    0.48    0.30
  -4   6  -3    0.23    0.26
  -4   6  -4    1.69    0.49
  -4   6  -5    4.14    0.75
  -4   6  -6    0.64    0.40
  -4   6  -7    0.24    0.36
  -4   5  10    0.14    0.27
  -4   5   9    1.96    0.55
  -4   5   7    0.64    0.33
  -4   5   6    1.07    0.37
  -4   5   5   14.68    0.96
  -4   5   4   14.06    0.89
  -4   5   3    0.06    0.16
  -4   5   2    0.73    0.25
  -4   5   1    0.06    0.15
  -4   5   1    0.17    0.19
  -4   5   0    8.18    0.53
  -4   5   0    6.54    0.63
  -4   5  -1   15.12    0.63
  -4   5  -1   14.40    0.91
  -4   5  -2   10.21    0.82
  -4   5  -3    0.05    0.20
  -4   5  -4    2.48    0.55
  -4   5  -5    3.39    0.66
  -4   5  -6    2.81    0.64
  -4   5  -7    0.99    0.44
  -4   5  -8    1.74    0.59
  -4   4  10    0.38    0.33
  -4   4   9    5.02    0.83
  -4   4   8   14.86    1.12
  -4   4   7    4.25    0.69
  -4   4   6    0.05    0.15
  -4   4   5    4.15    0.62
  -4   4   4   11.16    0.77
  -4   4   3    6.56    0.58
  -4   4   2    0.46    0.21
  -4   4   1    0.06    0.14
  -4   4   0    0.19    0.16
  -4   4   0    0.04    0.14
  -4   4  -1    1.23    0.25
  -4   4  -1    0.97    0.30
  -4   4  -2   18.25    0.65
  -4   4  -2   18.25    1.00
  -4   4  -3    2.86    0.54
  -4   4  -4    3.50    0.60
  -4   4  -5    7.07    0.76
  -4   4  -6   12.76    1.03
  -4   4  -7    0.92    0.43
  -4   4  -8    0.07    0.30
  -4   4  -9    0.75    0.47
  -4   3  10    1.96    0.58
  -4   3   9    6.43    0.94
  -4   3   8    5.07    0.78
  -4   3   7    9.37    0.83
  -4   3   6    1.68    0.42
  -4   3   5    0.42    0.25
  -4   3   4    0.66    0.26
  -4   3   3   11.27    0.72
  -4   3   2   15.28    0.78
  -4   3   1    0.41    0.19
  -4   3   0   14.28    0.67
  -4   3   0   13.99    0.77
  -4   3  -1    0.03    0.13
  -4   3  -2   39.13    0.96
  -4   3  -2   39.87    1.34
  -4   3  -3    2.97    0.32
  -4   3  -3    3.33    0.53
  -4   3  -4    0.91    0.20
  -4   3  -4    0.95    0.34
  -4   3  -5    4.69    0.69
  -4   3  -6   14.55    1.03
  -4   3  -7    1.72    0.52
  -4   3  -8   -0.02    0.26
  -4   3  -9    0.08    0.30
  -4   3 -10    0.75    0.47
  -4   2  10   -0.15    0.21
   4  -2 -10    0.01    0.24
  -4   2   9   -0.16    0.19
  -4   2   8    3.04    0.61
  -4   2   7    4.08    0.67
  -4   2   6    1.84    0.44
  -4   2   5    0.01    0.16
  -4   2   4    0.23    0.18
  -4   2   3   18.76    0.91
  -4   2   1   32.37    1.04
  -4   2   0    3.33    0.35
  -4   2  -1   90.29    1.55
  -4   2  -1   92.64    1.81
  -4   2  -2  157.16    1.98
  -4   2  -2  159.49    2.45
  -4   2  -3    1.17    0.25
  -4   2  -3    1.18    0.32
  -4   2  -4    0.04    0.14
  -4   2  -4    0.10    0.19
  -4   2  -5    0.04    0.13
  -4   2  -5    0.02    0.20
  -4   2  -6    0.40    0.28
  -4   2  -7    2.13    0.50
  -4   2  -8    0.27    0.30
  -4   2  -9    0.38    0.37
  -4   2 -10   -0.15    0.29
  -4   1  10   -0.07    0.25
   4  -1 -10    0.08    0.27
  -4   1   9    2.86    0.63
   4  -1  -9    2.63    0.62
  -4   1   8    0.37    0.27
   4  -1  -8    0.17    0.26
  -4   1   7    3.37    0.61
   4  -1  -7    4.30    0.68
  -4   1   6    0.01    0.17
   4  -1  -6    0.07    0.20
  -4   1   5    1.19    0.35
  -4   1   4    7.23    0.62
  -4   1   3   27.71    1.08
  -4   1   2  132.75    2.20
  -4   1   1   27.27    0.95
  -4   1   0    1.23    0.27
  -4   1  -1    3.04    0.34
  -4   1  -1    3.08    0.33
  -4   1  -2   49.47    1.16
  -4   1  -2   48.91    1.24
  -4   1  -3    0.42    0.18
  -4   1  -3    0.56    0.21
  -4   1  -4    2.75    0.34
  -4   1  -4    2.85    0.44
  -4   1  -5    1.21    0.28
  -4   1  -5    1.23    0.34
  -4   1  -6    3.58    0.40
  -4   1  -6    2.77    0.51
  -4   1  -7    2.39    0.40
  -4   1  -7    2.85    0.56
  -4   1  -8   10.66    0.92
  -4   1  -9    3.09    0.64
  -4   1 -10    0.38    0.36
  -4   1 -11    1.52    0.56
  -4   0  10    0.07    0.30
   4   0 -10   -0.03    0.26
  -4   0   9    0.26    0.29
   4   0  -9    0.62    0.36
  -4   0   8   -0.09    0.18
   4   0  -8    0.08    0.24
  -4   0   7    7.92    0.76
   4   0  -7    8.39    0.80
  -4   0   6    4.72    0.58
   4   0  -6    5.03    0.60
  -4   0   5    4.80    0.53
   4   0  -5    4.97    0.56
  -4   0   4    0.11    0.16
   4   0  -4    0.03    0.16
  -4   0   3   59.10    1.56
  -4   0   2   60.73    1.49
  -4   0   1   41.89    1.18
  -4   0   0   14.01    0.67
  -4   0  -1    8.41    0.53
  -4   0  -1    9.17    0.48
  -4   0  -2    2.33    0.34
  -4   0  -2    2.47    0.29
  -4   0  -3   16.27    0.71
  -4   0  -3   16.61    0.70
  -4   0  -4   19.68    0.80
  -4   0  -4   18.94    0.82
  -4   0  -5    2.06    0.36
  -4   0  -5    1.95    0.38
  -4   0  -6    7.52    0.57
  -4   0  -6    6.67    0.64
  -4   0  -7   11.46    0.72
  -4   0  -7   12.45    0.87
  -4   0  -8   10.50    0.74
  -4   0  -8   10.13    0.85
  -4   0  -9    7.48    0.82
  -4   0 -10   -0.19    0.26
  -4   0 -11    1.91    0.58
   4   1 -10   -0.05    0.29
  -4  -1   9    0.31    0.28
   4   1  -9    0.07    0.28
  -4  -1   8    1.68    0.47
   4   1  -8    1.57    0.47
  -4  -1   7   10.96    0.87
   4   1  -7   11.72    0.94
  -4  -1   6   55.29    1.77
   4   1  -6   54.37    1.83
  -4  -1   5   32.62    1.30
   4   1  -5   32.16    1.31
  -4  -1   4    7.69    0.63
   4   1  -4    7.47    0.61
  -4  -1   3    0.59    0.24
   4   1  -3    0.73    0.24
  -4  -1   2   -0.09    0.12
  -4  -1   1    1.93    0.33
  -4  -1   0    0.41    0.19
  -4  -1  -1   38.91    1.10
  -4  -1  -2    8.02    0.53
  -4  -1  -2    8.45    0.42
  -4  -1  -3    0.48    0.20
  -4  -1  -3    0.37    0.15
  -4  -1  -4   49.03    1.30
  -4  -1  -4   49.52    1.17
  -4  -1  -5   11.09    0.67
  -4  -1  -5   11.30    0.64
  -4  -1  -6    1.68    0.35
  -4  -1  -6    2.04    0.39
  -4  -1  -7   20.08    0.99
  -4  -1  -7   22.49    1.08
  -4  -1  -8   21.46    1.06
  -4  -1  -8   22.79    1.16
  -4  -1  -9    3.74    0.59
  -4  -1  -9    3.20    0.60
  -4  -1 -10    0.71    0.32
  -4  -1 -10    0.36    0.31
  -4  -1 -11    0.07    0.27
   4   2  -9    2.00    0.59
  -4  -2   8    1.33    0.43
   4   2  -8    1.95    0.52
  -4  -2   7    6.03    0.68
   4   2  -7    5.87    0.70
  -4  -2   6    7.71    0.71
   4   2  -6    7.28    0.71
  -4  -2   5   26.14    1.17
   4   2  -5   26.67    1.22
   4   2  -5   25.48    1.04
  -4  -2   4    2.84    0.46
   4   2  -4    3.06    0.49
   4   2  -4    2.92    0.45
  -4  -2   3   15.42    0.82
   4   2  -3   17.35    0.83
   4   2  -3   18.07    0.85
  -4  -2   2    0.04    0.15
   4   2  -2    0.01    0.12
   4   2  -2    0.04    0.15
  -4  -2   1   36.03    1.12
   4   2  -1   38.87    1.17
  -4  -2   0    0.47    0.19
   4   2   0    0.51    0.21
  -4  -2  -1    5.80    0.46
   4   2   1    6.67    0.49
  -4  -2  -2   11.13    0.63
  -4  -2  -2   12.98    0.43
  -4  -2  -3   23.44    0.92
  -4  -2  -3   23.24    0.62
  -4  -2  -4   82.01    1.74
  -4  -2  -4   88.47    1.37
  -4  -2  -5   11.40    0.71
  -4  -2  -5   11.97    0.60
  -4  -2  -6    4.47    0.50
  -4  -2  -6    5.25    0.49
  -4  -2  -7   -0.04    0.17
  -4  -2  -7    0.13    0.20
  -4  -2  -8   17.71    1.01
  -4  -2  -8   18.64    1.00
  -4  -2  -9    1.67    0.42
  -4  -2  -9    1.85    0.45
  -4  -2 -10    0.22    0.26
  -4  -2 -10    0.26    0.28
  -4  -2 -11    0.53    0.30
  -4  -2 -11    0.51    0.35
  -4  -2 -12    0.21    0.32
   4   3  -9    3.29    0.73
   4   3  -8    3.77    0.72
   4   3  -7    0.28    0.27
  -4  -3   6    0.25    0.24
   4   3  -6    0.18    0.26
  -4  -3   5    7.26    0.65
   4   3  -5    9.10    0.75
   4   3  -5    9.38    0.70
  -4  -3   4    0.62    0.27
   4   3  -4    0.97    0.31
   4   3  -4    0.75    0.29
  -4  -3   3    2.69    0.44
   4   3  -3    2.82    0.43
   4   3  -3    2.75    0.46
  -4  -3   2    2.81    0.43
   4   3  -2    3.21    0.36
   4   3  -2    3.17    0.48
  -4  -3   1   41.55    1.23
   4   3  -1   50.34    1.09
   4   3  -1   49.38    1.39
  -4  -3   0   69.07    1.55
   4   3   0   81.70    1.74
  -4  -3  -1    5.99    0.50
   4   3   1    7.12    0.53
  -4  -3  -2   45.24    1.27
  -4  -3  -2   47.25    0.56
   4   3   2   53.81    1.37
  -4  -3  -3   19.01    0.86
  -4  -3  -3   20.54    0.44
   4   3   3   22.70    0.89
  -4  -3  -4   77.91    1.76
  -4  -3  -4   93.44    1.18
  -4  -3  -5   12.60    0.76
  -4  -3  -5   13.98    0.58
  -4  -3  -6    0.88    0.29
  -4  -3  -6    0.84    0.24
  -4  -3  -7    2.14    0.44
  -4  -3  -7    2.89    0.44
  -4  -3  -8    5.81    0.62
  -4  -3  -8    6.99    0.61
  -4  -3  -9    0.81    0.33
  -4  -3  -9    0.70    0.31
  -4  -3 -10    0.39    0.29
  -4  -3 -10    0.43    0.28
  -4  -3 -11    1.64    0.50
  -4  -3 -12    0.17    0.27
  -4  -3 -12    0.59    0.38
   4   4  -8   -0.12    0.24
   4   4  -7    3.10    0.63
   4   4  -6    0.12    0.23
  -4  -4   5    3.14    0.52
   4   4  -5    3.42    0.58
   4   4  -5    3.31    0.57
  -4  -4   4    0.94    0.31
   4   4  -4    1.28    0.35
   4   4  -4    1.33    0.37
  -4  -4   3    0.22    0.21
   4   4  -3    0.42    0.23
   4   4  -3    0.55    0.26
  -4  -4   2    5.39    0.52
   4   4  -2    5.80    0.47
   4   4  -2    6.42    0.59
  -4  -4   1   22.89    0.95
   4   4  -1   27.98    0.84
   4   4  -1   26.29    1.10
  -4  -4   0   68.34    1.58
   4   4   0   82.44    1.16
   4   4   0   81.51    1.86
  -4  -4  -1   36.98    1.18
   4   4   1   43.31    1.34
  -4  -4  -2    6.91    0.56
   4   4   2    7.63    0.58
  -4  -4  -3    1.51    0.34
   4   4   3    2.00    0.37
  -4  -4  -4    4.91    0.52
  -4  -4  -4    5.50    0.21
   4   4   4    5.77    0.51
  -4  -4  -5    1.72    0.38
  -4  -4  -5    2.11    0.23
   4   4   5    2.48    0.40
  -4  -4  -6    2.22    0.45
  -4  -4  -6    2.49    0.33
  -4  -4  -7    0.10    0.20
  -4  -4  -7    0.10    0.16
  -4  -4  -8    0.58    0.30
  -4  -4  -8    0.76    0.27
  -4  -4  -9    5.17    0.74
  -4  -4  -9    4.57    0.54
  -4  -4 -10    8.62    0.85
  -4  -4 -11    0.69    0.37
  -4  -4 -12    0.29    0.31
   4   5  -7    1.40    0.48
   4   5  -6   -0.08    0.20
   4   5  -5    4.70    0.68
   4   5  -5    4.90    0.72
   4   5  -4   13.86    0.88
   4   5  -4   15.79    1.00
  -4  -5   3    8.41    0.65
   4   5  -3    9.89    0.70
   4   5  -3    9.88    0.79
  -4  -5   2    2.35    0.42
   4   5  -2    3.10    0.38
   4   5  -2    2.60    0.50
  -4  -5   1   12.40    0.74
   4   5  -1   14.59    0.65
   4   5  -1   14.13    0.88
  -4  -5   0    7.62    0.58
   4   5   0    9.54    0.44
   4   5   0    9.11    0.70
  -4  -5  -1   34.42    1.18
   4   5   1   41.79    1.41
  -4  -5  -2    2.74    0.44
   4   5   2    3.42    0.51
  -4  -5  -3    7.84    0.61
   4   5   3    9.04    0.66
  -4  -5  -4    0.04    0.15
   4   5   4    0.05    0.17
  -4  -5  -5    2.20    0.44
   4   5   5    3.03    0.46
  -4  -5  -6    9.34    0.76
   4   5   6   11.11    0.69
  -4  -5  -7   -0.01    0.17
  -4  -5  -8    3.86    0.64
  -4  -5  -9   11.62    0.95
  -4  -5 -10    3.20    0.65
  -4  -5 -11    6.49    0.93
  -4  -5 -12    0.42    0.34
   4   6  -7    0.73    0.41
   4   6  -6    0.17    0.28
   4   6  -5    7.33    0.74
   4   6  -5    7.32    0.79
   4   6  -4   17.08    1.02
   4   6  -4   15.15    1.06
   4   6  -3   17.19    0.93
   4   6  -3   17.22    1.09
  -4  -6   2    3.10    0.47
   4   6  -2    3.36    0.42
   4   6  -2    3.13    0.58
  -4  -6   1    1.91    0.38
   4   6  -1    2.56    0.51
  -4  -6   0    0.61    0.26
   4   6   0    0.92    0.34
  -4  -6  -1    0.30    0.22
   4   6   1    0.75    0.31
  -4  -6  -2    2.07    0.40
   4   6   2    3.34    0.53
  -4  -6  -3   13.14    0.81
   4   6   3   17.15    0.94
  -4  -6  -4    1.09    0.34
   4   6   4    1.22    0.35
  -4  -6  -5   15.62    0.96
   4   6   5   21.50    1.01
  -4  -6  -6   11.12    0.84
   4   6   6   13.74    0.81
  -4  -6  -7    4.26    0.66
   4   6   7    5.79    0.55
  -4  -6  -8    1.82    0.48
  -4  -6  -9    1.53    0.47
  -4  -6 -10    4.19    0.75
  -4  -6 -11    1.48    0.50
  -4  -6 -12   -0.08    0.24
   4   7  -5    0.38    0.35
   4   7  -4    4.97    0.81
   4   7  -3    4.18    0.72
   4   7  -2    0.89    0.36
   4   7  -1    0.87    0.36
  -4  -7   0    0.34    0.23
   4   7   0    0.32    0.27
  -4  -7  -1   14.85    0.84
   4   7   1   17.19    1.06
  -4  -7  -2    1.20    0.34
   4   7   2    1.34    0.40
  -4  -7  -3    0.35    0.24
   4   7   3    0.45    0.27
  -4  -7  -4    4.32    0.62
   4   7   4    3.82    0.60
  -4  -7  -5    5.86    0.63
   4   7   5    7.27    0.66
  -4  -7  -6   13.64    0.96
   4   7   6   16.39    0.95
  -4  -7  -7   11.38    0.93
   4   7   7   13.14    0.85
  -4  -7  -8    1.16    0.42
  -4  -7  -9    0.09    0.24
  -4  -7 -10    0.18    0.27
  -4  -7 -11    0.56    0.36
   4   8  -4    0.08    0.27
   4   8  -3    0.90    0.42
   4   8  -2    0.14    0.25
   4   8  -1    1.14    0.42
   4   8   0   -0.02    0.20
  -4  -8  -1    6.75    0.62
   4   8   1    8.36    0.81
  -4  -8  -2   16.55    0.95
   4   8   2   19.12    1.18
  -4  -8  -3    5.68    0.60
   4   8   3    6.47    0.70
  -4  -8  -4    6.98    0.69
   4   8   4    8.67    0.78
  -4  -8  -5    0.01    0.19
   4   8   5   -0.01    0.19
  -4  -8  -6    5.41    0.78
   4   8   6    6.33    0.66
  -4  -8  -7    1.49    0.46
  -4  -8  -8    0.01    0.23
  -4  -8  -9    1.24    0.46
  -4  -8 -10    0.84    0.43
  -4  -8 -11    0.91    0.45
   4   9  -3    1.24    0.49
   4   9  -2    1.92    0.56
   4   9  -1    0.28    0.29
   4   9   0    0.31    0.30
   4   9   1    0.42    0.32
   4   9   2   10.44    0.95
  -4  -9  -3    7.36    0.71
   4   9   3    7.62    0.81
  -4  -9  -4    0.78    0.34
   4   9   4    0.74    0.35
  -4  -9  -5    0.13    0.23
   4   9   5   -0.09    0.21
  -4  -9  -6   -0.22    0.16
   4   9   6   -0.07    0.22
  -4  -9  -7    1.33    0.44
   4   9   7    1.46    0.45
  -4  -9  -8    0.46    0.34
  -4  -9  -9    0.37    0.35
  -4  -9 -10    0.07    0.26
   4  10  -1    2.29    0.62
   4  10   0    0.15    0.29
   4  10   1    0.77    0.39
   4  10   2    1.77    0.55
   4  10   3    1.04    0.42
   4  10   4    0.68    0.37
  -4 -10  -5    1.43    0.44
   4  10   5    1.50    0.49
  -4 -10  -6   -0.12    0.22
   4  10   6   -0.01    0.24
  -4 -10  -7    0.55    0.36
   4  10   7    0.68    0.39
  -4 -10  -8    0.57    0.37
  -4 -10  -9    0.01    0.28
   4  11   1   -0.08    0.26
   4  11   2   -0.04    0.24
   4  11   3    0.07    0.30
   4  11   4    0.18    0.34
   4  11   5    0.80    0.42
   4  11   6   -0.09    0.27
  -4 -11  -7    0.57    0.37
  -5   9   6    0.25    0.32
  -5   9   5   -0.16    0.19
  -5   9   4    0.42    0.34
  -5   9   3    0.02    0.25
  -5   9   2    0.81    0.41
  -5   9   1    0.83    0.41
  -5   9   0    1.26    0.49
  -5   9  -1    0.15    0.31
  -5   9  -2    0.19    0.33
  -5   8   7    0.34    0.32
  -5   8   6    0.74    0.38
  -5   8   5    0.64    0.34
  -5   8   4    0.28    0.25
  -5   8   4    0.03    0.23
  -5   8   3    3.13    0.66
  -5   8   2    0.28    0.27
  -5   8   1    1.82    0.54
  -5   8   0    3.66    0.70
  -5   8  -1    1.54    0.51
  -5   8  -2    0.04    0.26
  -5   8  -3   -0.03    0.29
  -5   8  -4    0.37    0.37
  -5   7   8   -0.01    0.25
  -5   7   7    0.00    0.21
  -5   7   6    0.42    0.29
  -5   7   5    0.96    0.36
  -5   7   4    9.06    0.81
  -5   7   3    1.20    0.37
  -5   7   3    1.01    0.39
  -5   7   2    0.15    0.23
  -5   7   1    0.37    0.28
  -5   7   0    5.02    0.79
  -5   7  -1    3.40    0.66
  -5   7  -2    0.62    0.37
  -5   7  -3    0.03    0.26
  -5   7  -4    0.18    0.30
  -5   7  -5    1.25    0.51
  -5   6   9    0.03    0.28
  -5   6   8    2.29    0.60
  -5   6   7    2.08    0.54
  -5   6   6    0.60    0.30
  -5   6   5    0.84    0.35
  -5   6   4   20.38    1.15
  -5   6   3    7.07    0.67
  -5   6   2    0.02    0.16
  -5   6   2    0.04    0.19
  -5   6   1    1.11    0.32
  -5   6   1    0.79    0.34
  -5   6   0    0.70    0.32
  -5   6  -1    0.57    0.31
  -5   6  -2    0.36    0.25
  -5   6  -3    0.09    0.25
  -5   6  -4    0.25    0.28
  -5   6  -5    1.60    0.52
  -5   6  -6    2.89    0.70
  -5   6  -7    0.20    0.36
  -5   5   9    0.57    0.35
  -5   5   8   10.08    0.98
  -5   5   7    3.85    0.70
  -5   5   6    1.10    0.39
  -5   5   5    0.95    0.36
  -5   5   4    5.73    0.63
  -5   5   3    7.59    0.68
  -5   5   2    0.03    0.17
  -5   5   1    0.11    0.18
  -5   5   1    0.00    0.16
  -5   5   0    0.17    0.20
  -5   5   0    0.07    0.19
  -5   5  -1    0.59    0.31
  -5   5  -2    0.40    0.29
  -5   5  -3    1.05    0.38
  -5   5  -4    1.01    0.41
  -5   5  -5    2.94    0.66
  -5   5  -6    2.68    0.65
  -5   5  -7    4.15    0.83
  -5   5  -8    0.04    0.32
  -5   4   9    1.85    0.56
  -5   4   8    5.33    0.84
  -5   4   7    3.46    0.66
  -5   4   6    4.05    0.68
  -5   4   5    0.36    0.26
  -5   4   4    3.34    0.56
  -5   4   3    0.21    0.21
  -5   4   2    1.26    0.34
  -5   4   1    0.00    0.15
  -5   4   0    2.26    0.39
  -5   4   0    2.13    0.44
  -5   4  -1   26.34    0.96
  -5   4  -1   26.49    1.22
  -5   4  -2   38.42    1.09
  -5   4  -2   38.17    1.51
  -5   4  -3   20.71    1.16
  -5   4  -4    1.30    0.41
  -5   4  -5   -0.06    0.20
  -5   4  -6    2.28    0.57
  -5   4  -7    0.59    0.39
  -5   4  -8    0.36    0.35
  -5   3  10    2.56    0.68
  -5   3   9    0.05    0.27
  -5   3   8    3.07    0.65
  -5   3   7    2.30    0.54
  -5   3   6    0.14    0.22
  -5   3   5    4.67    0.69
  -5   3   4    0.07    0.17
  -5   3   3    5.90    0.59
  -5   3   2    9.63    0.70
  -5   3   1   21.80    0.97
  -5   3   0    2.21    0.38
  -5   3   0    1.84    0.38
  -5   3  -1    4.25    0.45
  -5   3  -1    4.43    0.51
  -5   3  -2   23.21    0.88
  -5   3  -2   25.04    1.15
  -5   3  -3   28.80    0.95
  -5   3  -3   31.11    1.32
  -5   3  -4    1.02    0.37
  -5   3  -5    0.93    0.38
  -5   3  -6    1.59    0.47
  -5   3  -7    0.93    0.42
  -5   3  -8    0.12    0.29
  -5   3  -9    0.42    0.40
  -5   2  10    1.19    0.53
  -5   2   9    0.13    0.29
  -5   2   8   -0.14    0.20
  -5   2   7    0.59    0.33
  -5   2   6    2.32    0.52
  -5   2   5    7.84    0.72
  -5   2   4    1.03    0.32
  -5   2   3    7.96    0.67
  -5   2   2   58.38    1.64
  -5   2   1   56.50    1.53
  -5   2   0    6.65    0.55
  -5   2  -1    0.97    0.28
  -5   2  -1    0.92    0.28
  -5   2  -2   11.08    0.64
  -5   2  -2   11.55    0.74
  -5   2  -3    4.67    0.45
  -5   2  -3    4.74    0.53
  -5   2  -4    0.43    0.21
  -5   2  -4    0.41    0.26
  -5   2  -5    0.15    0.18
  -5   2  -5    0.20    0.24
  -5   2  -6    1.61    0.45
  -5   2  -7    3.11    0.62
  -5   2  -8    3.20    0.68
  -5   2  -9    1.39    0.51
  -5   2 -10    1.31    0.54
  -5   1   9    2.27    0.60
  -5   1   8    0.22    0.27
  -5   1   7    2.93    0.60
  -5   1   6   27.15    1.37
  -5   1   5   17.97    1.06
  -5   1   4   14.33    0.91
  -5   1   3    7.64    0.65
  -5   1   2   41.76    1.38
  -5   1   1   21.42    0.96
  -5   1   0    2.31    0.39
  -5   1  -1    4.81    0.47
  -5   1  -1    4.76    0.44
  -5   1  -2   -0.05    0.16
  -5   1  -2    0.05    0.13
  -5   1  -3    1.10    0.29
  -5   1  -3    1.22    0.31
  -5   1  -4    0.90    0.27
  -5   1  -4    0.69    0.27
  -5   1  -5    0.52    0.23
  -5   1  -5    0.55    0.28
  -5   1  -6    0.06    0.16
  -5   1  -6    0.15    0.22
  -5   1  -7    6.09    0.55
  -5   1  -7    6.00    0.69
  -5   1  -8    8.05    0.83
  -5   1  -9    7.21    0.87
  -5   1 -10    0.23    0.33
  -5   0   9    0.29    0.32
   5   0  -9    0.77    0.42
  -5   0   8    0.29    0.30
   5   0  -8    0.46    0.31
  -5   0   7    3.80    0.68
   5   0  -7    3.05    0.60
  -5   0   6   22.14    1.24
  -5   0   5   17.96    1.06
  -5   0   4   21.77    1.11
  -5   0   3    0.72    0.27
  -5   0   2   18.84    0.95
  -5   0   1    4.72    0.50
  -5   0   0    4.35    0.45
  -5   0  -1    3.71    0.43
  -5   0  -1    4.10    0.39
  -5   0  -2    4.55    0.47
  -5   0  -2    3.96    0.38
  -5   0  -3   22.31    0.93
  -5   0  -3   22.69    0.90
  -5   0  -4    3.05    0.44
  -5   0  -4    2.76    0.43
  -5   0  -5   20.15    0.92
  -5   0  -5   20.25    0.96
  -5   0  -6    2.98    0.47
  -5   0  -6    2.45    0.47
  -5   0  -7    2.07    0.41
  -5   0  -7    2.62    0.53
  -5   0  -8   15.47    0.91
  -5   0  -8   16.38    1.07
  -5   0  -9    8.64    0.87
  -5   0 -10    0.13    0.29
  -5   0 -11    0.05    0.33
  -5  -1   9    2.97    0.67
   5   1  -9    2.97    0.69
  -5  -1   8    2.89    0.63
   5   1  -8    2.83    0.64
  -5  -1   7    2.44    0.55
   5   1  -7    2.91    0.60
  -5  -1   6   14.04    0.99
   5   1  -6   14.38    1.01
  -5  -1   5    1.03    0.35
   5   1  -5    1.34    0.38
  -5  -1   4    6.35    0.64
  -5  -1   3    0.56    0.25
  -5  -1   2    4.87    0.53
  -5  -1   1   43.65    1.37
  -5  -1   0   15.15    0.81
  -5  -1  -1    0.63    0.25
  -5  -1  -2    1.88    0.37
  -5  -1  -2    2.34    0.28
  -5  -1  -3   32.98    1.15
  -5  -1  -3   33.04    0.97
  -5  -1  -4   70.05    1.69
  -5  -1  -4   75.34    1.54
  -5  -1  -5   30.51    1.17
  -5  -1  -5   29.53    1.06
  -5  -1  -6    7.51    0.65
  -5  -1  -6    6.46    0.60
  -5  -1  -7    0.06    0.18
  -5  -1  -7    0.26    0.24
  -5  -1  -8    0.50    0.25
  -5  -1  -8    0.75    0.32
  -5  -1  -9    0.87    0.34
  -5  -1  -9    1.43    0.44
  -5  -1 -10    0.59    0.38
  -5  -1 -11    0.10    0.29
   5   2  -9    2.68    0.66
  -5  -2   8    2.02    0.54
   5   2  -8    2.01    0.56
  -5  -2   7    0.00    0.21
   5   2  -7    0.07    0.24
  -5  -2   6    0.90    0.38
   5   2  -6    0.90    0.37
  -5  -2   5    5.38    0.63
   5   2  -5    5.15    0.59
  -5  -2   4    7.20    0.68
   5   2  -4    7.87    0.67
   5   2  -4    6.74    0.62
  -5  -2   3   18.66    0.99
   5   2  -3   19.92    0.94
   5   2  -3   17.71    0.92
  -5  -2   2    1.33    0.34
   5   2  -2    1.39    0.35
  -5  -2   1    5.03    0.51
   5   2  -1    5.45    0.53
  -5  -2   0   27.83    1.09
  -5  -2  -1   23.46    0.99
  -5  -2  -2    4.95    0.50
  -5  -2  -2    4.84    0.33
  -5  -2  -3   12.67    0.76
  -5  -2  -3   12.86    0.54
  -5  -2  -4   12.92    0.77
  -5  -2  -4   12.97    0.59
  -5  -2  -5   37.28    1.33
  -5  -2  -5   38.45    1.09
  -5  -2  -6    0.10    0.20
  -5  -2  -6    0.04    0.17
  -5  -2  -7    2.00    0.44
  -5  -2  -7    1.88    0.40
  -5  -2  -8    1.39    0.39
  -5  -2  -8    1.13    0.35
  -5  -2  -9    1.80    0.45
  -5  -2  -9    1.52    0.44
  -5  -2 -10    0.24    0.26
  -5  -2 -10    0.11    0.26
  -5  -2 -11    0.77    0.37
  -5  -2 -11    0.22    0.32
   5   3  -8    2.13    0.58
   5   3  -7    2.08    0.54
  -5  -3   6    0.81    0.35
   5   3  -6    0.62    0.34
  -5  -3   5    1.83    0.45
   5   3  -5    1.69    0.43
   5   3  -5    2.00    0.45
  -5  -3   4   14.58    0.93
   5   3  -4   15.56    0.91
   5   3  -4   16.43    0.96
  -5  -3   3    3.48    0.54
   5   3  -3    3.73    0.52
   5   3  -3    4.43    0.54
  -5  -3   2    3.83    0.55
   5   3  -2    4.43    0.44
   5   3  -2    3.79    0.56
  -5  -3   1    9.80    0.71
   5   3  -1   11.82    0.79
  -5  -3   0   32.94    1.21
   5   3   0   36.84    1.30
  -5  -3  -1   54.76    1.54
   5   3   1   63.26    1.66
  -5  -3  -2   12.08    0.76
  -5  -3  -2   13.00    0.42
   5   3   2   14.32    0.81
  -5  -3  -3    8.70    0.67
  -5  -3  -3    8.87    0.37
  -5  -3  -4    0.63    0.25
  -5  -3  -4    0.39    0.15
  -5  -3  -5    8.20    0.68
  -5  -3  -5    8.25    0.48
  -5  -3  -6    0.61    0.28
  -5  -3  -6    0.92    0.25
  -5  -3  -7    1.78    0.43
  -5  -3  -8    1.65    0.43
  -5  -3  -8    2.41    0.45
  -5  -3  -9    0.71    0.33
  -5  -3  -9    0.88    0.34
  -5  -3 -10    6.54    0.74
  -5  -3 -11    2.17    0.56
  -5  -3 -12    0.10    0.28
   5   4  -7    0.87    0.40
   5   4  -6   -0.17    0.21
  -5  -4   5    1.44    0.42
   5   4  -5    1.61    0.43
   5   4  -5    1.78    0.46
  -5  -4   4   14.95    0.94
   5   4  -4   16.55    0.97
   5   4  -4   16.79    1.02
  -5  -4   3   18.17    1.00
   5   4  -3   20.99    0.98
   5   4  -3   21.87    1.13
  -5  -4   2    4.17    0.58
   5   4  -2    4.36    0.45
   5   4  -2    4.57    0.56
  -5  -4   1   14.62    0.87
   5   4  -1   18.35    0.73
   5   4  -1   16.56    0.95
  -5  -4   0    9.14    0.69
   5   4   0   11.29    0.78
  -5  -4  -1   11.79    0.77
   5   4   1   16.94    0.93
  -5  -4  -2    2.04    0.41
   5   4   2    3.49    0.52
  -5  -4  -3    0.75    0.29
   5   4   3    0.78    0.30
  -5  -4  -4    0.29    0.24
   5   4   4    1.01    0.32
  -5  -4  -5    4.40    0.54
  -5  -4  -6    3.56    0.58
  -5  -4  -7    1.05    0.36
  -5  -4  -8    4.69    0.69
  -5  -4  -9    4.59    0.73
  -5  -4 -10    3.40    0.65
  -5  -4 -11    4.01    0.73
  -5  -4 -12    0.74    0.39
   5   5  -7    0.57    0.38
   5   5  -6    0.28    0.29
   5   5  -5    0.19    0.24
   5   5  -5    0.23    0.29
   5   5  -4   18.94    1.05
   5   5  -4   18.35    1.13
  -5  -5   3    6.19    0.65
   5   5  -3    7.14    0.62
   5   5  -3    7.68    0.76
  -5  -5   2   18.83    1.00
   5   5  -2   23.19    0.94
   5   5  -2   23.24    1.21
  -5  -5   1   -0.07    0.18
   5   5  -1    0.05    0.20
  -5  -5   0    6.90    0.63
   5   5   0    9.45    0.77
  -5  -5  -1   10.26    0.74
   5   5   1   12.48    0.85
  -5  -5  -2    2.88    0.49
   5   5   2    4.38    0.53
  -5  -5  -3    0.62    0.29
   5   5   3    1.20    0.36
  -5  -5  -4    9.69    0.75
   5   5   4   11.16    0.78
  -5  -5  -5    6.01    0.62
   5   5   5    7.77    0.67
  -5  -5  -6   12.37    0.89
  -5  -5  -7    6.55    0.69
  -5  -5  -8    6.24    0.71
  -5  -5  -9    2.61    0.58
  -5  -5 -10    3.58    0.69
  -5  -5 -11    2.68    0.65
  -5  -5 -12    0.29    0.31
   5   6  -5    0.20    0.30
   5   6  -4    7.56    0.80
   5   6  -3    5.78    0.70
  -5  -6   2    1.74    0.41
   5   6  -2    1.86    0.49
  -5  -6   1    0.22    0.23
   5   6  -1    0.10    0.24
  -5  -6   0    5.27    0.57
   5   6   0    5.51    0.64
  -5  -6  -1    8.31    0.71
   5   6   1   10.59    0.84
  -5  -6  -2    9.81    0.75
   5   6   2   12.20    0.87
  -5  -6  -3    2.31    0.48
   5   6   3    2.85    0.52
  -5  -6  -4    0.05    0.21
   5   6   4    0.16    0.23
  -5  -6  -5   12.90    0.92
   5   6   5   15.78    0.95
  -5  -6  -6    7.56    0.74
   5   6   6    8.75    0.72
  -5  -6  -7    7.37    0.76
  -5  -6  -8    4.97    0.76
  -5  -6  -9    0.06    0.23
  -5  -6 -10    0.21    0.27
  -5  -6 -11    0.90    0.43
   5   7  -5   -0.03    0.29
   5   7  -4    0.73    0.40
   5   7  -3    1.58    0.50
   5   7  -2    3.17    0.65
   5   7  -1    2.00    0.51
  -5  -7   0    1.67    0.41
   5   7   0    2.66    0.56
  -5  -7  -1    0.10    0.19
   5   7   1    0.10    0.22
  -5  -7  -2    9.02    0.75
   5   7   2   10.35    0.86
  -5  -7  -3    2.95    0.54
   5   7   3    3.33    0.60
  -5  -7  -4    6.40    0.68
   5   7   4    8.56    0.77
  -5  -7  -5    6.32    0.67
   5   7   5    6.95    0.70
  -5  -7  -6    3.38    0.63
   5   7   6    4.98    0.61
  -5  -7  -7   10.85    0.94
   5   7   7   12.63    0.88
  -5  -7  -8    0.45    0.30
  -5  -7  -9    0.07    0.24
  -5  -7 -10    0.26    0.30
  -5  -7 -11    0.04    0.28
   5   8  -4    0.24    0.34
   5   8  -3    0.26    0.30
   5   8  -2    3.98    0.75
   5   8  -1    0.07    0.24
   5   8   0    0.78    0.38
  -5  -8  -1    3.26    0.55
   5   8   1    3.11    0.62
  -5  -8  -2    3.48    0.57
   5   8   2    3.48    0.65
  -5  -8  -3   16.23    1.04
   5   8   3   16.68    1.12
  -5  -8  -4    1.96    0.48
   5   8   4    2.08    0.51
  -5  -8  -5    0.09    0.23
   5   8   5    0.26    0.28
  -5  -8  -6    0.14    0.23
   5   8   6    0.06    0.24
  -5  -8  -7    1.26    0.45
   5   8   7    0.68    0.34
  -5  -8  -8    1.07    0.43
  -5  -8  -9    0.37    0.33
  -5  -8 -10    0.04    0.25
  -5  -8 -11    0.16    0.32
   5   9  -2    2.03    0.62
   5   9  -1    3.72    0.75
   5   9   0    1.50    0.50
   5   9   1    0.21    0.29
   5   9   2    3.74    0.72
  -5  -9  -3    5.20    0.74
   5   9   3    5.24    0.81
  -5  -9  -4    0.97    0.38
   5   9   4    0.31    0.29
  -5  -9  -5    0.03    0.22
   5   9   5   -0.01    0.23
  -5  -9  -6    1.83    0.50
   5   9   6    2.14    0.55
  -5  -9  -7   -0.03    0.23
   5   9   7    0.53    0.34
  -5  -9  -8    0.94    0.41
  -5  -9  -9    0.03    0.26
  -5  -9 -10   -0.03    0.27
   5  10  -1    4.66    0.88
   5  10   0    0.91    0.45
   5  10   1   -0.11    0.26
   5  10   2    0.33    0.33
   5  10   3    0.36    0.33
  -5 -10  -4    0.37    0.29
   5  10   4    0.72    0.38
  -5 -10  -5    0.00    0.21
   5  10   5   -0.09    0.24
  -5 -10  -6    0.48    0.33
   5  10   6    0.70    0.41
  -5 -10  -7    0.58    0.36
   5  10   7    0.27    0.34
  -5 -10  -8    1.67    0.54
  -5 -10  -9    1.13    0.49
   5  11   2    0.65    0.41
   5  11   3    0.00    0.27
   5  11   4    0.76    0.41
   5  11   5    0.54    0.39
  -5 -11  -6    0.14    0.31
   5  11   6   -0.01    0.28
  -5 -11  -7    0.80    0.42
  -6   9   3    0.54    0.39
  -6   9   2    0.16    0.31
  -6   9   1    0.16    0.30
  -6   8   6    0.29    0.30
  -6   8   5   -0.06    0.22
  -6   8   4    1.97    0.57
  -6   8   3    2.86    0.67
  -6   8   2    1.17    0.47
  -6   8   1    0.39    0.35
  -6   8   0    1.42    0.51
  -6   8  -1    0.87    0.44
  -6   8  -2    0.01    0.28
  -6   8  -3    0.36    0.38
  -6   7   7    0.40    0.34
  -6   7   6    1.29    0.46
  -6   7   5    0.08    0.24
  -6   7   4    3.38    0.63
  -6   7   3    6.40    0.70
  -6   7   3    8.21    0.88
  -6   7   2    0.85    0.40
  -6   7   1    0.15    0.26
  -6   7   0    0.56    0.34
  -6   7  -1    1.09    0.44
  -6   7  -2    0.08    0.27
  -6   7  -3    0.08    0.27
  -6   7  -4   -0.02    0.27
  -6   6   8    0.85    0.43
  -6   6   7    3.33    0.69
  -6   6   6    0.50    0.32
  -6   6   5    0.97    0.38
  -6   6   4    3.24    0.60
  -6   6   3    1.73    0.45
  -6   6   2    0.01    0.19
  -6   6   2    0.20    0.24
  -6   6   1    0.07    0.21
  -6   6   0    0.32    0.26
  -6   6  -1    4.41    0.76
  -6   6  -2    2.85    0.63
  -6   6  -3    3.61    0.73
  -6   6  -4   -0.02    0.26
  -6   6  -5    0.95    0.49
  -6   6  -6    0.18    0.35
  -6   5   8    4.80    0.86
  -6   5   7    4.07    0.76
  -6   5   6    1.28    0.43
  -6   5   5    0.20    0.24
  -6   5   4    1.67    0.44
  -6   5   3    2.54    0.51
  -6   5   2    0.75    0.31
  -6   5   1    0.10    0.21
  -6   5   1    0.24    0.24
  -6   5   0    0.36    0.24
  -6   5   0    0.03    0.20
  -6   5  -1    0.28    0.24
  -6   5  -2    2.59    0.58
  -6   5  -3    6.51    0.77
  -6   5  -4    1.20    0.46
  -6   5  -5    0.27    0.32
  -6   5  -6    1.86    0.59
  -6   5  -7    1.58    0.58
  -6   4   9    1.20    0.51
  -6   4   8    0.93    0.43
  -6   4   7    3.09    0.67
  -6   4   6    1.01    0.39
  -6   4   5    1.03    0.38
  -6   4   4    1.50    0.41
  -6   4   3    1.50    0.40
  -6   4   2    5.85    0.62
  -6   4   1    5.95    0.60
  -6   4   1    6.63    0.67
  -6   4   0    2.19    0.43
  -6   4   0    2.40    0.50
  -6   4  -1    2.96    0.48
  -6   4  -1    2.53    0.52
  -6   4  -2    0.07    0.21
  -6   4  -2    0.26    0.25
  -6   4  -3   13.88    1.02
  -6   4  -4    0.48    0.33
  -6   4  -5    0.32    0.30
  -6   4  -6    1.43    0.50
  -6   4  -7    3.16    0.71
  -6   4  -8    0.44    0.40
  -6   3   9   -0.04    0.25
  -6   3   8    0.36    0.34
  -6   3   7    0.67    0.36
  -6   3   6    5.19    0.78
  -6   3   5    1.30    0.41
  -6   3   4    0.72    0.32
  -6   3   3    0.63    0.30
  -6   3   2   11.72    0.83
  -6   3   1   12.50    0.83
  -6   3   0    5.55    0.56
  -6   3   0    6.92    0.65
  -6   3  -1    2.56    0.45
  -6   3  -1    2.11    0.45
  -6   3  -2   13.00    0.78
  -6   3  -2   12.74    0.89
  -6   3  -3   16.06    0.82
  -6   3  -3   16.95    1.05
  -6   3  -4    0.12    0.23
  -6   3  -5    0.21    0.25
  -6   3  -6   -0.13    0.23
  -6   3  -7   -0.14    0.24
  -6   3  -8    0.37    0.38
  -6   3  -9    1.10    0.52
  -6   2   9    0.33    0.35
  -6   2   8    2.12    0.59
  -6   2   7    0.67    0.37
  -6   2   6    2.82    0.60
  -6   2   5    3.40    0.63
  -6   2   4    3.36    0.59
  -6   2   3    5.91    0.62
  -6   2   2   14.68    0.93
  -6   2   1   37.24    1.38
  -6   2   0    7.17    0.63
  -6   2  -1    0.58    0.27
  -6   2  -1    0.51    0.25
  -6   2  -2    2.80    0.46
  -6   2  -2    2.42    0.46
  -6   2  -3    6.54    0.58
  -6   2  -3    7.10    0.67
  -6   2  -4   -0.04    0.17
  -6   2  -4    0.01    0.20
  -6   2  -5    1.68    0.36
  -6   2  -5    1.86    0.47
  -6   2  -6   -0.07    0.22
  -6   2  -7    1.35    0.46
  -6   2  -8    2.10    0.60
  -6   2  -9    3.12    0.73
  -6   1   9    0.03    0.30
  -6   1   8    0.90    0.45
  -6   1   7    1.12    0.44
  -6   1   6    7.35    0.81
  -6   1   5    3.56    0.64
  -6   1   4    5.55    0.65
  -6   1   3    0.70    0.30
  -6   1   2   17.03    0.99
  -6   1   1   22.37    1.09
  -6   1   0    7.50    0.65
  -6   1  -1    5.67    0.57
  -6   1  -1    6.18    0.55
  -6   1  -2    6.22    0.58
  -6   1  -2    7.09    0.59
  -6   1  -3    7.54    0.62
  -6   1  -3    8.48    0.67
  -6   1  -4    9.02    0.67
  -6   1  -4    9.21    0.73
  -6   1  -5    9.89    0.70
  -6   1  -5    9.37    0.77
  -6   1  -6    3.78    0.54
  -6   1  -6    3.22    0.59
  -6   1  -7    1.12    0.41
  -6   1  -8    1.39    0.47
  -6   1  -9    1.73    0.56
  -6   1 -10    1.07    0.51
  -6   0   8    0.41    0.34
  -6   0   7    1.47    0.49
  -6   0   6   10.51    0.94
  -6   0   5   29.17    1.44
  -6   0   4    6.71    0.70
  -6   0   3    2.54    0.49
  -6   0   2    0.68    0.30
  -6   0   1    0.28    0.25
  -6   0   0    9.10    0.71
  -6   0  -1    0.13    0.21
  -6   0  -1    0.03    0.14
  -6   0  -2    0.14    0.21
  -6   0  -2    0.16    0.16
  -6   0  -3    0.22    0.22
  -6   0  -3    0.35    0.20
  -6   0  -4    9.02    0.68
  -6   0  -4   10.46    0.72
  -6   0  -5   16.21    0.90
  -6   0  -5   16.86    0.93
  -6   0  -6    4.44    0.52
  -6   0  -6    3.81    0.59
  -6   0  -7    2.69    0.48
  -6   0  -7    2.19    0.50
  -6   0  -8    3.97    0.59
  -6   0  -8    4.70    0.73
  -6   0  -9    5.30    0.82
  -6   0 -10    0.18    0.32
  -6  -1   8    1.41    0.50
  -6  -1   7    3.11    0.66
  -6  -1   6    0.95    0.41
  -6  -1   5    4.94    0.74
  -6  -1   4   14.08    0.97
  -6  -1   3    0.02    0.20
  -6  -1   2    9.64    0.78
  -6  -1   1    0.11    0.19
  -6  -1   0   16.80    0.94
  -6  -1  -1    4.22    0.51
  -6  -1  -2    3.10    0.49
  -6  -1  -2    3.39    0.37
  -6  -1  -3   20.34    1.01
  -6  -1  -3   22.35    0.88
  -6  -1  -4    1.96    0.42
  -6  -1  -4    2.11    0.38
  -6  -1  -5   37.63    1.39
  -6  -1  -5   38.26    1.26
  -6  -1  -6    1.43    0.38
  -6  -1  -6    1.56    0.38
  -6  -1  -7    0.38    0.25
  -6  -1  -7    0.43    0.27
  -6  -1  -8    0.94    0.34
  -6  -1  -8    0.94    0.37
  -6  -1  -9    3.66    0.63
  -6  -1  -9    3.92    0.68
  -6  -1 -10    1.23    0.47
  -6  -1 -11    0.04    0.34
  -6  -2   8    3.07    0.70
   6   2  -8    4.53    0.81
  -6  -2   7    0.93    0.43
   6   2  -7    0.75    0.38
  -6  -2   6    0.33    0.30
   6   2  -6    0.39    0.28
  -6  -2   5    0.02    0.22
  -6  -2   4   11.65    0.89
  -6  -2   3    0.00    0.21
  -6  -2   2    0.88    0.34
  -6  -2   1    9.27    0.74
  -6  -2   0   22.30    1.09
  -6  -2  -1   29.66    1.23
  -6  -2  -2    7.40    0.66
  -6  -2  -2    8.99    0.50
  -6  -2  -3    8.51    0.70
  -6  -2  -3    9.11    0.52
  -6  -2  -4   12.32    0.83
  -6  -2  -4   13.01    0.64
  -6  -2  -5    7.01    0.66
  -6  -2  -5    7.88    0.56
  -6  -2  -6    7.69    0.70
  -6  -2  -6    8.47    0.64
  -6  -2  -7    2.04    0.46
  -6  -2  -7    2.65    0.47
  -6  -2  -8    1.35    0.40
  -6  -2  -8    2.08    0.46
  -6  -2  -9    0.84    0.36
  -6  -2  -9    0.58    0.33
  -6  -2 -10    0.46    0.32
  -6  -3   7   -0.01    0.29
   6   3  -7    0.16    0.27
  -6  -3   6    6.91    0.81
   6   3  -6    6.54    0.76
  -6  -3   5    1.41    0.45
   6   3  -5    1.24    0.40
  -6  -3   4    0.78    0.35
   6   3  -4    0.82    0.32
   6   3  -4    0.58    0.31
  -6  -3   3    7.89    0.75
   6   3  -3    7.92    0.74
  -6  -3   2    3.11    0.55
   6   3  -2    4.40    0.65
  -6  -3   1    6.81    0.67
   6   3  -1    7.20    0.68
  -6  -3   0   29.54    1.26
   6   3   0   34.12    1.37
  -6  -3  -1   33.35    1.34
  -6  -3  -2   17.93    0.98
  -6  -3  -3    1.30    0.37
  -6  -3  -4    3.96    0.58
  -6  -3  -5    3.46    0.57
  -6  -3  -6   -0.05    0.19
  -6  -3  -7    6.79    0.69
  -6  -3  -8    0.07    0.19
  -6  -3  -9    0.58    0.32
  -6  -3 -10    3.95    0.70
  -6  -3 -11    2.54    0.60
   6   4  -7    0.11    0.26
   6   4  -6    0.30    0.29
  -6  -4   5   -0.08    0.26
   6   4  -5   -0.05    0.22
   6   4  -5    0.09    0.24
  -6  -4   4   10.52    0.88
   6   4  -4   12.09    0.87
   6   4  -4   12.04    0.95
  -6  -4   3    9.42    0.81
   6   4  -3   10.91    0.75
   6   4  -3    9.28    0.82
  -6  -4   2   12.15    0.89
   6   4  -2   16.09    1.04
  -6  -4   1    1.98    0.45
   6   4  -1    2.88    0.55
  -6  -4   0    2.56    0.49
   6   4   0    3.20    0.57
  -6  -4  -1    9.00    0.73
   6   4   1   11.34    0.84
  -6  -4  -2   16.31    0.98
   6   4   2   17.50    1.01
  -6  -4  -3    1.66    0.43
   6   4   3    2.42    0.48
  -6  -4  -4    6.29    0.67
  -6  -4  -5   -0.11    0.16
  -6  -4  -6    6.09    0.66
  -6  -4  -7    3.22    0.59
  -6  -4  -8    1.37    0.43
  -6  -4  -9    2.65    0.58
  -6  -4 -10    3.16    0.66
  -6  -4 -11    1.41    0.51
   6   5  -5    0.71    0.38
  -6  -5   4    4.53    0.71
   6   5  -4    4.67    0.76
  -6  -5   3   20.41    1.18
   6   5  -3   25.13    1.36
  -6  -5   2    5.13    0.63
   6   5  -2    5.49    0.67
  -6  -5   1    2.04    0.46
   6   5  -1    2.23    0.51
  -6  -5   0    5.78    0.64
   6   5   0    6.66    0.69
  -6  -5  -1    0.88    0.33
   6   5   1    1.29    0.40
  -6  -5  -2    0.28    0.26
   6   5   2    0.35    0.27
  -6  -5  -3    0.62    0.32
   6   5   3    0.98    0.36
  -6  -5  -4    1.87    0.45
   6   5   4    1.93    0.45
  -6  -5  -5    1.90    0.47
  -6  -5  -6   17.36    1.10
  -6  -5  -7    8.98    0.84
  -6  -5  -8    3.29    0.63
  -6  -5  -9    2.19    0.55
  -6  -5 -10    0.37    0.29
  -6  -5 -11    1.11    0.46
   6   6  -5    0.77    0.43
   6   6  -4    0.27    0.33
   6   6  -3    1.56    0.49
  -6  -6   2    4.64    0.69
   6   6  -2    5.22    0.80
  -6  -6   1    0.07    0.22
   6   6  -1    0.30    0.28
  -6  -6   0    0.32    0.27
   6   6   0    0.56    0.34
  -6  -6  -1    0.21    0.24
   6   6   1    0.14    0.23
  -6  -6  -2    9.55    0.80
   6   6   2   10.64    0.87
  -6  -6  -3    5.00    0.72
   6   6   3    5.98    0.67
  -6  -6  -4    0.34    0.27
   6   6   4    0.40    0.29
  -6  -6  -5    9.78    0.85
   6   6   5   10.59    0.84
  -6  -6  -6    1.69    0.46
   6   6   6    2.47    0.52
  -6  -6  -7    8.79    0.85
  -6  -6  -8    3.57    0.68
  -6  -6  -9    0.14    0.24
  -6  -6 -10    0.09    0.24
  -6  -6 -11    0.40    0.32
   6   7  -4   -0.09    0.24
   6   7  -3    0.18    0.29
   6   7  -2    0.64    0.37
  -6  -7   1    0.79    0.33
   6   7  -1    0.90    0.41
  -6  -7   0    0.54    0.31
   6   7   0    1.00    0.41
  -6  -7  -1    2.59    0.54
   6   7   1    1.94    0.52
  -6  -7  -2    8.42    0.78
   6   7   2   10.51    0.92
  -6  -7  -3   11.26    0.91
   6   7   3   14.35    1.05
  -6  -7  -4    9.83    0.86
   6   7   4   12.18    0.96
  -6  -7  -5    1.85    0.49
   6   7   5    1.71    0.47
  -6  -7  -6    0.08    0.24
   6   7   6   -0.12    0.23
  -6  -7  -7    0.81    0.37
   6   7   7    1.04    0.40
  -6  -7  -8    0.97    0.41
  -6  -7  -9   -0.04    0.24
  -6  -7 -10    0.45    0.35
  -6  -7 -11    0.59    0.40
   6   8  -3    0.00    0.30
   6   8  -2    0.82    0.44
   6   8  -1    4.56    0.82
   6   8   0    1.90    0.55
  -6  -8  -1    1.20    0.40
   6   8   1    0.80    0.39
  -6  -8  -2    1.08    0.39
   6   8   2    1.55    0.48
  -6  -8  -3   10.61    0.90
   6   8   3   12.52    1.04
  -6  -8  -4    4.49    0.72
   6   8   4    5.35    0.83
  -6  -8  -5    0.38    0.30
   6   8   5    0.63    0.35
  -6  -8  -6    0.59    0.34
   6   8   6    0.03    0.27
  -6  -8  -7   -0.10    0.22
   6   8   7   -0.16    0.24
  -6  -8  -8    0.32    0.29
  -6  -8  -9    0.56    0.37
  -6  -8 -10   -0.06    0.29
   6   9  -1    5.00    0.90
   6   9   0    4.79    0.87
   6   9   1   -0.04    0.24
  -6  -9  -2    0.31    0.27
   6   9   2    0.53    0.37
  -6  -9  -3    1.13    0.42
   6   9   3    0.90    0.41
  -6  -9  -4    0.71    0.37
   6   9   4    0.71    0.38
  -6  -9  -5    0.05    0.25
   6   9   5    0.28    0.30
  -6  -9  -6    1.08    0.43
   6   9   6    1.21    0.49
  -6  -9  -7   -0.01    0.24
   6   9   7    0.19    0.31
  -6  -9  -8    0.86    0.42
  -6  -9  -9    0.51    0.39
   6  10   1   -0.12    0.29
   6  10   2    0.54    0.39
   6  10   3   -0.07    0.27
  -6 -10  -4    0.11    0.25
   6  10   4    0.10    0.32
  -6 -10  -5    0.48    0.34
   6  10   5    0.74    0.41
  -6 -10  -6    0.12    0.29
   6  10   6   -0.09    0.27
  -6 -10  -7    0.35    0.33
   6  10   7    0.33    0.34
  -6 -10  -8    0.94    0.46
  -7   8   3    1.66    0.55
  -7   8   2    0.42    0.37
  -7   8   1    0.14    0.29
  -7   8   0    0.11    0.29
  -7   7   5   -0.01    0.27
  -7   7   4    0.53    0.33
  -7   7   3    3.95    0.77
  -7   7   2    0.29    0.31
  -7   7   1   -0.06    0.22
  -7   7   0    0.06    0.27
  -7   7  -1    0.45    0.37
  -7   7  -2   -0.24    0.23
  -7   7  -3    0.73    0.45
  -7   6   6    1.13    0.46
  -7   6   5    0.31    0.32
  -7   6   4   -0.12    0.21
  -7   6   3    2.29    0.53
  -7   6   2    0.93    0.37
  -7   6   2    1.56    0.48
  -7   6   1    0.22    0.27
  -7   6   0    0.11    0.23
  -7   6  -1   -0.10    0.20
  -7   6  -2    0.52    0.36
  -7   6  -3    0.19    0.31
  -7   6  -4    0.71    0.42
  -7   6  -5   -0.04    0.32
  -7   5   7    2.50    0.65
  -7   5   6    0.73    0.39
  -7   5   5    2.06    0.54
  -7   5   4   -0.03    0.21
  -7   5   3    0.24    0.26
  -7   5   2    0.17    0.26
  -7   5   2    0.01    0.18
  -7   5   1    1.23    0.40
  -7   5   1    1.00    0.39
  -7   5   0    0.22    0.26
  -7   5   0    0.10    0.23
  -7   5  -1    1.72    0.49
  -7   5  -2    4.95    0.83
  -7   5  -3    7.01    0.84
  -7   5  -4    2.78    0.65
  -7   5  -5    0.28    0.34
  -7   5  -6    0.20    0.34
  -7   4   7    0.24    0.33
  -7   4   6    0.92    0.42
  -7   4   5   -0.02    0.19
  -7   4   4    0.74    0.35
  -7   4   3    1.04    0.39
  -7   4   2    1.60    0.44
  -7   4   1    7.37    0.71
  -7   4   1    7.52    0.76
  -7   4   0    7.86    0.70
  -7   4   0    6.49    0.72
  -7   4  -1    0.11    0.23
  -7   4  -1    0.23    0.23
  -7   4  -2    2.25    0.55
  -7   4  -3    4.94    0.78
  -7   4  -4    3.47    0.69
  -7   4  -5    0.25    0.33
  -7   4  -6    0.00    0.28
  -7   4  -7    0.72    0.45
  -7   3   8    0.54    0.41
  -7   3   7    0.02    0.28
  -7   3   6    0.30    0.30
  -7   3   5    1.14    0.42
  -7   3   4    1.16    0.42
  -7   3   3    1.49    0.43
  -7   3   2    7.38    0.73
  -7   3   1   15.47    0.99
  -7   3   0   18.25    1.04
  -7   3   0   19.19    1.13
  -7   3  -1    0.96    0.35
  -7   3  -1    0.90    0.35
  -7   3  -2    0.06    0.21
  -7   3  -2    0.06    0.21
  -7   3  -3    3.44    0.53
  -7   3  -3    3.13    0.60
  -7   3  -4    2.11    0.53
  -7   3  -5    0.56    0.34
  -7   3  -6    0.76    0.40
  -7   3  -7    0.14    0.33
  -7   3  -8    0.82    0.46
  -7   2   8    0.66    0.42
  -7   2   7    0.29    0.32
  -7   2   6    4.44    0.78
  -7   2   5   13.81    1.08
  -7   2   4    6.66    0.75
  -7   2   3    6.34    0.72
  -7   2   2    0.45    0.29
  -7   2   1   16.44    1.01
  -7   2   0    0.43    0.28
  -7   2   0    0.65    0.28
  -7   2  -1    0.25    0.25
  -7   2  -1    0.38    0.23
  -7   2  -2    0.23    0.23
  -7   2  -2    0.38    0.25
  -7   2  -3    0.37    0.25
  -7   2  -3    0.07    0.21
  -7   2  -4    1.41    0.36
  -7   2  -4    1.35    0.42
  -7   2  -5    0.52    0.32
  -7   2  -6    1.41    0.46
  -7   2  -7    0.24    0.32
  -7   2  -8    2.26    0.63
  -7   2  -9    3.21    0.76
  -7   1   8   -0.27    0.23
  -7   1   7    1.90    0.58
  -7   1   6    1.92    0.54
  -7   1   5   17.08    1.20
  -7   1   4    8.71    0.86
  -7   1   3    6.64    0.71
  -7   1   2    0.04    0.21
  -7   1   1    0.41    0.26
  -7   1   0    4.76    0.59
  -7   1  -1   -0.01    0.19
  -7   1  -1   -0.13    0.13
  -7   1  -2    0.07    0.21
  -7   1  -2    0.41    0.24
  -7   1  -3    0.21    0.24
  -7   1  -3    0.21    0.21
  -7   1  -4    5.86    0.60
  -7   1  -4    5.54    0.63
  -7   1  -5    3.29    0.54
  -7   1  -5    3.76    0.62
  -7   1  -6    5.25    0.58
  -7   1  -6    5.10    0.75
  -7   1  -7    1.05    0.42
  -7   1  -8    0.43    0.36
  -7   1  -9    3.64    0.77
  -7   0   8    3.20    0.77
  -7   0   7    2.60    0.67
  -7   0   6    2.35    0.60
  -7   0   5    4.04    0.73
  -7   0   4    1.37    0.44
  -7   0   3    3.50    0.63
  -7   0   2    1.79    0.46
  -7   0   1    0.55    0.29
  -7   0   0    8.54    0.76
  -7   0  -1   15.31    0.96
  -7   0  -1   17.58    0.90
  -7   0  -2    0.23    0.25
  -7   0  -2    0.45    0.24
  -7   0  -3    7.79    0.70
  -7   0  -3    8.88    0.68
  -7   0  -4   10.85    0.81
  -7   0  -4   11.48    0.80
  -7   0  -5   15.22    0.95
  -7   0  -5   16.80    0.97
  -7   0  -6   10.48    0.81
  -7   0  -6   11.39    0.86
  -7   0  -7    0.16    0.22
  -7   0  -7    0.17    0.27
  -7   0  -8   -0.05    0.23
  -7   0  -9   -0.04    0.27
  -7   0 -10    0.46    0.42
  -7  -1   7    0.22    0.33
  -7  -1   6   -0.13    0.24
  -7  -1   5    0.10    0.24
  -7  -1   4    0.54    0.34
  -7  -1   3    4.61    0.71
  -7  -1   2    8.59    0.79
  -7  -1   1    0.15    0.22
  -7  -1   0   10.72    0.85
  -7  -1  -1   15.32    0.98
  -7  -1  -1   18.12    0.87
  -7  -1  -2   25.55    1.23
  -7  -1  -2   30.17    1.09
  -7  -1  -3   -0.04    0.21
  -7  -1  -3   -0.02    0.15
  -7  -1  -4   10.97    0.83
  -7  -1  -4   10.69    0.71
  -7  -1  -5    1.57    0.41
  -7  -1  -5    1.93    0.41
  -7  -1  -6    7.06    0.70
  -7  -1  -6    7.77    0.70
  -7  -1  -7    0.17    0.24
  -7  -1  -7    0.07    0.23
  -7  -1  -8    0.21    0.25
  -7  -1  -8    0.25    0.28
  -7  -1  -9    0.79    0.37
  -7  -2   7    1.70    0.56
  -7  -2   6    5.09    0.85
  -7  -2   5    0.15    0.30
  -7  -2   4    2.01    0.52
  -7  -2   3    6.39    0.74
  -7  -2   2    0.19    0.25
  -7  -2   1    3.69    0.62
  -7  -2   0    9.53    0.82
  -7  -2  -1   20.37    1.13
  -7  -2  -2   23.50    1.20
  -7  -2  -2   25.90    0.93
  -7  -2  -3   11.59    0.85
  -7  -2  -3   11.26    0.64
  -7  -2  -4    0.09    0.20
  -7  -2  -5    0.72    0.32
  -7  -2  -6    0.71    0.33
  -7  -2  -7    0.03    0.21
  -7  -2  -8   -0.11    0.19
  -7  -2  -9    0.30    0.29
  -7  -2 -10    1.82    0.52
  -7  -3   6    0.22    0.32
  -7  -3   5   -0.14    0.25
  -7  -3   4    4.02    0.72
  -7  -3   3   18.67    1.19
  -7  -3   2   12.44    0.97
  -7  -3   1    7.99    0.76
  -7  -3   0    2.38    0.52
  -7  -3  -1    2.47    0.52
  -7  -3  -2    1.12    0.37
  -7  -3  -3    0.19    0.25
  -7  -3  -4    0.10    0.22
  -7  -3  -5    1.86    0.45
  -7  -3  -6    6.11    0.69
  -7  -3  -7    3.11    0.59
  -7  -3  -8    0.36    0.28
  -7  -3  -9   -0.03    0.22
  -7  -3 -10    2.09    0.56
  -7  -4   5    2.08    0.58
  -7  -4   4    0.18    0.29
  -7  -4   3   20.29    1.25
   7   4  -3   19.49    1.23
  -7  -4   2    7.52    0.79
   7   4  -2    7.59    0.81
  -7  -4   1    7.53    0.75
   7   4  -1    8.98    0.83
  -7  -4   0   -0.08    0.22
   7   4   0    0.17    0.24
  -7  -4  -1    0.31    0.26
  -7  -4  -2    5.31    0.65
  -7  -4  -3    0.02    0.22
  -7  -4  -4    0.00    0.19
  -7  -4  -5    2.04    0.49
  -7  -4  -6    6.48    0.72
  -7  -4  -7    9.02    0.86
  -7  -4  -8    3.68    0.68
  -7  -4  -9    1.71    0.50
  -7  -4 -10    1.64    0.51
  -7  -4 -11    0.52    0.36
  -7  -5   4    0.89    0.42
   7   5  -4    1.25    0.47
  -7  -5   3    2.46    0.57
   7   5  -3    2.98    0.65
  -7  -5   2    2.04    0.53
   7   5  -2    3.11    0.65
  -7  -5   1    0.73    0.36
   7   5  -1    0.92    0.39
  -7  -5   0    1.93    0.49
   7   5   0    3.08    0.61
  -7  -5  -1    0.72    0.35
   7   5   1    0.53    0.31
  -7  -5  -2    3.31    0.59
   7   5   2    3.95    0.67
  -7  -5  -3   14.01    1.01
   7   5   3   18.59    1.16
  -7  -5  -4    0.86    0.36
  -7  -5  -5    0.99    0.38
  -7  -5  -6    6.47    0.75
  -7  -5  -7    2.05    0.53
  -7  -5  -8    3.51    0.67
  -7  -5  -9    1.57    0.49
  -7  -5 -10    0.20    0.29
   7   6  -4    0.63    0.41
   7   6  -3    0.43    0.37
  -7  -6   2    0.12    0.27
   7   6  -2    0.14    0.27
  -7  -6   1    1.90    0.50
   7   6  -1    2.74    0.62
  -7  -6   0    0.26    0.28
   7   6   0    0.54    0.35
  -7  -6  -1    1.09    0.40
   7   6   1    1.54    0.47
  -7  -6  -2    2.53    0.55
   7   6   2    2.82    0.60
  -7  -6  -3    7.55    0.77
   7   6   3    7.65    0.80
  -7  -6  -4    8.24    0.83
   7   6   4   11.27    0.94
  -7  -6  -5    3.96    0.69
  -7  -6  -6    3.33    0.66
  -7  -6  -7    0.94    0.40
  -7  -6  -8    3.70    0.71
  -7  -6  -9    0.09    0.27
  -7  -6 -10    0.05    0.24
   7   7  -3    0.44    0.38
   7   7  -2   -0.02    0.28
  -7  -7   1    3.55    0.67
   7   7  -1    3.96    0.77
  -7  -7   0    1.10    0.42
   7   7   0    1.38    0.47
  -7  -7  -1    2.03    0.51
   7   7   1    2.61    0.61
  -7  -7  -2    1.48    0.46
   7   7   2    1.99    0.53
  -7  -7  -3    4.19    0.72
   7   7   3    5.44    0.84
  -7  -7  -4    8.77    0.87
   7   7   4    9.29    0.90
  -7  -7  -5    1.33    0.44
   7   7   5    1.75    0.52
  -7  -7  -6    0.10    0.24
   7   7   6    0.06    0.29
  -7  -7  -7   -0.02    0.22
  -7  -7  -8    0.41    0.34
  -7  -7  -9    0.44    0.35
  -7  -7 -10    0.04    0.28
   7   8  -2    0.11    0.31
   7   8  -1    3.45    0.77
   7   8   0    5.70    0.94
  -7  -8  -1    1.17    0.46
   7   8   1    1.56    0.52
  -7  -8  -2    0.19    0.28
   7   8   2    0.18    0.30
  -7  -8  -3    1.14    0.42
   7   8   3    1.28    0.49
  -7  -8  -4    2.30    0.57
   7   8   4    3.08    0.68
  -7  -8  -5   -0.04    0.24
   7   8   5   -0.04    0.25
  -7  -8  -6    0.10    0.26
   7   8   6   -0.07    0.29
  -7  -8  -7    1.63    0.50
   7   8   7    1.76    0.54
  -7  -8  -8    0.86    0.43
  -7  -8  -9    1.42    0.52
   7   9   0    4.94    0.92
   7   9   1    0.68    0.42
  -7  -9  -2    0.25    0.28
   7   9   2    0.15    0.30
  -7  -9  -3    0.19    0.27
   7   9   3    0.13    0.33
  -7  -9  -4   -0.03    0.23
   7   9   4   -0.09    0.25
  -7  -9  -5    0.41    0.32
   7   9   5    0.39    0.38
  -7  -9  -6   -0.10    0.24
   7   9   6   -0.09    0.29
  -7  -9  -7    0.34    0.34
   7   9   7    0.32    0.36
  -7  -9  -8    0.33    0.33
   7  10   3    0.52    0.41
  -7 -10  -4    0.06    0.28
   7  10   4    0.37    0.39
  -7 -10  -5    0.72    0.42
   7  10   5    0.47    0.40
  -7 -10  -6    0.90    0.45
   7  10   6    1.39    0.57
  -8   7   2    0.59    0.36
  -8   7   1   -0.04    0.24
  -8   7   0   -0.01    0.28
  -8   6   4    0.02    0.26
  -8   6   3   -0.02    0.28
  -8   6   3    0.38    0.31
  -8   6   2    0.17    0.27
  -8   6   1    0.45    0.34
  -8   6   0    0.29    0.29
  -8   6  -1    0.23    0.33
  -8   6  -2    0.34    0.37
  -8   6  -3    0.16    0.36
  -8   5   5    0.26    0.33
  -8   5   4    0.48    0.35
  -8   5   3    0.10    0.28
  -8   5   2    1.25    0.43
  -8   5   2    1.09    0.42
  -8   5   1    1.61    0.47
  -8   5   1    1.02    0.42
  -8   5   0    2.87    0.63
  -8   5  -1    0.65    0.38
  -8   5  -2    0.39    0.35
  -8   5  -3    0.54    0.39
  -8   5  -4    2.11    0.62
  -8   5  -5    0.41    0.40
  -8   4   6    0.18    0.31
  -8   4   5    1.85    0.56
  -8   4   4    1.33    0.45
  -8   4   3   -0.13    0.21
  -8   4   2    1.33    0.45
  -8   4   1    3.22    0.61
  -8   4   1    3.36    0.65
  -8   4   0    2.61    0.55
  -8   4   0    2.56    0.57
  -8   4  -1    1.34    0.43
  -8   4  -1    2.16    0.54
  -8   4  -2    0.14    0.27
  -8   4  -3    1.40    0.50
  -8   4  -4    1.39    0.50
  -8   4  -5    0.01    0.30
  -8   4  -6   -0.06    0.28
  -8   3   6    0.70    0.44
  -8   3   5    2.37    0.60
  -8   3   4    1.72    0.50
  -8   3   3    4.38    0.74
  -8   3   2    0.98    0.40
  -8   3   1    5.69    0.69
  -8   3   1    4.66    0.71
  -8   3   0    7.36    0.75
  -8   3   0    6.07    0.70
  -8   3  -1    0.22    0.28
  -8   3  -1    0.15    0.23
  -8   3  -2   -0.08    0.20
  -8   3  -2   -0.08    0.19
  -8   3  -3    0.27    0.28
  -8   3  -4    1.26    0.47
  -8   3  -5    0.15    0.30
  -8   3  -6    0.38    0.37
  -8   3  -7    0.37    0.40
  -8   2   6    1.23    0.51
  -8   2   5    3.32    0.71
  -8   2   4    2.84    0.64
  -8   2   3    1.09    0.43
  -8   2   2    2.36    0.55
  -8   2   1    0.44    0.31
  -8   2   0    6.24    0.71
  -8   2   0    6.85    0.70
  -8   2  -1    1.22    0.40
  -8   2  -1    1.32    0.41
  -8   2  -2    0.61    0.31
  -8   2  -2    0.39    0.26
  -8   2  -3   -0.07    0.22
  -8   2  -3   -0.06    0.18
  -8   2  -4    2.54    0.51
  -8   2  -4    2.10    0.52
  -8   2  -5    4.75    0.76
  -8   2  -7    1.01    0.46
  -8   2  -8    0.48    0.39
  -8   1   6    2.16    0.62
  -8   1   5    3.53    0.72
  -8   1   4    5.73    0.87
  -8   1   3    1.57    0.47
  -8   1   2    0.02    0.20
  -8   1   1   -0.05    0.23
  -8   1   0    0.95    0.38
  -8   1   0    1.13    0.35
  -8   1  -1    8.73    0.80
  -8   1  -2    0.52    0.30
  -8   1  -2    0.41    0.27
  -8   1  -3    0.21    0.25
  -8   1  -3    0.11    0.21
  -8   1  -4    2.15    0.48
  -8   1  -4    2.39    0.52
  -8   1  -5    1.97    0.47
  -8   1  -5    2.30    0.53
  -8   1  -6    7.21    0.79
  -8   1  -7    0.55    0.40
  -8   1  -8    0.58    0.40
  -8   0   6    0.44    0.38
  -8   0   5   -0.19    0.25
  -8   0   4    0.77    0.40
  -8   0   3    4.26    0.73
  -8   0   2    0.04    0.25
  -8   0   1    4.96    0.73
  -8   0   0    5.19    0.75
  -8   0  -1    3.37    0.61
  -8   0  -1    4.15    0.51
  -8   0  -2    9.58    0.83
  -8   0  -2   10.43    0.77
  -8   0  -3    2.50    0.53
  -8   0  -3    2.15    0.45
  -8   0  -4    3.90    0.63
  -8   0  -4    5.07    0.59
  -8   0  -5    2.24    0.50
  -8   0  -5    1.63    0.44
  -8   0  -6    3.98    0.65
  -8   0  -6    4.57    0.71
  -8   0  -7    0.69    0.34
  -8   0  -7    1.40    0.46
  -8   0  -8   -0.03    0.29
  -8  -1   6    0.22    0.35
  -8  -1   5    2.02    0.59
  -8  -1   4    0.49    0.36
  -8  -1   3    4.76    0.79
  -8  -1   2    1.46    0.48
  -8  -1   1    0.04    0.24
  -8  -1   0    5.31    0.66
  -8  -1  -1   10.92    0.91
  -8  -1  -1   12.87    0.80
  -8  -1  -2    3.03    0.58
  -8  -1  -2    3.23    0.49
  -8  -1  -3    4.80    0.71
  -8  -1  -3    5.50    0.57
  -8  -1  -4    1.47    0.43
  -8  -1  -4    1.20    0.34
  -8  -1  -5    1.07    0.40
  -8  -1  -6    2.82    0.56
  -8  -1  -7    0.46    0.30
  -8  -1  -8   -0.21    0.20
  -8  -2   6    0.20    0.35
  -8  -2   5    1.97    0.58
  -8  -2   4    0.50    0.35
  -8  -2   3    3.77    0.72
  -8  -2   2    5.48    0.82
  -8  -2   1    7.28    0.81
  -8  -2   0    4.10    0.70
  -8  -2  -1   10.23    0.88
  -8  -2  -2   11.85    0.94
  -8  -2  -3    1.55    0.45
  -8  -2  -4    0.13    0.24
  -8  -2  -5    1.29    0.41
  -8  -2  -6    0.35    0.29
  -8  -2  -7    1.26    0.43
  -8  -2  -8    2.05    0.53
  -8  -2  -9    0.47    0.35
  -8  -3   5    0.41    0.38
  -8  -3   4    0.63    0.39
  -8  -3   3    4.58    0.79
  -8  -3   2   11.15    1.00
  -8  -3   1    3.40    0.67
  -8  -3   0    2.91    0.59
  -8  -3  -1    0.15    0.27
  -8  -3  -2    4.38    0.70
  -8  -3  -3    6.14    0.70
  -8  -3  -4    0.14    0.24
  -8  -3  -5    1.25    0.44
  -8  -3  -6    0.38    0.30
  -8  -3  -7    2.52    0.58
  -8  -3  -8    2.99    0.63
  -8  -3  -9    0.49    0.34
  -8  -3 -10    1.43    0.49
  -8  -4   5    0.12    0.36
  -8  -4   4    0.28    0.38
  -8  -4   3    3.34    0.71
  -8  -4   2    6.55    0.81
  -8  -4   1    3.39    0.68
  -8  -4   0    0.19    0.30
  -8  -4  -1    2.34    0.54
  -8  -4  -2    1.37    0.45
  -8  -4  -3    2.10    0.52
  -8  -4  -4    0.92    0.38
  -8  -4  -5   -0.07    0.22
  -8  -4  -6    3.57    0.66
  -8  -4  -7    8.60    0.89
  -8  -4  -8    1.88    0.54
  -8  -4  -9    1.78    0.53
  -8  -4 -10    0.45    0.34
  -8  -5   4    0.28    0.37
  -8  -5   3   -0.25    0.23
  -8  -5   2    0.94    0.44
  -8  -5   1    0.52    0.36
  -8  -5   0    0.03    0.24
  -8  -5  -1    0.94    0.41
  -8  -5  -2    0.66    0.37
  -8  -5  -3    4.06    0.72
  -8  -5  -4    4.79    0.76
  -8  -5  -5    0.68    0.34
  -8  -5  -6    5.03    0.80
  -8  -5  -7    0.68    0.35
  -8  -5  -8    2.67    0.63
  -8  -5  -9    0.86    0.42
  -8  -5 -10    0.28    0.32
   8   6  -3   -0.05    0.29
  -8  -6   2    0.10    0.29
   8   6  -2   -0.06    0.29
  -8  -6   1    0.90    0.42
   8   6  -1    0.71    0.43
  -8  -6   0    0.68    0.38
   8   6   0    1.27    0.46
  -8  -6  -1    0.20    0.30
   8   6   1    0.14    0.28
  -8  -6  -2    1.54    0.49
   8   6   2    1.68    0.52
  -8  -6  -3    6.88    0.81
  -8  -6  -4    5.49    0.85
  -8  -6  -5    4.82    0.80
  -8  -6  -6   -0.15    0.20
  -8  -6  -7    0.27    0.30
  -8  -6  -8    0.14    0.28
  -8  -6  -9    0.39    0.34
   8   7  -2    0.11    0.32
  -8  -7   1    1.31    0.48
   8   7  -1    1.74    0.57
  -8  -7   0    7.14    0.84
   8   7   0    8.38    0.95
  -8  -7  -1    2.66    0.63
   8   7   1    2.78    0.67
  -8  -7  -2    0.98    0.44
   8   7   2    1.60    0.53
  -8  -7  -3    0.88    0.42
   8   7   3    1.10    0.44
  -8  -7  -4    5.97    0.90
   8   7   4    7.20    0.86
  -8  -7  -5    1.31    0.48
  -8  -7  -6    0.09    0.27
  -8  -7  -7    0.43    0.35
  -8  -7  -8   -0.10    0.23
  -8  -7  -9    0.38    0.35
   8   8   0    5.17    0.92
  -8  -8  -1    3.25    0.70
   8   8   1    3.47    0.77
  -8  -8  -2    0.00    0.27
   8   8   2    0.02    0.27
  -8  -8  -3   -0.04    0.25
   8   8   3    0.20    0.34
  -8  -8  -4    0.57    0.37
   8   8   4    0.38    0.40
  -8  -8  -5    0.34    0.34
   8   8   5    0.32    0.36
  -8  -8  -6    0.14    0.30
  -8  -8  -7    0.07    0.29
  -8  -8  -8    0.08    0.31
  -8  -9  -2   -0.17    0.29
   8   9   2   -0.06    0.27
  -8  -9  -3    0.73    0.43
   8   9   3    0.74    0.43
  -8  -9  -4    0.47    0.36
   8   9   4    0.23    0.32
  -8  -9  -5    0.09    0.30
   8   9   5    0.33    0.39
  -8  -9  -6    0.28    0.35
   8   9   6    0.69    0.47
  -9   5   3   -0.22    0.23
  -9   5   3    0.18    0.27
  -9   5   2    0.16    0.34
  -9   5   2    0.46    0.34
  -9   5   1    0.89    0.43
  -9   5   0    1.09    0.46
  -9   5  -1    1.38    0.49
  -9   5  -2   -0.05    0.29
  -9   4   4    0.26    0.34
  -9   4   3   -0.02    0.27
  -9   4   2    1.16    0.46
  -9   4   2    1.62    0.51
  -9   4   1    1.58    0.50
  -9   4   1    1.10    0.42
  -9   4   0    3.62    0.69
  -9   4   0    3.78    0.71
  -9   4  -1    1.86    0.55
  -9   4  -2    0.01    0.28
  -9   4  -3    0.28    0.34
  -9   4  -4    0.32    0.37
  -9   3   5    1.23    0.54
  -9   3   4    6.92    1.01
  -9   3   3    0.22    0.33
  -9   3   2    2.91    0.66
  -9   3   1    0.19    0.29
  -9   3   1    0.13    0.25
  -9   3   0    1.45    0.47
  -9   3   0    1.29    0.43
  -9   3  -1    0.52    0.34
  -9   3  -1    0.31    0.29
  -9   3  -2    0.12    0.27
  -9   3  -2    0.21    0.31
  -9   3  -3    0.48    0.35
  -9   3  -4   -0.05    0.24
  -9   3  -5    0.23    0.36
  -9   2   5    1.64    0.55
  -9   2   4    3.05    0.71
  -9   2   3    2.86    0.66
  -9   2   2    0.02    0.28
  -9   2   1   -0.03    0.23
  -9   2   1    0.27    0.24
  -9   2   0    0.18    0.29
  -9   2   0   -0.02    0.19
  -9   2  -1    0.28    0.29
  -9   2  -1    0.43    0.29
  -9   2  -2    1.03    0.41
  -9   2  -2    0.52    0.32
  -9   2  -3    0.01    0.23
  -9   2  -3   -0.08    0.22
  -9   2  -4    0.45    0.33
  -9   2  -5    1.49    0.51
  -9   2  -6    0.94    0.46
  -9   1   5    1.03    0.47
  -9   1   4    0.74    0.41
  -9   1   3    0.09    0.26
  -9   1   2    4.22    0.76
  -9   1   1    1.77    0.51
  -9   1   0    0.19    0.28
  -9   1   0    0.08    0.22
  -9   1  -1    2.96    0.62
  -9   1  -1    3.45    0.60
  -9   1  -2    1.90    0.51
  -9   1  -2    2.30    0.52
  -9   1  -3    0.17    0.28
  -9   1  -3    0.37    0.29
  -9   1  -4    1.18    0.41
  -9   1  -4    1.44    0.45
  -9   1  -5    4.78    0.73
  -9   1  -5    4.89    0.78
  -9   1  -6    1.41    0.50
  -9   1  -7    2.78    0.67
  -9   0   5    0.71    0.44
  -9   0   4    0.16    0.33
  -9   0   3    0.42    0.35
  -9   0   2    1.39    0.48
  -9   0   1    0.40    0.31
  -9   0   0    0.39    0.32
  -9   0   0    0.34    0.25
  -9   0  -1    8.34    0.86
  -9   0  -1    8.60    0.76
  -9   0  -2    6.22    0.74
  -9   0  -2    7.40    0.71
  -9   0  -3    4.00    0.69
  -9   0  -3    4.60    0.68
  -9   0  -4    0.72    0.37
  -9   0  -5    0.51    0.32
  -9   0  -6    1.01    0.41
  -9  -1   5    1.15    0.53
  -9  -1   4    0.40    0.37
  -9  -1   3    2.37    0.62
  -9  -1   2    2.13    0.58
  -9  -1   1    0.59    0.38
  -9  -1   0    3.21    0.64
  -9  -1  -1    2.50    0.58
  -9  -1  -2    7.49    0.82
  -9  -1  -3    6.97    0.77
  -9  -1  -4    1.43    0.46
  -9  -1  -5    0.19    0.27
  -9  -1  -6    0.13    0.25
  -9  -1  -7    1.04    0.41
  -9  -1  -8   -0.15    0.23
  -9  -2   4    0.92    0.49
  -9  -2   3    1.56    0.54
  -9  -2   2   13.93    1.17
  -9  -2   1    3.60    0.70
  -9  -2   0    2.23    0.55
  -9  -2  -1    0.00    0.23
  -9  -2  -2    0.03    0.25
  -9  -2  -3    0.61    0.34
  -9  -2  -4    0.25    0.30
  -9  -2  -5    0.15    0.27
  -9  -2  -6   -0.05    0.24
  -9  -2  -7    2.25    0.56
  -9  -2  -8    2.26    0.59
  -9  -3   4    0.83    0.48
  -9  -3   3    0.82    0.47
  -9  -3   2    5.94    0.95
  -9  -3   1    4.30    0.78
  -9  -3   0    0.86    0.40
  -9  -3  -1   -0.07    0.24
  -9  -3  -2   -0.14    0.23
  -9  -3  -3    0.86    0.42
  -9  -3  -4    0.41    0.33
  -9  -3  -5    0.03    0.25
  -9  -3  -6    0.34    0.30
  -9  -3  -7    4.52    0.78
  -9  -3  -8    2.13    0.58
  -9  -3  -9    1.96    0.58
  -9  -4   3    0.06    0.35
  -9  -4   2    1.85    0.58
  -9  -4   1    0.42    0.36
  -9  -4   0    0.46    0.37
  -9  -4  -1    1.59    0.52
  -9  -4  -2   -0.05    0.24
  -9  -4  -3    2.84    0.63
  -9  -4  -4    5.71    0.86
  -9  -4  -5    0.46    0.35
  -9  -4  -6    1.16    0.44
  -9  -4  -7    1.15    0.46
  -9  -4  -8    0.71    0.41
  -9  -4  -9    0.50    0.37
  -9  -5   2    0.07    0.34
  -9  -5   1    0.12    0.31
  -9  -5   0    0.76    0.42
  -9  -5  -1   -0.01    0.27
  -9  -5  -2   -0.21    0.23
  -9  -5  -3    3.21    0.67
  -9  -5  -4    4.24    0.76
  -9  -5  -5    4.56    0.79
  -9  -5  -6    1.11    0.46
  -9  -5  -7    1.08    0.46
  -9  -5  -8    0.08    0.29
  -9  -6   1   -0.14    0.28
  -9  -6   0    4.06    0.80
  -9  -6  -1    1.74    0.57
  -9  -6  -2    2.52    0.63
  -9  -6  -3    0.76    0.42
  -9  -6  -4    1.86    0.56
  -9  -6  -5    4.75    0.84
  -9  -6  -6    0.16    0.32
  -9  -6  -7    0.05    0.25
  -9  -6  -8    0.16    0.31
  -9  -7   0    2.49    0.67
   9   7   0    2.26    0.66
  -9  -7  -1    3.45    0.74
   9   7   1    4.72    0.89
  -9  -7  -2    0.42    0.39
  -9  -7  -3   -0.12    0.25
  -9  -7  -4    0.39    0.35
  -9  -7  -5    0.33    0.33
  -9  -7  -6   -0.12    0.25
  -9  -7  -7   -0.02    0.28
  -9  -8  -3    0.13    0.32
   9   8   3   -0.01    0.31
  -9  -8  -4   -0.02    0.30
  -9  -8  -5    0.21    0.32
 -10   3   2    0.45    0.40
 -10   3   2    0.27    0.31
 -10   3   1    0.33    0.38
 -10   3   1    0.68    0.38
 -10   3   0    0.33    0.36
 -10   3   0    0.46    0.35
 -10   3  -1    0.37    0.37
 -10   3  -1    0.68    0.40
 -10   3  -2    0.54    0.40
 -10   3  -3   -0.15    0.25
 -10   2   2    0.16    0.35
 -10   2   1   -0.12    0.27
 -10   2   1   -0.02    0.20
 -10   2   0    0.06    0.32
 -10   2   0    0.06    0.25
 -10   2  -1    0.40    0.35
 -10   2  -1    0.41    0.32
 -10   2  -2    1.94    0.54
 -10   2  -2    2.17    0.58
 -10   2  -3    0.74    0.42
 -10   2  -3    1.21    0.47
 -10   2  -4   -0.01    0.29
 -10   1   3    0.75    0.45
 -10   1   2    0.51    0.40
 -10   1   1   -0.03    0.29
 -10   1   1    0.06    0.24
 -10   1   0    0.64    0.40
 -10   1   0    0.43    0.29
 -10   1  -1    1.33    0.50
 -10   1  -1    1.87    0.51
 -10   1  -2    2.90    0.66
 -10   1  -2    3.49    0.65
 -10   1  -3    1.62    0.50
 -10   1  -4    2.33    0.58
 -10   0   3    0.45    0.41
 -10   0   2    3.93    0.81
 -10   0   1    0.64    0.41
 -10   0   0    0.07    0.28
 -10   0  -1    2.48    0.61
 -10   0  -2    0.94    0.45
 -10   0  -3    1.10    0.46
 -10   0  -4    0.33    0.33
 -10   0  -5    0.67    0.38
 -10   0  -6    0.29    0.32
 -10  -1   3    0.70    0.47
 -10  -1   2    2.43    0.65
 -10  -1   1    4.14    0.80
 -10  -1   0    2.69    0.66
 -10  -1  -1    2.06    0.58
 -10  -1  -2    2.89    0.67
 -10  -1  -3    0.70    0.40
 -10  -1  -4    0.36    0.33
 -10  -1  -5    0.06    0.27
 -10  -1  -6    0.21    0.30
 -10  -2   2    1.38    0.55
 -10  -2   1    3.84    0.80
 -10  -2   0    0.93    0.45
 -10  -2  -1    0.10    0.29
 -10  -2  -2    0.19    0.32
 -10  -2  -3    1.40    0.51
 -10  -2  -4    0.87    0.43
 -10  -2  -5    0.21    0.30
 -10  -2  -6    0.12    0.28
 -10  -2  -7    0.61    0.40
 -10  -3   2    1.30    0.56
 -10  -3   1    1.45    0.55
 -10  -3   0    0.76    0.43
 -10  -3  -1    0.01    0.29
 -10  -3  -2    1.30    0.50
 -10  -3  -3    0.08    0.27
 -10  -3  -4    3.12    0.69
 -10  -3  -5    1.42    0.50
 -10  -3  -6    0.60    0.40
 -10  -3  -7    2.04    0.59
 -10  -4   1    0.47    0.41
 -10  -4   0   -0.01    0.33
 -10  -4  -1    0.06    0.31
 -10  -4  -2   -0.21    0.23
 -10  -4  -3    0.66    0.41
 -10  -4  -4    2.51    0.64
 -10  -4  -5    2.70    0.66
 -10  -4  -6    0.03    0.31
 -10  -4  -7    1.46    0.53
 -10  -5   0    0.34    0.39
 -10  -5  -1    1.67    0.57
 -10  -5  -2    0.23    0.33
 -10  -5  -3    1.90    0.58
 -10  -5  -4    1.10    0.46
 -10  -5  -5    1.58    0.54
 -10  -5  -6    1.56    0.56
 -10  -6  -2    3.44    0.77
 -10  -6  -3    0.16    0.30
 -10  -6  -4    0.37    0.41
 -11  -1  -1    0.91    0.49
 -11  -1  -2    0.10    0.32
 -11  -1  -3    0.06    0.30
 -11  -2  -1    0.06    0.33
 -11  -2  -2    0.02    0.33
 -11  -2  -3   -0.09    0.28
 -11  -3  -3    0.35    0.38
   0   0   0    0.00    0.00
;
loop_
_space_group_symop_operation_xyz
'x, y, z'
'-x, -y, -z'
loop_
_atom_site_label
_atom_site_type_symbol
_atom_site_fract_x
_atom_site_fract_y
_atom_site_fract_z
_atom_site_U_iso_or_equiv
_atom_site_adp_type
_atom_site_occupancy
_atom_site_site_symmetry_order
_atom_site_calc_flag
_atom_site_refinement_flags_posn
_atom_site_refinement_flags_adp
_atom_site_refinement_flags_occupancy
_atom_site_disorder_assembly
_atom_site_disorder_group
NI1 Ni 1.000000 0.000000 0.000000 0.03773(15) Uani 1 2 d S . P . .
N1 N 0.9928(3) 0.3464(3) 0.3896(3) 0.0630(7) Uani 1 1 d . . . . .
N2 N 0.6817(3) -0.0201(3) 0.5746(3) 0.0620(7) Uani 1 1 d . . . . .
N3 N 0.3109(3) 0.6872(3) 0.1478(2) 0.0428(6) Uani 1 1 d . . . . .
S1 S 1.08528(9) 0.16969(9) 0.08286(7) 0.0507(2) Uani 1 1 d . . . . .
S2 S 0.84212(10) -0.09661(8) 0.21113(7) 0.0485(2) Uani 1 1 d . . . . .
C1 C 0.9665(3) 0.1409(3) 0.2596(3) 0.0419(7) Uani 1 1 d . . . . .
C2 C 0.9798(3) 0.2525(4) 0.3359(3) 0.0463(7) Uani 1 1 d . . . . .
C3 C 0.8622(3) 0.0266(3) 0.3145(3) 0.0399(7) Uani 1 1 d . . . . .
C4 C 0.7618(3) 0.0017(3) 0.4591(3) 0.0439(7) Uani 1 1 d . . . . .
C5 C 0.2385(4) 0.5943(4) 0.0995(3) 0.0579(8) Uani 1 1 d . . . . .
H5 H 0.157649 0.532901 0.165014 0.070 Uiso 1 1 calc R U . . .
C6 C 0.2801(5) 0.5863(4) -0.0459(4) 0.0724(10) Uani 1 1 d . . . . .
H6 H 0.229756 0.518930 -0.078264 0.087 Uiso 1 1 calc R U . . .
C7 C 0.3958(5) 0.6787(5) -0.1409(4) 0.0778(12) Uani 1 1 d . . . . .
H7 H 0.424905 0.676181 -0.240025 0.093 Uiso 1 1 calc R U . . .
C8 C 0.4695(4) 0.7751(5) -0.0907(3) 0.0775(12) Uani 1 1 d . . . . .
H8 H 0.548828 0.838877 -0.155504 0.093 Uiso 1 1 calc R U . . .
C9 C 0.4265(4) 0.7777(4) 0.0541(3) 0.0617(9) Uani 1 1 d . . . . .
H9 H 0.477593 0.842725 0.088758 0.074 Uiso 1 1 calc R U . . .
C10 C 0.2645(4) 0.6918(4) 0.3075(3) 0.0541(8) Uani 1 1 d . . . . .
H10A H 0.156406 0.653663 0.347180 0.065 Uiso 1 1 calc R U . . .
H10B H 0.259375 0.799967 0.308079 0.065 Uiso 1 1 calc R U . . .
C11 C 0.3863(3) 0.5925(3) 0.4078(3) 0.0409(7) Uani 1 1 d . . . . .
C12 C 0.3662(4) 0.4350(3) 0.4834(3) 0.0525(8) Uani 1 1 d . . . . .
H12 H 0.275454 0.390074 0.473794 0.063 Uiso 1 1 calc R U . . .
C13 C 0.5202(4) 0.6561(3) 0.4270(3) 0.0516(8) Uani 1 1 d . . . . .
H13 H 0.534207 0.762540 0.378551 0.062 Uiso 1 1 calc R U . . .
loop_
_atom_site_aniso_label
_atom_site_aniso_U_11
_atom_site_aniso_U_22
_atom_site_aniso_U_33
_atom_site_aniso_U_23
_atom_site_aniso_U_13
_atom_site_aniso_U_12
NI1 0.0349(3) 0.0435(3) 0.0313(3) -0.0081(2) -0.0005(2) -0.0051(2)
N1 0.0653(19) 0.0744(19) 0.0555(16) -0.0301(15) 0.0050(13) -0.0202(15)
N2 0.0624(18) 0.0725(18) 0.0420(14) -0.0100(13) 0.0041(13) -0.0089(14)
N3 0.0380(14) 0.0490(14) 0.0332(12) -0.0030(11) -0.0062(10) 0.0021(12)
S1 0.0484(5) 0.0654(5) 0.0398(4) -0.0189(4) 0.0072(3) -0.0218(4)
S2 0.0551(5) 0.0503(4) 0.0374(4) -0.0120(3) 0.0071(3) -0.0172(4)
C1 0.0395(17) 0.0519(17) 0.0317(14) -0.0101(13) -0.0028(12) -0.0051(14)
C2 0.0397(18) 0.0605(19) 0.0362(15) -0.0120(15) 0.0020(13) -0.0130(15)
C3 0.0378(17) 0.0500(17) 0.0289(13) -0.0085(13) -0.0047(12) -0.0030(14)
C4 0.0434(18) 0.0480(17) 0.0356(15) -0.0068(13) -0.0039(13) -0.0056(14)
C5 0.048(2) 0.068(2) 0.0505(19) -0.0033(17) -0.0114(15) -0.0113(17)
C6 0.083(3) 0.083(3) 0.059(2) -0.029(2) -0.029(2) 0.012(2)
C7 0.076(3) 0.101(3) 0.0391(19) -0.015(2) -0.0122(19) 0.042(2)
C8 0.065(3) 0.094(3) 0.042(2) 0.0097(19) 0.0093(17) 0.002(2)
C9 0.060(2) 0.058(2) 0.0537(19) 0.0022(16) -0.0038(16) -0.0141(17)
C10 0.0461(19) 0.076(2) 0.0340(15) -0.0145(15) -0.0037(13) 0.0075(16)
C11 0.0372(17) 0.0526(18) 0.0280(13) -0.0107(13) 0.0016(12) 0.0005(14)
C12 0.0457(19) 0.060(2) 0.0496(17) -0.0099(16) -0.0101(15) -0.0115(16)
C13 0.054(2) 0.0460(17) 0.0482(17) -0.0025(15) -0.0088(15) -0.0092(16)
loop_
_atom_type_symbol
_atom_type_description
_atom_type_scat_dispersion_real
_atom_type_scat_dispersion_imag
_atom_type_scat_source
C C 0.0033 0.0016 'International Tables Vol C Tables 4.2.6.8 and 6.1.1.4'
H H 0.0000 0.0000 'International Tables Vol C Tables 4.2.6.8 and 6.1.1.4'
N N 0.0061 0.0033 'International Tables Vol C Tables 4.2.6.8 and 6.1.1.4'
Ni Ni 0.3393 1.1124 'International Tables Vol C Tables 4.2.6.8 and 6.1.1.4'
S S 0.1246 0.1234 'International Tables Vol C Tables 4.2.6.8 and 6.1.1.4'
loop_
_geom_angle_atom_site_label_1
_geom_angle_atom_site_label_2
_geom_angle_atom_site_label_3
_geom_angle
_geom_angle_site_symmetry_1
_geom_angle_site_symmetry_3
S2 NI1 S2 180.0 2_755 .
S2 NI1 S1 92.49(3) 2_755 2_755
S2 NI1 S1 87.51(3) . 2_755
S2 NI1 S1 87.51(3) 2_755 .
S2 NI1 S1 92.49(3) . .
S1 NI1 S1 180.0 2_755 .
C5 N3 C9 120.0(3) . .
C5 N3 C10 120.2(2) . .
C9 N3 C10 119.8(3) . .
C1 S1 NI1 102.62(10) . .
C3 S2 NI1 102.71(9) . .
C3 C1 C2 123.1(2) . .
C3 C1 S1 120.9(2) . .
C2 C1 S1 115.8(2) . .
N1 C2 C1 176.6(3) . .
C1 C3 C4 121.9(2) . .
C1 C3 S2 120.96(19) . .
C4 C3 S2 117.1(2) . .
N2 C4 C3 179.2(3) . .
N3 C5 C6 121.4(3) . .
N3 C5 H5 119.3 . .
C6 C5 H5 119.3 . .
C7 C6 C5 118.6(4) . .
C7 C6 H6 120.7 . .
C5 C6 H6 120.7 . .
C6 C7 C8 119.8(3) . .
C6 C7 H7 120.1 . .
C8 C7 H7 120.1 . .
C9 C8 C7 119.7(3) . .
C9 C8 H8 120.2 . .
C7 C8 H8 120.2 . .
N3 C9 C8 120.5(3) . .
N3 C9 H9 119.7 . .
C8 C9 H9 119.7 . .
N3 C10 C11 111.4(2) . .
N3 C10 H10A 109.4 . .
C11 C10 H10A 109.4 . .
N3 C10 H10B 109.4 . .
C11 C10 H10B 109.4 . .
H10A C10 H10B 108.0 . .
C13 C11 C12 118.3(3) . .
C13 C11 C10 121.0(3) . .
C12 C11 C10 120.7(3) . .
C13 C12 C11 120.4(3) 2_666 .
C13 C12 H12 119.8 2_666 .
C11 C12 H12 119.8 . .
C11 C13 C12 121.3(3) . 2_666
C11 C13 H13 119.4 . .
C12 C13 H13 119.4 2_666 .
loop_
_geom_bond_atom_site_label_1
_geom_bond_atom_site_label_2
_geom_bond_distance
_geom_bond_site_symmetry_2
NI1 S2 2.1651(6) 2_755
NI1 S2 2.1651(6) .
NI1 S1 2.1652(7) 2_755
NI1 S1 2.1652(7) .
N1 C2 1.141(3) .
N2 C4 1.143(3) .
N3 C5 1.319(3) .
N3 C9 1.342(3) .
N3 C10 1.499(3) .
S1 C1 1.739(3) .
S2 C3 1.736(3) .
C1 C3 1.342(3) .
C1 C2 1.437(4) .
C3 C4 1.433(3) .
C5 C6 1.376(4) .
C5 H5 0.9300 .
C6 C7 1.355(5) .
C6 H6 0.9300 .
C7 C8 1.361(5) .
C7 H7 0.9300 .
C8 C9 1.356(4) .
C8 H8 0.9300 .
C9 H9 0.9300 .
C10 C11 1.503(3) .
C10 H10A 0.9700 .
C10 H10B 0.9700 .
C11 C13 1.376(4) .
C11 C12 1.380(4) .
C12 C13 1.378(4) 2_666
C12 H12 0.9300 .
C13 C12 1.378(4) 2_666
C13 H13 0.9300 .
loop_
_geom_torsion_atom_site_label_1
_geom_torsion_atom_site_label_2
_geom_torsion_atom_site_label_3
_geom_torsion_atom_site_label_4
_geom_torsion
_geom_torsion_site_symmetry_1
_geom_torsion_site_symmetry_2
_geom_torsion_site_symmetry_3
_geom_torsion_site_symmetry_4
NI1 S1 C1 C3 3.9(2) . . . .
NI1 S1 C1 C2 -172.11(19) . . . .
C2 C1 C3 C4 -3.6(4) . . . .
S1 C1 C3 C4 -179.3(2) . . . .
C2 C1 C3 S2 175.7(2) . . . .
S1 C1 C3 S2 0.0(3) . . . .
NI1 S2 C3 C1 -3.9(2) . . . .
NI1 S2 C3 C4 175.44(19) . . . .
C9 N3 C5 C6 0.7(4) . . . .
C10 N3 C5 C6 -179.2(3) . . . .
N3 C5 C6 C7 -1.2(5) . . . .
C5 C6 C7 C8 0.8(5) . . . .
C6 C7 C8 C9 0.1(5) . . . .
C5 N3 C9 C8 0.3(4) . . . .
C10 N3 C9 C8 -179.8(3) . . . .
C7 C8 C9 N3 -0.7(5) . . . .
C5 N3 C10 C11 99.8(3) . . . .
C9 N3 C10 C11 -80.2(3) . . . .
N3 C10 C11 C13 90.7(3) . . . .
N3 C10 C11 C12 -89.5(3) . . . .
C13 C11 C12 C13 -1.4(5) . . . 2_666
C10 C11 C12 C13 178.9(2) . . . 2_666
C12 C11 C13 C12 1.4(5) . . . 2_666
C10 C11 C13 C12 -178.8(2) . . . 2_666
