#------------------------------------------------------------------------------
#$Date: 2022-02-22 12:41:16 +0200 (Tue, 22 Feb 2022) $
#$Revision: 273107 $
#$URL: file:///home/coder/svn-repositories/cod/cif/8/10/46/8104603.cif $
#------------------------------------------------------------------------------
#
# This file is available in the Crystallography Open Database (COD),
# http://www.crystallography.net/
#
# All data on this site have been placed in the public domain by the
# contributors.
#
data_8104603
loop_
_publ_author_name
'Chen, Hai-Lin'
'Yao, Dong-Mei'
'Wang, Yan-Ping'
'Lao, Ya-Xin'
_publ_section_title
;
 The crystal structure of poly[(\m
 4-4,4&#x2032;-(azanediylbis(methylene))dibenzoato-\k 4
 O:N:O&#x2032;:O&#x02BA;)zinc(II)], C16H13NO4Zn
;
_journal_issue                   6
_journal_name_full
'Zeitschrift f\"ur Kristallographie - New Crystal Structures'
_journal_page_first              1345
_journal_page_last               1346
_journal_paper_doi               10.1515/ncrs-2021-0337
_journal_volume                  236
_journal_year                    2021
_chemical_formula_moiety         'C16 H13 N O4 Zn'
_chemical_formula_sum            'C16 H13 N O4 Zn'
_chemical_formula_weight         348.64
_space_group_crystal_system      triclinic
_space_group_IT_number           2
_space_group_name_Hall           '-P 1'
_space_group_name_H-M_alt        'P -1'
_atom_sites_solution_hydrogens   geom
_atom_sites_solution_primary     dual
_cell_angle_alpha                76.410(8)
_cell_angle_beta                 75.495(8)
_cell_angle_gamma                75.902(8)
_cell_formula_units_Z            2
_cell_length_a                   7.5223(6)
_cell_length_b                   8.0977(8)
_cell_length_c                   11.7739(11)
_cell_measurement_reflns_used    1605
_cell_measurement_temperature    293(2)
_cell_measurement_theta_max      27.5520
_cell_measurement_theta_min      4.0580
_cell_volume                     661.76(11)
_computing_cell_refinement
'CrysAlisPro 1.171.38.41 (Rigaku OD, 2015) [1]'
_computing_data_collection
'CrysAlisPro 1.171.38.41 (Rigaku OD, 2015) [1]'
_computing_data_reduction
'CrysAlisPro 1.171.38.41 (Rigaku OD, 2015) [1]'
_computing_molecular_graphics    'Diamond 3.2 [2]'
_computing_publication_material  'SHELXL 2018/3 (Sheldrick, 2015)[3]'
_computing_structure_refinement  'SHELXL 2018/3 (Sheldrick, 2015)[3]'
_computing_structure_solution    'SHELXT 2018/2 (Sheldrick, 2018)[4]'
_diffrn_ambient_temperature      293(2)
_diffrn_measured_fraction_theta_full 0.998
_diffrn_measured_fraction_theta_max 0.998
_diffrn_measurement_device_type  'multiwire proportional'
_diffrn_measurement_method       'phi and omega scans'
_diffrn_radiation_monochromator  graphite
_diffrn_radiation_type           MoK\a
_diffrn_radiation_wavelength     0.71073
_diffrn_reflns_av_R_equivalents  0.0433
_diffrn_reflns_av_unetI/netI     0.0817
_diffrn_reflns_Laue_measured_fraction_full 0.998
_diffrn_reflns_Laue_measured_fraction_max 0.998
_diffrn_reflns_limit_h_max       9
_diffrn_reflns_limit_h_min       -9
_diffrn_reflns_limit_k_max       10
_diffrn_reflns_limit_k_min       -9
_diffrn_reflns_limit_l_max       14
_diffrn_reflns_limit_l_min       -14
_diffrn_reflns_number            5365
_diffrn_reflns_point_group_measured_fraction_full 0.998
_diffrn_reflns_point_group_measured_fraction_max 0.998
_diffrn_reflns_theta_full        25.242
_diffrn_reflns_theta_max         26.370
_diffrn_reflns_theta_min         3.472
_diffrn_source                   'fine-focus sealed X-ray tube'
_exptl_absorpt_coefficient_mu    1.874
_exptl_absorpt_correction_type   none
_exptl_crystal_colour            colorless
_exptl_crystal_density_diffrn    1.750
_exptl_crystal_description       block
_exptl_crystal_F_000             356
_exptl_crystal_size_max          0.3
_exptl_crystal_size_mid          0.2
_exptl_crystal_size_min          0.2
_refine_diff_density_max         0.501
_refine_diff_density_min         -0.404
_refine_diff_density_rms         0.095
_refine_ls_extinction_coef       .
_refine_ls_extinction_method     none
_refine_ls_goodness_of_fit_ref   1.073
_refine_ls_hydrogen_treatment    constr
_refine_ls_matrix_type           full
_refine_ls_number_parameters     199
_refine_ls_number_reflns         2700
_refine_ls_number_restraints     0
_refine_ls_restrained_S_all      1.073
_refine_ls_R_factor_all          0.0745
_refine_ls_R_factor_gt           0.0532
_refine_ls_shift/su_max          0.000
_refine_ls_shift/su_mean         0.000
_refine_ls_structure_factor_coef Fsqd
_refine_ls_weighting_details
'w=1/[\s^2^(Fo^2^)+(0.0323P)^2^+0.1402P] where P=(Fo^2^+2Fc^2^)/3'
_refine_ls_weighting_scheme      calc
_refine_ls_wR_factor_gt          0.0938
_refine_ls_wR_factor_ref         0.1041
_reflns_Friedel_coverage         0.000
_reflns_Friedel_fraction_full    .
_reflns_Friedel_fraction_max     .
_reflns_number_gt                2146
_reflns_number_total             2700
_reflns_threshold_expression     'I > 2\s(I)'
_cod_data_source_file            suppl_j_ncrs-2021-0337_suppl.cif
_cod_data_source_block           a
_cod_database_code               8104603
_shelx_space_group_comment
;
The symmetry employed for this shelxl refinement is uniquely defined
by the following loop, which should always be used as a source of
symmetry information in preference to the above space-group names.
They are only intended as comments.
;
_exptl_absorpt_special_details   none
_olex2_refinement_description
;
1. Fixed Uiso
 At 1.2 times of:
  All C(H) groups, All C(H,H) groups, All N(H) groups
2.a Ternary CH refined with riding coordinates:
 N1(H1)
2.b Secondary CH2 refined with riding coordinates:
 C8(H8A,H8B), C9(H9A,H9B)
2.c Aromatic/amide H refined with riding coordinates:
 C3(H3), C4(H4), C6(H6), C7(H7), C11(H11), C12(H12), C14(H14), C15(H15)
;
_shelx_res_file
;
TITL a_a.res in P-1
    a.res
    created by SHELXL-2018/3 at 21:13:34 on 23-Jun-2021
REM Old TITL a in P-1 #2
REM SHELXT solution in P-1: R1 0.105, Rweak 0.023, Alpha 0.059
REM <I/s> 0.000 for 0 systematic absences, Orientation as input
REM Formula found by SHELXT: C16 N O4 Zn
CELL 0.71073 7.5223 8.0977 11.7739 76.41 75.495 75.902
ZERR 2 0.0006 0.0008 0.0011 0.008 0.008 0.008
LATT 1
SFAC C H N O Zn
UNIT 32 26 2 8 2

L.S. 4
PLAN  5
CONF
BOND
list 4
fmap 2
ACTA
MORE -1
BOND $H
SHEL 999 0.8
REM <olex2.extras>
REM <HklSrc "%.\\a.hkl">
REM </olex2.extras>

WGHT    0.032300    0.140200
FVAR       0.84838
ZN1   5    0.394868   -0.049295    0.171397    11.00000    0.03162    0.02592 =
         0.02889   -0.00904   -0.00677   -0.00532
O1    4    0.526485    0.075195    0.234497    11.00000    0.03710    0.04082 =
         0.02748   -0.01302   -0.00492   -0.01517
O2    4    0.250395    0.143161    0.352793    11.00000    0.03187    0.05156 =
         0.04822   -0.01651   -0.01404   -0.00875
O3    4    0.701985    0.898361    0.967170    11.00000    0.04429    0.01897 =
         0.03556   -0.00413   -0.01764   -0.00540
O4    4    0.563425    0.736686    1.126972    11.00000    0.03740    0.02672 =
         0.02712   -0.01035   -0.00337   -0.00014
N1    3    0.837792    0.145897    0.730312    11.00000    0.02795    0.02361 =
         0.02424   -0.01242   -0.00479   -0.00366
AFIX  13
H1    2    0.904927    0.059783    0.680304    11.00000   -1.20000
AFIX   0
C1    1    0.420626    0.137674    0.323364    11.00000    0.03428    0.01958 =
         0.03105   -0.00090   -0.01261   -0.00546
C2    1    0.515728    0.200664    0.399057    11.00000    0.03020    0.02011 =
         0.02291   -0.00485   -0.00436   -0.00490
C3    1    0.709185    0.190976    0.371682    11.00000    0.03112    0.03914 =
         0.02578   -0.01437    0.00306   -0.00734
AFIX  43
H3    2    0.779258    0.157377    0.300797    11.00000   -1.20000
AFIX   0
C4    1    0.797800    0.230527    0.448273    11.00000    0.02596    0.04263 =
         0.03227   -0.00813   -0.00204   -0.01069
AFIX  43
H4    2    0.926755    0.223642    0.428774    11.00000   -1.20000
AFIX   0
C5    1    0.695048    0.280516    0.554252    11.00000    0.03671    0.02704 =
         0.02319   -0.00243   -0.01053   -0.01076
C6    1    0.501977    0.298502    0.579617    11.00000    0.03512    0.02877 =
         0.02130   -0.00779   -0.00435   -0.00304
AFIX  43
H6    2    0.431327    0.338737    0.648197    11.00000   -1.20000
AFIX   0
C7    1    0.414191    0.256715    0.503113    11.00000    0.02206    0.03322 =
         0.03048   -0.00543   -0.00381   -0.00285
AFIX  43
H7    2    0.284842    0.266442    0.521904    11.00000   -1.20000
AFIX   0
C8    1    0.794367    0.309205    0.642935    11.00000    0.04292    0.02946 =
         0.03161   -0.00739   -0.01458   -0.01035
AFIX  23
H8A   2    0.909678    0.347862    0.600660    11.00000   -1.20000
H8B   2    0.715657    0.398991    0.685310    11.00000   -1.20000
AFIX   0
C9    1    0.976554    0.153210    0.800151    11.00000    0.02763    0.02507 =
         0.02919   -0.00880   -0.00968    0.00098
AFIX  23
H9A   2    1.095361    0.165128    0.746140    11.00000   -1.20000
H9B   2    0.996492    0.045570    0.856850    11.00000   -1.20000
AFIX   0
C10   1    0.909789    0.303304    0.866652    11.00000    0.02314    0.02400 =
         0.02832   -0.01030   -0.01215    0.00037
C11   1    0.965054    0.460185    0.814692    11.00000    0.02464    0.02927 =
         0.02537   -0.00843   -0.00357   -0.00552
AFIX  43
H11   2    1.052979    0.468940    0.743330    11.00000   -1.20000
AFIX   0
C12   1    0.890709    0.602696    0.867995    11.00000    0.02512    0.02387 =
         0.02663   -0.00188   -0.00871   -0.00733
AFIX  43
H12   2    0.927627    0.707377    0.831274    11.00000   -1.20000
AFIX   0
C13   1    0.762217    0.593588    0.975042    11.00000    0.02147    0.02105 =
         0.02462   -0.00809   -0.01168   -0.00174
C14   1    0.712747    0.433655    1.030717    11.00000    0.02646    0.02808 =
         0.02294   -0.00727   -0.00479   -0.00718
AFIX  43
H14   2    0.629213    0.423568    1.103915    11.00000   -1.20000
AFIX   0
C15   1    0.788306    0.290598    0.976692    11.00000    0.03448    0.02230 =
         0.02730   -0.00472   -0.01270   -0.00896
AFIX  43
H15   2    0.756932    0.184162    1.014963    11.00000   -1.20000
AFIX   0
C16   1    0.669938    0.752735    1.025725    11.00000    0.02199    0.02420 =
         0.02711   -0.00536   -0.01390   -0.00068
HKLF 4




REM  a_a.res in P-1
REM wR2 = 0.1041, GooF = S = 1.073, Restrained GooF = 1.073 for all data
REM R1 = 0.0532 for 2146 Fo > 4sig(Fo) and 0.0745 for all 2700 data
REM 199 parameters refined using 0 restraints

END

WGHT      0.0326      0.1372

REM Highest difference peak  0.501,  deepest hole -0.404,  1-sigma level  0.095
Q1    1   0.5138  0.0411  0.1842  11.00000  0.05    0.50
Q2    1   0.6753  0.9629  0.9037  11.00000  0.05    0.37
Q3    1   0.9480  0.2291  0.8462  11.00000  0.05    0.33
Q4    1   0.3557  0.0870  0.3857  11.00000  0.05    0.33
Q5    1   0.5287  0.6563  1.1572  11.00000  0.05    0.33
;
_shelx_hkl_file
;
 -10  -5  -4   89.11   27.53
 -10  -4  -4   67.98   25.34
 -10  -4  -3   65.11   22.25
 -10  -3  -5   83.43   27.67
 -10  -3  -4  117.89   30.01
 -10  -3  -3   16.91   13.44
 -10  -2  -5   49.34   24.10
 -10  -2  -4   30.17   19.58
 -10  -2  -3   36.27   20.22
 -10  -1  -4   16.92   15.59
 -10  -1  -3   26.45   14.51
  -9  -7  -6   37.82   23.63
  -9  -7  -5   38.01   22.42
  -9  -7  -4   65.67   24.15
  -9  -7  -3    3.69    9.93
  -9  -6  -7  173.67   35.87
  -9  -6  -6   70.71   24.98
  -9  -6  -6   21.49   19.12
  -9  -6  -5   41.76   20.28
  -9  -6  -5   41.41   21.24
  -9  -6  -4   52.26   25.98
  -9  -6  -4   42.96   18.88
  -9  -6  -3   15.00   14.38
  -9  -6  -3   -6.02   14.58
  -9  -6  -2   82.09   25.01
  -9  -6  -2   59.74   20.73
  -9  -5  -7  154.88   35.60
  -9  -5  -6    8.04   11.19
  -9  -5  -5   11.28    9.62
  -9  -5  -4  103.36   29.08
  -9  -5  -4   81.38   23.78
  -9  -5  -3   16.89   14.49
  -9  -5  -3   13.62   15.90
  -9  -5  -2   13.27   12.18
  -9  -5  -2   24.23   13.01
  -9  -5  -1   82.02   27.00
  -9  -5   0   14.10   17.94
  -9  -4  -8   -1.87    8.46
  -9  -4  -7   45.35   17.68
  -9  -4  -6   39.27   18.39
  -9  -4  -6   82.94   29.06
  -9  -4  -5   -2.05    8.84
  -9  -4  -5   -2.10   11.91
  -9  -4  -4  225.60   43.75
  -9  -4  -4  168.48   34.08
  -9  -4  -3   94.94   29.56
  -9  -4  -3   97.43   26.42
  -9  -4  -2    6.80    6.23
  -9  -4  -2   -1.10   15.41
  -9  -4  -1   23.15   19.41
  -9  -4   0   45.10   22.97
  -9  -4   1   30.22   17.36
  -9  -4   2   38.64   19.11
  -9  -3  -8   41.68   21.68
  -9  -3  -7   21.81   15.95
  -9  -3  -6   76.69   27.14
  -9  -3  -6   75.23   25.79
  -9  -3  -5    9.84    7.47
  -9  -3  -5   25.34   16.51
  -9  -3  -4   17.79   15.56
  -9  -3  -4   45.45   24.31
  -9  -3  -3   64.87   23.75
  -9  -3  -3   30.22   15.27
  -9  -3  -2   50.05   21.02
  -9  -3  -2    3.20    6.80
  -9  -3  -1   34.92   20.64
  -9  -3   0    4.89   11.97
  -9  -3   1   30.31   17.50
  -9  -3   2   45.11   23.03
  -9  -3   3    0.89   12.16
  -9  -2  -8   13.93   18.95
  -9  -2  -7   24.65   16.54
  -9  -2  -7   -2.02   12.17
  -9  -2  -6  124.59   33.63
  -9  -2  -6   75.46   25.74
  -9  -2  -5   13.40   18.46
  -9  -2  -5   16.50   15.56
  -9  -2  -4   34.04   19.22
  -9  -2  -4   60.44   24.08
  -9  -2  -3  104.32   29.38
  -9  -2  -3  156.49   32.19
  -9  -2  -2   37.10   19.25
  -9  -2  -2   20.14   18.42
  -9  -2  -1   44.51   16.49
  -9  -2  -1   67.16   25.10
  -9  -2   0   44.24   21.48
  -9  -2   1    6.35   12.88
  -9  -2   2   27.31   19.84
  -9  -1  -6   19.62   13.75
  -9  -1  -5   24.02   18.52
  -9  -1  -4   46.95   22.95
  -9  -1  -4  102.49   27.69
  -9  -1  -3   81.79   24.74
  -9  -1  -3   77.71   30.68
  -9  -1  -2   18.31   13.45
  -9  -1  -2   38.26   22.62
  -9  -1  -1   11.44   10.91
  -9  -1  -1   -1.33    7.93
  -9  -1   0  122.66   36.25
  -9  -1   1   23.32   16.90
  -9   0  -5   87.91   30.53
  -9   0  -4    5.07    9.53
  -9   0  -3   66.72   25.99
  -9   0  -2  105.32   32.86
  -9   0  -1    9.43    9.02
  -8  -9  -6   -3.77   13.10
  -8  -8  -6    0.04    8.97
  -8  -8  -5    5.11   12.92
  -8  -8  -4  143.60   33.67
  -8  -7  -7    5.99   11.79
  -8  -7  -7   19.94   12.09
  -8  -7  -6   76.04   24.63
  -8  -7  -6  110.77   26.84
  -8  -7  -5    9.40   17.95
  -8  -7  -5   35.39   18.85
  -8  -7  -4   53.23   20.67
  -8  -7  -4   60.64   21.45
  -8  -7  -3   21.00   16.77
  -8  -7  -3    6.60    7.03
  -8  -7  -2   90.22   29.80
  -8  -7  -1   85.24   30.73
  -8  -6  -9   48.24   24.21
  -8  -6  -8   34.55   17.99
  -8  -6  -7  131.54   30.21
  -8  -6  -7   78.20   25.75
  -8  -6  -6  134.69   28.63
  -8  -6  -6  146.30   33.26
  -8  -6  -5   36.16   20.63
  -8  -6  -5   10.27   15.05
  -8  -6  -4  181.49   34.50
  -8  -6  -4  161.22   32.68
  -8  -6  -3   37.66   20.71
  -8  -6  -3   -5.45    8.84
  -8  -6  -2   28.24   14.15
  -8  -6  -2   25.18   14.46
  -8  -6  -2   61.97   21.99
  -8  -6  -1  100.58   25.73
  -8  -6  -1   66.09   21.62
  -8  -6  -1  130.01   34.12
  -8  -6   0   98.59   30.28
  -8  -5 -10   68.04   23.76
  -8  -5  -9    4.98    7.97
  -8  -5  -8   26.08   16.98
  -8  -5  -7  137.23   31.36
  -8  -5  -6  274.24   42.41
  -8  -5  -5   29.39   19.14
  -8  -5  -4  133.56   29.25
  -8  -5  -4   96.64   25.81
  -8  -5  -3   27.71   15.65
  -8  -5  -3   60.00   24.22
  -8  -5  -2    4.53   10.73
  -8  -5  -2   24.97   15.25
  -8  -5  -1  217.41   36.98
  -8  -5  -1  266.25   38.10
  -8  -5   0   96.73   22.39
  -8  -5   0  103.65   26.94
  -8  -5   1   27.84   19.82
  -8  -5   1   40.56   19.24
  -8  -5   2   31.65   19.23
  -8  -4 -10   22.95   24.84
  -8  -4  -9  290.81   46.50
  -8  -4  -8  102.88   28.44
  -8  -4  -7   -4.17    9.43
  -8  -4  -6   27.01   16.59
  -8  -4  -5  -10.46   11.03
  -8  -4  -5   11.98   13.39
  -8  -4  -4   21.41   15.25
  -8  -4  -4   43.75   20.75
  -8  -4  -3  148.74   29.39
  -8  -4  -3  178.02   36.31
  -8  -4  -2   31.10   13.74
  -8  -4  -2   40.94   19.02
  -8  -4  -1    6.01   10.18
  -8  -4  -1   18.15    8.47
  -8  -4   0   13.64    7.22
  -8  -4   0   22.88   13.08
  -8  -4   1   34.19   18.29
  -8  -4   2   68.62   24.48
  -8  -4   3   44.38   19.55
  -8  -4   4  -11.89   13.27
  -8  -3 -10   27.19   23.74
  -8  -3  -9  140.24   33.48
  -8  -3  -8   28.68   21.40
  -8  -3  -7  165.69   35.82
  -8  -3  -6  180.49   36.11
  -8  -3  -6  216.70   40.37
  -8  -3  -5   46.99   18.76
  -8  -3  -5   72.95   25.20
  -8  -3  -4   27.24   17.56
  -8  -3  -4    9.42   12.73
  -8  -3  -3  206.73   37.96
  -8  -3  -3  132.90   27.73
  -8  -3  -2   -4.16    9.46
  -8  -3  -2   20.40   15.68
  -8  -3  -1  142.69   26.01
  -8  -3  -1  202.42   38.30
  -8  -3   0  276.98   43.83
  -8  -3   0  196.52   29.25
  -8  -3   1   12.98   11.94
  -8  -3   2   15.06   13.40
  -8  -3   3   80.98   28.45
  -8  -3   4  -10.28    7.82
  -8  -3   5   45.73   22.90
  -8  -3   6   71.99   25.32
  -8  -2 -10   23.36   23.45
  -8  -2  -9   22.90   16.75
  -8  -2  -8   -0.95   12.26
  -8  -2  -7   42.87   20.67
  -8  -2  -7   25.58   14.33
  -8  -2  -6  101.53   26.06
  -8  -2  -6  111.55   30.73
  -8  -2  -5  173.11   36.06
  -8  -2  -5  147.65   30.72
  -8  -2  -4   -7.03   10.69
  -8  -2  -4    3.83   12.60
  -8  -2  -3   80.55   26.92
  -8  -2  -3  107.92   27.15
  -8  -2  -2   41.50   16.03
  -8  -2  -2  110.19   27.90
  -8  -2  -1    7.61   12.95
  -8  -2  -1  -13.51    9.86
  -8  -2   0  147.78   25.75
  -8  -2   0  179.55   35.22
  -8  -2   1   59.91   24.46
  -8  -2   2   16.98   16.64
  -8  -2   3  137.48   32.82
  -8  -2   4   64.67   24.76
  -8  -2   5    4.33   12.93
  -8  -2   6  113.31   32.77
  -8  -1  -7   52.87   23.84
  -8  -1  -6   19.73   15.21
  -8  -1  -5  146.91   34.40
  -8  -1  -4    3.02   14.61
  -8  -1  -3   85.19   25.18
  -8  -1  -2  346.60   43.72
  -8  -1  -2  381.40   52.71
  -8  -1  -1   47.10   17.36
  -8  -1  -1   76.61   25.56
  -8  -1   0   63.08   18.89
  -8  -1   0   45.15   19.76
  -8  -1   1  258.16   44.19
  -8  -1   2   22.62   18.16
  -8  -1   3   47.09   20.13
  -8  -1   4    5.87   11.90
  -8  -1   5  -11.12   13.75
  -8   0  -7  113.95   30.11
  -8   0  -6   12.38   11.81
  -8   0  -5  108.87   31.81
  -8   0  -4   11.54   14.06
  -8   0  -3  -10.57   14.34
  -8   0  -2  169.72   37.76
  -8   0  -1  123.32   33.22
  -8   0   0   28.24   15.33
  -8   0   1  139.66   32.83
  -8   0   2   32.15   22.17
  -8   0   3   86.57   31.22
  -8   0   4  182.70   41.42
  -8   1  -8   74.92   29.13
  -8   1  -7  151.91   35.34
  -8   1  -6    3.49   11.08
  -8   1  -5   29.05   22.68
  -8   1  -4    5.86   11.08
  -8   1  -3   33.08   20.84
  -8   1  -2   94.78   33.18
  -8   1  -1  175.59   38.59
  -8   1   0   14.31   10.84
  -8   1   1   76.43   27.26
  -8   1   2   51.44   22.19
  -8   1   3   39.57   18.95
  -8   2  -8   63.33   26.17
  -8   2  -7   43.38   22.52
  -8   2  -6    4.28   14.95
  -8   2  -5   81.46   28.39
  -8   2  -4   55.49   22.92
  -8   2  -3   17.00   14.37
  -8   2  -2  105.40   30.53
  -8   2  -1   97.13   28.99
  -8   2   0    3.14   12.35
  -8   2   1  172.52   39.05
  -8   2   2  236.39   46.79
  -8   2   4   37.07   18.42
  -8   2   5  109.79   31.62
  -8   3  -6   15.70   13.22
  -8   3  -5  -18.70   12.21
  -8   3  -4   82.18   26.86
  -8   3  -3   28.22   19.39
  -8   3  -2   19.11   13.91
  -8   3  -1   12.79   13.01
  -8   3   0   78.69   28.73
  -7  -9  -6   11.93   13.26
  -7  -9  -5   37.06   17.68
  -7  -9  -4   83.44   24.75
  -7  -9  -3   35.58   18.08
  -7  -8  -7   18.46   17.80
  -7  -8  -7   23.98   14.96
  -7  -8  -6   31.71   14.63
  -7  -8  -6    9.45    9.40
  -7  -8  -5  -14.52   15.98
  -7  -8  -4  117.68   26.03
  -7  -8  -3   81.56   24.74
  -7  -8  -2    1.35   12.13
  -7  -8  -1   94.91   28.16
  -7  -7 -10   82.99   26.34
  -7  -7  -9   49.73   20.64
  -7  -7  -8    4.40    6.66
  -7  -7  -7   36.10   18.61
  -7  -7  -7   76.17   21.71
  -7  -7  -6  129.10   27.33
  -7  -7  -6   98.30   27.30
  -7  -7  -5   26.21   15.79
  -7  -7  -5   -0.27    9.27
  -7  -7  -4  335.12   46.77
  -7  -7  -4  309.67   43.89
  -7  -7  -3   79.70   23.52
  -7  -7  -2   13.00   15.82
  -7  -7  -1  219.43   39.55
  -7  -7   0   31.96   15.60
  -7  -7   1   -4.42   10.70
  -7  -6 -11  136.24   34.42
  -7  -6 -10   81.30   28.26
  -7  -6  -9  140.04   32.92
  -7  -6  -8  102.35   28.72
  -7  -6  -8  124.23   24.45
  -7  -6  -7   10.56   13.55
  -7  -6  -7   20.94   13.38
  -7  -6  -6  275.23   38.59
  -7  -6  -6  193.58   36.40
  -7  -6  -5   93.29   24.49
  -7  -6  -5   75.38   25.87
  -7  -6  -4  113.26   26.28
  -7  -6  -4  125.67   27.90
  -7  -6  -3  344.42   44.06
  -7  -6  -3  318.06   43.58
  -7  -6  -2    8.59   10.15
  -7  -6  -2    9.87   13.91
  -7  -6  -2    3.09   13.25
  -7  -6  -1   65.11   23.06
  -7  -6  -1   62.93   19.05
  -7  -6   0  166.37   29.72
  -7  -6   0  189.87   38.06
  -7  -6   1    3.39   10.62
  -7  -6   2   85.84   27.43
  -7  -6   3   24.47   18.53
  -7  -5 -12   37.33   19.65
  -7  -5 -11   92.90   28.44
  -7  -5 -10   17.46    8.97
  -7  -5  -9  134.99   30.58
  -7  -5  -8  138.15   24.64
  -7  -5  -8   74.94   22.06
  -7  -5  -7   23.72   17.54
  -7  -5  -6  255.72   39.57
  -7  -5  -5   57.91   19.44
  -7  -5  -4    8.24    9.06
  -7  -5  -3  257.73   36.71
  -7  -5  -3  328.04   42.70
  -7  -5  -2   27.83   13.32
  -7  -5  -2   23.45   12.67
  -7  -5  -1   12.15    9.15
  -7  -5  -1   24.57   14.74
  -7  -5   0  140.32   27.57
  -7  -5   0  120.57   28.72
  -7  -5   0  155.28   27.01
  -7  -5   1  112.18   24.83
  -7  -5   1  120.27   31.29
  -7  -5   2   66.45   24.62
  -7  -5   2   58.78   19.42
  -7  -5   3   25.74   21.09
  -7  -5   4   83.87   28.83
  -7  -4 -12   29.35   18.91
  -7  -4 -11   82.78   24.36
  -7  -4 -10   31.50   18.11
  -7  -4  -9  126.66   31.51
  -7  -4  -8  274.47   42.40
  -7  -4  -7   46.91   21.34
  -7  -4  -6  272.81   40.35
  -7  -4  -5  236.79   38.72
  -7  -4  -5  161.62   30.91
  -7  -4  -4   24.54   10.93
  -7  -4  -4   32.10   14.45
  -7  -4  -3   26.01   15.18
  -7  -4  -3    0.39    9.72
  -7  -4  -2  219.90   32.65
  -7  -4  -2  239.74   37.35
  -7  -4  -1   56.19   18.84
  -7  -4  -1   68.13   19.55
  -7  -4   0  471.07   43.89
  -7  -4   0  457.07   49.98
  -7  -4   1  120.46   22.19
  -7  -4   1  124.54   26.66
  -7  -4   2    7.38   11.84
  -7  -4   3  100.39   25.37
  -7  -4   4   75.08   27.45
  -7  -4   4   28.45   15.89
  -7  -4   5   58.56   21.76
  -7  -4   6   86.95   29.19
  -7  -3 -12   -4.43   16.87
  -7  -3 -11  107.84   30.23
  -7  -3 -10   22.28   14.80
  -7  -3  -9   69.94   24.43
  -7  -3  -8  446.48   55.99
  -7  -3  -7    9.54   10.54
  -7  -3  -6   97.77   24.42
  -7  -3  -6   90.10   23.69
  -7  -3  -5  214.23   34.15
  -7  -3  -5  200.51   34.35
  -7  -3  -4   31.47   15.55
  -7  -3  -4   55.27   17.97
  -7  -3  -3   23.63   11.77
  -7  -3  -3   27.37   20.87
  -7  -3  -2  310.70   37.32
  -7  -3  -2  395.09   48.13
  -7  -3  -1  123.60   23.38
  -7  -3  -1  187.70   33.04
  -7  -3   0  118.20   21.68
  -7  -3   0  109.25   25.47
  -7  -3   1   96.08   18.62
  -7  -3   1   86.23   23.44
  -7  -3   2  107.50   25.34
  -7  -3   2   89.01   17.42
  -7  -3   3   94.77   25.02
  -7  -3   4  119.64   27.72
  -7  -3   5   11.20   11.42
  -7  -3   6  116.01   27.82
  -7  -3   7   17.82   16.85
  -7  -3   7   28.95   17.37
  -7  -2 -12   42.20   25.96
  -7  -2 -11  161.07   38.19
  -7  -2 -10  161.41   39.06
  -7  -2  -9   18.11   15.64
  -7  -2  -8  127.33   31.40
  -7  -2  -7   19.81   17.22
  -7  -2  -6   86.35   23.87
  -7  -2  -6  109.85   28.22
  -7  -2  -5    3.72    7.31
  -7  -2  -5   31.19   15.33
  -7  -2  -4  181.69   33.63
  -7  -2  -4  189.82   32.16
  -7  -2  -3   69.98   21.28
  -7  -2  -3   63.33   22.10
  -7  -2  -2  117.06   24.15
  -7  -2  -2  127.27   29.30
  -7  -2  -1   57.46   18.33
  -7  -2  -1   61.50   20.74
  -7  -2   0   22.57   12.09
  -7  -2   0   13.80    7.65
  -7  -2   1  327.10   45.39
  -7  -2   1  262.80   29.87
  -7  -2   2   38.49   10.68
  -7  -2   2   96.12   25.69
  -7  -2   3  199.47   36.16
  -7  -2   4  189.78   36.02
  -7  -2   5   31.78   18.44
  -7  -2   6   54.62   21.83
  -7  -2   7   29.55   15.08
  -7  -2   8   -2.99   11.58
  -7  -1  -7   42.09   15.59
  -7  -1  -6   -5.56    7.71
  -7  -1  -5   78.68   21.50
  -7  -1  -4  486.15   55.25
  -7  -1  -3   11.56   12.43
  -7  -1  -2   67.08   22.75
  -7  -1  -1   49.61   15.94
  -7  -1  -1   57.40   19.81
  -7  -1   0   61.05   16.97
  -7  -1   0   37.34   15.52
  -7  -1   1  358.31   35.99
  -7  -1   1  508.64   57.19
  -7  -1   2   90.99   16.68
  -7  -1   2  109.68   29.13
  -7  -1   3   98.61   26.94
  -7  -1   4  246.53   42.67
  -7  -1   5   38.85   17.89
  -7  -1   6    5.88   10.28
  -7  -1   7   52.94   19.90
  -7  -1   8   -0.30   13.91
  -7   0  -7   82.93   26.11
  -7   0  -6  129.12   30.84
  -7   0  -5  409.06   52.67
  -7   0  -4   62.19   22.34
  -7   0  -3   21.55   17.42
  -7   0  -2  100.75   25.39
  -7   0  -1  307.91   44.66
  -7   0   0   -5.66   10.08
  -7   0   1  202.70   37.33
  -7   0   2  140.51   22.26
  -7   0   2  154.63   34.34
  -7   0   3    8.45   10.50
  -7   0   4  105.61   29.08
  -7   0   4   66.69   27.76
  -7   0   5   30.84   16.74
  -7   0   5   14.63   12.75
  -7   0   6   12.69   12.98
  -7   0   6    0.33   14.20
  -7   0   7   64.27   27.07
  -7   0   7  103.68   31.50
  -7   1  -7  302.83   47.51
  -7   1  -6  327.26   47.93
  -7   1  -5  154.36   33.47
  -7   1  -4  125.21   31.11
  -7   1  -3    9.29    9.53
  -7   1  -2   14.05    8.50
  -7   1  -1  454.39   55.29
  -7   1   0   24.24   17.89
  -7   1   1   13.15   10.18
  -7   1   2   28.13   16.46
  -7   1   3    2.50    5.96
  -7   1   3   11.75   17.86
  -7   1   4   19.47   15.19
  -7   1   4   34.37   20.77
  -7   1   5  180.10   37.70
  -7   1   5  174.21   37.87
  -7   1   6    7.78   15.36
  -7   1   6   15.27   18.12
  -7   1   7   31.71   18.35
  -7   2  -7  310.79   47.79
  -7   2  -6   86.32   25.78
  -7   2  -5   29.15   15.85
  -7   2  -4   75.20   25.09
  -7   2  -3   79.60   23.79
  -7   2  -2  186.17   38.10
  -7   2  -1  223.83   40.45
  -7   2   0   59.73   24.42
  -7   2   1   36.09   20.29
  -7   2   2   15.17   18.49
  -7   2   2   -1.25    5.93
  -7   2   3    3.89    6.52
  -7   2   3   25.91   17.38
  -7   2   4   10.92   11.14
  -7   2   4    8.88   15.25
  -7   2   5  122.15   30.62
  -7   2   5  180.16   39.48
  -7   2   6   21.69   14.60
  -7   3  -7   54.20   22.48
  -7   3  -6   16.49   15.04
  -7   3  -5  -19.67   11.22
  -7   3  -4  106.41   27.80
  -7   3  -3  213.49   39.46
  -7   3  -2   87.89   24.87
  -7   3  -1   19.49   12.94
  -7   3   0   10.65   14.29
  -7   3   1  103.08   29.96
  -7   3   2  186.28   32.53
  -7   3   2  158.26   36.58
  -7   3   3  133.26   34.36
  -7   3   3  129.99   28.32
  -7   3   4   19.22   14.75
  -7   3   4   23.02   14.65
  -7   3   5   19.52   16.93
  -7   3   6   41.87   21.05
  -7   4  -7    6.03   10.70
  -7   4  -6  118.56   31.03
  -7   4  -5   52.17   22.47
  -7   4  -4   92.56   26.46
  -7   4  -3  165.60   35.82
  -7   4  -2    3.80   10.05
  -7   4  -1   84.94   28.77
  -7   4   0  179.59   37.83
  -7   4   1    6.39   12.14
  -7   4   2   26.06    9.27
  -7   4   3  127.11   32.34
  -7   4   5    2.20   10.11
  -7   4   6   59.91   23.25
  -7   5  -5   80.79   24.79
  -7   5  -4   14.77   16.87
  -7   5  -3   19.36   16.30
  -7   5  -2   51.96   22.83
  -7   5  -1   35.82   16.86
  -7   5   0   59.99   22.45
  -7   5   1   41.32   21.58
  -7   6  -2   64.69   24.24
  -6 -10  -6    5.47    8.87
  -6 -10  -5   20.88   12.55
  -6 -10  -4   72.10   24.27
  -6  -9  -6  174.71   33.28
  -6  -9  -5   30.56   16.85
  -6  -9  -4   46.42   21.20
  -6  -9  -3  226.78   41.54
  -6  -9  -2    9.61   18.16
  -6  -9  -1  158.14   33.94
  -6  -8 -10   14.47   15.03
  -6  -8  -9   25.17   12.25
  -6  -8  -8   -0.52    7.80
  -6  -8  -7   58.50   17.13
  -6  -8  -6  315.60   42.96
  -6  -8  -5  118.11   27.13
  -6  -8  -4   11.93   10.64
  -6  -8  -3   63.80   21.46
  -6  -8  -2  180.51   35.72
  -6  -8  -1  352.66   50.20
  -6  -8   0   28.31   16.47
  -6  -8   1  -14.51   19.46
  -6  -7 -11  121.83   30.32
  -6  -7 -10   53.05   22.14
  -6  -7  -9  425.43   54.83
  -6  -7  -8  520.79   59.49
  -6  -7  -8  522.54   47.16
  -6  -7  -7   48.13   14.42
  -6  -7  -7   89.92   26.17
  -6  -7  -6   31.29   16.75
  -6  -7  -6   28.00   11.67
  -6  -7  -5  159.65   29.59
  -6  -7  -5  135.30   29.28
  -6  -7  -4    7.38   15.19
  -6  -7  -4   10.31   11.12
  -6  -7  -3  451.43   50.78
  -6  -7  -2  273.63   41.02
  -6  -7  -1   -4.30    9.09
  -6  -7   0   42.08   19.95
  -6  -7   1    3.09    8.48
  -6  -7   2   13.45   11.22
  -6  -7   3   61.76   21.01
  -6  -6 -13   31.50   21.03
  -6  -6 -12   21.21   19.01
  -6  -6 -11  156.75   35.22
  -6  -6 -10   71.59   23.33
  -6  -6  -9   39.30   17.78
  -6  -6  -8   97.50   18.05
  -6  -6  -8  129.65   30.04
  -6  -6  -7    0.32    5.54
  -6  -6  -7   14.10   10.29
  -6  -6  -6   16.99   11.46
  -6  -6  -6   17.15   11.03
  -6  -6  -5   75.67   21.43
  -6  -6  -5   23.00   15.60
  -6  -6  -4   37.16   17.12
  -6  -6  -4   48.77   17.78
  -6  -6  -3  676.35   58.94
  -6  -6  -3  515.16   51.79
  -6  -6  -2   -7.06    7.03
  -6  -6  -2   12.80   12.58
  -6  -6  -1   61.85   20.75
  -6  -6   0   83.48   17.58
  -6  -6   0   63.18   20.14
  -6  -6   1  253.08   39.92
  -6  -6   2   89.17   28.27
  -6  -6   3  214.46   39.97
  -6  -6   4  144.63   34.27
  -6  -6   5   -0.22    8.94
  -6  -5 -13   22.83   16.38
  -6  -5 -12   23.60   19.41
  -6  -5 -11  149.24   31.41
  -6  -5 -10  108.84   27.23
  -6  -5  -9   68.65   21.74
  -6  -5  -8  218.09   37.04
  -6  -5  -8  190.91   25.72
  -6  -5  -7   55.16   17.19
  -6  -5  -7   51.64   19.80
  -6  -5  -6  200.01   32.97
  -6  -5  -6  203.00   29.38
  -6  -5  -5  207.95   31.49
  -6  -5  -5  182.81   31.23
  -6  -5  -4   76.19   22.59
  -6  -5  -4   45.23   19.57
  -6  -5  -3  262.14   35.35
  -6  -5  -3  243.42   33.55
  -6  -5  -3  282.03   37.25
  -6  -5  -2  147.40   26.71
  -6  -5  -2  147.85   25.91
  -6  -5  -2  174.28   30.78
  -6  -5  -1  107.71   23.42
  -6  -5  -1  171.29   31.18
  -6  -5  -1  159.92   26.58
  -6  -5   0  113.89   26.56
  -6  -5   0  113.47   23.43
  -6  -5   0  121.83   22.77
  -6  -5   1  295.16   35.25
  -6  -5   1  310.80   42.16
  -6  -5   2   18.34   11.09
  -6  -5   2   19.71   12.98
  -6  -5   3  126.73   30.93
  -6  -5   3  163.65   26.57
  -6  -5   4  185.54   36.51
  -6  -5   5   38.71   20.64
  -6  -5   6   58.12   22.73
  -6  -5   7   37.25   19.88
  -6  -4 -14   56.21   23.35
  -6  -4 -13  102.48   27.73
  -6  -4 -12   -1.63   12.84
  -6  -4 -11   17.26   12.62
  -6  -4 -10   19.03   13.30
  -6  -4  -9  184.33   35.92
  -6  -4  -8  283.81   40.08
  -6  -4  -7  219.61   34.73
  -6  -4  -6  140.34   26.46
  -6  -4  -5  983.47   68.54
  -6  -4  -4   28.20   13.99
  -6  -4  -4    5.05    6.75
  -6  -4  -3  348.92   40.06
  -6  -4  -3  289.53   24.59
  -6  -4  -3  306.03   36.94
  -6  -4  -2  332.40   28.75
  -6  -4  -2  322.60   36.64
  -6  -4  -2  373.62   41.60
  -6  -4  -1  221.21   29.10
  -6  -4  -1  229.97   25.81
  -6  -4  -1  262.36   34.19
  -6  -4   0  221.54   28.62
  -6  -4   0  192.18   28.91
  -6  -4   1  589.84   45.32
  -6  -4   1  709.68   55.44
  -6  -4   2  570.95   50.47
  -6  -4   3   86.14   20.78
  -6  -4   3   67.69   21.98
  -6  -4   4   95.68   21.72
  -6  -4   4   97.72   28.08
  -6  -4   5   15.22   10.77
  -6  -4   5   51.81   21.20
  -6  -4   6  136.79   33.65
  -6  -4   7   80.90   28.72
  -6  -4   8   15.98   15.93
  -6  -3 -14   94.28   29.57
  -6  -3 -13  152.88   34.69
  -6  -3 -12   21.73   17.76
  -6  -3 -11  260.01   43.21
  -6  -3 -10  126.19   30.19
  -6  -3  -9    2.75    8.74
  -6  -3  -8  346.72   44.62
  -6  -3  -7  503.47   52.99
  -6  -3  -6    5.28   14.49
  -6  -3  -6   -5.94    5.60
  -6  -3  -5   54.22   18.95
  -6  -3  -5   45.01   10.57
  -6  -3  -5   63.42   20.15
  -6  -3  -4    7.32    6.88
  -6  -3  -4   -4.42   11.09
  -6  -3  -4   27.54    9.47
  -6  -3  -3   32.68   11.20
  -6  -3  -3   32.43   14.21
  -6  -3  -3   26.43   12.93
  -6  -3  -2  139.95   23.85
  -6  -3  -2  173.06   28.77
  -6  -3  -2  167.84   22.22
  -6  -3  -1  285.30   36.90
  -6  -3  -1  201.35   26.69
  -6  -3   0    4.97    8.90
  -6  -3   0   24.33   10.54
  -6  -3   1   31.42   11.56
  -6  -3   1   18.97   11.88
  -6  -3   2   67.37   14.29
  -6  -3   2   59.32   16.75
  -6  -3   3   22.77   12.62
  -6  -3   4  286.34   39.71
  -6  -3   5   12.66   11.00
  -6  -3   6   64.85   22.21
  -6  -3   6   17.46   12.12
  -6  -3   7   37.59   16.36
  -6  -3   7   89.39   24.86
  -6  -3   8   43.71   20.06
  -6  -3   9   36.67   21.53
  -6  -2 -14  135.67   36.18
  -6  -2 -13  197.45   41.87
  -6  -2 -12   41.29   23.87
  -6  -2 -11   19.90   14.50
  -6  -2 -10  100.31   26.92
  -6  -2  -9  137.80   31.51
  -6  -2  -6   16.98   12.06
  -6  -2  -6   23.08   13.29
  -6  -2  -5   79.76   19.74
  -6  -2  -5   76.85   22.06
  -6  -2  -4 1156.05   76.32
  -6  -2  -4 1047.58   69.16
  -6  -2  -3   12.23   11.94
  -6  -2  -3   25.16   18.64
  -6  -2  -2  203.40   28.40
  -6  -2  -2  266.09   35.88
  -6  -2  -1   64.05   17.68
  -6  -2  -1   57.36   15.04
  -6  -2   0   20.13   14.67
  -6  -2   0   18.20   12.77
  -6  -2   1  202.13   31.66
  -6  -2   1  159.50   21.05
  -6  -2   2  436.72   46.01
  -6  -2   2  383.42   30.89
  -6  -2   3    0.09    9.14
  -6  -2   3   10.65    7.12
  -6  -2   4  302.22   41.93
  -6  -2   5   51.24   18.45
  -6  -2   6   10.93    7.88
  -6  -2   7  123.72   31.42
  -6  -2   8   63.79   21.20
  -6  -2   8   37.93   16.51
  -6  -2   9    6.06    9.04
  -6  -2   9   47.30   21.80
  -6  -2  10   44.62   19.90
  -6  -1  -6   24.74   13.67
  -6  -1  -5  220.83   35.86
  -6  -1  -4 1278.85   81.26
  -6  -1  -3   83.59   21.72
  -6  -1  -2  188.92   32.51
  -6  -1  -1   39.00   14.39
  -6  -1   0   14.69    9.36
  -6  -1   0    4.20   11.23
  -6  -1   1  382.15   45.12
  -6  -1   1  309.02   30.65
  -6  -1   2  456.96   33.82
  -6  -1   2  411.32   32.01
  -6  -1   3    6.99    9.80
  -6  -1   3    0.51    4.53
  -6  -1   4  169.73   32.61
  -6  -1   4  172.02   33.73
  -6  -1   5  312.58   46.29
  -6  -1   5  330.27   46.07
  -6  -1   6   42.92   20.62
  -6  -1   6   34.69   20.28
  -6  -1   7    4.42    6.50
  -6  -1   7   -2.78   10.22
  -6  -1   8   55.92   23.28
  -6  -1   8   25.44   15.23
  -6   0  -7  109.27   24.94
  -6   0  -6 1722.17   97.45
  -6   0  -5  320.15   42.39
  -6   0  -4  695.78   61.69
  -6   0  -3  281.68   37.64
  -6   0  -2   81.38   21.46
  -6   0  -1  791.98   63.54
  -6   0   0  292.70   39.24
  -6   0   1  115.28   26.48
  -6   0   2  287.60   37.85
  -6   0   2  254.69   39.14
  -6   0   3   78.14   14.34
  -6   0   3   77.67   20.58
  -6   0   3   71.57   20.80
  -6   0   4  -17.18   14.66
  -6   0   4    7.70    9.11
  -6   0   5  108.58   28.33
  -6   0   5   57.51   22.04
  -6   0   6   28.84   17.43
  -6   0   6   24.94   16.07
  -6   0   7   62.75   23.42
  -6   0   7   47.27   23.12
  -6   0   8   69.01   26.84
  -6   1  -7   70.61   25.67
  -6   1  -6  404.93   48.69
  -6   1  -5   -5.12    8.98
  -6   1  -4  336.91   43.61
  -6   1  -3  387.50   45.68
  -6   1  -2   52.60   18.69
  -6   1  -1  404.32   47.44
  -6   1   0  241.77   37.15
  -6   1   1   14.38   13.08
  -6   1   1   21.32   13.06
  -6   1   2   70.80   18.52
  -6   1   2   56.25   19.56
  -6   1   3  115.81   28.80
  -6   1   3   90.33   22.06
  -6   1   4   21.24   15.95
  -6   1   4    9.27   12.44
  -6   1   5   94.16   26.30
  -6   1   5   77.33   22.75
  -6   1   6  205.50   40.60
  -6   1   6  182.44   36.36
  -6   1   7  -15.99   10.69
  -6   1   8  116.21   32.06
  -6   2  -7  195.35   34.87
  -6   2  -6   46.04   17.43
  -6   2  -5  246.02   38.54
  -6   2  -4   21.29   11.68
  -6   2  -3  200.99   33.88
  -6   2  -2   -6.00    7.90
  -6   2  -1  296.08   41.29
  -6   2   0  186.62   33.51
  -6   2   1   25.04   15.38
  -6   2   1   21.83   10.19
  -6   2   2   -9.16   11.93
  -6   2   2    1.62    7.47
  -6   2   3   26.21   13.52
  -6   2   3   17.53   15.77
  -6   2   4   42.48   18.54
  -6   2   4    4.58   14.35
  -6   2   5  255.25   43.51
  -6   2   5  197.86   36.87
  -6   2   6  134.80   29.83
  -6   2   6  115.17   30.78
  -6   2   7   12.94    9.19
  -6   2   8   90.14   26.30
  -6   3  -7    8.31   12.00
  -6   3  -6   58.02   18.64
  -6   3  -5   69.62   20.50
  -6   3  -4   10.32   13.52
  -6   3  -3  433.35   50.85
  -6   3  -2  122.80   27.40
  -6   3  -1  105.82   28.29
  -6   3   0  234.64   28.98
  -6   3   0  204.95   35.51
  -6   3   1   76.26   19.24
  -6   3   1   97.72   27.02
  -6   3   2  125.94   29.52
  -6   3   2  118.60   24.16
  -6   3   3  462.67   57.47
  -6   3   3  367.98   43.93
  -6   3   4  169.51   35.39
  -6   3   4  157.64   29.84
  -6   3   5   51.89   19.59
  -6   3   5   79.59   25.92
  -6   3   6  181.11   35.88
  -6   3   6  169.31   38.98
  -6   3   7    8.72   14.74
  -6   3   8   23.88   15.79
  -6   4  -7   32.79   15.95
  -6   4  -6   68.84   22.10
  -6   4  -5   59.46   24.41
  -6   4  -4    3.39   10.40
  -6   4  -3   42.12   17.71
  -6   4  -2  125.77   29.28
  -6   4  -1   10.44    9.99
  -6   4   0  110.98   27.30
  -6   4   1  229.82   40.67
  -6   4   2    4.93    5.63
  -6   4   2   39.59   17.42
  -6   4   3  147.58   28.11
  -6   4   3  149.14   34.07
  -6   4   4   54.80   23.56
  -6   4   4   47.28   15.82
  -6   4   5    2.18   11.30
  -6   4   5   -1.55    6.95
  -6   4   6   74.17   28.94
  -6   4   6   61.35   20.42
  -6   4   7   28.68   16.30
  -6   5  -5  219.19   39.15
  -6   5  -4   12.95   10.31
  -6   5  -3   21.34   17.50
  -6   5  -2   94.12   25.94
  -6   5  -1   75.05   24.74
  -6   5   0   75.83   23.36
  -6   5   1  287.94   46.15
  -6   5   2   38.27   20.28
  -6   5   3  200.30   40.45
  -6   5   4   34.84   18.10
  -6   5   5   14.40   17.60
  -6   5   5   12.24   11.36
  -6   5   6    5.83    8.17
  -6   5   7   28.48   19.50
  -6   6  -2   17.07   15.07
  -6   6  -1   92.61   27.37
  -6   6   0   10.23    8.80
  -6   6   1   90.76   26.68
  -6   6   2  -13.15   17.36
  -6   6   3   48.88   21.40
  -6   7   1   45.26   17.50
  -5 -10  -6   32.79   15.67
  -5 -10  -5   72.11   22.87
  -5 -10  -4   17.85   13.21
  -5 -10  -3  177.66   36.99
  -5  -9  -7    9.64    8.80
  -5  -9  -6  211.66   34.89
  -5  -9  -5   56.38   20.44
  -5  -9  -4   32.44   17.65
  -5  -9  -3   23.48   12.33
  -5  -9  -2  132.23   30.52
  -5  -9  -1   77.43   24.89
  -5  -9   0  143.01   32.60
  -5  -8 -11  207.16   39.95
  -5  -8  -7    4.71    8.07
  -5  -8  -6  398.19   44.31
  -5  -8  -5  287.94   38.79
  -5  -8  -4   22.93   14.55
  -5  -8  -3   26.63   16.03
  -5  -8  -2  362.38   47.57
  -5  -8  -1   32.02   19.98
  -5  -8   0  138.17   30.67
  -5  -8   1  113.59   28.56
  -5  -8   2    0.51    8.60
  -5  -8   3   96.41   29.15
  -5  -7 -13    3.87   10.20
  -5  -7 -12    7.38   15.96
  -5  -7 -11  158.37   32.82
  -5  -7 -10  123.25   28.27
  -5  -7  -9    2.43    9.75
  -5  -7  -8  454.93   53.95
  -5  -7  -8  421.00   37.60
  -5  -7  -7   -0.11   12.69
  -5  -7  -7    1.68    6.62
  -5  -7  -6   15.31   11.57
  -5  -7  -6   23.06   12.13
  -5  -7  -5   73.04   18.38
  -5  -7  -4   40.85   13.24
  -5  -7  -3  124.99   24.19
  -5  -7  -2   42.07   15.61
  -5  -7  -1   31.01   15.05
  -5  -7   0   12.62   14.62
  -5  -7   1   98.10   25.61
  -5  -7   2   -1.78    8.83
  -5  -7   3   89.35   26.69
  -5  -7   4   98.07   28.13
  -5  -7   5  -13.22   14.49
  -5  -6 -14   31.67   13.75
  -5  -6 -13   98.92   28.71
  -5  -6 -12   69.83   25.94
  -5  -6 -11  234.52   39.72
  -5  -6 -10  265.60   41.52
  -5  -6  -9    3.56   13.94
  -5  -6  -8  597.28   58.44
  -5  -6  -8  571.46   40.99
  -5  -6  -7   33.20   11.56
  -5  -6  -7   63.90   22.20
  -5  -6  -6  146.27   22.90
  -5  -6  -6  213.68   33.08
  -5  -6  -5  321.03   41.41
  -5  -6  -5  332.01   35.59
  -5  -6  -4  159.27   29.15
  -5  -6  -4  163.98   26.24
  -5  -6  -3  366.93   40.90
  -5  -6  -3  272.61   36.70
  -5  -6  -2   63.71   17.45
  -5  -6  -1   57.70   18.06
  -5  -6  -1  102.10   12.99
  -5  -6   0   -9.42   12.93
  -5  -6   1  127.87   18.56
  -5  -6   1  144.63   28.73
  -5  -6   2   72.53   20.58
  -5  -6   3   61.16   20.81
  -5  -6   4  145.99   31.04
  -5  -6   5   39.66   17.03
  -5  -6   6  -10.04   11.44
  -5  -6   7   48.10   22.80
  -5  -5 -15   25.07   17.33
  -5  -5 -14    3.60   15.62
  -5  -5 -13  141.37   32.14
  -5  -5 -12    2.89   11.80
  -5  -5 -11   95.30   25.25
  -5  -5 -10  404.81   49.78
  -5  -5  -9   13.15    8.42
  -5  -5  -8   98.00   24.79
  -5  -5  -8   84.17   13.61
  -5  -5  -7  466.79   48.44
  -5  -5  -7  466.13   36.84
  -5  -5  -6   22.67   13.25
  -5  -5  -6   20.30   11.04
  -5  -5  -5  491.61   48.25
  -5  -5  -5  550.30   43.14
  -5  -5  -4   10.59   11.83
  -5  -5  -4   23.72   12.83
  -5  -5  -3   28.05   15.09
  -5  -5  -3   36.02   14.80
  -5  -5  -2  312.13   19.64
  -5  -5  -2  333.90   37.90
  -5  -5  -2  346.76   38.55
  -5  -5  -1  332.91   38.33
  -5  -5  -1  278.39   33.53
  -5  -5  -1  329.12   32.83
  -5  -5  -1  342.17   25.09
  -5  -5   0   22.93   10.01
  -5  -5   0   36.01   18.35
  -5  -5   1  369.62   43.37
  -5  -5   1  328.72   32.66
  -5  -5   2  194.94   24.90
  -5  -5   2  204.08   33.46
  -5  -5   3   25.81   15.21
  -5  -5   3   33.85   10.90
  -5  -5   4  366.02   45.82
  -5  -5   4  294.07   31.39
  -5  -5   5  203.12   36.53
  -5  -5   6   71.82   22.89
  -5  -5   7   51.95   19.00
  -5  -5   8  155.62   33.91
  -5  -4 -15   50.48   21.80
  -5  -4 -14   72.26   19.99
  -5  -4 -13  162.07   33.11
  -5  -4 -12   68.86   20.78
  -5  -4 -11  147.90   30.67
  -5  -4 -10  314.70   42.27
  -5  -4  -9    5.65    5.73
  -5  -4  -9    1.23   12.04
  -5  -4  -8  169.54   19.81
  -5  -4  -8  147.10   27.41
  -5  -4  -7  586.45   51.57
  -5  -4  -6  155.64   26.52
  -5  -4  -5  531.59   47.55
  -5  -4  -4   32.85    5.86
  -5  -4  -4   51.71   15.03
  -5  -4  -3   42.99   16.22
  -5  -4  -3   41.93   12.96
  -5  -4  -3   41.54    7.77
  -5  -4  -2  286.64   32.35
  -5  -4  -2  298.64   33.00
  -5  -4  -2  335.84   23.49
  -5  -4  -1  518.01   33.14
  -5  -4  -1  553.90   43.69
  -5  -4  -1  587.20   45.67
  -5  -4   0   80.66   16.86
  -5  -4   0   72.47   17.85
  -5  -4   0   54.81   12.73
  -5  -4   1  120.04   20.15
  -5  -4   1  128.44   20.15
  -5  -4   2  141.61   21.60
  -5  -4   2  247.21   36.40
  -5  -4   3   13.35   11.20
  -5  -4   3    6.99   12.03
  -5  -4   4   92.35   23.64
  -5  -4   4  102.72   19.69
  -5  -4   5   83.96   22.14
  -5  -4   5   89.90   20.58
  -5  -4   6   10.22   10.01
  -5  -4   6    1.98    5.30
  -5  -4   7  140.84   31.63
  -5  -4   8   19.26   17.45
  -5  -4   9  -22.13   15.52
  -5  -4  10   -7.00    8.34
  -5  -3 -15  136.24   32.78
  -5  -3 -14   -5.79   12.86
  -5  -3 -13   64.30   22.41
  -5  -3 -12  158.59   34.14
  -5  -3 -11   37.34   19.13
  -5  -3 -10   63.18   21.93
  -5  -3  -9  220.44   35.99
  -5  -3  -8  112.64   25.07
  -5  -3  -7  524.91   50.61
  -5  -3  -6  230.28   33.13
  -5  -3  -5   15.74   13.99
  -5  -3  -5   13.19    5.23
  -5  -3  -4 1126.41   66.17
  -5  -3  -4 1196.28   46.15
  -5  -3  -4 1234.25   70.29
  -5  -3  -3  143.89   23.95
  -5  -3  -3  157.64   25.27
  -5  -3  -3  132.64   15.57
  -5  -3  -2  341.22   34.03
  -5  -3  -2  383.03   38.00
  -5  -3  -2  365.93   27.91
  -5  -3  -1 1207.06   54.07
  -5  -3  -1 1196.66   65.16
  -5  -3  -1 1132.28   58.44
  -5  -3   0   69.00   15.95
  -5  -3   0   66.01   16.33
  -5  -3   0   47.86   12.04
  -5  -3   1  329.20   30.06
  -5  -3   1  332.40   35.23
  -5  -3   1  406.35   33.06
  -5  -3   2  702.73   41.01
  -5  -3   2  674.93   40.71
  -5  -3   2  660.32   49.93
  -5  -3   3  135.13   24.84
  -5  -3   4  236.27   32.36
  -5  -3   5  117.04   25.44
  -5  -3   5  139.96   26.35
  -5  -3   6   10.18   14.71
  -5  -3   6   20.47   11.34
  -5  -3   7  380.03   46.46
  -5  -3   7  373.07   44.16
  -5  -3   8   23.34   14.19
  -5  -3   8   23.41   16.19
  -5  -3   9   22.41   17.25
  -5  -3  10   30.27   17.07
  -5  -2 -15   27.60   20.47
  -5  -2 -14   19.29   17.92
  -5  -2 -13  219.75   40.25
  -5  -2 -12  127.94   33.69
  -5  -2 -11    1.33   12.44
  -5  -2 -10   74.44   24.08
  -5  -2  -9  151.72   29.52
  -5  -2  -8    5.14   11.16
  -5  -2  -6  389.31   31.82
  -5  -2  -5  472.96   45.29
  -5  -2  -5  488.35   45.19
  -5  -2  -5  479.57   34.38
  -5  -2  -4  755.44   53.73
  -5  -2  -4  792.31   43.44
  -5  -2  -4  829.31   58.08
  -5  -2  -3  877.55   58.91
  -5  -2  -3  887.55   46.14
  -5  -2  -3  778.09   52.44
  -5  -2  -2   25.19    8.93
  -5  -2  -2    8.04    6.18
  -5  -2  -1  773.59   54.58
  -5  -2  -1  718.20   45.14
  -5  -2  -1  688.03   45.08
  -5  -2   0  110.62   17.29
  -5  -2   0  112.74   21.39
  -5  -2   0  123.00   18.61
  -5  -2   1   68.06   16.46
  -5  -2   1   60.44   12.83
  -5  -2   1   74.56   14.28
  -5  -2   2  271.33   33.42
  -5  -2   2  286.82   24.40
  -5  -2   2  228.67   22.10
  -5  -2   3  261.40   33.87
  -5  -2   3  224.09   19.86
  -5  -2   3  203.83   19.26
  -5  -2   4   19.08   12.20
  -5  -2   5  315.42   43.87
  -5  -2   5  257.39   35.65
  -5  -2   6   47.56   18.53
  -5  -2   6    9.98   11.06
  -5  -2   7    2.26   13.37
  -5  -2   8  153.71   35.07
  -5  -2   8  199.45   34.42
  -5  -2   9   37.46   17.19
  -5  -2   9   36.42   24.08
  -5  -2  10   24.58   15.18
  -5  -1 -15    3.71   14.09
  -5  -1 -14   37.67   21.23
  -5  -1  -6 1254.05   75.73
  -5  -1  -5  123.64   25.11
  -5  -1  -4  335.67   38.72
  -5  -1  -3 1372.65   75.11
  -5  -1  -2   34.59   12.66
  -5  -1  -1 1139.69   66.60
  -5  -1   0  223.65   24.58
  -5  -1   0  334.51   37.18
  -5  -1   1   17.71    9.43
  -5  -1   1   17.63    7.53
  -5  -1   1   14.48    5.77
  -5  -1   2  505.35   32.07
  -5  -1   2  451.04   30.17
  -5  -1   3  239.48   33.11
  -5  -1   3  257.22   20.11
  -5  -1   3  215.04   18.49
  -5  -1   3  278.40   36.41
  -5  -1   4    1.07    2.40
  -5  -1   4   -2.74    9.12
  -5  -1   4    6.82    3.67
  -5  -1   4   -6.28   10.07
  -5  -1   5  426.02   49.67
  -5  -1   6   28.37   16.01
  -5  -1   7   10.38   13.50
  -5  -1   8  259.94   45.01
  -5  -1   9   76.89   24.83
  -5  -1   9   59.11   20.11
  -5  -1  10   40.29   19.62
  -5  -1  10   25.32   12.75
  -5   0  -6  354.68   40.88
  -5   0  -5   71.97   19.98
  -5   0  -4  136.49   24.43
  -5   0  -3 1022.33   65.12
  -5   0  -2  216.91   30.21
  -5   0  -1   67.68   15.30
  -5   0   0  279.58   35.29
  -5   0   1   12.08   11.07
  -5   0   1   16.68   11.71
  -5   0   2  434.53   44.28
  -5   0   2  309.37   26.34
  -5   0   2  429.26   42.22
  -5   0   3  302.17   23.60
  -5   0   3  328.63   24.59
  -5   0   3  430.32   44.04
  -5   0   3  422.44   45.51
  -5   0   4   13.10   11.26
  -5   0   4    4.68    5.20
  -5   0   4    8.43    4.70
  -5   0   4   -4.11    5.98
  -5   0   5   21.68   13.32
  -5   0   6  749.20   67.67
  -5   0   7   34.69   19.96
  -5   0   8  215.66   40.81
  -5   0   9   94.40   26.77
  -5   0  10   27.81   22.02
  -5   1  -6   60.70   19.61
  -5   1  -5  127.29   25.96
  -5   1  -4  411.02   43.55
  -5   1  -3  721.98   55.96
  -5   1  -2  366.11   40.62
  -5   1  -1   -2.12    7.42
  -5   1   0  615.70   43.08
  -5   1   0  607.72   53.65
  -5   1   1  131.71   21.43
  -5   1   1  116.07   24.41
  -5   1   2  125.10   25.89
  -5   1   2  129.84   22.36
  -5   1   3  448.16   44.39
  -5   1   3  378.53   43.64
  -5   1   4   74.29   18.51
  -5   1   5  124.26   26.17
  -5   1   6  548.56   56.54
  -5   1   7   79.59   24.47
  -5   1   8   43.59   21.21
  -5   1   9   34.30   17.31
  -5   1  10   33.55   19.39
  -5   2  -6  119.55   25.95
  -5   2  -5  166.27   29.33
  -5   2  -4    8.40    8.41
  -5   2  -3  284.55   36.47
  -5   2  -2  563.56   51.17
  -5   2  -1  112.35   23.57
  -5   2   0  355.32   32.21
  -5   2   0  345.98   41.47
  -5   2   1  211.93   33.59
  -5   2   1  288.45   32.19
  -5   2   2   69.44   16.93
  -5   2   2   32.29   15.26
  -5   2   3  112.86   22.66
  -5   2   3   90.50   21.71
  -5   2   4  714.45   58.14
  -5   2   5   47.82   19.04
  -5   2   6  108.44   27.16
  -5   2   7   45.88   19.49
  -5   2   8   16.89   13.82
  -5   2   9  191.94   39.58
  -5   3  -6  195.58   32.74
  -5   3  -5   58.04   18.39
  -5   3  -4  102.91   22.91
  -5   3  -3   40.18   15.58
  -5   3  -2  189.25   31.18
  -5   3  -1   45.18   18.67
  -5   3  -1   28.25    9.09
  -5   3   0  115.37   18.19
  -5   3   0   98.22   22.70
  -5   3   1  406.44   35.77
  -5   3   1  463.05   50.65
  -5   3   2  200.47   34.35
  -5   3   2  227.86   29.05
  -5   3   3   67.03   19.09
  -5   3   3   71.24   21.64
  -5   3   4  242.02   33.92
  -5   3   5  220.15   34.66
  -5   3   6   74.82   23.45
  -5   3   7   63.65   21.73
  -5   3   8   79.98   23.81
  -5   3   9   62.45   24.29
  -5   4  -6    8.03   11.16
  -5   4  -5   60.26   18.64
  -5   4  -4   18.40   11.57
  -5   4  -3   43.65   16.65
  -5   4  -2  181.46   32.28
  -5   4  -1    3.95    5.39
  -5   4  -1   10.76   11.52
  -5   4   0   75.08   14.37
  -5   4   0   57.04   19.07
  -5   4   1  137.68   20.91
  -5   4   1  184.10   33.03
  -5   4   2  193.71   27.17
  -5   4   2  192.18   34.12
  -5   4   3  584.87   60.41
  -5   4   3  564.69   49.03
  -5   4   4   84.40   28.32
  -5   4   4  129.62   26.06
  -5   4   5   17.00   12.38
  -5   4   6  121.75   26.84
  -5   4   7  168.65   34.39
  -5   4   8   22.29   16.63
  -5   4   9   50.84   22.84
  -5   5  -6    4.53    5.45
  -5   5  -5   48.02   17.14
  -5   5  -4   35.29   14.62
  -5   5  -3   99.47   25.22
  -5   5  -2  142.27   29.07
  -5   5  -1   71.52   23.17
  -5   5   0   10.02   13.91
  -5   5   1  184.42   33.79
  -5   5   2  280.99   32.33
  -5   5   2  272.28   41.18
  -5   5   3  247.78   33.18
  -5   5   3  130.18   30.34
  -5   5   4   76.74   27.44
  -5   5   4   40.61   16.52
  -5   5   5   78.83   22.82
  -5   5   6   12.01    8.98
  -5   5   7  172.29   35.16
  -5   5   8    9.35    9.26
  -5   6  -3    5.73   10.38
  -5   6  -2   34.93   16.01
  -5   6  -1   49.97   17.91
  -5   6   0   12.28   13.98
  -5   6   1  420.13   51.96
  -5   6   2   56.09   22.16
  -5   6   3   24.18   16.40
  -5   6   4  100.86   24.18
  -5   6   4   86.10   25.17
  -5   6   5  115.33   30.30
  -5   6   5   87.43   25.29
  -5   6   6    6.12    9.11
  -5   6   7    2.77    7.24
  -5   7   0   54.99   19.10
  -5   7   1   10.18    7.35
  -5   7   2    5.99   12.08
  -5   7   3   93.82   26.62
  -5   7   4   25.47   18.40
  -5   7   5   70.13   25.66
  -4 -10  -3   -7.73   11.49
  -4 -10  -2   24.71   13.56
  -4  -9  -5   73.87   20.40
  -4  -9  -4   11.38   15.26
  -4  -9  -3   76.89   23.22
  -4  -9  -2   91.72   26.74
  -4  -9  -1   21.74   13.41
  -4  -9   0   94.89   26.50
  -4  -9   1   38.86   19.81
  -4  -9   2   48.13   20.86
  -4  -8  -7  157.32   26.23
  -4  -8  -6    0.56    5.06
  -4  -8  -5  192.63   30.98
  -4  -8  -4   18.43   13.41
  -4  -8  -3  115.42   25.80
  -4  -8  -2  128.06   29.03
  -4  -8  -1   70.51   21.63
  -4  -8   0   -0.67   12.10
  -4  -8   1  123.93   29.19
  -4  -8   2   32.75   20.06
  -4  -8   3   48.64   21.08
  -4  -8   4   58.03   21.77
  -4  -7 -14   -9.77   11.53
  -4  -7 -13   31.96   16.81
  -4  -7 -12   -1.87   10.22
  -4  -7 -11  170.26   33.96
  -4  -7 -10  217.15   37.56
  -4  -7  -9   50.61   19.32
  -4  -7  -8  187.50   35.28
  -4  -7  -8  221.57   26.08
  -4  -7  -7   41.29   13.02
  -4  -7  -6  214.83   28.26
  -4  -7  -5 1420.51   76.59
  -4  -7  -4  625.19   51.07
  -4  -7  -3   14.89   13.25
  -4  -7  -2  142.37   27.85
  -4  -7  -1   29.35   14.29
  -4  -7   0   62.33   21.37
  -4  -7   0   26.86    9.34
  -4  -7   1  334.75   42.95
  -4  -7   1  286.50   29.21
  -4  -7   2  326.04   34.85
  -4  -7   2  361.27   46.50
  -4  -7   3   69.85   25.15
  -4  -7   3    1.17    4.89
  -4  -7   4  211.95   37.96
  -4  -7   4  142.79   27.23
  -4  -7   5   58.63   18.83
  -4  -7   5   53.91   16.05
  -4  -7   6   11.20   14.01
  -4  -7   6   13.62   13.21
  -4  -7   7   -4.82    9.20
  -4  -7   8   13.09   11.55
  -4  -6 -15   -3.92    9.78
  -4  -6 -14   -0.83   11.97
  -4  -6 -13  449.32   54.47
  -4  -6 -12   58.64   21.05
  -4  -6 -11   49.35   19.54
  -4  -6 -10  266.87   40.14
  -4  -6  -9  142.71   28.17
  -4  -6  -8   72.47   21.20
  -4  -6  -8  114.12   16.61
  -4  -6  -7  974.45   70.32
  -4  -6  -7 1022.11   53.88
  -4  -6  -6  234.84   34.27
  -4  -6  -6  215.99   25.54
  -4  -6  -5   98.62   23.31
  -4  -6  -5   98.83   19.97
  -4  -6  -4  523.66   43.37
  -4  -6  -4  560.81   50.64
  -4  -6  -3  139.72   23.37
  -4  -6  -2  117.39   21.97
  -4  -6  -1  278.76   34.63
  -4  -6  -1  287.53   20.16
  -4  -6   0   68.43   15.50
  -4  -6   0   64.08   13.42
  -4  -6   1   83.27   21.74
  -4  -6   1   62.02   13.19
  -4  -6   2  189.10   25.85
  -4  -6   2  184.14   29.97
  -4  -6   3   81.54   18.60
  -4  -6   3   46.66   16.00
  -4  -6   4  289.82   37.18
  -4  -6   4  261.22   38.94
  -4  -6   5   65.58   20.35
  -4  -6   5   38.06   16.67
  -4  -6   6   99.27   25.08
  -4  -6   6  104.76   27.62
  -4  -6   7   50.96   20.10
  -4  -6   7   63.03   22.76
  -4  -6   8  155.30   34.46
  -4  -6   8  141.48   35.20
  -4  -5 -15   48.82   19.10
  -4  -5 -14   14.81   14.92
  -4  -5 -13  320.38   45.20
  -4  -5 -12  135.25   30.41
  -4  -5 -11   41.58   18.00
  -4  -5 -10  233.94   35.83
  -4  -5  -9  107.74   24.90
  -4  -5  -8    4.15   13.86
  -4  -5  -8    6.15    5.25
  -4  -5  -7  364.68   40.30
  -4  -5  -7  378.83   29.39
  -4  -5  -6  159.09   19.40
  -4  -5  -6  187.34   29.49
  -4  -5  -5    7.60    5.83
  -4  -5  -5   17.91   12.65
  -4  -5  -4  576.76   48.00
  -4  -5  -4  462.97   38.61
  -4  -5  -3  164.60   26.24
  -4  -5  -3  207.05   26.62
  -4  -5  -2   22.04   13.38
  -4  -5  -2   13.93    3.62
  -4  -5  -2   20.34    3.50
  -4  -5  -1  401.10   39.30
  -4  -5   0  141.04   17.70
  -4  -5   0  148.05   26.74
  -4  -5   1   36.48   14.36
  -4  -5   1   63.48   12.38
  -4  -5   2  377.84   42.44
  -4  -5   2  405.02   29.35
  -4  -5   3   11.40    5.26
  -4  -5   3   12.93   10.56
  -4  -5   4   86.20   13.84
  -4  -5   4  118.11   26.32
  -4  -5   5  271.97   38.23
  -4  -5   6   -7.58    9.48
  -4  -5   7   70.67   22.45
  -4  -5   8  137.83   30.31
  -4  -5   9   22.38   15.61
  -4  -5  10    1.60   10.55
  -4  -4 -15  552.54   60.94
  -4  -4 -14   50.72   18.79
  -4  -4 -13   25.12   15.60
  -4  -4 -12   36.23   15.80
  -4  -4 -11   -2.57   11.16
  -4  -4 -10  288.97   38.62
  -4  -4  -9  536.31   49.35
  -4  -4  -9  484.29   21.82
  -4  -4  -8  119.50   12.99
  -4  -4  -8  103.29   21.18
  -4  -4  -7   17.75    8.92
  -4  -4  -7   43.36   10.03
  -4  -4  -6  190.92   27.85
  -4  -4  -6  181.36   19.78
  -4  -4  -5   78.81   14.65
  -4  -4  -5   96.54   20.64
  -4  -4  -4  695.48   42.74
  -4  -4  -4  617.47   46.59
  -4  -4  -3  230.64   26.53
  -4  -4  -3  234.08   28.52
  -4  -4  -2  344.61   18.23
  -4  -4  -2  394.43   35.13
  -4  -4  -2  396.00   34.54
  -4  -4  -2  402.93   33.27
  -4  -4  -1 1889.60   75.96
  -4  -4  -1 1713.42   67.22
  -4  -4  -1 1797.95   50.80
  -4  -4  -1 1937.10   79.84
  -4  -4   0  782.61   47.88
  -4  -4   0  879.69   47.07
  -4  -4   0  862.09   55.77
  -4  -4   1   35.68   14.70
  -4  -4   1   16.04    6.65
  -4  -4   2  794.65   56.52
  -4  -4   2  760.42   43.56
  -4  -4   3   42.90   10.65
  -4  -4   3   49.50   19.82
  -4  -4   4  385.06   33.42
  -4  -4   4  367.42   42.12
  -4  -4   5  879.45   52.67
  -4  -4   5  729.82   60.44
  -4  -4   6  779.94   52.19
  -4  -4   6  770.43   63.77
  -4  -4   7  226.76   35.86
  -4  -4   7  200.21   27.91
  -4  -4   8   -3.01   11.19
  -4  -4   9    1.20    9.36
  -4  -4  10   71.44   21.86
  -4  -3 -15   -4.77   12.10
  -4  -3 -14    1.70    9.91
  -4  -3 -13   32.54   13.69
  -4  -3 -12  118.68   25.94
  -4  -3 -11   -0.30    8.91
  -4  -3 -10   46.96   15.88
  -4  -3  -9  146.73   29.81
  -4  -3  -9  137.36   11.61
  -4  -3  -8   55.99   18.50
  -4  -3  -7   65.25   16.97
  -4  -3  -6  644.68   48.82
  -4  -3  -4  645.39   26.34
  -4  -3  -3 2423.02   85.68
  -4  -3  -3 2375.46   84.60
  -4  -3  -3 2466.91   52.83
  -4  -3  -2  343.43   31.19
  -4  -3  -2  310.38   20.35
  -4  -3  -2  319.11   30.34
  -4  -3  -1  872.31   48.88
  -4  -3  -1  910.97   47.70
  -4  -3  -1  902.82   38.67
  -4  -3  -1  911.90   48.03
  -4  -3   0 1493.92   59.99
  -4  -3   0 1412.95   58.11
  -4  -3   0 1507.79   63.46
  -4  -3   1   27.80    8.99
  -4  -3   1   34.95   10.60
  -4  -3   1   22.88    8.23
  -4  -3   2  446.23   35.70
  -4  -3   3  802.74   49.77
  -4  -3   4  275.10   30.00
  -4  -3   4  275.10   34.16
  -4  -3   5   36.82   11.24
  -4  -3   5   34.99   15.71
  -4  -3   6  172.24   29.88
  -4  -3   7    5.20   11.26
  -4  -3   8   19.80   11.67
  -4  -3   9  128.86   28.81
  -4  -3  10    6.79   10.31
  -4  -2 -15    3.65    9.30
  -4  -2 -14   40.80   15.87
  -4  -2 -13   29.20   14.99
  -4  -2 -12  231.61   37.52
  -4  -2 -11   88.94   25.22
  -4  -2 -10  169.65   29.99
  -4  -2  -9  214.35   32.73
  -4  -2  -8  215.47   32.74
  -4  -2  -7  200.86   29.56
  -4  -2  -5  416.62   27.96
  -4  -2  -4   11.61    7.16
  -4  -2  -4   11.12    4.20
  -4  -2  -3 1162.00   44.27
  -4  -2  -3 1157.22   60.04
  -4  -2  -2  436.87   36.09
  -4  -2  -2  441.45   34.56
  -4  -2  -2  422.91   34.17
  -4  -2  -2  470.44   29.01
  -4  -2  -1  883.62   46.00
  -4  -2  -1  905.59   51.09
  -4  -2  -1  905.96   42.60
  -4  -2  -1  979.99   47.88
  -4  -2   0 1735.84   63.07
  -4  -2   0 1791.27   61.79
  -4  -2   0 1778.48   71.54
  -4  -2   0 1671.87   59.39
  -4  -2   1   61.64   15.26
  -4  -2   1   49.51   10.17
  -4  -2   1   60.03   11.47
  -4  -2   2   -1.14    3.07
  -4  -2   2   -0.89    4.76
  -4  -2   3  267.58   30.97
  -4  -2   4  135.60   22.02
  -4  -2   4  172.15   29.58
  -4  -2   5  447.74   47.98
  -4  -2   6    5.01    6.91
  -4  -2   7  125.78   24.64
  -4  -2   7  122.28   28.54
  -4  -2   8  146.40   27.38
  -4  -2   8  143.68   32.85
  -4  -2   9  179.58   37.33
  -4  -2   9  194.93   33.10
  -4  -2  10   12.83   14.72
  -4  -2  10   -1.92    7.97
  -4  -2  11   95.70   29.44
  -4  -1 -14   64.47   23.46
  -4  -1 -13   15.29   15.65
  -4  -1  -6 1561.79   65.30
  -4  -1  -5 2217.57   74.70
  -4  -1  -5 2180.50   88.28
  -4  -1  -4 1009.46   58.68
  -4  -1  -4  885.53   45.34
  -4  -1  -3    4.13    4.98
  -4  -1  -3   12.58   11.08
  -4  -1  -2  205.23   23.92
  -4  -1  -2  256.22   24.11
  -4  -1  -2  277.03   29.44
  -4  -1  -1  559.73   40.79
  -4  -1  -1  550.28   35.89
  -4  -1   0  453.59   31.60
  -4  -1   0  512.98   36.23
  -4  -1   1  578.51   43.24
  -4  -1   1  530.11   31.02
  -4  -1   1  455.97   28.78
  -4  -1   1  529.45   38.87
  -4  -1   2   14.80   10.84
  -4  -1   2    6.54    5.52
  -4  -1   2    3.32    5.20
  -4  -1   2    3.79    7.50
  -4  -1   3  120.37   20.63
  -4  -1   3  152.99   24.78
  -4  -1   3  147.94   13.10
  -4  -1   3  123.97   12.00
  -4  -1   4   20.62   12.61
  -4  -1   5   63.09   18.40
  -4  -1   6   84.40   22.78
  -4  -1   7  167.20   32.67
  -4  -1   8  209.12   37.77
  -4  -1   9  480.53   47.70
  -4  -1   9  524.00   60.86
  -4  -1  10   68.81   25.58
  -4  -1  10   51.61   17.36
  -4  -1  11   47.17   21.84
  -4   0  -5   10.23    6.75
  -4   0  -4  496.06   42.24
  -4   0  -3 1039.56   58.61
  -4   0  -3 1027.50   53.17
  -4   0  -2  210.69   26.28
  -4   0  -2  189.50   22.67
  -4   0  -1  147.72   22.22
  -4   0  -1  131.74   19.94
  -4   0   0    5.75    7.78
  -4   0   0   -0.84    6.69
  -4   0   1  357.87   35.28
  -4   0   1  408.13   34.56
  -4   0   2  361.55   24.58
  -4   0   2  469.37   41.12
  -4   0   2  490.47   40.04
  -4   0   3 1310.85   41.23
  -4   0   3 1783.12   80.70
  -4   0   4   15.96    7.82
  -4   0   4    5.02    2.73
  -4   0   4   10.08    3.22
  -4   0   5  211.06   31.34
  -4   0   6  728.20   60.69
  -4   0   7  289.09   41.76
  -4   0   8   21.76   16.15
  -4   0   9   95.88   27.96
  -4   0  10   77.00   25.76
  -4   0  10   99.16   22.42
  -4   0  11   29.54   19.33
  -4   1  -5  568.53   46.81
  -4   1  -4    4.19    6.40
  -4   1  -3  697.39   49.46
  -4   1  -2  301.05   31.77
  -4   1  -1  468.63   40.50
  -4   1   0  330.39   27.93
  -4   1   0  334.03   35.58
  -4   1   1 1082.66   63.34
  -4   1   1 1088.91   54.20
  -4   1   2    6.22    6.17
  -4   1   2    4.55    7.04
  -4   1   3  770.71   51.83
  -4   1   4  662.63   51.70
  -4   1   5  202.58   31.12
  -4   1   5  123.81    9.52
  -4   1   6  343.05   41.62
  -4   1   7  161.52   29.85
  -4   1   8    9.98   12.79
  -4   1   9   71.96   23.97
  -4   1  10  150.38   34.96
  -4   1  11   -4.16   12.99
  -4   2  -6  386.58   41.23
  -4   2  -5  614.83   49.33
  -4   2  -4   32.17   11.14
  -4   2  -3  211.15   28.14
  -4   2  -2  618.06   47.47
  -4   2  -1 1950.42   84.86
  -4   2  -1 1833.35   57.91
  -4   2   0   12.63    5.71
  -4   2   0    8.19    8.35
  -4   2   1  433.12   41.51
  -4   2   1  426.66   33.36
  -4   2   2   44.26   13.35
  -4   2   2   34.99   13.90
  -4   2   3   -0.47    7.73
  -4   2   4 1892.29   85.82
  -4   2   5   83.39   20.79
  -4   2   6   -1.02    7.58
  -4   2   6    2.75    3.00
  -4   2   7   24.51   10.48
  -4   2   8   18.42   10.36
  -4   2   9   21.69   13.63
  -4   2  10   77.04   26.25
  -4   2  11   21.54   20.05
  -4   3  -6   51.19   16.35
  -4   3  -5  266.01   33.64
  -4   3  -4  173.96   26.98
  -4   3  -3   35.75   14.03
  -4   3  -2  312.10   34.73
  -4   3  -1  218.29   29.98
  -4   3  -1  196.27   18.29
  -4   3   0   23.39    6.63
  -4   3   0   26.21   10.24
  -4   3   1  418.32   42.80
  -4   3   1  370.43   30.67
  -4   3   2  313.24   37.69
  -4   3   2  266.77   29.13
  -4   3   3    6.09    6.49
  -4   3   4  378.33   40.00
  -4   3   5   47.46   15.05
  -4   3   6  554.91   53.41
  -4   3   6  486.56   30.72
  -4   3   7  216.35   35.51
  -4   3   8   34.46   16.67
  -4   3   9   46.32   19.74
  -4   3  10   44.88   20.27
  -4   4  -5   36.64   14.06
  -4   4  -4  295.30   35.38
  -4   4  -3   48.28   14.76
  -4   4  -2  594.09   49.56
  -4   4  -2  535.50   22.23
  -4   4  -1  294.47   36.21
  -4   4  -1  288.21   21.50
  -4   4   0   55.04   15.99
  -4   4   0   39.62   10.11
  -4   4   1   51.05   12.16
  -4   4   1  118.44   24.26
  -4   4   2 1059.05   57.97
  -4   4   2  986.69   69.90
  -4   4   3  170.67   25.39
  -4   4   4  221.55   30.26
  -4   4   5  450.69   46.05
  -4   4   6   22.96    7.70
  -4   4   6    9.11    5.79
  -4   4   7  229.64   36.30
  -4   4   8  110.05   28.26
  -4   4   9   16.63    9.58
  -4   4  10  111.59   30.50
  -4   5  -5   12.40   12.48
  -4   5  -4  224.86   32.35
  -4   5  -3    7.17   10.17
  -4   5  -2  238.87   32.53
  -4   5  -1  319.39   38.84
  -4   5  -1  303.26   22.52
  -4   5   0   34.63   13.33
  -4   5   0   17.76    7.70
  -4   5   1  136.46   19.95
  -4   5   1  108.07   23.89
  -4   5   2  488.00   50.19
  -4   5   2  453.42   39.76
  -4   5   3   -1.70    5.91
  -4   5   3   -4.59    8.43
  -4   5   4  107.15   21.98
  -4   5   5  169.43   28.44
  -4   5   6   13.01    9.55
  -4   5   6    8.49   10.56
  -4   5   7  183.59   33.73
  -4   5   8  135.63   31.22
  -4   5   9   18.30   13.35
  -4   6  -3  275.64   35.76
  -4   6  -2   29.49   14.41
  -4   6  -1  164.60   28.76
  -4   6   0  212.27   33.32
  -4   6   1  184.50   30.89
  -4   6   2   86.10   19.71
  -4   6   2  117.53   23.08
  -4   6   3  436.31   50.82
  -4   6   3  385.50   40.21
  -4   6   4   -0.66    4.10
  -4   6   5   94.60   23.35
  -4   6   6   39.47   15.42
  -4   6   7   24.04   15.39
  -4   6   8   85.77   25.14
  -4   6   9   19.89   17.99
  -4   7   0   58.95   18.73
  -4   7   1    5.34   12.80
  -4   7   2   47.14   17.43
  -4   7   3   74.82   22.32
  -4   7   4    2.77    7.11
  -4   7   5   69.95   19.19
  -4   7   6  118.28   27.46
  -4   7   7    6.36   11.14
  -4   7   8   72.11   22.97
  -4   8   4   49.07   18.33
  -4   8   5   30.14   14.83
  -4   8   5   25.18   17.72
  -4   8   6   88.03   29.69
  -3  -9  -2  109.02   25.58
  -3  -9  -1  263.82   40.95
  -3  -9   0    4.19    8.60
  -3  -9   1   33.44   16.29
  -3  -9   2   75.05   25.09
  -3  -8  -4  161.30   28.94
  -3  -8  -3   12.86    9.97
  -3  -8  -2  284.64   38.52
  -3  -8  -1   61.09   21.44
  -3  -8   0   24.38   16.04
  -3  -8   1  114.79   27.37
  -3  -8   2  277.23   42.20
  -3  -8   3   15.74   13.92
  -3  -8   3   18.74   12.71
  -3  -8   4   57.72   24.04
  -3  -8   4   82.92   24.26
  -3  -8   5  136.81   28.88
  -3  -8   5  142.73   32.48
  -3  -8   6    3.26    7.93
  -3  -8   7   76.80   25.47
  -3  -7  -6  186.80   26.02
  -3  -7  -5  125.07   23.70
  -3  -7  -4  620.32   49.42
  -3  -7  -3  786.18   57.61
  -3  -7  -2   10.04   10.97
  -3  -7  -2   32.48    7.04
  -3  -7  -1  131.86   16.54
  -3  -7  -1  163.59   29.15
  -3  -7   0  206.36   32.82
  -3  -7   0  170.53   20.84
  -3  -7   1   94.30   22.68
  -3  -7   1   97.65   17.98
  -3  -7   2  299.38   33.72
  -3  -7   2  349.73   43.95
  -3  -7   3  475.71   45.72
  -3  -7   3  443.08   50.81
  -3  -7   4   75.04   22.76
  -3  -7   4   31.86   15.33
  -3  -7   5   82.34   22.69
  -3  -7   5  103.54   26.76
  -3  -7   6    6.87   11.21
  -3  -7   6  -10.37   13.59
  -3  -7   7   32.80   16.87
  -3  -7   7    2.43   10.06
  -3  -7   8   66.23   23.43
  -3  -6 -14   32.99   14.02
  -3  -6 -13  233.88   37.30
  -3  -6 -12  299.78   41.66
  -3  -6 -11   21.11   14.94
  -3  -6 -10   97.57   23.57
  -3  -6  -9   42.20   16.31
  -3  -6  -8   19.97   14.42
  -3  -6  -7  144.14   28.06
  -3  -6  -6  267.72   27.39
  -3  -6  -5    6.80    8.00
  -3  -6  -4  217.52   26.86
  -3  -6  -3  339.41   34.37
  -3  -6  -2   94.85   20.82
  -3  -6  -2   81.76    8.82
  -3  -6  -1  357.93   23.47
  -3  -6  -1  334.35   36.91
  -3  -6   0  230.54   31.54
  -3  -6   0  204.72   21.60
  -3  -6   1   57.11   19.85
  -3  -6   1   48.21   12.87
  -3  -6   2  227.35   34.40
  -3  -6   2  214.00   26.15
  -3  -6   3  372.33   37.66
  -3  -6   3  402.97   46.03
  -3  -6   4   13.07   14.55
  -3  -6   4   17.22   10.73
  -3  -6   5  139.86   28.27
  -3  -6   5  119.77   25.18
  -3  -6   6   48.56   19.93
  -3  -6   6   40.72   17.72
  -3  -6   7    8.77    7.66
  -3  -6   7   13.05   13.00
  -3  -6   8  154.12   33.63
  -3  -6   8  212.97   39.76
  -3  -6   9   20.24   17.28
  -3  -6   9   21.79   16.39
  -3  -5 -14   21.11   11.04
  -3  -5 -13  172.34   30.83
  -3  -5 -12  447.16   48.68
  -3  -5 -11   24.34   13.70
  -3  -5 -10  143.91   26.82
  -3  -5  -9  439.67   44.89
  -3  -5  -8   14.55    7.86
  -3  -5  -7   87.10   13.17
  -3  -5  -7   99.03   20.71
  -3  -5  -6  230.24   31.40
  -3  -5  -6  215.34   22.15
  -3  -5  -5  305.99   35.05
  -3  -5  -5  295.82   26.65
  -3  -5  -4  479.40   36.14
  -3  -5  -3  672.72   49.57
  -3  -5  -3  717.21   45.69
  -3  -5  -2  616.21   43.39
  -3  -5  -2  496.08   16.50
  -3  -5  -1  513.78   24.83
  -3  -5  -1  472.24   40.04
  -3  -5   0  271.38   22.12
  -3  -5   0  249.57   28.65
  -3  -5   1    4.18    5.83
  -3  -5   1   -1.24    9.47
  -3  -5   2  725.67   27.04
  -3  -5   2  723.66   45.23
  -3  -5   3   31.19   14.78
  -3  -5   3   33.37    6.55
  -3  -5   4    6.01    2.99
  -3  -5   4  -13.78   14.81
  -3  -5   5  184.49   30.46
  -3  -5   6  179.52   31.07
  -3  -5   7   21.46   15.02
  -3  -5   8  132.94   29.14
  -3  -5   9    6.69    7.83
  -3  -5   9   37.71   19.95
  -3  -5  10   29.99   15.67
  -3  -5  10   -6.44   10.21
  -3  -5  11   87.07   24.28
  -3  -4 -14   53.78   17.69
  -3  -4 -13   14.25    9.17
  -3  -4 -12   72.59   19.51
  -3  -4 -11   34.60   15.17
  -3  -4 -10  107.05   22.34
  -3  -4  -9  431.46   42.56
  -3  -4  -8  148.21   24.30
  -3  -4  -7   27.25   12.09
  -3  -4  -7   24.60    6.23
  -3  -4  -6   11.92    4.71
  -3  -4  -6   16.37    9.63
  -3  -4  -5   56.85   10.44
  -3  -4  -4   23.62    8.57
  -3  -4  -3 1906.31   66.75
  -3  -4  -2  319.13   29.08
  -3  -4  -1  334.32   31.28
  -3  -4  -1  368.11   32.73
  -3  -4   0 1042.38   41.65
  -3  -4   1  218.41   18.81
  -3  -4   2  794.25   35.35
  -3  -4   3  217.88   28.43
  -3  -4   3  236.44   20.00
  -3  -4   4   18.86    9.18
  -3  -4   4   36.65    9.39
  -3  -4   5   80.06   19.34
  -3  -4   5   57.54   11.16
  -3  -4   6  507.20   48.74
  -3  -4   7   82.33   19.50
  -3  -4   8   27.98   17.29
  -3  -4   9  144.09   29.29
  -3  -4  10   18.80   13.21
  -3  -4  11   19.61   14.03
  -3  -3 -14  115.14   25.19
  -3  -3 -13    2.00   10.34
  -3  -3 -12  134.81   26.51
  -3  -3 -11  350.32   39.07
  -3  -3 -10    6.61    7.07
  -3  -3  -9  658.84   51.43
  -3  -3  -8  634.11   48.31
  -3  -3  -7    3.66    2.09
  -3  -3  -7   -0.51    6.55
  -3  -3  -6  735.95   48.99
  -3  -3  -6  752.91   30.27
  -3  -3  -5   72.09   11.66
  -3  -3  -2  157.00    9.89
  -3  -3  -2  195.66   20.67
  -3  -3  -1  191.50   20.08
  -3  -3  -1  182.52   20.87
  -3  -3  -1  177.76   20.15
  -3  -3   0 2065.67   61.53
  -3  -3   0 2015.39   65.65
  -3  -3   0 2070.92   66.07
  -3  -3   1    6.39    4.27
  -3  -3   1    1.81    3.08
  -3  -3   2   38.47    9.74
  -3  -3   3  303.86   26.05
  -3  -3   3  261.40   29.88
  -3  -3   4   11.58   12.72
  -3  -3   5  147.04   25.41
  -3  -3   6  141.48   25.03
  -3  -3   7  181.44   33.19
  -3  -3   7  122.73   25.28
  -3  -3   8   10.42   12.88
  -3  -3   8    6.34   11.04
  -3  -3   9  209.50   38.63
  -3  -3   9   74.98   20.12
  -3  -3  10   20.53   15.19
  -3  -3  10   23.89   14.86
  -3  -3  11   86.95   30.32
  -3  -3  11   40.70   18.89
  -3  -3  12   40.51   21.89
  -3  -2 -14   54.89   18.63
  -3  -2 -13  149.10   27.38
  -3  -2 -12   25.32   14.98
  -3  -2 -11  171.14   29.29
  -3  -2 -10   58.88   19.30
  -3  -2  -9  508.67   46.03
  -3  -2  -8  725.74   52.02
  -3  -2  -8  508.36   16.58
  -3  -2  -7  105.62   20.96
  -3  -2  -6  921.90   54.19
  -3  -2  -4  382.48   21.75
  -3  -2  -3  972.54   48.28
  -3  -2  -3  958.32   31.36
  -3  -2  -2 1249.26   52.63
  -3  -2  -2 1264.76   51.45
  -3  -2  -2 1258.58   52.54
  -3  -2  -2 1234.74   35.89
  -3  -2  -1   -1.04    3.84
  -3  -2  -1   -0.24    3.15
  -3  -2  -1    6.49    4.77
  -3  -2   0 3183.36   80.81
  -3  -2   0 3227.41   75.44
  -3  -2   0 3245.14   74.22
  -3  -2   1  896.67   36.50
  -3  -2   1  903.24   43.68
  -3  -2   1  909.86   36.89
  -3  -2   2   61.17   13.00
  -3  -2   2   68.21    9.97
  -3  -2   2   56.26    9.51
  -3  -2   3  406.19   36.77
  -3  -2   4  418.18   40.30
  -3  -2   5   28.99   13.30
  -3  -2   5   10.47    8.26
  -3  -2   6  138.60   26.29
  -3  -2   6  162.03   25.18
  -3  -2   7  298.73   35.53
  -3  -2   7  358.32   44.09
  -3  -2   8   10.76    8.27
  -3  -2   8    5.29    6.43
  -3  -2   9  115.38   28.34
  -3  -2   9  148.37   26.39
  -3  -2  10   94.03   27.38
  -3  -2  10  117.16   23.94
  -3  -2  11   14.57   13.54
  -3  -2  12  119.26   33.34
  -3  -1 -14   78.19   23.59
  -3  -1 -13   93.14   24.42
  -3  -1 -12   14.05   14.44
  -3  -1  -9  116.63   11.19
  -3  -1  -8  892.57   32.20
  -3  -1  -5 2646.12   74.03
  -3  -1  -4  288.75   28.22
  -3  -1  -4  277.91   22.33
  -3  -1  -3  104.03   13.12
  -3  -1  -3  121.80   17.72
  -3  -1  -2  330.06   22.65
  -3  -1  -2  400.02   30.30
  -3  -1  -2  325.69   26.29
  -3  -1  -1   51.30   11.08
  -3  -1  -1   41.51    8.44
  -3  -1  -1   34.03    8.84
  -3  -1   0   23.41    7.52
  -3  -1   0   10.88    4.64
  -3  -1   0   10.13    6.01
  -3  -1   0    8.24    5.86
  -3  -1   1 1596.02   46.12
  -3  -1   1 1690.91   62.27
  -3  -1   1 1598.47   45.54
  -3  -1   1 1609.16   62.75
  -3  -1   2    6.37    7.18
  -3  -1   2   11.07    3.33
  -3  -1   2    7.14    3.34
  -3  -1   3  243.19   13.80
  -3  -1   3  215.44   13.05
  -3  -1   3  218.73   26.49
  -3  -1   4  354.59   36.11
  -3  -1   5   -0.32    5.32
  -3  -1   6  289.23   36.81
  -3  -1   7  205.56   32.21
  -3  -1   8    4.06   10.11
  -3  -1   8   15.53   11.53
  -3  -1   9   99.50   26.27
  -3  -1   9  140.32   23.15
  -3  -1  10  110.10   28.22
  -3  -1  10  112.42   22.31
  -3  -1  11    9.27   11.14
  -3  -1  12   95.93   29.82
  -3   0  -9   23.68    7.91
  -3   0  -8  972.75   41.84
  -3   0  -5 2260.23   76.38
  -3   0  -4 1721.67   63.45
  -3   0  -4 1721.18   68.43
  -3   0  -3   30.35    8.62
  -3   0  -3   31.68   10.35
  -3   0  -2  784.25   43.62
  -3   0  -2  852.38   41.20
  -3   0  -1   14.56    7.24
  -3   0  -1   12.36    7.03
  -3   0   0   24.48    7.10
  -3   0   0   42.09   11.00
  -3   0   0   23.22    7.80
  -3   0   1 2705.61   81.03
  -3   0   1 2678.72   83.12
  -3   0   1 2747.24   78.77
  -3   0   2 1411.51   60.50
  -3   0   2 1385.97   59.29
  -3   0   3  314.27   15.47
  -3   0   3  348.68   31.43
  -3   0   3  310.32   15.31
  -3   0   4 1014.89   57.83
  -3   0   5  136.32   22.66
  -3   0   6  307.41   35.84
  -3   0   7  228.01   33.95
  -3   0   8   12.27   10.20
  -3   0   9  243.46   38.53
  -3   0  10  153.39   32.40
  -3   0  10  197.57   27.31
  -3   0  11    2.48    8.66
  -3   0  12    0.19   11.79
  -3   1  -8   48.84   11.70
  -3   1  -7  646.16   39.75
  -3   1  -5   95.76   18.32
  -3   1  -4  778.74   47.02
  -3   1  -3   -0.15    4.65
  -3   1  -3    9.28    6.20
  -3   1  -2   13.90    7.81
  -3   1  -2   12.07    7.18
  -3   1  -1  655.82   40.97
  -3   1  -1  590.45   38.92
  -3   1  -1  605.85   28.15
  -3   1   0  143.76   19.89
  -3   1   0  116.25   18.24
  -3   1   0  131.72   14.72
  -3   1   1  541.70   38.53
  -3   1   1  497.26   37.44
  -3   1   1  497.53   31.54
  -3   1   2 1515.61   60.11
  -3   1   2 1491.33   66.49
  -3   1   3  100.72   17.11
  -3   1   4 1919.30   79.18
  -3   1   5  378.37   37.78
  -3   1   6  126.01   23.69
  -3   1   7  702.19   57.38
  -3   1   8   68.04   21.32
  -3   1   9  102.42   25.74
  -3   1  10  175.16   33.44
  -3   1  11   74.03   24.86
  -3   1  12   36.24   21.66
  -3   2  -5  411.29   35.90
  -3   2  -4  815.42   49.77
  -3   2  -3    4.39    6.97
  -3   2  -2  378.65   32.35
  -3   2  -1 1577.80   66.65
  -3   2  -1 1647.09   43.60
  -3   2   0   72.01   10.74
  -3   2   0   62.84   15.30
  -3   2   1  800.13   49.17
  -3   2   1  692.50   37.06
  -3   2   2 1022.02   49.43
  -3   2   3   51.88   13.65
  -3   2   4 1077.39   59.22
  -3   2   5  744.23   52.88
  -3   2   6   20.42   12.13
  -3   2   6    7.96    3.27
  -3   2   6    7.55    3.73
  -3   2   7  571.87   51.64
  -3   2   8   64.08   20.18
  -3   2   9   36.10   16.60
  -3   2  10   -2.90    8.40
  -3   2  11   60.49   23.93
  -3   2  12   53.29   25.61
  -3   3  -5   81.36   16.77
  -3   3  -4  709.10   46.93
  -3   3  -3  420.52   35.36
  -3   3  -2  849.19   50.13
  -3   3  -2  788.05   22.18
  -3   3  -1 1474.93   67.19
  -3   3  -1 1497.27   42.14
  -3   3   0 1677.32   72.87
  -3   3   0 1647.11   52.54
  -3   3   1  136.22   17.43
  -3   3   1  157.42   23.62
  -3   3   2  677.59   41.47
  -3   3   3   45.90   11.44
  -3   3   4  503.05   42.03
  -3   3   5 2000.76   88.94
  -3   3   6  370.87   40.85
  -3   3   6  332.03   24.28
  -3   3   6  319.80   23.98
  -3   3   7  103.56   23.58
  -3   3   7   97.36   13.01
  -3   3   8  111.38   25.20
  -3   3   9    7.33    9.73
  -3   3  10  116.85   28.88
  -3   3  11  185.73   37.58
  -3   4  -5   18.28   10.43
  -3   4  -4  324.72   33.17
  -3   4  -3  687.16   46.77
  -3   4  -2    6.33    3.01
  -3   4  -2   -5.55    8.24
  -3   4  -1  366.23   34.66
  -3   4  -1  359.55   22.11
  -3   4   0  284.52   31.88
  -3   4   0  272.26   22.63
  -3   4   1   12.60    8.77
  -3   4   1    1.13    8.54
  -3   4   2  292.61   28.41
  -3   4   3   86.73   17.30
  -3   4   4    0.85    7.77
  -3   4   5  129.95   24.39
  -3   4   6   22.61   12.25
  -3   4   6   24.13    9.05
  -3   4   7   20.66   12.13
  -3   4   7   37.34   10.50
  -3   4   8  189.71   34.23
  -3   4   9  102.07   24.64
  -3   4  10   79.46   25.56
  -3   4  11  102.33   28.14
  -3   5  -4  108.43   19.54
  -3   5  -3  180.42   24.99
  -3   5  -2   71.31   16.02
  -3   5  -2   69.15    8.83
  -3   5  -1  525.26   43.38
  -3   5  -1  536.76   29.62
  -3   5   0  117.80   16.14
  -3   5   0   98.55   19.87
  -3   5   1   20.55   11.34
  -3   5   1   20.00    6.52
  -3   5   2  197.38   24.98
  -3   5   3  266.94   30.18
  -3   5   4   15.70    8.55
  -3   5   5  125.18   24.58
  -3   5   6  201.84   32.67
  -3   5   6  127.53   20.66
  -3   5   7   -6.00    8.72
  -3   5   7    2.52    6.17
  -3   5   8  347.25   46.12
  -3   5   9  294.75   44.30
  -3   5  10   25.53   16.37
  -3   6  -3    6.51    9.21
  -3   6  -2   -5.10    5.15
  -3   6  -1  219.86   28.55
  -3   6   0  357.76   38.20
  -3   6   0  372.36   30.11
  -3   6   1    5.07    7.51
  -3   6   1    9.59    9.77
  -3   6   2   35.08   11.67
  -3   6   2   26.67   11.54
  -3   6   3   92.95   19.56
  -3   6   4   -2.06    5.02
  -3   6   5   36.85   14.62
  -3   6   6  181.89   30.72
  -3   6   6  236.69   32.64
  -3   6   7   80.03   23.66
  -3   6   7   94.61   20.25
  -3   6   8  229.59   39.18
  -3   6   9  341.39   49.37
  -3   6  10   57.33   24.91
  -3   7   0  223.74   30.64
  -3   7   1   53.30   16.68
  -3   7   2  144.52   23.79
  -3   7   2  154.60   27.47
  -3   7   3  156.72   25.15
  -3   7   3  146.76   28.12
  -3   7   4   87.77   21.03
  -3   7   5  -10.98   10.91
  -3   7   5   -3.61    8.98
  -3   7   6  163.45   31.12
  -3   7   6  164.00   29.92
  -3   7   7   74.83   22.24
  -3   7   7  120.47   24.19
  -3   7   8    2.23    7.52
  -3   7   9   26.60   16.61
  -3   8   3   72.47   19.55
  -3   8   4   69.00   20.80
  -3   8   4   81.73   23.75
  -3   8   5   -8.27   10.11
  -3   8   5    2.62    9.53
  -3   8   6   90.49   23.84
  -3   8   6   50.20   20.69
  -3   8   7   11.21   11.97
  -3   8   8    4.05   10.52
  -2  -8  -1   85.22   16.00
  -2  -8   0  113.74   25.41
  -2  -8   0  132.94   21.28
  -2  -8   1    4.01    6.78
  -2  -8   1  -23.73   10.36
  -2  -8   2  160.85   31.53
  -2  -8   2  141.14   25.25
  -2  -8   3  151.66   32.77
  -2  -8   3  128.44   25.93
  -2  -8   4    9.85   14.62
  -2  -8   4   24.07   14.60
  -2  -8   5  168.98   35.68
  -2  -8   5   89.44   23.79
  -2  -8   6   34.02   16.79
  -2  -8   6   26.67   13.50
  -2  -8   7   -2.66    8.93
  -2  -7  -3    4.05    9.27
  -2  -7  -3    7.69    5.97
  -2  -7  -2   85.79   19.10
  -2  -7  -2   89.55   14.43
  -2  -7  -1  257.92   33.76
  -2  -7  -1  235.76   24.58
  -2  -7   0  618.90   42.76
  -2  -7   0  602.29   52.82
  -2  -7   1    4.03    7.02
  -2  -7   1    6.16    7.27
  -2  -7   2  122.96   27.28
  -2  -7   2   79.61   18.20
  -2  -7   3   99.03   21.51
  -2  -7   3   55.34   17.61
  -2  -7   4   29.13   15.83
  -2  -7   4   -5.72    8.49
  -2  -7   5  101.74   27.30
  -2  -7   5  130.06   27.36
  -2  -7   6  110.76   30.40
  -2  -7   6  104.66   25.65
  -2  -7   7   -0.95    7.31
  -2  -7   7   10.66   12.95
  -2  -7   8   98.49   28.15
  -2  -7   8   69.11   23.37
  -2  -6  -4  859.79   52.05
  -2  -6  -3  671.79   28.90
  -2  -6  -3  648.64   46.41
  -2  -6  -2  931.82   38.97
  -2  -6  -2  901.27   56.30
  -2  -6  -1  174.20   26.02
  -2  -6  -1  219.91   20.91
  -2  -6   0 1002.50   48.86
  -2  -6   0 1024.73   63.71
  -2  -6   1    2.86    7.34
  -2  -6   1    4.72    8.99
  -2  -6   2  535.16   42.62
  -2  -6   2  643.47   53.40
  -2  -6   3  456.97   42.68
  -2  -6   3  419.67   44.44
  -2  -6   4  102.00   23.88
  -2  -6   4   54.26   18.73
  -2  -6   5    0.55   10.16
  -2  -6   5   18.35   12.44
  -2  -6   6   97.47   25.18
  -2  -6   6  134.72   27.92
  -2  -6   7   24.81   13.39
  -2  -6   7   10.30   10.14
  -2  -6   8   -1.83    8.69
  -2  -6   8   22.71   15.86
  -2  -6   9   29.10   15.62
  -2  -6   9   17.17   13.54
  -2  -6  10    5.17    9.46
  -2  -5 -13    0.34    9.39
  -2  -5 -12  170.73   28.46
  -2  -5 -11  233.30   32.44
  -2  -5 -10   -0.30    9.48
  -2  -5  -9  200.72   28.50
  -2  -5  -8  588.69   48.92
  -2  -5  -7   19.30   12.79
  -2  -5  -6  853.66   57.06
  -2  -5  -5  570.45   35.00
  -2  -5  -4    5.83    5.65
  -2  -5  -3  564.73   38.81
  -2  -5  -2 2147.36   48.38
  -2  -5  -2 2028.48   77.15
  -2  -5  -1   21.79    6.49
  -2  -5  -1   16.26    9.97
  -2  -5   0  869.75   40.48
  -2  -5   1  261.98   24.73
  -2  -5   2  234.05   29.80
  -2  -5   2  261.70   27.96
  -2  -5   3  506.91   45.39
  -2  -5   3  471.74   39.51
  -2  -5   4   85.22   19.87
  -2  -5   4  118.70   22.25
  -2  -5   5   16.17   14.12
  -2  -5   5   32.02   14.31
  -2  -5   6   40.55   15.76
  -2  -5   6   46.73   16.92
  -2  -5   7   78.94   22.46
  -2  -5   7   66.57   20.33
  -2  -5   8   52.74   19.86
  -2  -5   8   10.68   14.19
  -2  -5   9   81.92   22.69
  -2  -5   9   54.32   18.52
  -2  -5  10   56.15   22.21
  -2  -5  10   37.33   18.19
  -2  -5  11    2.27    6.78
  -2  -4 -13   22.94   10.63
  -2  -4 -12  340.90   38.54
  -2  -4 -11  893.16   60.67
  -2  -4 -10  191.70   27.35
  -2  -4  -9   39.22   12.69
  -2  -4  -8 2158.08   86.56
  -2  -4  -7   96.88   18.21
  -2  -4  -6 1213.80   62.03
  -2  -4  -5 1021.88   55.16
  -2  -4  -5 1001.56   39.22
  -2  -4  -4 1204.88   46.52
  -2  -4  -3 1525.20   55.29
  -2  -4  -2 1296.24   26.99
  -2  -4  -2 1371.05   55.80
  -2  -4  -1   20.48    7.54
  -2  -4  -1   40.98    6.44
  -2  -4   0   36.07    7.22
  -2  -4   1   14.44    7.12
  -2  -4   2  156.96    9.52
  -2  -4   3  829.54   25.71
  -2  -4   3  977.04   57.74
  -2  -4   4  258.13   32.10
  -2  -4   4  245.29   16.86
  -2  -4   5   65.83   18.78
  -2  -4   6   27.07   13.88
  -2  -4   7   20.43   12.57
  -2  -4   8   82.50   21.73
  -2  -4   9  142.90   26.95
  -2  -4  10  105.68   23.57
  -2  -4  11   24.41   14.92
  -2  -4  11   34.85   21.31
  -2  -3 -13  217.44   29.84
  -2  -3 -12  139.44   23.90
  -2  -3 -11   26.67   12.21
  -2  -3 -10  583.04   46.26
  -2  -3  -9   42.45   11.98
  -2  -3  -8 1336.83   64.97
  -2  -3  -7 1126.72   56.73
  -2  -3  -6   25.34   10.60
  -2  -3  -6   14.94    3.42
  -2  -3  -5  314.15   28.69
  -2  -3  -5  284.58   26.56
  -2  -3  -5  299.77   17.25
  -2  -3  -4  160.49   13.54
  -2  -3  -3 2323.21   58.99
  -2  -3  -2  539.22   30.99
  -2  -3  -1   84.17   13.95
  -2  -3  -1   76.85    6.74
  -2  -3  -1   73.79   13.72
  -2  -3   0 1372.33   38.44
  -2  -3   1 1664.10   40.54
  -2  -3   2  177.58   13.95
  -2  -3   4  358.77   33.72
  -2  -3   5   25.60    9.50
  -2  -3   6 1384.19   75.55
  -2  -3   6 1512.95   72.87
  -2  -3   7  728.60   53.54
  -2  -3   7  714.45   57.66
  -2  -3   8  223.25   34.45
  -2  -3   8  186.17   28.54
  -2  -3   9   80.75   24.01
  -2  -3   9   72.79   18.67
  -2  -3  10   94.80   26.64
  -2  -3  10  111.01   23.48
  -2  -3  11   25.81   17.77
  -2  -3  11    3.59    6.38
  -2  -3  12  135.22   32.48
  -2  -3  13   83.79   27.38
  -2  -2 -13   20.22    7.90
  -2  -2 -12    2.07    8.55
  -2  -2 -11    4.72    7.56
  -2  -2 -10  843.91   54.89
  -2  -2  -9  436.36   38.19
  -2  -2  -8  263.70   28.99
  -2  -2  -7  746.81   45.55
  -2  -2  -7  791.70   47.22
  -2  -2  -6  104.26   16.70
  -2  -2  -6   90.96   16.09
  -2  -2  -5 3760.66   93.10
  -2  -2  -5 3736.08   94.79
  -2  -2  -5 3760.54   50.48
  -2  -2  -1 1205.24   40.32
  -2  -2  -1 1203.63   43.12
  -2  -2  -1 1195.56   41.82
  -2  -2  -1 1196.72   25.99
  -2  -2   0  113.33   11.89
  -2  -2   0  110.27   12.57
  -2  -2   0   94.86   11.97
  -2  -2   1 1947.72   49.97
  -2  -2   1 2004.93   51.32
  -2  -2   3  167.38   22.05
  -2  -2   3  163.85   20.14
  -2  -2   4 1060.32   51.41
  -2  -2   4 1052.76   57.14
  -2  -2   5  847.37   48.58
  -2  -2   5  816.56   52.94
  -2  -2   6  223.65   26.52
  -2  -2   6  249.30   31.63
  -2  -2   7  429.36   37.39
  -2  -2   7  420.86   43.38
  -2  -2   8  118.00   25.87
  -2  -2   8   98.57   19.47
  -2  -2   9   41.17   17.89
  -2  -2   9   24.80   10.72
  -2  -2  10   86.84   24.44
  -2  -2  10   99.76   20.69
  -2  -2  11   37.01   18.57
  -2  -2  11   61.00   17.86
  -2  -2  12  108.76   31.78
  -2  -2  13   -9.45   16.20
  -2  -1 -13   53.57   16.63
  -2  -1 -12   45.42   16.79
  -2  -1 -11  244.74   33.10
  -2  -1 -10   99.76   19.25
  -2  -1  -7 1666.35   68.72
  -2  -1  -7 1492.34   31.41
  -2  -1  -6  196.07   22.64
  -2  -1  -6  202.88   11.78
  -2  -1  -5 2515.69   77.80
  -2  -1  -4  133.54   16.89
  -2  -1  -3 1405.39   39.07
  -2  -1  -2 4648.27   88.79
  -2  -1  -2 4740.41   67.38
  -2  -1  -1 4857.16   81.92
  -2  -1  -1 5099.51   87.43
  -2  -1  -1 4959.51   70.32
  -2  -1  -1 4840.74   81.64
  -2  -1   0 1555.66   41.06
  -2  -1   0 1638.39   42.29
  -2  -1   0 1627.77   47.63
  -2  -1   0 1708.70   43.08
  -2  -1   1 1484.11   51.69
  -2  -1   1 1502.71   36.13
  -2  -1   1 1451.94   46.63
  -2  -1   1 1440.15   34.68
  -2  -1   2 1734.32   35.69
  -2  -1   2 1671.68   35.32
  -2  -1   2 1764.59   61.28
  -2  -1   3  302.30   27.68
  -2  -1   4 2307.63   80.47
  -2  -1   5 1012.55   56.94
  -2  -1   6   11.58    9.31
  -2  -1   6    5.89    6.78
  -2  -1   7  696.64   45.38
  -2  -1   7  811.23   58.04
  -2  -1   8   63.44   17.48
  -2  -1   8   74.49   16.90
  -2  -1   9   33.46   10.36
  -2  -1   9   35.11   15.89
  -2  -1  10   82.95   18.06
  -2  -1  10  104.78   25.46
  -2  -1  11   -4.52    6.56
  -2  -1  12   45.09   17.61
  -2  -1  13   61.34   25.21
  -2   0  -9  578.50   28.99
  -2   0  -8    7.36    3.65
  -2   0  -7 1430.14   44.06
  -2   0  -6   18.15    5.20
  -2   0  -4 3104.47   77.46
  -2   0  -3 6688.25  114.95
  -2   0  -3 6468.23  106.65
  -2   0  -2 2405.94   63.78
  -2   0  -2 2352.19   57.72
  -2   0  -1   14.72    4.77
  -2   0  -1    6.65    5.82
  -2   0   0   14.89    5.07
  -2   0   0    4.75    4.20
  -2   0   0    2.45    3.42
  -2   0   1   53.02    8.96
  -2   0   1   85.23   12.10
  -2   0   2 3000.63   75.79
  -2   0   3 2878.70   80.51
  -2   0   4  204.16   23.23
  -2   0   5  145.55   20.77
  -2   0   6   60.58   15.92
  -2   0   7  743.06   54.10
  -2   0   8  161.56   27.38
  -2   0   8  175.14   21.36
  -2   0   9   55.43   18.80
  -2   0   9   69.98   14.59
  -2   0  10  552.98   40.36
  -2   0  10  615.12   59.36
  -2   0  11   69.23   20.85
  -2   0  12   72.65   24.34
  -2   0  13   64.83   23.10
  -2   1  -9   43.73   10.20
  -2   1  -8   24.33    8.85
  -2   1  -7  618.22   35.42
  -2   1  -6   59.16   11.93
  -2   1  -5    2.09    4.24
  -2   1  -4  441.64   32.78
  -2   1  -3  499.01   30.92
  -2   1  -3  519.64   33.16
  -2   1  -2  153.77   16.69
  -2   1  -2  147.81   16.96
  -2   1  -1 1242.93   46.40
  -2   1  -1 1242.38   47.64
  -2   1  -1 1216.70   29.43
  -2   1   0  130.47   11.50
  -2   1   0  122.58   15.05
  -2   1   0  131.97   15.72
  -2   1   1  178.08   18.49
  -2   1   1  197.94   16.62
  -2   1   2 2122.18   68.47
  -2   1   2 2337.44   64.95
  -2   1   3  254.42   23.55
  -2   1   4  309.63   13.31
  -2   1   4  272.32   13.11
  -2   1   5 1595.66   70.24
  -2   1   6   13.87    7.13
  -2   1   7  538.18   46.01
  -2   1   8  600.09   53.38
  -2   1   9    6.40    5.72
  -2   1  10   56.39   19.40
  -2   1  10   77.30   16.08
  -2   1  11  184.21   35.88
  -2   1  12   28.17   17.70
  -2   1  13   58.24   21.69
  -2   2  -5  123.28   18.98
  -2   2  -4  551.90   35.20
  -2   2  -3  890.97   42.98
  -2   2  -3  908.11   49.37
  -2   2  -2  155.98   17.65
  -2   2  -2  152.41   19.32
  -2   2  -1  866.21   41.08
  -2   2  -1  881.37   45.03
  -2   2  -1  809.29   23.61
  -2   2   0  410.13   28.80
  -2   2   0  428.10   31.77
  -2   2   0  427.77   21.79
  -2   2   1  802.14   44.00
  -2   2   1  751.96   33.66
  -2   2   2 3091.58   90.14
  -2   2   2 3121.98   78.04
  -2   2   3  540.90   38.62
  -2   2   3  547.78   36.03
  -2   2   4   42.30   12.43
  -2   2   5 1120.05   35.37
  -2   2   5 1194.91   36.26
  -2   2   5 1197.05   62.58
  -2   2   6  448.80   21.04
  -2   2   6  475.28   22.14
  -2   2   6  436.03   40.51
  -2   2   7  130.83   23.85
  -2   2   7   79.50    8.28
  -2   2   8  913.45   65.76
  -2   2   9  161.28   30.44
  -2   2  10   24.50   15.67
  -2   2  11  355.71   48.00
  -2   2  12   69.23   24.56
  -2   2  13   47.71   21.05
  -2   3  -4 1470.51   57.21
  -2   3  -3 2170.39   69.18
  -2   3  -2    0.68    1.03
  -2   3  -2   -6.12    7.21
  -2   3  -1  991.28   46.36
  -2   3  -1 1008.87   31.37
  -2   3   0 2328.86   81.41
  -2   3   0 2542.57   77.06
  -2   3   0 2423.19   58.29
  -2   3   1   89.76   12.73
  -2   3   1  114.27   18.19
  -2   3   2  100.30   15.03
  -2   3   3  246.81   25.50
  -2   3   4   60.92   14.55
  -2   3   5  127.13   15.10
  -2   3   5  127.25   21.73
  -2   3   5  124.24   15.21
  -2   3   6 1151.58   45.00
  -2   3   6 1171.50   45.07
  -2   3   6 1183.40   68.28
  -2   3   7  424.80   26.50
  -2   3   7  423.86   26.37
  -2   3   7  419.23   42.82
  -2   3   8   16.56    5.83
  -2   3   8   23.73   15.25
  -2   3   9   20.79   15.26
  -2   3  10   -5.55    8.63
  -2   3  11  134.42   30.63
  -2   3  12   85.53   26.50
  -2   4  -5  107.37    7.36
  -2   4  -4  154.89   19.08
  -2   4  -4   99.58    6.97
  -2   4  -3 1042.97   48.54
  -2   4  -3 1047.46   28.01
  -2   4  -2  409.99   30.21
  -2   4  -1  392.79   30.71
  -2   4   0  779.67   45.18
  -2   4   0  740.72   36.19
  -2   4   1    7.59    4.30
  -2   4   2  360.84   30.57
  -2   4   3  219.46   25.13
  -2   4   4    5.16    7.40
  -2   4   5   67.34   16.62
  -2   4   5   63.48   13.65
  -2   4   6  124.35   23.77
  -2   4   6  150.72   19.57
  -2   4   6  150.05   19.71
  -2   4   7    1.55    6.38
  -2   4   7   12.35   10.77
  -2   4   7    7.88    6.57
  -2   4   8   74.00   20.81
  -2   4   8   60.15   12.80
  -2   4   9  579.87   57.54
  -2   4  10   26.73   16.85
  -2   4  11  124.06   29.54
  -2   4  12   35.29   16.39
  -2   5  -3  206.20   22.29
  -2   5  -3  217.91   16.15
  -2   5  -2  430.69   32.38
  -2   5  -1   16.14    5.92
  -2   5   0  338.34   31.09
  -2   5   1  122.30   17.92
  -2   5   2  108.12   18.09
  -2   5   3   56.05   14.86
  -2   5   4   83.74   17.82
  -2   5   5  128.36   21.51
  -2   5   5  129.68   23.97
  -2   5   6  165.02   24.88
  -2   5   6  166.57   28.75
  -2   5   7  122.22   24.65
  -2   5   7  102.53   18.49
  -2   5   8   26.23   12.40
  -2   5   8   43.08   14.46
  -2   5   9  296.70   42.65
  -2   5  10   58.29   21.95
  -2   5  11  127.84   31.75
  -2   6  -3   50.66   12.53
  -2   6  -2   11.28    5.05
  -2   6  -1  131.27   19.33
  -2   6   0  946.27   54.04
  -2   6   1  484.69   41.25
  -2   6   2   20.18   10.71
  -2   6   3  249.89   30.94
  -2   6   4  116.87   22.18
  -2   6   5   95.24   20.62
  -2   6   5   89.70   18.97
  -2   6   6  262.58   32.40
  -2   6   6  324.37   40.82
  -2   6   7  287.26   39.43
  -2   6   7  320.65   35.06
  -2   6   8   70.57   18.16
  -2   6   8   55.52   20.12
  -2   6   9  159.55   32.99
  -2   6  10  187.66   37.18
  -2   6  11    8.36    8.38
  -2   7   0   51.53   12.67
  -2   7   1  328.91   35.12
  -2   7   2  157.03   25.02
  -2   7   2  219.59   30.65
  -2   7   3  322.36   37.86
  -2   7   4  254.16   35.48
  -2   7   4  281.40   36.63
  -2   7   5   41.30   16.34
  -2   7   5   40.03   14.67
  -2   7   6  142.33   28.17
  -2   7   6  150.07   26.94
  -2   7   7  115.59   26.53
  -2   7   7   67.95   17.86
  -2   7   8   -1.65    6.81
  -2   7   8    5.02   12.43
  -2   7   9  105.42   27.27
  -2   7  10   48.29   16.67
  -2   8   2  218.60   30.51
  -2   8   3   52.33   18.11
  -2   8   3   34.16   14.44
  -2   8   4  172.30   30.42
  -2   8   4  220.14   37.73
  -2   8   5   77.24   22.44
  -2   8   5   36.20   15.72
  -2   8   6  104.63   24.47
  -2   8   6  122.96   28.07
  -2   8   7   45.50   19.02
  -2   8   7   37.79   16.84
  -2   8   8    1.81    8.41
  -2   8   8    2.07    7.46
  -2   8   9   -6.63   11.98
  -2   9   3   20.52    8.54
  -2   9   4  237.93   40.63
  -2   9   5   48.70   18.88
  -2   9   5   77.62   21.18
  -2   9   6   21.25   13.46
  -2   9   6    9.92   13.87
  -2   9   7   69.07   22.70
  -2   9   7   77.89   24.06
  -1  -9   2   82.78   23.63
  -1  -9   3  154.71   31.37
  -1  -9   4   -8.17    9.77
  -1  -9   5   50.29   23.05
  -1  -9   6    6.51   11.94
  -1  -8  -3  225.51   26.99
  -1  -8  -2   71.90   15.73
  -1  -8  -1    5.37    6.40
  -1  -8   0  243.36   31.98
  -1  -8   1   83.90   20.10
  -1  -8   2   63.55   19.90
  -1  -8   3   68.43   19.29
  -1  -8   4   -5.60    9.35
  -1  -8   5   99.96   27.07
  -1  -8   6   30.42   16.54
  -1  -8   7    2.76   11.39
  -1  -7  -3  141.90   19.12
  -1  -7  -2   15.28    7.67
  -1  -7  -1  210.89   25.42
  -1  -7   0 1214.81   65.08
  -1  -7   1  576.72   46.46
  -1  -7   2  220.12   30.98
  -1  -7   3  140.21   25.48
  -1  -7   4   32.65   16.12
  -1  -7   5  206.66   34.70
  -1  -7   6  168.03   33.09
  -1  -7   7   33.98   18.48
  -1  -7   8   28.55   17.20
  -1  -6  -3  214.71   21.34
  -1  -6  -2  916.77   45.73
  -1  -6  -1  153.69   19.63
  -1  -6   0  783.91   46.76
  -1  -6   0  717.21   52.97
  -1  -6   1  719.93   48.16
  -1  -6   1  780.54   56.75
  -1  -6   2    9.35   10.30
  -1  -6   2   12.91    9.86
  -1  -6   3  665.10   51.31
  -1  -6   3  538.67   49.31
  -1  -6   4   55.79   19.59
  -1  -6   4   84.46   21.08
  -1  -6   5   11.95    8.91
  -1  -6   5    6.58   12.50
  -1  -6   6  130.64   27.16
  -1  -6   6  178.15   32.70
  -1  -6   7  105.04   25.71
  -1  -6   7   73.14   23.97
  -1  -6   8    3.21    9.13
  -1  -6   9   61.97   24.41
  -1  -5  -3  106.59   13.25
  -1  -5  -2 1094.40   44.55
  -1  -5  -2 1103.19   54.76
  -1  -5  -1  150.72   17.72
  -1  -5  -1  221.53   26.11
  -1  -5   0  593.08   36.83
  -1  -5   1  422.28   33.21
  -1  -5   2  290.98   30.17
  -1  -5   2  313.14   33.50
  -1  -5   3  451.44   40.29
  -1  -5   3  466.51   42.10
  -1  -5   4  343.36   37.47
  -1  -5   4  394.40   39.76
  -1  -5   5   75.26   20.38
  -1  -5   5   73.58   20.07
  -1  -5   6   14.83    6.59
  -1  -5   6   16.85   17.25
  -1  -5   7  129.72   25.81
  -1  -5   7   84.42   22.70
  -1  -5   8    6.63    8.82
  -1  -5   8   41.52   20.91
  -1  -5   9    5.48    6.98
  -1  -5   9   34.47   16.51
  -1  -5  10   99.91   27.52
  -1  -4 -12   28.47    9.71
  -1  -4 -11  305.42   33.40
  -1  -4 -10  379.06   36.34
  -1  -4  -9  746.62   50.12
  -1  -4  -8  738.45   48.19
  -1  -4  -7  562.20   41.16
  -1  -4  -6  107.08   17.39
  -1  -4  -3   24.87    7.99
  -1  -4  -2  971.64   45.06
  -1  -4  -2 1020.27   35.29
  -1  -4  -1  180.49   15.76
  -1  -4  -1  183.52   20.45
  -1  -4   0    5.83    4.98
  -1  -4   1  378.30   27.48
  -1  -4   2   17.05    7.92
  -1  -4   3   16.79    9.16
  -1  -4   3   16.27    8.52
  -1  -4   4 1615.22   73.15
  -1  -4   4 1616.52   73.67
  -1  -4   5  137.82   23.85
  -1  -4   5  139.35   12.19
  -1  -4   5  168.64   26.72
  -1  -4   6  209.49   30.06
  -1  -4   6  186.55   29.06
  -1  -4   7  206.55   29.71
  -1  -4   7  186.68   30.78
  -1  -4   8   11.09    9.98
  -1  -4   8    4.55    7.66
  -1  -4   9  190.72   30.60
  -1  -4   9  201.05   36.66
  -1  -4  10  387.17   44.08
  -1  -4  10  316.28   47.84
  -1  -4  11    9.60    8.34
  -1  -4  11   -6.90    8.82
  -1  -3 -12   11.83    7.46
  -1  -3 -11   -1.19    6.34
  -1  -3 -10  790.09   48.96
  -1  -3  -9   20.95    8.42
  -1  -3  -8  230.03   24.57
  -1  -3  -8  185.82   22.00
  -1  -3  -7  659.49   39.70
  -1  -3  -7  644.94   40.36
  -1  -3  -6    3.33    5.34
  -1  -3  -6   10.19    6.67
  -1  -3  -5  583.15   35.60
  -1  -3  -5  545.15   34.37
  -1  -3  -4  710.83   38.59
  -1  -3  -4  639.88   36.71
  -1  -3  -3  285.05   24.28
  -1  -3  -3  306.11   19.77
  -1  -3  -2 1062.60   27.37
  -1  -3  -2 1023.52   38.70
  -1  -3  -1   32.83    8.28
  -1  -3  -1   41.94    6.37
  -1  -3   0  493.96   24.41
  -1  -3   1  212.20   17.96
  -1  -3   2  303.42   24.95
  -1  -3   4 1109.70   55.49
  -1  -3   5 1513.68   66.76
  -1  -3   6   50.02   12.65
  -1  -3   7  192.58   27.72
  -1  -3   7  236.99   28.71
  -1  -3   8  405.22   42.48
  -1  -3   8  436.96   40.10
  -1  -3   9   20.05   10.14
  -1  -3   9   37.43   11.95
  -1  -3  10  107.76   25.78
  -1  -3  10   95.90   21.11
  -1  -3  11  107.49   24.71
  -1  -3  11   98.08   20.25
  -1  -3  11  157.07   33.85
  -1  -3  12   19.10   13.43
  -1  -3  12   65.17   25.73
  -1  -2 -12   77.70   16.49
  -1  -2 -11    1.91    5.15
  -1  -2 -10 1396.96   62.62
  -1  -2  -9   17.47    7.19
  -1  -2  -9   25.91    9.66
  -1  -2  -8  106.35   15.54
  -1  -2  -8   87.80   14.17
  -1  -2  -7  422.55   30.13
  -1  -2  -7  454.86   30.98
  -1  -2  -6  354.37   26.79
  -1  -2  -6  424.80   28.21
  -1  -2  -5  412.77   27.64
  -1  -2  -5  383.54   26.13
  -1  -2  -4 1056.21   41.85
  -1  -2  -4 1068.60   40.90
  -1  -2  -3  803.65   34.22
  -1  -2  -3  764.04   33.97
  -1  -2  -3  745.05   22.46
  -1  -2  -2 1476.36   36.25
  -1  -2  -1  515.78   23.50
  -1  -2   0   21.83    4.59
  -1  -2   1  247.42   10.39
  -1  -2   2 2193.17   61.54
  -1  -2   3   38.17    9.77
  -1  -2   3   40.47    9.45
  -1  -2   4  966.44   45.32
  -1  -2   4 1046.00   50.24
  -1  -2   5 1276.41   54.82
  -1  -2   5 1278.09   60.02
  -1  -2   6  127.40   21.03
  -1  -2   6  101.36   19.12
  -1  -2   7  874.21   56.62
  -1  -2   7  862.85   49.76
  -1  -2   8  501.57   39.59
  -1  -2   8  472.61   44.49
  -1  -2   9   53.28   17.54
  -1  -2   9   24.37    8.85
  -1  -2  10   97.78   21.98
  -1  -2  10   83.42   18.06
  -1  -2  11   62.37   19.34
  -1  -2  11   80.03   17.41
  -1  -2  12   24.62   12.16
  -1  -2  13   19.54   14.45
  -1  -1 -12  360.95   34.83
  -1  -1 -11  280.08   30.08
  -1  -1 -10  165.50   23.57
  -1  -1  -9  183.40   23.13
  -1  -1  -9  191.97   22.64
  -1  -1  -8  244.52   24.62
  -1  -1  -8  206.19   22.59
  -1  -1  -7  632.16   37.81
  -1  -1  -7  637.67   38.00
  -1  -1  -6  704.31   38.16
  -1  -1  -5   41.28    9.70
  -1  -1  -4  886.78   36.03
  -1  -1  -4  886.95   36.16
  -1  -1  -3   81.31    9.95
  -1  -1  -3  109.41   11.50
  -1  -1   0 1214.53   29.14
  -1  -1   0 1219.77   28.84
  -1  -1   1  661.65   27.85
  -1  -1   2 2865.15   59.72
  -1  -1   2 2814.95   66.18
  -1  -1   3 1469.87   45.72
  -1  -1   3 1397.01   50.13
  -1  -1   4  137.48   15.66
  -1  -1   4  143.10   17.67
  -1  -1   5  611.29   33.49
  -1  -1   5  580.06   38.32
  -1  -1   6 1121.44   48.18
  -1  -1   6 1054.97   55.89
  -1  -1   7  671.44   39.13
  -1  -1   7  650.04   47.40
  -1  -1   8  357.55   30.09
  -1  -1   8  334.29   36.88
  -1  -1   9   58.31   15.33
  -1  -1   9   44.63   12.08
  -1  -1  10  100.92   23.57
  -1  -1  10   82.80   16.32
  -1  -1  11   12.08    8.42
  -1  -1  12    7.97   10.36
  -1  -1  13   10.64    6.25
  -1  -1  14   27.06   13.54
  -1   0 -12  541.13   45.15
  -1   0  -6  562.43   23.84
  -1   0  -5   41.46    6.17
  -1   0  -4  203.91   12.48
  -1   0  -2  612.46   23.96
  -1   0   1 3554.78   59.01
  -1   0   2  147.08   13.66
  -1   0   3  209.37   18.67
  -1   0   4    0.77    5.62
  -1   0   5 1444.74   59.86
  -1   0   6   71.27   14.81
  -1   0   6   86.19   13.72
  -1   0   7  306.36   24.11
  -1   0   7  354.64   34.74
  -1   0   8  313.89   24.99
  -1   0   8  387.10   38.48
  -1   0   9  145.05   18.28
  -1   0   9  170.28   28.62
  -1   0  10   35.99   10.11
  -1   0  10   29.89   15.28
  -1   0  11   49.15   17.65
  -1   0  12   42.64   19.10
  -1   0  13   21.12   15.68
  -1   0  14   53.00   21.90
  -1   1  -8   66.94   12.28
  -1   1  -7  528.75   31.27
  -1   1  -6 1533.25   51.48
  -1   1  -5  685.09   32.53
  -1   1  -4   65.40    9.67
  -1   1  -4   52.03    7.29
  -1   1  -3 4358.44   89.38
  -1   1  -3 4465.19   76.57
  -1   1  -3 4224.92   55.57
  -1   1  -2 1380.10   38.87
  -1   1  -2 1384.26   44.67
  -1   1  -1 1602.73   39.18
  -1   1  -1 1619.74   44.69
  -1   1   0 6316.57   90.73
  -1   1   0 6505.66   67.09
  -1   1   1 1000.51   35.44
  -1   1   1 1039.61   31.29
  -1   1   2 1594.08   46.30
  -1   1   3  334.66   13.97
  -1   1   3  351.46   14.34
  -1   1   3  405.07   26.32
  -1   1   4  473.90   16.95
  -1   1   4  460.17   16.90
  -1   1   4  451.00   31.00
  -1   1   5 1353.45   59.52
  -1   1   6   10.72    5.50
  -1   1   7   20.70   11.40
  -1   1   8  418.94   26.50
  -1   1   8  470.24   43.31
  -1   1   9  215.24   31.63
  -1   1   9  180.99   18.77
  -1   1  10    9.20    6.08
  -1   1  10    0.35    9.90
  -1   1  11  321.95   43.86
  -1   1  12   55.42   19.55
  -1   1  13   -2.33    7.79
  -1   1  14   59.86   24.32
  -1   2  -7   51.20   13.44
  -1   2  -7   51.48   10.74
  -1   2  -6  225.30   24.21
  -1   2  -6  242.85   21.42
  -1   2  -5  428.12   30.83
  -1   2  -5  383.76   22.55
  -1   2  -4   11.37    6.72
  -1   2  -4   12.07    3.57
  -1   2  -3 2099.44   69.06
  -1   2  -3 2126.97   62.96
  -1   2  -3 2152.42   38.56
  -1   2  -2 2194.40   51.63
  -1   2  -2 2306.59   67.55
  -1   2  -2 2182.08   35.51
  -1   2  -2 2247.36   62.48
  -1   2  -1 3059.51   59.25
  -1   2  -1 2944.37   72.59
  -1   2   0   74.62   11.13
  -1   2   1   29.60    8.12
  -1   2   2 2385.17   62.00
  -1   2   2 2328.95   65.42
  -1   2   3 2260.09   67.51
  -1   2   3 2333.65   68.02
  -1   2   4  132.26   18.06
  -1   2   4  102.92   11.23
  -1   2   4  101.77   10.96
  -1   2   5  132.39   19.13
  -1   2   5  147.96   13.44
  -1   2   5  139.52   12.98
  -1   2   6  189.70   15.09
  -1   2   6  193.39   15.56
  -1   2   6  205.03   25.74
  -1   2   7  149.67   23.97
  -1   2   8  230.60   30.88
  -1   2   9  356.83   40.95
  -1   2  10   96.09   22.75
  -1   2  10   66.27   10.63
  -1   2  11  168.89   32.28
  -1   2  12  169.09   33.44
  -1   2  13   30.29   16.88
  -1   2  14   25.63   16.17
  -1   3  -8  308.10   28.97
  -1   3  -7    1.88    2.74
  -1   3  -6  288.31   22.55
  -1   3  -5  744.28   32.82
  -1   3  -4    5.32    3.50
  -1   3  -3 1565.31   63.21
  -1   3  -3 1582.14   40.18
  -1   3  -2 1558.63   44.10
  -1   3  -2 1455.41   58.81
  -1   3  -2 1443.84   61.23
  -1   3  -1  643.23   28.74
  -1   3  -1  638.85   38.27
  -1   3  -1  632.27   37.66
  -1   3   0  472.24   31.83
  -1   3   1   63.84   11.99
  -1   3   2 1478.13   57.41
  -1   3   3 4369.81  103.99
  -1   3   4   57.62   11.11
  -1   3   4   78.32   12.46
  -1   3   4   50.93   12.20
  -1   3   4   84.75   14.98
  -1   3   5    3.96    9.33
  -1   3   5    8.78    5.69
  -1   3   5   12.82    6.23
  -1   3   6  321.25   24.26
  -1   3   6  320.17   24.37
  -1   3   6  343.99   34.88
  -1   3   7   44.71   13.35
  -1   3   7   35.64    8.59
  -1   3   7   26.75    7.85
  -1   3   8  157.21   27.65
  -1   3   8  163.55   17.66
  -1   3   9  802.42   62.80
  -1   3  10   25.85   13.98
  -1   3  11   85.66   24.10
  -1   3  12  155.95   34.20
  -1   3  13  -20.19   13.31
  -1   4  -6  124.09   15.44
  -1   4  -5  293.76   21.58
  -1   4  -4   22.73    5.92
  -1   4  -3 1513.55   47.09
  -1   4  -2  191.38   16.00
  -1   4  -1  462.09   26.59
  -1   4   0 1465.71   51.05
  -1   4   0 1365.46   60.95
  -1   4   1 2014.38   72.83
  -1   4   2    9.88    6.02
  -1   4   3  585.43   40.58
  -1   4   4  826.08   45.26
  -1   4   5    0.73    3.33
  -1   4   5    3.36    6.13
  -1   4   6  828.03   45.21
  -1   4   6  846.83   45.42
  -1   4   6  906.31   59.37
  -1   4   7  768.56   43.98
  -1   4   7  789.67   43.62
  -1   4   7  772.26   58.26
  -1   4   8  151.14   28.24
  -1   4   8  142.04   19.79
  -1   4   8  129.24   18.12
  -1   4   9  171.36   21.23
  -1   4   9  201.85   32.28
  -1   4  10  109.29   25.24
  -1   4  11   12.60    7.63
  -1   4  12  283.77   45.37
  -1   4  13   36.16   18.99
  -1   5  -4   11.42    5.36
  -1   5  -3  328.57   24.75
  -1   5  -2  219.41   17.68
  -1   5  -1  581.09   30.91
  -1   5   0  177.76   19.07
  -1   5   4  703.45   47.69
  -1   5   5    0.42    7.44
  -1   5   5    3.50    5.89
  -1   5   6  460.41   38.43
  -1   5   6  477.23   45.16
  -1   5   7  458.72   37.24
  -1   5   7  375.94   43.33
  -1   5   8   20.14   14.26
  -1   5   8    7.25    7.88
  -1   5   9   54.94   20.70
  -1   5   9   42.91   12.09
  -1   5  10  145.63   30.59
  -1   5  11   28.46   20.39
  -1   5  12  208.12   40.95
  -1   6  -2  671.49   30.86
  -1   6  -1  476.03   28.77
  -1   6   0   26.59    8.72
  -1   6   4  802.54   56.13
  -1   6   5  184.88   27.09
  -1   6   6  155.37   28.54
  -1   6   6  215.41   29.36
  -1   6   7  492.52   43.39
  -1   6   7  387.92   45.13
  -1   6   8    9.46   11.37
  -1   6   8   21.78   10.52
  -1   6   9   62.01   19.40
  -1   6   9  100.79   20.50
  -1   6  10  191.46   36.07
  -1   6  11   27.60   17.35
  -1   7   0  134.48   17.68
  -1   7   1   59.24   13.45
  -1   7   3    4.52    8.78
  -1   7   4  230.17   32.89
  -1   7   5  116.74   23.09
  -1   7   6  165.39   30.09
  -1   7   6  156.22   27.96
  -1   7   7  268.79   39.51
  -1   7   7  287.99   37.72
  -1   7   8  115.09   22.69
  -1   7   8  153.94   32.10
  -1   7   9   93.94   26.29
  -1   7   9  109.58   23.08
  -1   7  10  131.16   32.04
  -1   7  11  155.62   35.59
  -1   8   3   68.00   22.48
  -1   8   4  182.25   34.27
  -1   8   5  309.69   42.78
  -1   8   6   12.32   11.70
  -1   8   6   17.33   13.25
  -1   8   7   97.56   25.48
  -1   8   7  104.80   24.04
  -1   8   8  138.26   28.19
  -1   8   8  139.71   32.46
  -1   8   9  -15.59   16.21
  -1   8   9   -4.11    8.20
  -1   9   1   51.71   18.68
  -1   9   2  118.04   28.90
  -1   9   3   88.37   25.86
  -1   9   4   -1.24    9.06
  -1   9   5   51.27   18.67
  -1   9   6   64.38   20.93
  -1   9   6   40.07   21.25
  -1   9   7   74.91   22.70
  -1   9   7   62.45   26.88
  -1   9   8  112.50   27.46
  -1   9   8   74.96   25.36
  -1  10   6   43.31   17.19
   0  -9  -2  287.69   37.91
   0  -9  -1    0.78    8.00
   0  -9   0  173.65   31.81
   0  -9   1  114.05   25.95
   0  -9   2   16.83   13.19
   0  -9   3  102.97   26.30
   0  -9   4   24.09   15.34
   0  -9   5    4.35   14.79
   0  -8  -3  113.89   22.72
   0  -8  -2  239.71   31.75
   0  -8  -1   59.61   17.54
   0  -8   0   72.20   18.90
   0  -8   1  220.52   34.10
   0  -8   2   11.77   10.66
   0  -8   3   44.15   17.60
   0  -8   4  185.47   35.26
   0  -8   5  147.51   32.43
   0  -8   6   28.24   16.92
   0  -8   7   47.45   20.94
   0  -7  -3  165.42   24.12
   0  -7  -2  585.00   45.23
   0  -7  -1  310.79   34.25
   0  -7   0   33.04   12.98
   0  -7   1  388.03   41.43
   0  -7   2   89.09   21.87
   0  -7   3  148.96   27.70
   0  -7   4  227.55   35.51
   0  -7   5    0.66    8.73
   0  -7   6   24.07   14.81
   0  -7   7   86.97   25.48
   0  -7   8   14.14   19.83
   0  -6  -3    5.79    7.20
   0  -6  -2   31.43   11.11
   0  -6  -1  101.25   19.85
   0  -6   0  236.38   28.49
   0  -6   1  470.27   41.54
   0  -6   2  664.07   51.10
   0  -6   3  186.96   29.04
   0  -6   4   -8.06    6.85
   0  -6   5   72.77   20.53
   0  -6   6  118.57   26.78
   0  -6   7  385.00   49.74
   0  -6   8   25.70   15.85
   0  -6   9   33.39   15.71
   0  -5  -3  128.31   17.74
   0  -5  -2  530.69   36.02
   0  -5  -1  619.12   40.15
   0  -5   0  202.55   23.15
   0  -5   1  724.54   45.81
   0  -5   2  398.51   36.11
   0  -5   3   51.85   14.44
   0  -5   4  133.33   23.22
   0  -5   5  617.39   53.53
   0  -5   6   32.34   16.86
   0  -5   7  367.58   45.92
   0  -5   8   57.83   20.83
   0  -5   9    1.31    9.33
   0  -5  10  124.21   31.19
   0  -4  -2  615.48   34.12
   0  -4  -1 1168.43   48.41
   0  -4   0   81.93   13.94
   0  -4   1 1432.97   58.57
   0  -4   2   15.41    6.30
   0  -4   3 2976.73   96.29
   0  -4   3 3034.83   95.95
   0  -4   4  220.53   27.53
   0  -4   4  169.97   11.02
   0  -4   4  186.07   27.15
   0  -4   5  818.59   30.39
   0  -4   5  755.73   55.24
   0  -4   5  843.12   54.24
   0  -4   6   28.18   13.10
   0  -4   6   20.61    6.22
   0  -4   6   11.97    8.62
   0  -4   7  119.21   25.49
   0  -4   8  324.23   42.91
   0  -4   9   52.16   17.36
   0  -4  10   21.41   14.07
   0  -4  11   65.14   24.12
   0  -3  -9  969.66   47.55
   0  -3  -8   -6.37    7.54
   0  -3  -7  771.41   40.82
   0  -3  -2  103.05   12.06
   0  -3  -1  597.28   29.74
   0  -3   0   46.36    9.09
   0  -3   1  157.03   17.61
   0  -3   2   20.22    8.00
   0  -3   3  119.01   17.22
   0  -3   3  115.53    9.04
   0  -3   3  104.17   16.88
   0  -3   4  558.43   24.64
   0  -3   4  567.66   41.18
   0  -3   4  613.23   40.37
   0  -3   5  839.00   35.98
   0  -3   5  827.89   53.42
   0  -3   5  876.59   49.62
   0  -3   6  180.74   25.16
   0  -3   6  197.13   19.56
   0  -3   6  197.19   28.45
   0  -3   7   20.63    9.79
   0  -3   7   -5.71    8.68
   0  -3   7   18.05   12.94
   0  -3   8   49.57   13.99
   0  -3   8   80.19   18.40
   0  -3   8   83.97   21.16
   0  -3   9  163.97   26.26
   0  -3   9  229.47   36.19
   0  -3  10  451.76   53.32
   0  -3  10  399.88   43.76
   0  -3  11  121.00   26.08
   0  -3  11  204.55   40.42
   0  -3  12   25.55   21.55
   0  -2 -11   88.55   14.03
   0  -2 -10  307.62   25.36
   0  -2  -9  759.10   38.48
   0  -2  -9  721.39   37.08
   0  -2  -8   11.70    5.38
   0  -2  -8    8.92    6.18
   0  -2  -7  138.60   15.42
   0  -2  -7  123.88   14.68
   0  -2  -6  202.04   18.01
   0  -2  -6  194.70   17.30
   0  -2  -5  174.04   15.81
   0  -2  -5  205.45   17.48
   0  -2  -4  248.33   18.48
   0  -2  -4  284.64   19.34
   0  -2  -1 2076.49   45.67
   0  -2   0  730.45   27.31
   0  -2   1 2700.73   60.40
   0  -2   2 9801.51   86.02
   0  -2   2 9746.65  136.30
   0  -2   2 9999.00  131.92
   0  -2   3   49.36    9.28
   0  -2   3   61.34   12.14
   0  -2   4  550.80   32.81
   0  -2   4  523.98   30.39
   0  -2   5  578.92   34.80
   0  -2   5  547.28   34.28
   0  -2   6  777.85   42.10
   0  -2   6  697.15   42.21
   0  -2   7  153.45   21.65
   0  -2   7  149.57   19.94
   0  -2   8 1019.13   52.85
   0  -2   8  920.80   56.04
   0  -2   9  146.73   25.36
   0  -2   9  151.72   21.69
   0  -2  10  102.82   22.25
   0  -2  11   78.25   21.47
   0  -2  11   87.94   23.93
   0  -2  12   54.15   18.33
   0  -2  12   45.39   20.79
   0  -2  13    1.29   11.07
   0  -2  13   36.06   19.57
   0  -1 -11   94.65   14.46
   0  -1 -10   82.37   13.24
   0  -1  -9  422.55   27.82
   0  -1  -9  423.13   27.23
   0  -1  -8   33.58    8.33
   0  -1  -8   31.16    8.20
   0  -1  -7   20.60    6.30
   0  -1  -7   22.41    5.37
   0  -1  -6   62.14    9.39
   0  -1  -6   59.04    8.61
   0  -1  -5  211.75   15.25
   0  -1  -5  214.18   15.47
   0  -1  -4  796.68   27.32
   0  -1  -4  817.08   27.18
   0  -1  -3  784.39   24.69
   0  -1  -3  781.43   24.32
   0  -1  -2  123.43    9.23
   0  -1  -2  132.46    9.68
   0  -1   2 7590.54   92.15
   0  -1   2 7380.29   87.09
   0  -1   3  472.35   23.12
   0  -1   3  435.98   22.55
   0  -1   4  313.73   20.73
   0  -1   4  326.28   22.39
   0  -1   5  580.55   30.53
   0  -1   5  612.63   34.27
   0  -1   6 1046.70   43.07
   0  -1   6 1119.74   51.26
   0  -1   7   51.08   13.04
   0  -1   7   66.74   12.04
   0  -1   8  473.98   31.50
   0  -1   8  505.85   40.59
   0  -1   9  243.27   23.44
   0  -1   9  256.71   32.00
   0  -1  10   -1.74    6.29
   0  -1  10    4.26    4.41
   0  -1  11  104.59   23.44
   0  -1  12   35.37   15.04
   0  -1  13    1.70   10.55
   0  -1  14    3.06    6.63
   0   0 -11   48.68   11.58
   0   0 -10  118.53   16.92
   0   0  -9  208.97   21.05
   0   0  -8   16.30    7.45
   0   0  -7  316.09   23.08
   0   0  -6 2178.80   73.03
   0   0  -5 2077.48   64.89
   0   0  -4  184.56   17.19
   0   0  -3  570.56   26.13
   0   0  -2    0.76    1.88
   0   0   2    8.08    2.95
   0   0   2    6.39    2.11
   0   0   3  539.10   17.90
   0   0   3  536.16   25.48
   0   0   4  168.21   11.40
   0   0   4  184.26   16.99
   0   0   5 1996.47   45.10
   0   0   5 2035.94   63.91
   0   0   6 2116.36   50.47
   0   0   6 2196.62   73.58
   0   0   7  300.53   20.26
   0   0   7  357.63   31.71
   0   0   8   17.28   10.17
   0   0   8    8.34    4.31
   0   0   9  175.74   17.00
   0   0   9  240.88   31.10
   0   0  10  103.73   21.90
   0   0  10  102.89   14.00
   0   0  11   61.30   17.95
   0   0  12   44.33   15.75
   0   0  13   59.68   20.09
   0   0  14   66.53   23.41
   0   0  15   70.63   24.22
   0   1  -6 1093.19   50.20
   0   1  -5  646.12   32.04
   0   1  -5  589.20   33.32
   0   1  -4  327.57   21.58
   0   1  -4  302.70   21.84
   0   1  -3  453.62   23.12
   0   1  -3  468.64   22.96
   0   1  -2 7763.87   93.94
   0   1  -2 7728.43   86.21
   0   1  -1  537.80   20.68
   0   1  -1  573.11   17.89
   0   1   2  140.81    9.43
   0   1   2  115.61    8.80
   0   1   3  815.41   33.69
   0   1   3  814.88   25.41
   0   1   3  784.17   25.18
   0   1   4  783.70   28.24
   0   1   4  801.96   37.66
   0   1   5  202.83   20.93
   0   1   6   44.24   11.88
   0   1   6   51.52    6.63
   0   1   7   14.71    4.23
   0   1   7   20.70   10.01
   0   1   8   16.91    4.23
   0   1   8   24.35   10.00
   0   1   9  345.53   19.01
   0   1   9  470.15   43.25
   0   1  10   92.21   21.53
   0   1  10   61.19    8.05
   0   1  11  117.88   25.67
   0   1  12  443.63   50.66
   0   1  13   23.26   14.55
   0   1  14   85.26   25.75
   0   1  15   22.31   14.39
   0   2  -6  694.14   40.59
   0   2  -6  664.15   39.38
   0   2  -5  551.86   34.61
   0   2  -5  562.54   32.90
   0   2  -4  578.03   33.78
   0   2  -4  554.13   30.19
   0   2  -3   51.59    9.86
   0   2  -3   45.47    8.30
   0   2  -2 9910.14  133.44
   0   2  -2 9799.73  114.70
   0   2  -1 2563.47   59.02
   0   2  -1 2644.55   61.91
   0   2   0  672.63   26.40
   0   2   0  687.91   28.83
   0   2   1 2138.43   45.67
   0   2   1 2134.37   47.59
   0   2   2   61.70    8.90
   0   2   2   62.56    8.41
   0   2   2   66.89    8.64
   0   2   3 2980.46   62.24
   0   2   3 3040.09   61.57
   0   2   4  268.45   18.79
   0   2   4  274.53   18.89
   0   2   5  186.94   22.00
   0   2   5  167.16   15.62
   0   2   5  169.26   16.13
   0   2   6  198.69   18.43
   0   2   6  199.44   24.92
   0   2   7  138.65   20.90
   0   2   8   18.00   10.92
   0   2   8   14.63    3.67
   0   2   9  463.78   16.68
   0   2   9  782.55   57.08
   0   2  10  327.67   41.44
   0   2  11   93.75   24.50
   0   2  12  276.03   40.95
   0   2  13  107.20   27.30
   0   2  14   80.93   27.20
   0   3  -6  157.46   20.68
   0   3  -5  890.05   43.27
   0   3  -4  616.43   33.17
   0   3  -3  111.73   16.53
   0   3  -3  130.03   15.00
   0   3  -2    6.73    5.89
   0   3  -1  143.29    8.10
   0   3  -1  135.85   15.75
   0   3  -1  147.34   17.27
   0   3   0   49.84   10.67
   0   3   0   42.52    8.47
   0   3   1  595.32   29.05
   0   3   1  607.17   31.81
   0   3   2  110.65   12.59
   0   3   2   94.32   11.87
   0   3   3 4158.49   89.39
   0   3   3 4116.18   85.19
   0   3   3 4133.76   89.52
   0   3   3 4126.99   78.85
   0   3   4 3698.41   83.70
   0   3   4 3601.92   82.14
   0   3   4 3650.29   83.52
   0   3   5  606.27   34.65
   0   3   5  613.75   34.25
   0   3   6  199.29   26.12
   0   3   6  224.60   21.38
   0   3   6  198.01   20.51
   0   3   7  699.12   39.26
   0   3   7  744.15   40.90
   0   3   8    0.24    8.86
   0   3   8    1.33    5.27
   0   3   9  689.05   22.53
   0   3   9  993.51   67.21
   0   3  10 1828.75   96.36
   0   3  11  209.19   35.21
   0   3  12  115.72   26.41
   0   3  13  122.40   28.59
   0   3  14   16.86   15.51
   0   4  -6   13.22    6.27
   0   4  -5  770.13   42.64
   0   4  -4  180.62   19.75
   0   4  -3 3021.41   79.86
   0   4  -1 1429.78   29.40
   0   4  -1 1362.31   57.19
   0   4   0   81.47   15.43
   0   4   0   56.38   11.76
   0   4   1 1173.95   48.48
   0   4   1 1199.73   53.39
   0   4   2  600.97   33.45
   0   4   2  635.15   36.77
   0   4   3    5.74    5.94
   0   4   3   12.70    5.81
   0   4   3    4.50    6.26
   0   4   3    5.90    5.33
   0   4   4  929.10   47.70
   0   4   4  890.67   47.55
   0   4   4  889.07   43.93
   0   4   4  902.28   41.11
   0   4   5  736.10   42.93
   0   4   5  686.85   41.75
   0   4   5  734.26   42.55
   0   4   5  742.95   36.58
   0   4   6   69.84   10.98
   0   4   6   61.76   12.22
   0   4   6   73.88   15.63
   0   4   7 1016.21   64.16
   0   4   7 1064.42   53.36
   0   4   7 1052.43   39.75
   0   4   8  297.68   29.38
   0   4   8  283.97   19.21
   0   4   8  294.59   36.95
   0   4   9   -5.51   11.00
   0   4   9   -2.70    6.94
   0   4  10   66.59   19.08
   0   4  10   77.63   17.81
   0   4  11   -4.30   10.09
   0   4  12  130.61   31.16
   0   4  13  109.32   29.76
   0   4  14    5.69    9.52
   0   5  -5  576.11   39.32
   0   5  -4  153.09   20.02
   0   5  -3   53.31   11.77
   0   5  -1  627.59   20.16
   0   5   0  164.55   21.16
   0   5   1  588.21   38.47
   0   5   2  575.78   37.54
   0   5   3   95.60   18.74
   0   5   3   96.40   15.20
   0   5   4  581.16   39.33
   0   5   4  654.53   45.12
   0   5   5 1086.21   58.45
   0   5   5 1058.07   55.54
   0   5   5 1160.15   53.92
   0   5   6   19.68   12.12
   0   5   6    5.11    5.20
   0   5   7  646.37   44.96
   0   5   7  677.42   38.03
   0   5   8  174.66   30.36
   0   5   8  180.35   25.49
   0   5   9  113.09   20.63
   0   5   9   83.26   21.97
   0   5  10   85.97   22.84
   0   5  10   64.62   17.25
   0   5  11   25.72   16.19
   0   5  11   29.75   13.28
   0   5  12   14.26   12.87
   0   5  13  210.01   39.95
   0   6   0  271.92   18.64
   0   6   2   13.72    6.84
   0   6   3   19.40   11.63
   0   6   4  188.33   27.45
   0   6   5  512.64   44.60
   0   6   6   -6.28    8.56
   0   6   7  272.03   32.74
   0   6   8   68.66   23.25
   0   6   8   43.56   14.53
   0   6   9   20.88   13.32
   0   6   9   25.28   12.13
   0   6  10  135.25   24.65
   0   6  10  117.57   26.73
   0   6  11   25.14   16.69
   0   6  12   -4.76   11.79
   0   7   0   26.36    5.98
   0   7   2  567.08   51.95
   0   7   3  146.11   27.50
   0   7   4  163.07   28.05
   0   7   5  393.66   42.82
   0   7   6    8.25   12.74
   0   7   7  414.02   44.87
   0   7   8  210.50   30.17
   0   7   9   34.19   14.12
   0   7   9   64.26   18.10
   0   7  10   58.11   20.11
   0   7  10   32.79   15.04
   0   7  11  126.99   31.50
   0   8   1   51.00   16.88
   0   8   2  219.80   36.24
   0   8   3  136.80   28.88
   0   8   4   11.09   12.46
   0   8   5  300.52   41.18
   0   8   6   26.03   12.94
   0   8   7   72.00   24.19
   0   8   8  229.80   35.85
   0   8   9  104.27   27.91
   0   8   9   86.37   22.93
   0   8  10   19.35   14.86
   0   8  10    3.04    8.32
   0   9  -1  148.22   33.76
   0   9   0  220.32   38.92
   0   9   1    9.26   13.50
   0   9   2  295.27   44.43
   0   9   3  214.80   37.20
   0   9   4   -1.23    8.31
   0   9   5   -9.50    8.24
   0   9   6   48.19   21.91
   0   9   7    7.28   16.98
   0   9   8  124.10   29.15
   0   9   9   92.83   28.40
   0   9   9   44.64   20.30
   0   9  10   26.15   19.83
   1  -9  -3   81.15   20.78
   1  -9  -2  105.51   24.43
   1  -9  -1   79.18   22.36
   1  -9   0   62.68   20.91
   1  -9   1   74.33   22.80
   1  -9   2   40.94   16.22
   1  -9   3    7.54   10.38
   1  -9   4  127.25   31.76
   1  -9   5    8.61   14.40
   1  -8  -3   58.19   17.18
   1  -8  -2  261.51   36.44
   1  -8  -1  211.88   33.75
   1  -8   0   -8.91    9.87
   1  -8   1   89.09   24.70
   1  -8   2   41.42   16.39
   1  -8   3   -7.10   10.01
   1  -8   4  261.75   45.56
   1  -8   5   21.82   10.22
   1  -8   6  -22.44   13.81
   1  -7  -3   12.16   10.01
   1  -7  -2  637.18   53.46
   1  -7  -1   52.99   18.12
   1  -7   0  118.54   25.19
   1  -7   1   25.29   14.22
   1  -7   2   26.16   13.92
   1  -7   3  123.83   28.91
   1  -7   4   77.64   22.62
   1  -7   5   28.48   14.53
   1  -7   6   26.88   16.48
   1  -7   7   35.86   17.49
   1  -7   8   72.37   25.25
   1  -6  -3   35.86   11.93
   1  -6  -2  435.39   40.33
   1  -6  -1  114.46   20.66
   1  -6   0   18.52    9.68
   1  -6   1  444.12   43.08
   1  -6   2  758.85   58.66
   1  -6   3   -4.46    9.64
   1  -6   4   17.68   12.57
   1  -6   5  211.10   34.70
   1  -6   6   -1.71    7.64
   1  -6   7  289.12   44.29
   1  -6   8  185.21   37.79
   1  -6   9   69.03   23.74
   1  -5  -3    5.64    7.55
   1  -5  -2    1.53    5.02
   1  -5  -1 1133.31   60.65
   1  -5   0  165.36   23.48
   1  -5   1  635.52   47.83
   1  -5   2  252.77   31.62
   1  -5   3  391.45   40.31
   1  -5   4   11.75   11.20
   1  -5   5  360.20   42.04
   1  -5   6   90.37   22.64
   1  -5   7  190.31   33.25
   1  -5   8  323.42   46.00
   1  -5   9   52.90   23.99
   1  -5  10  -18.44   14.71
   1  -4  -3  611.10   39.78
   1  -4  -2   29.33    9.65
   1  -4  -1 2017.37   73.60
   1  -4   0 1449.36   63.52
   1  -4   1  487.05   37.65
   1  -4   2  187.80   24.13
   1  -4   3 1503.48   72.22
   1  -4   4    8.69    6.51
   1  -4   4   13.57    4.72
   1  -4   5  260.73   20.95
   1  -4   5  287.74   36.32
   1  -4   6   98.58   14.37
   1  -4   6  142.27   25.95
   1  -4   7   50.30   18.71
   1  -4   8  188.28   34.57
   1  -4   9   20.76   16.14
   1  -4  10   21.25   17.11
   1  -4  11   52.83   19.84
   1  -3  -2 1515.96   57.13
   1  -3  -1   57.24   11.52
   1  -3   0  498.55   33.23
   1  -3   1  646.11   39.26
   1  -3   2 1412.57   59.73
   1  -3   3 1598.00   46.94
   1  -3   4    9.28    4.68
   1  -3   5  780.43   37.92
   1  -3   6  299.17   26.10
   1  -3   6  284.21   34.60
   1  -3   7    7.81    6.71
   1  -3   7   -4.45    9.90
   1  -3   8  356.11   42.80
   1  -3   9  207.31   35.21
   1  -3   9  178.28   24.78
   1  -3  10  110.87   21.53
   1  -3  10  148.61   31.25
   1  -3  11  157.30   34.14
   1  -3  12  161.03   37.86
   1  -2  -1   12.32    5.78
   1  -2   0   82.87   12.75
   1  -2   2 2071.49   50.01
   1  -2   3 2019.40   52.17
   1  -2   4   14.43    5.84
   1  -2   5  409.09   28.92
   1  -2   5  391.88   23.83
   1  -2   6  247.33   24.24
   1  -2   6  248.50   21.83
   1  -2   7   64.60   13.21
   1  -2   7   48.68   12.80
   1  -2   7   49.35   17.60
   1  -2   8   70.87   14.13
   1  -2   8   87.39   21.32
   1  -2   9  329.09   42.09
   1  -2   9  320.96   32.30
   1  -2  10   -3.13    5.77
   1  -2  10    4.78   12.54
   1  -2  11  212.97   30.73
   1  -2  11  304.33   44.54
   1  -2  12   39.21   15.58
   1  -2  12   61.08   21.98
   1  -2  13   57.73   26.48
   1  -1  -9  147.15   12.10
   1  -1  -8  444.14   19.99
   1  -1  -8  405.06   19.55
   1  -1  -7   -1.71    1.89
   1  -1  -7    3.42    2.21
   1  -1  -2 1621.83   46.47
   1  -1  -1 1015.94   31.19
   1  -1   1 1527.13   38.43
   1  -1   2 1251.77   37.15
   1  -1   3 4271.54   78.43
   1  -1   3 4256.96   54.70
   1  -1   4   69.48    8.41
   1  -1   4   70.04   10.98
   1  -1   5  617.66   29.66
   1  -1   6 1566.36   53.62
   1  -1   7  501.54   33.83
   1  -1   8   77.08   14.78
   1  -1   8   64.79   18.52
   1  -1   9  331.58   39.84
   1  -1   9  365.95   34.27
   1  -1  10  346.37   43.46
   1  -1  10  300.51   33.57
   1  -1  11  151.89   26.26
   1  -1  11  166.33   32.27
   1  -1  12   72.15   18.27
   1  -1  12   94.23   27.72
   1  -1  13  134.69   27.22
   1  -1  13  109.51   31.25
   1  -1  14   63.49   26.85
   1   0  -9  143.94   12.86
   1   0  -9  142.34   12.36
   1   0  -8  357.75   18.50
   1   0  -8  357.67   18.88
   1   0  -7  346.50   17.10
   1   0  -7  371.12   17.80
   1   0  -6   86.29    7.70
   1   0  -6   76.97    7.47
   1   0  -5 1409.74   27.05
   1   0  -5 1402.60   27.39
   1   0   2  607.53   24.10
   1   0   3  246.80   18.38
   1   0   4  195.92   15.59
   1   0   5   24.41    7.12
   1   0   6  614.32   34.69
   1   0   7  891.61   46.42
   1   0   8   40.48   11.91
   1   0   9  105.14   19.52
   1   0  10   87.39   19.04
   1   0  11   54.58   16.06
   1   0  12  546.19   51.75
   1   0  13   60.79   20.62
   1   0  13  122.95   30.32
   1   0  14   63.85   20.76
   1   0  14   79.19   27.66
   1   1  -5  615.59   38.51
   1   1  -4  134.53   16.97
   1   1  -3 1277.77   46.95
   1   1  -2 2795.08   63.78
   1   1  -1  656.41   20.22
   1   1  -1  662.31   20.01
   1   1   0 1259.11   28.13
   1   1   0 1220.88   29.19
   1   1   2  228.74   15.25
   1   1   3   77.32    9.64
   1   1   6  697.50   39.77
   1   1   7  688.90   42.84
   1   1   8  261.01   28.13
   1   1   9  212.29   27.95
   1   1  10  129.66   23.01
   1   1  11  259.35   34.70
   1   1  12  381.14   44.59
   1   1  13   85.08   23.14
   1   1  14   32.35   18.00
   1   1  15   30.86   14.44
   1   2  -5 1233.80   55.83
   1   2  -4 1020.86   47.28
   1   2  -3   58.33   10.99
   1   2  -2 2096.61   59.82
   1   2  -2 2104.30   60.87
   1   2  -1  240.58   19.14
   1   2   0    7.77    3.75
   1   2   0   15.85    5.20
   1   2   0   19.43    3.66
   1   2   0   28.68    7.56
   1   2   1  562.31   26.36
   1   2   1  548.47   26.14
   1   2   1  506.92   23.57
   1   2   2 1516.10   45.56
   1   2   2 1554.00   45.08
   1   2   2 1439.45   36.47
   1   2   3  755.29   33.39
   1   2   3  771.33   33.74
   1   2   3  738.65   22.06
   1   2   4 1024.24   41.48
   1   2   4 1069.74   42.88
   1   2   5  416.19   28.02
   1   2   6  394.34   29.52
   1   2   7  432.97   37.51
   1   2   8  102.38   20.01
   1   2   9    4.64    6.18
   1   2  10 1352.23   76.40
   1   2  11   37.30   14.16
   1   2  12   86.77   22.74
   1   2  13  172.99   32.43
   1   2  14   37.53   18.06
   1   2  15   92.71   27.13
   1   3  -4 1139.27   53.05
   1   3  -3  225.39   24.32
   1   3  -3  230.30   22.76
   1   3  -2  337.05   28.25
   1   3  -2  300.81   25.00
   1   3  -1  201.60   20.57
   1   3   0  526.15   16.37
   1   3   0  447.12   28.83
   1   3   0  529.71   31.37
   1   3   1   31.63    7.62
   1   3   1   29.82    8.14
   1   3   1   38.83    9.51
   1   3   1   37.59    6.16
   1   3   2 1071.90   44.86
   1   3   2 1047.47   27.26
   1   3   2 1026.81   39.01
   1   3   2 1075.46   44.03
   1   3   3  297.18   23.72
   1   3   3  291.14   23.99
   1   3   3  295.84   15.96
   1   3   3  283.12   18.70
   1   3   4  696.58   37.78
   1   3   4  652.92   35.59
   1   3   4  666.93   26.85
   1   3   5  595.70   36.00
   1   3   5  619.99   37.14
   1   3   5  552.38   21.88
   1   3   6    3.76    7.64
   1   3   6   16.64    7.85
   1   3   6    9.04    2.97
   1   3   7  660.36   41.27
   1   3   8  225.44   29.69
   1   3   8  205.63   24.32
   1   3   9   -0.30    5.55
   1   3  10  738.80   59.70
   1   3  11   -7.57    9.26
   1   3  12    1.94    6.35
   1   3  13   57.68   18.73
   1   3  14  150.69   32.99
   1   3  15   24.11   17.38
   1   4  -3   10.35    7.69
   1   4   0   -1.72    4.77
   1   4   0    5.35    2.18
   1   4   1  183.55   21.26
   1   4   1  178.50   21.06
   1   4   1  179.19   15.89
   1   4   1  205.79   21.70
   1   4   2 1042.77   51.08
   1   4   2 1007.94   34.58
   1   4   2  976.10   48.68
   1   4   2  995.12   45.31
   1   4   3    7.67    4.74
   1   4   3   18.42    7.27
   1   4   3   19.89    5.19
   1   4   3    7.83    5.94
   1   4   4 1732.79   66.65
   1   4   4 1780.20   66.84
   1   4   4 1653.84   48.97
   1   4   4 1739.12   54.74
   1   4   5 1264.59   57.25
   1   4   5 1230.51   46.14
   1   4   5 1155.38   42.48
   1   4   6  109.36   17.93
   1   4   6  111.09   12.57
   1   4   7  494.82   39.31
   1   4   7  539.90   23.63
   1   4   8  839.16   51.90
   1   4   8  724.00   21.55
   1   4   9  816.56   62.30
   1   4   9  689.54   49.55
   1   4  10  295.00   39.04
   1   4  11  239.02   37.46
   1   4  12   11.81    7.12
   1   4  13   50.25   19.50
   1   4  14   45.58   19.20
   1   5   0  542.29   17.57
   1   5   1  196.29   19.46
   1   5   1  170.51   22.70
   1   5   2 1096.42   44.17
   1   5   2 1152.79   59.65
   1   5   3   62.47   15.14
   1   5   3   88.01   12.52
   1   5   4  274.73   29.35
   1   5   4  231.27   20.07
   1   5   4  217.77   23.56
   1   5   5 1147.05   59.93
   1   5   5 1094.32   46.37
   1   5   5 1143.17   50.12
   1   5   6  613.81   44.32
   1   5   6  536.14   35.02
   1   5   6  566.64   33.89
   1   5   7   77.87   12.81
   1   5   7   91.36   19.01
   1   5   7   74.78   15.10
   1   5   8  865.27   56.17
   1   5   8  823.39   34.77
   1   5   9  114.01   22.68
   1   5  10   16.80   13.49
   1   5  10   17.62   12.18
   1   5  11   82.56   22.87
   1   5  11   60.28   15.20
   1   5  12   94.31   27.92
   1   5  13   26.85   10.25
   1   5  14   32.16   21.04
   1   6   0  758.37   54.18
   1   6   1  179.35   21.53
   1   6   1  168.55   26.23
   1   6   2  912.50   45.20
   1   6   2 1046.18   63.18
   1   6   3  191.61   27.47
   1   6   3  211.88   21.34
   1   6   4   -3.09    6.04
   1   6   4    1.14    5.27
   1   6   5  630.40   49.00
   1   6   5  608.49   37.80
   1   6   6  409.64   40.54
   1   6   6  333.58   29.65
   1   6   7  513.29   44.88
   1   6   7  366.99   33.13
   1   6   8  106.30   20.91
   1   6   9  192.31   30.71
   1   6  10   78.59   20.91
   1   6  10   68.38   23.40
   1   6  11  112.89   28.64
   1   6  11   86.65   21.43
   1   6  12    0.17    6.08
   1   6  12    1.28    8.85
   1   6  13   -3.42   13.85
   1   7  -1  528.59   51.43
   1   7   0 1088.30   72.89
   1   7   1  209.95   32.21
   1   7   2   28.45   15.59
   1   7   2   -5.91    5.85
   1   7   3  191.89   29.55
   1   7   3  113.13   19.11
   1   7   4   -2.32    7.01
   1   7   5  350.57   40.20
   1   7   6  423.24   45.52
   1   7   7   27.87   15.33
   1   7   8    3.95    7.08
   1   7   9  337.24   42.50
   1   7  10    3.39   10.70
   1   7  11  203.23   34.06
   1   7  11  247.72   42.59
   1   7  12    8.84    7.83
   1   8  -3   41.82   19.47
   1   8  -2   59.86   21.77
   1   8  -1   49.58   19.38
   1   8   0  180.62   32.24
   1   8   1    2.57   10.10
   1   8   2   75.14   20.94
   1   8   3  242.36   36.97
   1   8   4    9.25   14.18
   1   8   5  264.65   37.89
   1   8   6   31.97   17.31
   1   8   7  161.34   29.82
   1   8   8  268.15   38.45
   1   8   9  278.26   40.36
   1   8  10   37.91   16.13
   1   8  11  102.03   26.72
   1   8  11  134.15   34.13
   1   9  -5   34.46   21.66
   1   9  -4   18.37   10.48
   1   9  -3  135.47   31.76
   1   9  -2   35.18   17.20
   1   9  -1    2.89    7.44
   1   9   0   60.59   24.80
   1   9   1   93.12   28.97
   1   9   2   22.11   17.50
   1   9   3  387.29   50.39
   1   9   4   35.37   18.45
   1   9   5   65.07   24.07
   1   9   6   34.98   15.85
   1   9   7  363.18   47.56
   1   9   8   68.57   21.52
   1   9   9  277.45   42.85
   1   9  10   43.13   21.33
   1   9  11   41.34   19.85
   1  10   3  178.11   36.93
   1  10   4  150.33   35.29
   1  10   5  160.23   36.05
   2  -9  -3   24.19   16.87
   2  -9  -2   48.85   19.42
   2  -9  -1   59.03   20.90
   2  -9   0   15.20   12.43
   2  -9   1   25.59   17.38
   2  -9   2   11.01   13.90
   2  -9   3   30.33   17.54
   2  -8  -3   50.77   18.60
   2  -8  -2  166.04   32.39
   2  -8  -1  164.85   31.70
   2  -8   0   38.95   18.61
   2  -8   1   17.29   12.65
   2  -8   2  108.37   28.06
   2  -8   3   15.41   16.98
   2  -8   4   33.45   17.82
   2  -8   5   45.58   21.69
   2  -8   6   -7.50   15.20
   2  -7  -3  334.06   42.02
   2  -7  -2  160.08   28.51
   2  -7  -1  287.56   39.83
   2  -7   0   80.00   24.28
   2  -7   1   96.59   24.82
   2  -7   2  288.81   41.38
   2  -7   3   91.96   24.62
   2  -7   4   61.55   20.93
   2  -7   5  109.59   28.68
   2  -7   6   93.40   27.26
   2  -7   7    6.99    9.21
   2  -6  -3  261.19   34.60
   2  -6  -2   30.18   11.96
   2  -6  -1  437.53   45.24
   2  -6   0 1021.84   70.40
   2  -6   1  195.87   31.83
   2  -6   2   12.18   11.59
   2  -6   3   62.17   20.08
   2  -6   4    6.89    9.29
   2  -6   5  193.24   36.25
   2  -6   6  306.32   44.73
   2  -6   7   26.71   18.48
   2  -6   8   28.82   15.07
   2  -6   9   99.19   28.92
   2  -5  -3   72.68   16.98
   2  -5  -2   88.01   19.95
   2  -5  -1  152.82   26.11
   2  -5   0  435.30   42.44
   2  -5   1   29.69   13.12
   2  -5   2  524.10   47.95
   2  -5   3  260.60   35.82
   2  -5   4   40.31   14.33
   2  -5   5  211.54   34.18
   2  -5   6  220.90   36.10
   2  -5   7   21.89   15.59
   2  -5   8  274.16   44.66
   2  -5   9  121.88   30.98
   2  -5  10   35.57   18.36
   2  -4  -2  373.05   36.36
   2  -4  -1   -8.56    8.73
   2  -4   0  770.47   52.16
   2  -4   1  416.82   38.96
   2  -4   2  431.27   40.56
   2  -4   3 1039.85   63.84
   2  -4   4  158.55   19.20
   2  -4   4  196.60   28.92
   2  -4   5  222.18   23.95
   2  -4   5  234.51   32.92
   2  -4   6  433.83   34.17
   2  -4   6  506.64   50.08
   2  -4   7   84.41   22.71
   2  -4   8  289.16   42.56
   2  -4   9  154.37   33.35
   2  -4  10   63.92   23.36
   2  -4  11   67.82   24.18
   2  -3  -2  147.35   21.22
   2  -3   3 2275.39   70.12
   2  -3   4 1408.08   57.17
   2  -3   5    4.25    5.86
   2  -3   5   -6.08    8.93
   2  -3   6  110.51   17.76
   2  -3   6   92.58   21.64
   2  -3   7   35.20   15.53
   2  -3   8   13.08    9.81
   2  -3   9  543.05   56.80
   2  -3  10  417.09   53.80
   2  -3  11   86.70   24.86
   2  -3  12   11.48    9.91
   2  -2   2  139.71   16.50
   2  -2   3  914.16   42.76
   2  -2   4  496.12   32.82
   2  -2   5  125.41   17.27
   2  -2   6  380.96   32.80
   2  -2   6  400.19   21.51
   2  -2   7   -1.92    2.49
   2  -2   7    2.20    9.32
   2  -2   8  105.33   14.76
   2  -2   8  100.08   23.32
   2  -2   9   91.66   16.04
   2  -2   9   80.44   21.34
   2  -2  10  123.81   19.99
   2  -2  10  112.66   27.84
   2  -2  11  257.67   41.16
   2  -2  12    9.05   14.46
   2  -2  13  224.59   42.19
   2  -1  -2 2138.30   61.71
   2  -1  -1  187.59   15.94
   2  -1   0  140.61   11.86
   2  -1   1 1228.67   46.15
   2  -1   1 1235.34   28.31
   2  -1   2  165.41   17.35
   2  -1   3  514.47   31.41
   2  -1   4  407.53   29.24
   2  -1   4  370.97   14.61
   2  -1   5    6.22    2.99
   2  -1   5   24.85   10.56
   2  -1   6   58.80    8.72
   2  -1   6   59.10   13.56
   2  -1   7  582.80   46.06
   2  -1   7  638.45   33.46
   2  -1   8   34.97    8.95
   2  -1   8   25.96   12.41
   2  -1   9   65.32   12.99
   2  -1   9   53.11   16.94
   2  -1  10  157.88   22.20
   2  -1  10  113.01   24.89
   2  -1  11    5.01    5.04
   2  -1  11   -3.43    8.51
   2  -1  12   62.11   17.24
   2  -1  12   68.44   23.14
   2  -1  13  415.97   55.11
   2  -1  14    9.19   13.72
   2   0  -1   90.47   11.26
   2   0   0   10.82    4.40
   2   0   0    9.68    5.25
   2   0   1    7.79    3.21
   2   0   1   12.22    5.82
   2   0   2 2263.90   57.48
   2   0   3 6516.93  113.64
   2   0   3 6477.57  107.21
   2   0   4 3120.13   83.69
   2   0   4 3077.96   77.58
   2   0   5  175.53   20.88
   2   0   5  178.97   20.66
   2   0   6   32.84    8.13
   2   0   6   11.52    7.09
   2   0   6   17.87    7.92
   2   0   7 1429.43   67.10
   2   0   7 1365.31   53.52
   2   0   8    8.25    6.63
   2   0   8   10.36    9.92
   2   0   9  522.14   47.70
   2   0   9  594.44   41.34
   2   0  10   75.39   16.28
   2   0  10   54.65   18.74
   2   0  11  583.16   56.32
   2   0  11  577.03   47.48
   2   0  12  162.50   26.70
   2   0  12  151.01   30.76
   2   0  13  200.47   32.18
   2   0  13  244.86   40.88
   2   0  14   68.73   21.98
   2   1  -4 1758.42   29.51
   2   1  -4 1738.43   29.16
   2   1  -3  268.62   12.08
   2   1  -3  276.51   12.45
   2   1  -2 1868.91   36.77
   2   1  -2 1794.97   36.78
   2   1  -1 1436.05   36.39
   2   1   0 1642.25   43.02
   2   1   0 1547.24   46.46
   2   1   1 4944.92   84.35
   2   1   1 4885.97   86.82
   2   1   1 4959.08   69.21
   2   1   2 4800.74   69.02
   2   1   3 1427.54   39.88
   2   1   4  107.58   12.77
   2   1   5 2578.77   69.25
   2   1   6  209.92   22.10
   2   1   7 1801.97   67.28
   2   1   7 1593.53   65.71
   2   1   8  899.01   53.49
   2   1   8  854.15   50.07
   2   1   9   31.57   10.46
   2   1   9   56.04   15.51
   2   1  10  106.66   20.52
   2   1  10   86.76   22.22
   2   1  11  286.89   37.93
   2   1  11  276.78   34.20
   2   1  12   52.32   16.09
   2   1  12   33.42   15.09
   2   1  13   33.94   13.32
   2   1  13   33.73   16.94
   2   1  14   11.05   11.40
   2   1  14   28.77   15.03
   2   1  15   39.69   16.51
   2   2  -8   96.58   10.75
   2   2  -7  369.66   20.96
   2   2  -6  241.50   17.05
   2   2  -5  732.25   29.91
   2   2  -5  803.18   30.84
   2   2  -4  969.97   34.00
   2   2  -4 1040.04   34.76
   2   2  -3  148.66   13.43
   2   2  -3  154.80   13.45
   2   2  -2  851.17   31.98
   2   2  -2  784.83   30.69
   2   2  -1 1932.81   50.44
   2   2  -1 1943.91   49.96
   2   2   0  105.76   12.66
   2   2   0  127.75   13.38
   2   2   0  111.32   11.73
   2   2   1 1216.85   42.85
   2   2   1 1197.40   40.18
   2   2   1 1240.88   43.80
   2   2   2 1061.87   42.58
   2   2   2 1111.50   42.15
   2   2   2 1157.36   44.77
   2   2   3 1911.20   60.82
   2   2   3 1874.68   59.55
   2   2   3 1939.62   61.39
   2   2   3 1931.23   34.09
   2   2   4  132.04   11.64
   2   2   4  134.97   17.45
   2   2   5 3695.71   96.24
   2   2   9  382.02   37.64
   2   2  10  836.18   57.63
   2   2  11   12.62    8.46
   2   2  12    9.15   10.50
   2   2  13   56.36   20.84
   2   2  14   21.34   14.86
   2   2  14   62.60   21.88
   2   2  15    3.47    8.33
   2   2  15    8.09   16.42
   2   2  16   70.41   25.61
   2   3  -5   20.07    5.82
   2   3  -4  338.68   25.33
   2   3  -3  927.71   42.03
   2   3  -3  914.34   41.63
   2   3  -2  200.79   19.36
   2   3  -2  178.53   18.33
   2   3  -2  211.37   24.02
   2   3  -1 1642.63   55.22
   2   3  -1 1644.37   54.64
   2   3   0 1360.67   38.50
   2   3   0 1352.81   50.28
   2   3   0 1318.72   49.68
   2   3   1   82.07   12.41
   2   3   1   67.52    9.56
   2   3   1   92.11   13.96
   2   3   2  554.49   29.89
   2   3   2  598.91   34.96
   2   3   2  614.55   34.75
   2   3   3 2345.43   71.52
   2   3   3 2246.42   71.23
   2   3   4  191.82   21.62
   2   3   4  182.05   20.99
   2   3   5  281.86   27.81
   2   3   5  331.32   30.16
   2   3   6   11.62    7.91
   2   3   7 1094.16   58.58
   2   3  10  613.86   53.08
   2   3  11    1.36    6.68
   2   3  12  134.96   26.89
   2   3  13  235.32   37.55
   2   3  14  192.31   35.89
   2   3  15   17.79   15.10
   2   3  16   20.97   16.24
   2   4  -4  237.86   24.74
   2   4  -3  842.34   46.76
   2   4  -3  825.88   45.58
   2   4  -2  160.11   20.49
   2   4  -2  168.68   20.93
   2   4  -1    0.19    3.85
   2   4  -1   -4.98    6.51
   2   4   0   45.05    6.69
   2   4   0   64.55   13.03
   2   4   0   60.99   12.99
   2   4   1   38.43   10.69
   2   4   1   48.09    8.19
   2   4   1   49.98   12.66
   2   4   1   40.54   10.61
   2   4   2 1332.37   47.30
   2   4   2 1417.20   59.86
   2   4   2 1365.18   58.00
   2   4   2 1265.29   53.36
   2   4   3 1579.34   63.46
   2   4   3 1479.51   54.98
   2   4   4 1259.33   58.07
   2   4   4 1109.41   25.00
   2   4   5 1043.99   55.59
   2   4   5  971.80   30.86
   2   4   6 1311.37   64.14
   2   4   7   67.13   16.73
   2   4   8 2207.97   90.19
   2   4   9   37.27   15.67
   2   4  11  935.27   70.95
   2   4  12  332.30   45.91
   2   4  13   20.92   14.92
   2   4  14    4.87   17.95
   2   4  15   18.28   13.44
   2   5  -7   67.60   17.07
   2   5  -6   26.52   11.91
   2   5  -5   35.34   13.75
   2   5  -4  102.71   20.39
   2   5  -3  422.05   37.12
   2   5  -2  186.06   25.57
   2   5  -1  227.91   27.15
   2   5   0  739.93   23.20
   2   5   0  779.75   49.20
   2   5   1   26.43    6.93
   2   5   1   15.95    9.16
   2   5   2 2184.76   61.65
   2   5   2 2109.67   81.27
   2   5   3  593.71   43.56
   2   5   4    4.26    2.83
   2   5   4   15.81    8.41
   2   5   5  614.08   45.12
   2   5   5  566.16   23.84
   2   5   5  575.79   35.36
   2   5   6  782.38   52.64
   2   5   6  772.44   33.55
   2   5   7   19.18   15.24
   2   5   7   14.84    5.69
   2   5   8  555.66   48.01
   2   5   9  186.74   29.48
   2   5  10   -1.71    7.14
   2   5  11  203.80   35.30
   2   5  12  174.72   35.95
   2   5  13    2.13    7.52
   2   5  14   38.09   17.30
   2   6  -7   44.93   17.15
   2   6  -6  104.27   22.11
   2   6  -5   -5.03   10.20
   2   6  -4   71.48   19.55
   2   6  -3  444.49   42.72
   2   6  -2  564.78   47.21
   2   6  -1   10.65    8.70
   2   6   0  967.03   60.79
   2   6   1  205.42   27.88
   2   6   1  207.40   15.48
   2   6   2  923.96   41.11
   2   6   2  967.28   60.99
   2   6   3  756.86   53.56
   2   6   4  904.56   58.92
   2   6   4  826.54   30.75
   2   6   5   18.59    5.35
   2   6   5   27.33   10.78
   2   6   6  825.39   58.42
   2   6   6  833.83   35.44
   2   6   7   17.56    7.59
   2   6   7    0.99    4.23
   2   6   8   35.93   12.79
   2   6   9  682.42   57.86
   2   6  10   95.30   25.72
   2   6  11   76.94   24.32
   2   6  12  187.41   37.15
   2   6  13    0.71    7.13
   2   7  -7   -2.30    7.63
   2   7  -6   63.89   19.53
   2   7  -5  117.23   25.67
   2   7  -4    0.56   12.05
   2   7  -3   78.68   20.64
   2   7  -2  121.05   24.05
   2   7  -1   19.86   12.48
   2   7   0  623.40   54.33
   2   7   1  249.56   33.60
   2   7   2   66.16   20.09
   2   7   3    1.28    9.24
   2   7   4   28.12   16.90
   2   7   5  195.17   31.53
   2   7   6  282.10   37.30
   2   7   7   49.08   18.58
   2   7   8   57.46   20.63
   2   7   9   90.87   25.33
   2   7  10  110.44   26.99
   2   7  11  123.73   28.50
   2   7  12  232.00   42.85
   2   7  12  231.60   39.66
   2   8  -6    3.97   11.88
   2   8  -5   98.93   24.04
   2   8  -4    0.73   10.49
   2   8  -3  126.01   28.18
   2   8  -2  134.30   29.78
   2   8  -1   23.87   13.82
   2   8   0  180.05   32.53
   2   8   1   85.75   23.56
   2   8   2   57.65   18.82
   2   8   3  283.80   40.28
   2   8   4  183.17   31.96
   2   8   5  177.89   32.64
   2   8   6   14.94   14.67
   2   8   7  388.21   48.05
   2   8   8    9.51   12.27
   2   8   9  134.91   29.24
   2   8  10  212.64   39.05
   2   8  11    2.88   10.35
   2   8  12  227.78   40.95
   2   9  -5    4.37    9.20
   2   9  -4  -21.48   14.21
   2   9  -3   66.85   22.00
   2   9  -2   50.35   19.55
   2   9  -1    0.77    7.72
   2   9   0   40.91   19.55
   2   9   1  102.54   28.75
   2   9   2   20.92   16.34
   2   9   3   53.61   20.20
   2   9   4  141.07   29.85
   2   9   5   11.91   13.92
   2   9   6  118.92   27.29
   2   9   7  186.74   34.94
   2   9   8   74.36   22.75
   2   9   9   48.73   18.04
   2   9  10   85.91   24.93
   2   9  11   16.89   10.56
   2  10   1  331.64   50.54
   2  10   2    7.21    8.49
   2  10   3   18.00   13.00
   2  10   4  122.55   32.10
   2  10   5  195.48   40.49
   2  10   6   98.26   27.36
   3  -9  -2   -1.92   12.60
   3  -9  -1    8.35   12.68
   3  -9   0   22.64   21.10
   3  -9   1   72.11   26.05
   3  -8  -2   -7.85    8.38
   3  -8  -1  161.16   34.19
   3  -8   0    7.03    7.82
   3  -8   1   66.31   21.69
   3  -8   2  184.71   40.00
   3  -8   3   86.48   25.52
   3  -8   4   -3.04    7.91
   3  -7  -3  149.86   29.86
   3  -7  -2  125.21   27.67
   3  -7  -1   53.49   22.47
   3  -7   0  244.58   40.53
   3  -7   1   47.32   20.50
   3  -7   2   63.44   21.44
   3  -7   3  495.49   60.57
   3  -7   4   58.29   22.76
   3  -7   5   15.43   17.67
   3  -7   6   87.73   28.49
   3  -6  -3   86.35   23.68
   3  -6  -2   20.65   11.51
   3  -6  -1   23.04   19.40
   3  -6   0  370.67   46.05
   3  -6   1  227.17   36.67
   3  -6   2  -10.57    9.93
   3  -6   3   23.77   16.50
   3  -6   4    0.08   11.72
   3  -6   5  161.97   33.83
   3  -6   6  164.57   34.52
   3  -6   7   19.37   14.68
   3  -6   8   -8.06   10.28
   3  -5  -2  205.48   31.40
   3  -5  -1   22.92   12.65
   3  -5   0  134.04   26.60
   3  -5   1  572.66   53.24
   3  -5   2  119.66   25.84
   3  -5   3  154.67   28.83
   3  -5   4  118.43   26.26
   3  -5   5  119.39   27.87
   3  -5   6  193.78   36.91
   3  -5   7  154.70   32.06
   3  -5   8   93.23   28.60
   3  -5   9   52.20   22.59
   3  -5  10    3.07   12.60
   3  -4  -2  250.40   32.58
   3  -4  -1    6.91   12.28
   3  -4   0  341.39   37.24
   3  -4   1  389.80   40.77
   3  -4   2   16.34   11.60
   3  -4   3  712.56   58.22
   3  -4   4  312.91   39.68
   3  -4   5   41.51   16.79
   3  -4   6  233.92   36.43
   3  -4   7  207.49   35.03
   3  -4   8   31.09   14.44
   3  -4   9   35.02   16.94
   3  -4  10  121.26   32.17
   3  -4  11   36.99   20.79
   3  -3   3  402.22   34.70
   3  -3   4  820.83   57.92
   3  -3   5  100.41   23.74
   3  -3   6  329.73   40.39
   3  -3   7   20.89   12.98
   3  -3   8    8.89    8.49
   3  -3   9   62.70   20.97
   3  -3  10  163.99   35.52
   3  -3  11   30.34   16.19
   3  -3  12   -7.85   13.85
   3  -2  -2 1021.17   49.12
   3  -2  -1  661.60   36.14
   3  -2   0   63.41   10.37
   3  -2   2  367.52   31.79
   3  -2   3   10.88    7.18
   3  -2   4  767.85   47.61
   3  -2   5  384.51   38.30
   3  -2   6  218.00   31.04
   3  -2   7  135.76   27.02
   3  -2   8  197.93   32.50
   3  -2   8  133.65   12.66
   3  -2   9   41.88   17.12
   3  -2  10  223.76   36.69
   3  -2  11   46.20   19.80
   3  -2  12   17.96   16.86
   3  -2  13  109.55   30.44
   3  -1  -2 1461.04   58.28
   3  -1  -1  470.82   29.86
   3  -1   0  159.77   16.16
   3  -1   1  537.64   24.93
   3  -1   2   12.47    4.12
   3  -1   2    6.58    6.65
   3  -1   3    4.60    1.79
   3  -1   3    5.65    7.71
   3  -1   4  791.43   46.96
   3  -1   4  730.83   18.89
   3  -1   5   83.53   18.30
   3  -1   5   70.94    6.69
   3  -1   6  160.24   24.45
   3  -1   6  136.24   11.33
   3  -1   7  648.30   51.18
   3  -1   7  657.16   29.00
   3  -1   8   47.98    9.05
   3  -1   8   52.63   17.26
   3  -1   9  173.21   29.84
   3  -1   9  154.17   17.85
   3  -1  10  210.31   34.56
   3  -1  10  188.69   21.63
   3  -1  11   50.25   17.67
   3  -1  12   45.40   20.29
   3  -1  13  123.50   30.78
   3  -1  14   -5.16   10.78
   3   0  -2 1370.29   56.90
   3   0  -1 2586.09   72.96
   3   0   0   21.04    6.19
   3   0   0   29.65    9.39
   3   0   1    3.46    2.68
   3   0   1   10.33    6.00
   3   0   2  906.32   42.97
   3   0   2  803.12   32.51
   3   0   3   25.20    8.20
   3   0   4 1705.13   63.19
   3   0   5 2059.80   79.11
   3   0   5 2057.37   73.28
   3   0   6 1160.18   58.90
   3   0   7  759.13   50.75
   3   0   7  758.40   37.99
   3   0   8 1001.48   62.15
   3   0   8 1104.60   48.89
   3   0   9   24.05   10.06
   3   0   9   22.47    7.66
   3   0  10  361.28   42.54
   3   0  10  330.65   31.25
   3   0  11  327.81   42.20
   3   0  11  312.32   32.38
   3   0  12    8.04    9.46
   3   0  12   12.38   12.13
   3   0  13   86.35   27.07
   3   0  14   74.41   25.70
   3   1   0   17.84    7.19
   3   1   0    8.37    6.34
   3   1   1   43.88    9.77
   3   1   1   38.68    9.83
   3   1   1   27.18    7.80
   3   1   2  376.01   24.12
   3   1   3  106.65   13.62
   3   1   4  261.73   21.90
   3   1   5 2713.84   76.50
   3   1   6  452.88   33.70
   3   1   7  149.56   20.96
   3   1   8  863.74   53.81
   3   1   9  128.33   19.40
   3   1   9  165.65   26.15
   3   1  10  255.53   33.85
   3   1  10  203.29   26.26
   3   1  11  255.02   35.48
   3   1  11  257.46   31.28
   3   1  12    8.45    9.23
   3   1  12   -4.30    7.24
   3   1  13   81.61   20.08
   3   1  13  128.89   29.48
   3   1  14   90.72   24.60
   3   1  15   25.86   15.90
   3   2  -6  146.48   10.19
   3   2  -6  126.68    9.68
   3   2  -5   41.67    6.66
   3   2  -5   25.96    5.38
   3   2  -4  445.99   22.13
   3   2  -4  418.57   21.81
   3   2  -3  372.90   21.79
   3   2  -3  367.68   22.06
   3   2  -2   63.47    9.69
   3   2  -2   55.49    9.79
   3   2  -1  910.29   38.13
   3   2  -1  954.21   39.41
   3   2   0 3338.42   78.25
   3   2   0 3198.84   81.00
   3   2   1    2.47    3.10
   3   2   1   -4.73    4.84
   3   2   2 1251.09   52.52
   3   2   2 1210.13   51.37
   3   2   3  876.53   46.58
   3   2   3  968.45   48.32
   3   2   3  969.36   32.20
   3   2   4  414.75   22.80
   3   2   5 1683.21   51.31
   3   2   6  907.96   42.29
   3   2   7  100.24   16.36
   3   2   8  696.50   44.41
   3   2   9  553.19   42.82
   3   2  10   50.90   14.61
   3   2  10   40.31   14.19
   3   2  11  186.37   28.12
   3   2  11  206.33   31.06
   3   2  12    4.72    5.11
   3   2  12   16.19   11.53
   3   2  13  166.25   30.21
   3   2  13  129.33   28.48
   3   2  14   61.88   21.05
   3   2  14   58.51   19.86
   3   2  15   36.88   17.22
   3   2  15    5.13    9.50
   3   3  -7  100.40   11.92
   3   3  -6  165.47   16.38
   3   3  -6  161.39   15.70
   3   3  -5  146.35   16.00
   3   3  -5  124.90   14.09
   3   3  -4   11.04    6.22
   3   3  -4    0.01    3.57
   3   3  -3  308.29   23.86
   3   3  -3  317.00   24.03
   3   3  -2   38.02    9.56
   3   3  -2   47.00   10.03
   3   3  -1    2.09    4.38
   3   3  -1    2.42    4.15
   3   3   0 1986.31   64.47
   3   3   0 2179.67   68.40
   3   3   0 1994.39   61.19
   3   3   1  170.09   20.26
   3   3   1  170.30   18.20
   3   3   1  149.29   18.85
   3   3   2  184.30   22.66
   3   3   2  179.28   22.50
   3   3   2  172.06   19.39
   3   3   3 2393.84   79.07
   3   3   3 2279.67   79.17
   3   3   3 2297.28   75.34
   3   3   4    1.14    3.50
   3   3   4    8.64    2.99
   3   3   5   79.12    9.22
   3   3   5   69.81   17.56
   3   3   6  764.50   50.91
   3   3   6  652.14   30.68
   3   3   7    9.46    6.94
   3   3   8  588.01   38.31
   3   3   9  667.92   44.54
   3   3  10    5.31    9.45
   3   3  11  297.67   37.60
   3   3  11  301.34   34.90
   3   3  12  181.66   31.61
   3   3  12  136.52   24.91
   3   3  13   -5.81   11.15
   3   3  13    0.18    9.07
   3   3  14  145.21   30.11
   3   3  14  106.72   26.43
   3   3  15   80.52   22.74
   3   3  15   99.00   27.61
   3   3  16    2.31    8.27
   3   3  16   11.51   11.34
   3   4  -7  101.60   15.71
   3   4  -6  474.28   33.45
   3   4  -5   68.26   13.73
   3   4  -5   64.02   13.26
   3   4  -4   24.50    9.13
   3   4  -4   23.09    8.92
   3   4  -3  223.49   23.63
   3   4  -3  228.28   24.25
   3   4  -2  770.03   43.83
   3   4  -2  784.23   43.38
   3   4  -1  220.78   24.65
   3   4  -1  220.46   23.92
   3   4   0  990.58   40.73
   3   4   0 1001.72   50.31
   3   4   1  351.09   25.60
   3   4   1  391.17   32.02
   3   4   2  357.70   26.95
   3   4   2  335.64   31.08
   3   4   3 1989.84   70.63
   3   4   3 1928.19   75.60
   3   4   4   23.32   14.15
   3   4   4   47.70   13.14
   3   4   5   87.71   18.77
   3   4   6   12.13   10.25
   3   4   6   15.39    5.01
   3   4   7   27.70    7.07
   3   4   7   23.27   12.71
   3   4   8  178.82   19.43
   3   4   8  148.34   25.61
   3   4   9  389.84   31.45
   3   4  10   81.62   16.52
   3   4  11   52.69   15.25
   3   4  12   55.80   18.49
   3   4  12   40.31   14.09
   3   4  13   26.92   18.02
   3   4  13   25.21   13.76
   3   4  14   68.31   22.77
   3   4  14   39.24   16.47
   3   4  15  147.87   33.48
   3   5  -6  196.27   25.63
   3   5  -5  135.37   20.74
   3   5  -4    1.45    4.76
   3   5  -3   41.05   13.95
   3   5  -2  761.14   48.52
   3   5  -1   26.29   10.61
   3   5   0  290.69   20.10
   3   5   0  299.46   32.37
   3   5   1  480.02   29.04
   3   5   1  508.53   40.46
   3   5   2  618.12   36.25
   3   5   2  611.76   44.54
   3   5   3  666.56   41.15
   3   5   3  702.70   48.32
   3   5   4  460.30   36.38
   3   5   4  469.75   40.97
   3   5   5  262.48   31.94
   3   5   6  249.74   31.28
   3   5   7   74.71   17.83
   3   5   7   90.36    9.98
   3   5   7   62.28    8.75
   3   5   8   33.20    8.76
   3   5   8   25.92   14.72
   3   5   9  383.54   44.35
   3   5  10  184.10   31.95
   3   5  13  166.30   35.15
   3   5  14   15.89    7.79
   3   6  -6   54.40   17.49
   3   6  -5  114.66   22.37
   3   6  -4   38.24   14.29
   3   6  -3  354.62   37.59
   3   6  -2  201.07   28.25
   3   6  -1   61.84   17.33
   3   6   0  210.49   28.46
   3   6   1  355.87   23.61
   3   6   1  356.59   37.24
   3   6   2   91.96   19.92
   3   6   2   93.01   14.33
   3   6   3  311.67   28.64
   3   6   3  319.51   35.71
   3   6   4  158.83   26.77
   3   6   5   24.75   12.88
   3   6   6  356.27   39.58
   3   6   7  115.74   25.01
   3   6   8   27.65   12.66
   3   6   9   58.18   18.37
   3   6  10   92.81   25.64
   3   6  11    5.49    9.65
   3   6  13  193.48   38.07
   3   6  14   19.58   17.17
   3   7  -6   -9.48   10.46
   3   7  -5  111.88   23.70
   3   7  -4   26.22   15.05
   3   7  -3  384.96   43.13
   3   7  -2  350.23   40.38
   3   7  -1  101.42   22.19
   3   7   0  165.36   27.77
   3   7   1  134.09   25.66
   3   7   2   34.38   13.35
   3   7   3  827.39   61.37
   3   7   4  629.74   53.47
   3   7   5  173.80   29.93
   3   7   6  222.76   34.61
   3   7   7  358.73   43.92
   3   7   8   -0.13   10.20
   3   7   9   65.57   20.38
   3   7  10  187.96   34.72
   3   7  11   11.31   12.45
   3   7  12  117.84   28.86
   3   8  -5  165.87   31.83
   3   8  -4   73.70   20.67
   3   8  -3    6.64    9.09
   3   8  -2  234.94   36.89
   3   8  -1   96.06   24.78
   3   8   0   17.08   13.42
   3   8   1  118.89   25.49
   3   8   2  322.56   42.76
   3   8   3    6.47   11.43
   3   8   4  216.77   34.43
   3   8   5   83.69   23.83
   3   8   6   27.34   14.04
   3   8   7  316.73   44.11
   3   8   8   50.78   20.37
   3   8   9   25.63   18.83
   3   8  10  146.58   33.69
   3   8  11   25.87   19.92
   3   8  12   42.47   17.47
   3   8  13   39.56   18.43
   3   9  -5  114.87   30.57
   3   9  -4   74.14   24.39
   3   9  -3   22.75   15.88
   3   9  -2   62.50   21.44
   3   9  -1   24.42   13.80
   3   9   0   10.77   13.90
   3   9   1  282.51   44.77
   3   9   2  139.39   31.19
   3   9   3   98.00   26.61
   3   9   4  107.31   28.14
   3   9   5   71.71   22.91
   3   9   6   96.67   25.57
   3   9   7  206.36   37.95
   3   9   8  119.44   30.47
   3   9   9   17.51   15.00
   3   9  10  167.19   36.54
   3  10   1   18.15   18.05
   3  10   2   81.84   25.28
   3  10   3   42.55   21.08
   3  10   4   47.26   20.75
   3  10   5  103.83   27.89
   4  -8  -2  115.69   31.71
   4  -8  -1    0.56    9.70
   4  -8   0   30.78   20.56
   4  -8   1   73.00   26.50
   4  -8   2   66.64   25.31
   4  -7  -2   40.84   17.26
   4  -7  -1   14.47   17.34
   4  -7   0   54.13   21.55
   4  -7   1   50.58   20.56
   4  -7   2   21.93   16.85
   4  -7   3  132.13   33.47
   4  -7   4  -12.55   10.91
   4  -7   5   -1.36   14.25
   4  -6  -2   94.08   25.82
   4  -6  -1  168.06   32.38
   4  -6   0  179.48   34.71
   4  -6   1  193.16   36.99
   4  -6   2   26.13   11.48
   4  -6   3  250.30   42.58
   4  -6   4  414.58   54.92
   4  -6   5   11.98   13.37
   4  -6   6  104.35   29.26
   4  -6   7   88.84   28.57
   4  -5  -2  465.06   51.51
   4  -5  -1  185.84   33.89
   4  -5   0   24.51   15.58
   4  -5   1  220.71   36.07
   4  -5   2  225.22   36.97
   4  -5   3   -1.87    6.60
   4  -5   4  248.64   40.10
   4  -5   5    5.78   13.34
   4  -5   6  138.93   32.28
   4  -5   7  134.63   32.43
   4  -5   8   -9.21   10.89
   4  -5   9   21.91   21.06
   4  -4  -2 1060.25   72.71
   4  -4  -1   59.00   18.53
   4  -4   0   22.86   12.58
   4  -4   1  296.05   39.68
   4  -4   2  641.04   58.69
   4  -4   3   64.54   19.81
   4  -4   4  268.94   39.61
   4  -4   5   34.01   17.43
   4  -4   6  123.44   29.34
   4  -4   7  168.28   35.51
   4  -4   8   17.56   13.17
   4  -4   9   34.80   16.91
   4  -4  10   68.62   24.35
   4  -3  -1  363.84   39.86
   4  -3   0   43.04   15.97
   4  -3   1  161.06   27.11
   4  -3   2  325.11   38.39
   4  -3   3   24.31   10.49
   4  -3   4  192.84   30.96
   4  -3   5  290.33   38.46
   4  -3   6   48.09   17.53
   4  -3   7  569.04   57.28
   4  -3   8  266.99   40.96
   4  -3   9   14.80   13.86
   4  -3  10  132.62   33.76
   4  -3  11   88.42   27.67
   4  -2  -1  390.11   31.25
   4  -2   0    6.52    4.13
   4  -2   1 1629.16   51.89
   4  -2   2  566.29   48.04
   4  -2   2  474.29   23.44
   4  -2   3  183.39   28.55
   4  -2   4   35.40   12.43
   4  -2   5  745.07   57.76
   4  -2   6  384.21   42.60
   4  -2   7   54.62   19.06
   4  -2   8  284.14   39.86
   4  -2   9    1.66    6.13
   4  -2  10  142.91   31.17
   4  -2  11  300.90   46.20
   4  -2  12    6.94    9.59
   4  -1  -1 1069.68   51.71
   4  -1   0  329.58   26.36
   4  -1   1  399.28   36.34
   4  -1   1  394.02   26.13
   4  -1   2  335.01   34.36
   4  -1   2  306.64   20.69
   4  -1   3  737.03   50.64
   4  -1   3  614.99   25.67
   4  -1   4    0.96    1.58
   4  -1   4    6.01    8.58
   4  -1   5  679.15   50.71
   4  -1   5  596.03   20.05
   4  -1   6  642.05   50.59
   4  -1   6  434.59   17.24
   4  -1   7    7.64    3.03
   4  -1   7    8.15    9.31
   4  -1   8  523.73   50.15
   4  -1   8  497.99   23.90
   4  -1   9  135.32   26.99
   4  -1   9  118.45   13.35
   4  -1  10  295.10   41.29
   4  -1  11  114.75   27.97
   4  -1  12   57.70   21.93
   4  -1  13   50.75   23.75
   4   0  -1  375.64   31.31
   4   0   0   10.59    6.69
   4   0   1  157.35   21.52
   4   0   1  136.07   17.16
   4   0   2  204.69   23.84
   4   0   2  227.32   20.55
   4   0   3 1027.55   54.91
   4   0   3 1008.20   41.08
   4   0   4  544.86   40.88
   4   0   5    8.88    5.51
   4   0   6   33.82   12.07
   4   0   7    3.12    6.94
   4   0   8  409.24   41.58
   4   0   8  349.26   26.44
   4   0   9  376.46   42.17
   4   0   9  332.81   27.50
   4   0  10   51.59   11.59
   4   0  10   70.04   21.01
   4   0  11  104.27   24.47
   4   0  12   -7.21    6.68
   4   0  13   52.99   20.86
   4   0  14   85.24   27.35
   4   1   0  478.69   35.48
   4   1   1  513.75   35.70
   4   1   2  254.62   24.12
   4   1   2  254.82   24.34
   4   1   3    9.27    5.87
   4   1   4 1030.99   49.63
   4   1   5 2238.38   76.16
   4   1   6 1469.45   64.80
   4   1   7  116.18   20.00
   4   1   8  307.35   33.86
   4   1   9   48.57   14.90
   4   1  10   16.87    8.59
   4   1  10   41.02   15.38
   4   1  11  642.29   57.18
   4   1  11  556.81   44.88
   4   1  12  212.86   36.35
   4   1  12  242.87   30.41
   4   1  13    3.31    7.48
   4   1  14   79.48   24.63
   4   1  15   70.07   25.79
   4   2   1  920.58   51.74
   4   2   1  903.15   51.18
   4   2   2  439.41   36.63
   4   2   3 1167.67   44.67
   4   2   4   14.99    7.10
   4   2   5  422.36   29.34
   4   2   6 1055.63   48.47
   4   2   7  176.11   21.66
   4   2   8  193.35   24.85
   4   2   9  219.92   28.43
   4   2  10  183.82   27.68
   4   2  11   42.67   14.60
   4   2  11   57.81   18.21
   4   2  12  265.32   37.38
   4   2  12  255.51   34.46
   4   2  13   41.23   15.67
   4   2  13   40.27   16.90
   4   2  14   69.07   22.58
   4   2  15   28.97   17.05
   4   3  -5   51.84    9.91
   4   3  -4  258.08   22.15
   4   3  -4  268.85   22.87
   4   3  -3  855.14   41.49
   4   3  -3  738.66   39.21
   4   3  -2  377.40   29.12
   4   3  -2  399.34   30.02
   4   3  -1   36.43   11.03
   4   3  -1   33.84   10.45
   4   3   0 1560.82   63.24
   4   3   0 1543.23   63.34
   4   3   1  890.71   49.60
   4   3   1  869.71   49.56
   4   3   2  320.64   31.63
   4   3   2  331.59   30.99
   4   3   3 2394.01   87.43
   4   3   4  720.32   49.75
   4   3   4  590.47   25.83
   4   3   5  196.91   16.24
   4   3   6  577.51   30.49
   4   3   7   56.39   11.61
   4   3   8   58.15   12.34
   4   3   9  188.94   24.07
   4   3  10   31.60   11.80
   4   3  11   17.76    7.85
   4   3  12  112.80   24.44
   4   3  12   77.57   20.00
   4   3  13   59.15   20.20
   4   3  13   51.54   16.84
   4   3  14   -7.94    9.30
   4   3  14    2.55   10.65
   4   3  15   34.81   16.83
   4   4  -5  877.34   44.84
   4   4  -4  373.65   30.31
   4   4  -4  358.33   30.18
   4   4  -3   66.64   14.12
   4   4  -3   39.03   10.27
   4   4  -2  854.92   47.87
   4   4  -1   -1.16    5.69
   4   4   0  831.13   49.77
   4   4   1 1849.98   74.78
   4   4   1 1738.18   67.97
   4   4   2  380.83   36.36
   4   4   2  356.09   31.42
   4   4   3  237.09   29.14
   4   4   4  648.53   49.01
   4   4   5   78.96   19.19
   4   4   6  164.07   11.96
   4   4   6  155.10   25.86
   4   4   7   29.57   11.33
   4   4   7   23.77    6.19
   4   4   8   97.81   13.23
   4   4   9  500.65   34.69
   4   4  10  261.02   27.72
   4   4  11    6.80    8.33
   4   4  12   23.58    9.65
   4   4  13   -7.83   10.31
   4   4  14   80.23   24.45
   4   4  15  517.80   60.49
   4   5  -5  248.20   27.40
   4   5  -4  105.13   18.04
   4   5  -3   25.62   11.34
   4   5  -2  424.22   36.65
   4   5  -1   55.78   14.93
   4   5   0  101.28   18.85
   4   5   1  340.48   34.48
   4   5   1  334.12   29.19
   4   5   2   27.41   12.14
   4   5   2   26.93    9.85
   4   5   3  221.73   30.72
   4   5   4  457.79   44.34
   4   5   5   -8.61    8.47
   4   5   6  202.70   30.93
   4   5   7  358.34   42.31
   4   5   8    6.82    3.61
   4   5   8    0.62   12.15
   4   5   9   73.63   11.49
   4   5   9  100.76   24.07
   4   5  14   -6.71    8.73
   4   5  15   77.80   25.94
   4   6  -5   45.72   13.36
   4   6  -4  325.67   35.08
   4   6  -3   50.07   15.38
   4   6  -2  199.07   27.89
   4   6  -1   66.16   18.16
   4   6   0   61.61   14.94
   4   6   1  231.34   23.28
   4   6   1  282.44   33.50
   4   6   2  170.80   27.66
   4   6   2  122.47   18.41
   4   6   3  180.68   29.90
   4   6   4  433.00   43.84
   4   6   5  106.51   24.54
   4   6   6  256.93   37.71
   4   6   7 1172.80   77.41
   4   6   8  121.98   27.85
   4   6   9   99.14   25.63
   4   6  10  236.09   39.31
   4   6  14    1.24   10.07
   4   7  -4  178.28   29.55
   4   7  -3   11.81   11.34
   4   7  -2  390.08   42.02
   4   7  -1  308.36   37.34
   4   7   0   43.51   17.86
   4   7   1   18.57   10.99
   4   7   2  154.36   27.45
   4   7   3   14.19   13.22
   4   7   4  700.02   59.32
   4   7   5 1453.48   88.03
   4   7   6  292.62   40.68
   4   7   7   50.83   20.64
   4   7   8  191.97   34.13
   4   7   9   31.72   18.53
   4   7  10  252.95   42.49
   4   7  11  142.59   32.34
   4   8  -4  105.84   25.88
   4   8  -3   33.91   17.15
   4   8  -2   96.81   25.05
   4   8  -1   97.25   24.90
   4   8   0   30.01   14.46
   4   8   1   31.07   14.79
   4   8   2  116.65   28.39
   4   8   3  100.16   25.31
   4   8   4   45.93   19.46
   4   8   5  157.36   31.34
   4   8   6   -6.80    9.48
   4   8   7  168.95   34.23
   4   8   8  258.91   41.53
   4   8   9   13.90   15.44
   4   8  10  110.38   30.53
   4   8  11   46.18   19.28
   4   8  12   71.18   26.88
   4   9  -4   92.81   26.22
   4   9  -3   41.97   17.96
   4   9  -2   29.36   18.37
   4   9  -1   57.38   20.22
   4   9   0   92.50   24.52
   4   9   1    8.17   10.60
   4   9   2   87.80   25.07
   4   9   3  115.54   27.82
   4   9   4   -6.48   12.30
   4   9   5   92.94   24.89
   4   9   6  105.08   28.41
   4   9   7  134.66   32.64
   4   9   8  251.38   43.73
   4   9   9   46.94   20.71
   4   9  10  137.22   34.68
   5  -7  -1   86.84   28.52
   5  -7   0   85.34   27.61
   5  -7   1  144.91   36.50
   5  -7   2   13.02   17.13
   5  -6  -1  470.69   58.69
   5  -6   0   18.33   12.69
   5  -6   1   67.12   26.63
   5  -6   2   23.61   15.72
   5  -6   3   33.65   19.94
   5  -6   4  449.78   61.62
   5  -6   5  270.76   49.36
   5  -5  -1  173.28   34.79
   5  -5   0   17.47   11.43
   5  -5   1  101.17   28.33
   5  -5   2  116.90   28.85
   5  -5   3   45.95   18.25
   5  -5   4   88.16   26.29
   5  -5   5  108.70   29.22
   5  -5   6    1.95    6.82
   5  -5   7   25.17   16.74
   5  -5   8   97.64   29.83
   5  -4  -1  136.55   28.45
   5  -4   0   97.39   24.85
   5  -4   1    4.96    8.08
   5  -4   2  162.55   31.57
   5  -4   3   18.06   13.35
   5  -4   4   18.03   15.47
   5  -4   5   41.51   21.00
   5  -4   6   20.38   14.18
   5  -4   7  173.93   36.00
   5  -4   8  113.58   28.71
   5  -4   9   68.02   23.99
   5  -3  -1  449.62   48.39
   5  -3   0  111.13   24.91
   5  -3   1   27.79   13.48
   5  -3   2  169.07   31.78
   5  -3   3   11.94    9.54
   5  -3   4   99.98   25.65
   5  -3   5  116.72   27.13
   5  -3   6  244.12   39.95
   5  -3   7   51.90   19.32
   5  -3   8  191.43   36.08
   5  -3   9  201.45   40.94
   5  -3  10   24.87   20.36
   5  -3  11  113.77   31.37
   5  -2   0  373.17   43.34
   5  -2   0  319.68   28.74
   5  -2   1  100.97   15.13
   5  -2   1  127.41   25.13
   5  -2   2  577.86   52.38
   5  -2   2  502.14   29.38
   5  -2   3  308.73   39.53
   5  -2   3  214.63   15.76
   5  -2   4    2.50    7.91
   5  -2   5  130.81   26.69
   5  -2   6  122.23   26.41
   5  -2   7   62.31   20.38
   5  -2   8  349.46   45.23
   5  -2   9   34.28   16.45
   5  -2  10    2.89    9.06
   5  -2  11   92.05   28.96
   5  -2  12   61.83   24.66
   5  -1   0  598.57   49.50
   5  -1   1    3.43    4.85
   5  -1   1    8.92   11.05
   5  -1   2  329.07   36.36
   5  -1   2  332.81   25.62
   5  -1   3  747.54   56.31
   5  -1   3  671.51   33.25
   5  -1   4  443.77   43.35
   5  -1   4  356.31   21.29
   5  -1   5  120.45   23.84
   5  -1   5   86.96    9.23
   5  -1   6  106.32   24.63
   5  -1   6   77.20    7.38
   5  -1   7  138.15   27.58
   5  -1   8  108.50   24.70
   5  -1   9  246.31   37.58
   5  -1  10   20.32   12.12
   5  -1  11   10.38    9.51
   5  -1  12   99.31   28.28
   5  -1  13   49.37   21.38
   5   0   1  100.09   16.64
   5   0   1   96.66   18.64
   5   0   2  220.96   27.49
   5   0   2  208.22   22.60
   5   0   3  967.92   59.76
   5   0   3  944.86   45.28
   5   0   4  124.68   15.96
   5   0   4  192.95   26.41
   5   0   5   75.89   12.47
   5   0   5   72.08   17.38
   5   0   6  328.67   38.83
   5   0   7  140.73   25.37
   5   0   8  210.89   31.51
   5   0   9  208.22   32.87
   5   0   9  172.51   18.71
   5   0  10   -9.04    6.24
   5   0  11  154.67   30.69
   5   0  12   57.27   19.87
   5   0  13  -13.44   11.85
   5   0  14   21.14   18.61
   5   1   2   62.30   14.76
   5   1   2   59.33   14.17
   5   1   3 1443.91   65.38
   5   1   3 1309.26   60.20
   5   1   4  282.66   29.72
   5   1   5  127.26   20.49
   5   1   6 1272.77   65.78
   5   1   7  217.06   28.87
   5   1   8   24.17   13.05
   5   1   9   92.68   21.20
   5   1  10  106.88   22.88
   5   1  11   63.15   19.75
   5   1  12  117.22   26.35
   5   1  13  109.18   26.85
   5   1  14    9.72    9.72
   5   1  15   34.73   19.17
   5   2   3  885.55   46.84
   5   2   4  805.03   45.01
   5   2   5  557.48   38.58
   5   2   6  449.19   35.87
   5   2   7  483.71   38.12
   5   2   8    9.29    8.52
   5   2   9  190.64   26.81
   5   2  10   40.85   15.61
   5   2  11    6.84    9.38
   5   2  12  126.56   24.88
   5   2  12  115.52   26.07
   5   2  13  181.31   33.45
   5   2  14    6.60    7.56
   5   2  15   56.93   22.64
   5   3   4 1225.46   46.97
   5   3   5   10.60    5.38
   5   3   6  241.19   22.41
   5   3   7  630.94   38.65
   5   3   8   81.18   14.69
   5   3   9  153.91   22.21
   5   3  10   61.52   15.51
   5   3  11   42.26   15.14
   5   3  12  148.95   26.30
   5   3  13   55.22   18.48
   5   3  13   92.89   22.62
   5   4  -4  121.14   18.88
   5   4  -3    5.10    7.47
   5   4  -2  189.91   25.23
   5   4  -1  117.82   21.03
   5   4   0   81.35   17.94
   5   4   1  572.47   46.02
   5   4   2  326.89   36.31
   5   4   3   14.49   10.46
   5   4   4   39.10   13.98
   5   4   5  578.37   52.40
   5   4   6  139.38   13.13
   5   4   7  635.89   31.39
   5   4   8  136.82   16.84
   5   4   9    4.25    4.49
   5   4  10  282.39   28.82
   5   4  14  105.52   27.73
   5   5  -4  297.31   31.88
   5   5  -3   18.40    9.92
   5   5  -2  206.23   27.72
   5   5  -1  300.04   33.84
   5   5   0   35.05   17.51
   5   5   1  318.75   36.24
   5   5   2  337.55   38.66
   5   5   3   16.14   12.70
   5   5   4    4.83    8.94
   5   5   5  509.08   50.34
   5   5   6   17.67   14.16
   5   5   7  384.25   45.04
   5   5  14    3.71   15.88
   5   5  15   34.11   17.53
   5   6  -4  157.31   26.69
   5   6  -3   69.00   18.12
   5   6  -2   44.58   13.36
   5   6  -1  196.14   29.90
   5   6   0    2.08    8.13
   5   6   1  107.25   24.62
   5   6   2   32.72   13.91
   5   6   3  400.44   44.74
   5   6   4  156.28   29.23
   5   6   5  289.37   41.03
   5   6   6  148.89   29.15
   5   6   7   26.14   14.04
   5   6   8  540.73   57.50
   5   6   9   -4.99   12.47
   5   7  -3  115.67   23.53
   5   7  -2    1.13    7.95
   5   7  -1  121.12   24.18
   5   7   0   25.85   14.42
   5   7   1   23.13   15.69
   5   7   2   65.42   23.81
   5   7   3  132.84   27.14
   5   7   4   76.06   21.73
   5   7   5  131.62   30.94
   5   7   6   13.24   10.44
   5   7   7    1.28    9.42
   5   7   8  359.13   50.18
   5   7   9    4.49   12.81
   5   7  10   59.75   20.26
   5   8  -3   30.26   14.32
   5   8  -2   23.59   14.00
   5   8  -1   79.41   21.10
   5   8   0  108.54   26.10
   5   8   1   33.50   18.20
   5   8   2  392.59   48.79
   5   8   3   30.79   18.97
   5   8   4   14.36   13.12
   5   8   5  310.64   46.13
   5   8   6  405.86   52.14
   5   8   7    9.69   11.92
   5   8   8  150.00   34.96
   5   8   9   79.91   27.86
   5   8  10   13.31   15.17
   5   8  11  223.11   43.68
   5   9  -2   -2.36   10.35
   5   9  -1   -4.32   11.60
   5   9   0  193.77   36.13
   5   9   1   38.36   18.86
   5   9   2  149.38   36.02
   5   9   3   12.84   13.85
   5   9   4   -6.69    9.86
   5   9   5   76.44   24.66
   5   9   6  205.05   39.08
   5   9   7   26.44   21.98
   5   9   8   48.48   23.48
   6  -6  -1  107.86   32.49
   6  -6   0   41.03   20.00
   6  -6   1   25.28   16.17
   6  -5  -1  200.90   39.79
   6  -5   0   58.22   25.16
   6  -5   1   49.42   20.44
   6  -5   2   88.72   29.92
   6  -5   3   25.19   11.79
   6  -5   4   28.56   20.87
   6  -5   5  209.77   43.80
   6  -5   6   75.90   29.73
   6  -4   0  148.76   33.52
   6  -4   1   16.54   10.95
   6  -4   2   69.95   22.70
   6  -4   3   16.13   12.16
   6  -4   4   23.71   17.60
   6  -4   5   93.32   27.69
   6  -4   6   27.72   16.82
   6  -4   7   13.26   13.74
   6  -4   8   25.56   16.65
   6  -3   0  240.52   40.33
   6  -3   1   67.12   20.35
   6  -3   2  132.02   29.37
   6  -3   3  450.06   53.62
   6  -3   4   -1.73   11.73
   6  -3   5   38.82   17.58
   6  -3   6   34.78   18.59
   6  -3   7   54.31   23.72
   6  -3   8   69.62   25.21
   6  -3   9   54.28   22.37
   6  -3  10   46.83   21.15
   6  -2   0  184.67   32.20
   6  -2   1  278.96   40.16
   6  -2   2   12.23   10.87
   6  -2   3  238.22   36.65
   6  -2   4    1.50    7.66
   6  -2   5  290.47   42.17
   6  -2   6   46.98   18.25
   6  -2   7  210.32   38.50
   6  -2   8  427.11   53.50
   6  -2   9  161.34   35.53
   6  -2  10   41.63   16.74
   6  -2  11    7.11    8.97
   6  -1   1  399.77   44.42
   6  -1   2   60.76   13.18
   6  -1   2   30.64   15.57
   6  -1   3  404.85   46.37
   6  -1   3  308.95   25.95
   6  -1   4  372.05   44.11
   6  -1   5    1.26    8.17
   6  -1   6  439.57   48.31
   6  -1   7   72.09   21.19
   6  -1   8  168.67   33.07
   6  -1   9   87.56   23.74
   6  -1  10   24.43   18.97
   6  -1  11    7.20    9.38
   6  -1  12  134.04   32.05
   6   0   2   76.30   19.35
   6   0   3  297.45   36.73
   6   0   3  237.26   25.62
   6   0   4  667.59   54.85
   6   0   4  557.38   37.37
   6   0   5  247.83   35.35
   6   0   5  299.26   25.75
   6   0   6 1631.29   87.66
   6   0   7  136.30   26.42
   6   0   8   40.78   15.28
   6   0   9   28.03   13.90
   6   0  10  182.86   34.28
   6   0  11   26.72   15.79
   6   0  12  149.42   33.70
   6   0  13  157.67   34.08
   6   1   2  180.86   26.85
   6   1   3  103.66   20.46
   6   1   4 1205.79   67.98
   6   1   5  290.39   33.94
   6   1   6    4.51    8.57
   6   1   7    7.03    7.46
   6   1   8   42.92   15.30
   6   1   9  128.63   25.61
   6   1  10  189.27   31.91
   6   1  11   14.58   10.92
   6   1  12   12.51   11.29
   6   1  13   64.19   21.32
   6   1  14   -8.55   12.97
   6   2   4 1185.19   61.11
   6   2   5   60.12   15.87
   6   2   6    5.89    7.97
   6   2   7  549.10   44.42
   6   2   8  209.45   29.07
   6   2   9  107.64   22.18
   6   2  10  130.06   24.79
   6   2  11   29.16   14.13
   6   2  12    9.54    5.75
   6   2  13  137.58   29.59
   6   3   5   35.38   10.47
   6   3   6    6.60    7.20
   6   3   7  506.78   39.07
   6   3   8  376.70   34.95
   6   3   9   14.46    9.47
   6   3  10  112.72   21.64
   6   3  11  211.54   30.67
   6   4   7  199.25   19.85
   6   4   8  328.26   27.77
   6   5  -3  105.52   20.60
   6   5  -2   10.94    7.30
   6   5  -1  234.69   32.70
   6   5   0  138.10   26.51
   6   5   1  158.22   27.86
   6   5   2  126.38   25.96
   6   5   3  209.20   34.05
   6   5   4   43.28   18.94
   6   6  -2   66.63   22.39
   6   6  -1  156.45   29.26
   6   6   0  102.89   23.51
   6   6   1   65.59   20.09
   6   6   2   -0.76   12.13
   6   6   3  634.02   59.37
   6   6   4   27.44   13.37
   6   6   5   79.16   24.75
   6   6   6   46.60   21.11
   6   6   7    4.00   11.88
   6   7  -2   35.13   17.69
   6   7  -1   30.94   15.75
   6   7   0   32.03   15.69
   6   7   1    5.24   11.21
   6   7   2  252.49   41.28
   6   7   3  340.67   45.96
   6   7   4   18.41   16.05
   6   7   5  135.79   31.43
   6   7   6   50.41   21.76
   6   7   7   87.58   26.95
   6   7   8  578.22   65.37
   6   7   9  356.55   54.53
   6   8  -2    5.06   11.43
   6   8  -1    4.90   12.96
   6   8   0   41.10   20.35
   6   8   1  370.88   50.35
   6   8   2  116.74   28.10
   6   8   3   87.19   25.13
   6   8   4   71.59   24.35
   6   8   5  125.60   31.36
   6   8   6  316.96   49.03
   6   8   7   98.09   28.95
   6   8   8  -27.07   17.31
   6   8   9   18.08   12.81
   6   9  -1   18.45   14.73
   6   9   0  166.84   34.78
   6   9   1  212.93   36.97
   6   9   2    6.67    8.66
   6   9   3  186.49   40.09
   6   9   4   57.15   22.63
   6   9   5   25.56   15.98
   6   9   6  238.63   45.07
   7  -4   0  146.91   35.51
   7  -4   1  124.82   34.36
   7  -4   2   53.05   22.08
   7  -4   3  142.62   34.66
   7  -4   4   53.20   20.01
   7  -4   5   30.01   18.93
   7  -3   1   55.70   24.08
   7  -3   2  145.96   33.78
   7  -3   3  212.89   41.38
   7  -3   4   63.29   22.11
   7  -3   5   27.53   21.73
   7  -3   6   16.65   20.11
   7  -3   7   79.76   29.76
   7  -3   8   19.79   16.88
   7  -2   1  192.45   36.01
   7  -2   2  135.55   30.99
   7  -2   3   57.23   21.01
   7  -2   4   47.33   19.05
   7  -2   5   13.24   13.19
   7  -2   6   60.53   22.35
   7  -2   7  264.51   45.46
   7  -2   8    7.38   10.28
   7  -2   9   58.06   22.43
   7  -2  10   75.96   30.81
   7  -1   2   37.36   16.47
   7  -1   3    1.50    8.49
   7  -1   4  106.55   27.16
   7  -1   5  163.26   31.50
   7  -1   6  235.88   38.61
   7  -1   7  269.81   41.95
   7  -1   8   20.35   16.30
   7  -1   9   26.31   17.45
   7  -1  10   32.28   18.29
   7  -1  11   41.60   20.05
   7   0   2   78.63   22.16
   7   0   3   10.75    7.94
   7   0   4   87.66   21.81
   7   0   5  346.22   43.73
   7   0   6  102.88   25.35
   7   0   7   51.01   16.52
   7   0   8   84.37   22.15
   7   0   9   21.50   12.26
   7   0  10    0.92    8.93
   7   0  11   28.87   15.36
   7   0  12   -1.90    9.45
   7   0  13   21.07   12.87
   7   1   3    5.98   11.71
   7   1   4  533.27   50.03
   7   1   5  135.44   26.26
   7   1   6    4.91    8.40
   7   1   7   56.38   18.64
   7   1   8    8.24   11.39
   7   1   9   38.83   17.19
   7   1  10  304.21   42.79
   7   1  11   56.76   20.60
   7   1  12   -2.42    9.70
   7   1  13    3.81   12.09
   7   2   4  157.27   24.60
   7   2   5   20.62   12.55
   7   2   6   91.07   20.12
   7   2   7   23.86   11.99
   7   2   8  118.03   23.62
   7   2   9   16.97   12.28
   7   2  10  135.04   27.49
   7   2  11  154.26   29.25
   7   3   6   44.94   12.98
   7   3   7   31.97   12.66
   7   3   8  411.27   39.47
   7   6  -1   -9.02    7.78
   7   6   0  147.56   30.48
   7   6   1   36.77   17.40
   7   6   2   20.93   15.07
   7   6   3  358.90   47.65
   7   7  -1   16.95   16.06
   7   7   0   34.25   18.58
   7   7   1  209.87   37.96
   7   7   2   19.38   17.34
   7   7   3   84.99   27.45
   7   7   4  324.67   49.08
   7   7   5   10.32   12.82
   7   7   6  121.58   35.44
   7   8   0    7.07   10.71
   7   8   1  101.92   28.72
   7   8   2   22.37   14.99
   7   8   3   89.38   26.30
   7   8   4   71.56   23.83
   7   8   5    3.21   14.51
   7   8   6   59.04   24.52
   7   8   7  -13.79   14.74
   7   9   0    2.55    8.76
   7   9   1   16.04   16.86
   7   9   2   17.15   16.06
   8  -3   2   63.48   25.44
   8  -3   3   43.94   21.81
   8  -3   4  111.58   33.01
   8  -2   2   60.13   22.28
   8  -2   3   30.02   20.01
   8  -2   4   92.42   29.04
   8  -2   5   52.19   22.07
   8  -2   6   15.60   18.88
   8  -2   7   43.59   21.70
   8  -2   8    1.27    8.54
   8  -1   3   29.11   18.79
   8  -1   4   19.78   13.77
   8  -1   5   29.52   17.79
   8  -1   6   16.76   16.88
   8  -1   7  172.37   36.33
   8  -1   8  163.29   35.41
   8  -1   9   -2.22   13.52
   8  -1  10    8.20   10.41
   8   0   3   -1.46    9.81
   8   0   4   46.39   16.86
   8   0   5   87.24   22.88
   8   0   6    9.60    8.48
   8   0   7  102.51   28.11
   8   0   8  107.92   26.85
   8   0   9   -2.07    8.11
   8   0  10   80.05   28.25
   8   0  11   26.49   13.18
   8   1   4   16.24   14.71
   8   1   5  229.83   36.19
   8   1   6    8.80   10.90
   8   1   7   26.74   15.03
   8   1   8  305.90   42.89
   8   1   9  264.92   41.37
   8   1  10   29.68   16.73
   8   1  11   91.55   26.76
   8   2   5  146.57   26.81
   8   2   6   93.50   22.62
   8   2   7   48.01   16.94
   8   2   8    1.17    6.62
   8   2   9   47.56   16.89
   8   8   1   73.11   26.36
   8   8   2   48.52   20.63
   8   8   3   34.40   22.65
   8   8   4  202.32   42.22
   9  -1   4   39.73   20.39
   9  -1   5   -6.97   10.42
   9  -1   6   27.33   18.97
   9  -1   7   34.81   18.31
   9   0   5   74.19   24.40
   9   0   6   15.40   15.62
   9   0   7   18.06   15.85
   9   0   8   99.21   28.84
   9   0   9  114.47   31.26
   9   1   5   18.07   13.05
   9   1   6   15.12   11.88
   9   1   7   25.09   15.97
   9   1   8   59.56   23.89
   0   0   0    0.00    0.00

_computing_structure_solution     'SHELXT 2018/2 (Sheldrick, 2018)'
;
loop_
_space_group_symop_operation_xyz
'x, y, z'
'-x, -y, -z'
loop_
_atom_site_label
_atom_site_type_symbol
_atom_site_fract_x
_atom_site_fract_y
_atom_site_fract_z
_atom_site_U_iso_or_equiv
_atom_site_adp_type
_atom_site_occupancy
_atom_site_site_symmetry_order
_atom_site_calc_flag
_atom_site_refinement_flags_posn
_atom_site_refinement_flags_adp
_atom_site_refinement_flags_occupancy
_atom_site_disorder_assembly
_atom_site_disorder_group
Zn1 Zn 0.39487(7) -0.04929(6) 0.17140(4) 0.02808(17) Uani 1 1 d . . . . .
O1 O 0.5265(4) 0.0752(4) 0.2345(2) 0.0329(7) Uani 1 1 d . . . . .
O2 O 0.2504(4) 0.1432(4) 0.3528(3) 0.0415(8) Uani 1 1 d . . . . .
O3 O 0.7020(4) 0.8984(3) 0.9672(2) 0.0315(7) Uani 1 1 d . . . . .
O4 O 0.5634(4) 0.7367(3) 1.1270(2) 0.0312(7) Uani 1 1 d . . . . .
N1 N 0.8378(4) 0.1459(4) 0.7303(3) 0.0242(8) Uani 1 1 d . . . . .
H1 H 0.904927 0.059783 0.680304 0.029 Uiso 1 1 calc R U . . .
C1 C 0.4206(6) 0.1377(5) 0.3234(4) 0.0278(10) Uani 1 1 d . . . . .
C2 C 0.5157(6) 0.2007(5) 0.3991(3) 0.0245(9) Uani 1 1 d . . . . .
C3 C 0.7092(6) 0.1910(5) 0.3717(4) 0.0321(10) Uani 1 1 d . . . . .
H3 H 0.779258 0.157377 0.300797 0.039 Uiso 1 1 calc R U . . .
C4 C 0.7978(6) 0.2305(5) 0.4483(4) 0.0334(10) Uani 1 1 d . . . . .
H4 H 0.926755 0.223642 0.428774 0.040 Uiso 1 1 calc R U . . .
C5 C 0.6950(6) 0.2805(5) 0.5543(3) 0.0277(10) Uani 1 1 d . . . . .
C6 C 0.5020(6) 0.2985(5) 0.5796(3) 0.0287(10) Uani 1 1 d . . . . .
H6 H 0.431327 0.338737 0.648197 0.034 Uiso 1 1 calc R U . . .
C7 C 0.4142(6) 0.2567(5) 0.5031(3) 0.0294(10) Uani 1 1 d . . . . .
H7 H 0.284842 0.266442 0.521904 0.035 Uiso 1 1 calc R U . . .
C8 C 0.7944(6) 0.3092(5) 0.6429(4) 0.0325(10) Uani 1 1 d . . . . .
H8A H 0.909678 0.347862 0.600660 0.039 Uiso 1 1 calc R U . . .
H8B H 0.715657 0.398991 0.685310 0.039 Uiso 1 1 calc R U . . .
C9 C 0.9766(6) 0.1532(5) 0.8002(3) 0.0270(9) Uani 1 1 d . . . . .
H9A H 1.095361 0.165128 0.746140 0.032 Uiso 1 1 calc R U . . .
H9B H 0.996492 0.045570 0.856850 0.032 Uiso 1 1 calc R U . . .
C10 C 0.9098(5) 0.3033(5) 0.8667(3) 0.0238(9) Uani 1 1 d . . . . .
C11 C 0.9651(6) 0.4602(5) 0.8147(3) 0.0261(9) Uani 1 1 d . . . . .
H11 H 1.052979 0.468940 0.743330 0.031 Uiso 1 1 calc R U . . .
C12 C 0.8907(5) 0.6027(5) 0.8680(3) 0.0246(9) Uani 1 1 d . . . . .
H12 H 0.927627 0.707377 0.831274 0.030 Uiso 1 1 calc R U . . .
C13 C 0.7622(5) 0.5936(5) 0.9750(3) 0.0209(8) Uani 1 1 d . . . . .
C14 C 0.7127(6) 0.4337(5) 1.0307(3) 0.0251(9) Uani 1 1 d . . . . .
H14 H 0.629213 0.423568 1.103915 0.030 Uiso 1 1 calc R U . . .
C15 C 0.7883(6) 0.2906(5) 0.9767(3) 0.0262(9) Uani 1 1 d . . . . .
H15 H 0.756932 0.184162 1.014963 0.031 Uiso 1 1 calc R U . . .
C16 C 0.6699(5) 0.7527(5) 1.0257(4) 0.0234(9) Uani 1 1 d . . . . .
loop_
_atom_site_aniso_label
_atom_site_aniso_U_11
_atom_site_aniso_U_22
_atom_site_aniso_U_33
_atom_site_aniso_U_23
_atom_site_aniso_U_13
_atom_site_aniso_U_12
Zn1 0.0316(3) 0.0259(3) 0.0289(3) -0.0090(2) -0.0068(2) -0.0053(2)
O1 0.0371(18) 0.0408(18) 0.0275(15) -0.0130(14) -0.0049(14) -0.0152(14)
O2 0.0319(19) 0.052(2) 0.0482(19) -0.0165(16) -0.0140(16) -0.0088(15)
O3 0.0443(19) 0.0190(15) 0.0356(17) -0.0041(13) -0.0176(15) -0.0054(13)
O4 0.0374(18) 0.0267(16) 0.0271(16) -0.0103(13) -0.0034(14) -0.0001(13)
N1 0.028(2) 0.0236(18) 0.0242(18) -0.0124(15) -0.0048(16) -0.0037(14)
C1 0.034(3) 0.020(2) 0.031(2) -0.0009(19) -0.013(2) -0.0055(18)
C2 0.030(2) 0.020(2) 0.023(2) -0.0048(17) -0.0044(19) -0.0049(17)
C3 0.031(3) 0.039(3) 0.026(2) -0.014(2) 0.003(2) -0.007(2)
C4 0.026(2) 0.043(3) 0.032(2) -0.008(2) -0.002(2) -0.011(2)
C5 0.037(3) 0.027(2) 0.023(2) -0.0024(18) -0.011(2) -0.0108(19)
C6 0.035(3) 0.029(2) 0.021(2) -0.0078(18) -0.004(2) -0.0030(19)
C7 0.022(2) 0.033(2) 0.030(2) -0.005(2) -0.004(2) -0.0028(18)
C8 0.043(3) 0.029(2) 0.032(2) -0.007(2) -0.015(2) -0.010(2)
C9 0.028(2) 0.025(2) 0.029(2) -0.0088(18) -0.010(2) 0.0010(18)
C10 0.023(2) 0.024(2) 0.028(2) -0.0103(18) -0.0121(19) 0.0004(17)
C11 0.025(2) 0.029(2) 0.025(2) -0.0084(18) -0.0036(19) -0.0055(18)
C12 0.025(2) 0.024(2) 0.027(2) -0.0019(18) -0.0087(19) -0.0073(17)
C13 0.021(2) 0.021(2) 0.025(2) -0.0081(17) -0.0117(18) -0.0017(16)
C14 0.026(2) 0.028(2) 0.023(2) -0.0073(18) -0.0048(18) -0.0072(18)
C15 0.034(3) 0.022(2) 0.027(2) -0.0047(18) -0.013(2) -0.0090(18)
C16 0.022(2) 0.024(2) 0.027(2) -0.0054(18) -0.0139(19) -0.0007(17)
loop_
_atom_type_symbol
_atom_type_description
_atom_type_scat_dispersion_real
_atom_type_scat_dispersion_imag
_atom_type_scat_source
C C 0.0033 0.0016 'International Tables Vol C Tables 4.2.6.8 and 6.1.1.4'
H H 0.0000 0.0000 'International Tables Vol C Tables 4.2.6.8 and 6.1.1.4'
N N 0.0061 0.0033 'International Tables Vol C Tables 4.2.6.8 and 6.1.1.4'
O O 0.0106 0.0060 'International Tables Vol C Tables 4.2.6.8 and 6.1.1.4'
Zn Zn 0.2839 1.4301 'International Tables Vol C Tables 4.2.6.8 and 6.1.1.4'
loop_
_geom_angle_atom_site_label_1
_geom_angle_atom_site_label_2
_geom_angle_atom_site_label_3
_geom_angle
_geom_angle_site_symmetry_1
_geom_angle_site_symmetry_3
O1 Zn1 O3 109.81(11) . 2_666
O1 Zn1 O4 109.95(12) . 1_544
O1 Zn1 N1 123.13(12) . 2_656
O3 Zn1 N1 101.54(12) 2_666 2_656
O4 Zn1 O3 111.17(11) 1_544 2_666
O4 Zn1 N1 100.61(12) 1_544 2_656
C1 O1 Zn1 110.7(3) . .
C16 O3 Zn1 130.7(2) . 2_666
C16 O4 Zn1 116.3(2) . 1_566
Zn1 N1 H1 104.2 2_656 .
C8 N1 Zn1 114.0(2) . 2_656
C8 N1 H1 104.2 . .
C8 N1 C9 112.9(3) . .
C9 N1 Zn1 115.7(2) . 2_656
C9 N1 H1 104.2 . .
O1 C1 C2 116.3(4) . .
O2 C1 O1 124.4(4) . .
O2 C1 C2 119.3(4) . .
C3 C2 C1 121.3(4) . .
C7 C2 C1 120.3(4) . .
C7 C2 C3 118.3(4) . .
C2 C3 H3 119.5 . .
C4 C3 C2 120.9(4) . .
C4 C3 H3 119.5 . .
C3 C4 H4 119.9 . .
C3 C4 C5 120.1(4) . .
C5 C4 H4 119.9 . .
C4 C5 C8 120.0(4) . .
C6 C5 C4 119.4(4) . .
C6 C5 C8 120.6(4) . .
C5 C6 H6 120.0 . .
C7 C6 C5 120.1(4) . .
C7 C6 H6 120.0 . .
C2 C7 H7 119.5 . .
C6 C7 C2 121.0(4) . .
C6 C7 H7 119.5 . .
N1 C8 C5 110.7(3) . .
N1 C8 H8A 109.5 . .
N1 C8 H8B 109.5 . .
C5 C8 H8A 109.5 . .
C5 C8 H8B 109.5 . .
H8A C8 H8B 108.1 . .
N1 C9 H9A 109.3 . .
N1 C9 H9B 109.3 . .
N1 C9 C10 111.7(3) . .
H9A C9 H9B 107.9 . .
C10 C9 H9A 109.3 . .
C10 C9 H9B 109.3 . .
C11 C10 C9 119.7(4) . .
C15 C10 C9 121.6(3) . .
C15 C10 C11 118.6(4) . .
C10 C11 H11 119.8 . .
C12 C11 C10 120.4(4) . .
C12 C11 H11 119.8 . .
C11 C12 H12 119.3 . .
C11 C12 C13 121.3(4) . .
C13 C12 H12 119.3 . .
C12 C13 C14 118.5(4) . .
C12 C13 C16 120.5(3) . .
C14 C13 C16 120.9(4) . .
C13 C14 H14 120.1 . .
C15 C14 C13 119.9(4) . .
C15 C14 H14 120.1 . .
C10 C15 H15 119.5 . .
C14 C15 C10 121.1(4) . .
C14 C15 H15 119.5 . .
O3 C16 C13 119.6(4) . .
O4 C16 O3 122.1(4) . .
O4 C16 C13 118.3(3) . .
loop_
_geom_bond_atom_site_label_1
_geom_bond_atom_site_label_2
_geom_bond_distance
_geom_bond_site_symmetry_2
Zn1 O1 1.938(3) .
Zn1 O3 1.978(3) 2_666
Zn1 O4 1.977(3) 1_544
Zn1 N1 2.059(3) 2_656
O1 C1 1.273(5) .
O2 C1 1.232(5) .
O3 C16 1.264(4) .
O4 C16 1.257(4) .
N1 H1 0.9800 .
N1 C8 1.494(5) .
N1 C9 1.501(5) .
C1 C2 1.509(5) .
C2 C3 1.396(5) .
C2 C7 1.383(5) .
C3 H3 0.9300 .
C3 C4 1.379(5) .
C4 H4 0.9300 .
C4 C5 1.386(6) .
C5 C6 1.386(6) .
C5 C8 1.514(5) .
C6 H6 0.9300 .
C6 C7 1.383(5) .
C7 H7 0.9300 .
C8 H8A 0.9700 .
C8 H8B 0.9700 .
C9 H9A 0.9700 .
C9 H9B 0.9700 .
C9 C10 1.515(5) .
C10 C11 1.388(5) .
C10 C15 1.384(5) .
C11 H11 0.9300 .
C11 C12 1.374(5) .
C12 H12 0.9300 .
C12 C13 1.382(5) .
C13 C14 1.400(5) .
C13 C16 1.489(5) .
C14 H14 0.9300 .
C14 C15 1.383(5) .
C15 H15 0.9300 .
loop_
_geom_torsion_atom_site_label_1
_geom_torsion_atom_site_label_2
_geom_torsion_atom_site_label_3
_geom_torsion_atom_site_label_4
_geom_torsion
_geom_torsion_site_symmetry_1
_geom_torsion_site_symmetry_2
_geom_torsion_site_symmetry_3
_geom_torsion_site_symmetry_4
Zn1 O1 C1 O2 -11.1(5) . . . .
Zn1 O1 C1 C2 166.0(3) . . . .
Zn1 O3 C16 O4 -103.5(4) 2_666 . . .
Zn1 O3 C16 C13 77.4(5) 2_666 . . .
Zn1 O4 C16 O3 16.5(5) 1_566 . . .
Zn1 O4 C16 C13 -164.4(2) 1_566 . . .
Zn1 N1 C8 C5 -59.8(4) 2_656 . . .
Zn1 N1 C9 C10 -76.5(3) 2_656 . . .
O1 C1 C2 C3 0.3(6) . . . .
O1 C1 C2 C7 -174.4(3) . . . .
O2 C1 C2 C3 177.6(4) . . . .
O2 C1 C2 C7 2.8(6) . . . .
N1 C9 C10 C11 -94.0(4) . . . .
N1 C9 C10 C15 83.4(4) . . . .
C1 C2 C3 C4 -172.7(4) . . . .
C1 C2 C7 C6 173.5(3) . . . .
C2 C3 C4 C5 0.1(6) . . . .
C3 C2 C7 C6 -1.4(6) . . . .
C3 C4 C5 C6 -3.1(6) . . . .
C3 C4 C5 C8 174.8(4) . . . .
C4 C5 C6 C7 3.9(6) . . . .
C4 C5 C8 N1 -90.9(5) . . . .
C5 C6 C7 C2 -1.6(6) . . . .
C6 C5 C8 N1 87.1(5) . . . .
C7 C2 C3 C4 2.2(6) . . . .
C8 N1 C9 C10 57.3(4) . . . .
C8 C5 C6 C7 -174.1(4) . . . .
C9 N1 C8 C5 165.6(3) . . . .
C9 C10 C11 C12 173.2(4) . . . .
C9 C10 C15 C14 -173.1(4) . . . .
C10 C11 C12 C13 1.1(6) . . . .
C11 C10 C15 C14 4.4(6) . . . .
C11 C12 C13 C14 1.9(6) . . . .
C11 C12 C13 C16 -174.3(3) . . . .
C12 C13 C14 C15 -1.8(6) . . . .
C12 C13 C16 O3 3.8(5) . . . .
C12 C13 C16 O4 -175.4(3) . . . .
C13 C14 C15 C10 -1.4(6) . . . .
C14 C13 C16 O3 -172.3(3) . . . .
C14 C13 C16 O4 8.5(5) . . . .
C15 C10 C11 C12 -4.2(6) . . . .
C16 C13 C14 C15 174.4(3) . . . .
