#------------------------------------------------------------------------------
#$Date: 2022-04-01 10:36:57 +0300 (Fri, 01 Apr 2022) $
#$Revision: 274196 $
#$URL: file:///home/coder/svn-repositories/cod/cif/8/10/49/8104983.cif $
#------------------------------------------------------------------------------
#
# This file is available in the Crystallography Open Database (COD),
# http://www.crystallography.net/
#
# All data on this site have been placed in the public domain by the
# contributors.
#
data_8104983
loop_
_publ_author_name
'Jin, Ze-Sen'
'Liu, Xiao-jing'
'Liu, E.'
'Jian, Fang-fang'
'Liang, Tongling'
_publ_section_title
;
 Crystal structure of 2-((E)-(((E)-2-hydroxy-4-methylbenzylidene)
 hydrazineylidene)methyl)-4-methylphenol, C16H16N2O2
;
_journal_issue                   1
_journal_name_full
'Zeitschrift f\"ur Kristallographie - New Crystal Structures'
_journal_page_first              141
_journal_page_last               142
_journal_paper_doi               10.1515/ncrs-2021-0411
_journal_volume                  237
_journal_year                    2022
_chemical_formula_moiety         'C16 H16 N2 O2'
_chemical_formula_sum            'C16 H16 N2 O2'
_chemical_formula_weight         268.31
_space_group_crystal_system      monoclinic
_space_group_IT_number           14
_space_group_name_Hall           '-P 2ybc'
_space_group_name_H-M_alt        'P 1 21/c 1'
_atom_sites_solution_hydrogens   geom
_atom_sites_solution_primary     dual
_cell_angle_alpha                90
_cell_angle_beta                 96.1660(10)
_cell_angle_gamma                90
_cell_formula_units_Z            2
_cell_length_a                   8.67660(10)
_cell_length_b                   5.90390(10)
_cell_length_c                   13.3603(2)
_cell_measurement_reflns_used    5821
_cell_measurement_temperature    169.98(11)
_cell_measurement_theta_max      74.6190
_cell_measurement_theta_min      5.0970
_cell_volume                     680.432(17)
_computing_cell_refinement       'CrysAlisPro 1.171.40.67a (Rigaku OD, 2019)'
_computing_data_collection       'CrysAlisPro 1.171.40.67a (Rigaku OD, 2019)'
_computing_data_reduction        'CrysAlisPro 1.171.40.67a (Rigaku OD, 2019)'
_computing_molecular_graphics    'Olex2 1.3 (Dolomanov et al., 2009)'
_computing_publication_material  'Olex2 1.3 (Dolomanov et al., 2009)'
_computing_structure_refinement  'SHELXL 2018/3 (Sheldrick, 2015)'
_computing_structure_solution    'SHELXT 2018/2 (Sheldrick, 2018)'
_diffrn_ambient_environment      N~2~
_diffrn_ambient_temperature      169.98(11)
_diffrn_detector                 'Hybrid Pixel Array Detector'
_diffrn_detector_area_resol_mean 10.0000
_diffrn_detector_type            HyPix
_diffrn_measured_fraction_theta_full 0.998
_diffrn_measured_fraction_theta_max 0.962
_diffrn_measurement_details
;
List of Runs (angles in degrees, time in seconds):

  # Type    Start    End  Width  t~exp~   \w     \q     \k     \f   Frames
--------------------------------------------------------------------------
  1  \w   -114.00 -61.00   0.50    0.15    --  -47.57 -16.00  47.00  106
  2  \w    -21.00   4.00   0.50    0.15    --  -47.57  16.00-142.00   50
  3  \w     40.00  79.00   0.50    0.15    --   47.57  16.00-142.00   78
  4  \w     -8.00  18.00   0.50    0.15    --   47.57 -16.00  47.00   52
  5  \w   -142.00-116.00   0.50    0.30    --  -99.00 -16.00  47.00   52
  6  \w     96.00 167.00   0.50    0.30    --  103.25  16.00-142.00  142
  7  \w    -74.00 -33.00   0.50    0.15    --  -47.57 -57.00 -60.00   82
  8  \w    -62.00 -37.00   0.50    0.15    --  -47.57 -19.00 -60.00   50
  9  \w    -77.00 -30.00   0.50    0.15    --  -47.57 -77.00 -90.00   94
 10  \w    -63.00 -25.00   0.50    0.15    --  -47.57 -77.00 -30.00   76
 11  \w    -39.00  23.00   0.50    0.15    --  -47.57  38.00 -30.00  124
 12  \w    -78.00 -36.00   0.50    0.15    --  -47.57 -38.00 -30.00   84
 13  \w    -27.00  24.00   0.50    0.15    --   47.57 -19.00 -90.00  102
 14  \w    -26.00  28.00   0.50    0.15    --   47.57 -19.00 -30.00  108
 15  \w   -121.00 -87.00   0.50    0.30    --  -99.00 -47.00 -41.25   68
 16  \w   -101.00 -76.00   0.50    0.30    --  -99.00 -77.00  30.00   50
 17  \w   -168.00-108.00   0.50    0.30    --  -99.00 -77.00  30.00  120
 18  \w   -110.00 -82.00   0.50    0.30    --  -99.00 -62.00 -32.69   56
 19  \w   -113.00 -87.00   0.50    0.30    --  -99.00 -30.00   0.00   52
 20  \w   -102.00 -76.00   0.50    0.30    --  -99.00 -77.00 -30.00   52
 21  \w   -115.00 -85.00   0.50    0.30    --  -99.00 -56.00 -59.75   60
 22  \w   -110.00 -76.00   0.50    0.30    --  -99.00 -77.00   0.00   68
 23  \w   -111.00 -85.00   0.50    0.30    --  -99.00 -61.00 -64.27   52
 24  \w   -167.00-107.00   0.50    0.30    --  -99.00 -77.00 -60.00  120
 25  \w   -107.00 -82.00   0.50    0.30    --  -99.00 -63.00 -54.42   50
 26  \w   -165.00-135.00   0.50    0.30    --  -99.00 -77.00   0.00   60
 27  \w   -164.00-117.00   0.50    0.30    --  -99.00 -61.00 -64.27   94
 28  \w   -133.00 -87.00   0.50    0.30    --  -99.00 -47.00 -58.58   92
 29  \w   -105.00 -77.00   0.50    0.30    --  -99.00 -75.00  14.05   56
 30  \w   -151.00-125.00   0.50    0.30    --  -99.00 -77.00 -94.05   52
 31  \w   -163.00-132.00   0.50    0.30    --  -99.00 -75.00  14.05   62
 32  \w   -102.00 -76.00   0.50    0.30    --  -99.00 -77.00 -60.00   52
 33  \w   -155.00-129.00   0.50    0.30    --  -99.00 -77.00 -30.00   52
 34  \w   -116.00 -83.00   0.50    0.30    --  -99.00 -61.00 -90.00   66
 35  \w    -69.00 -26.00   0.50    0.30    --  -99.00 125.00 -30.00   86
 36  \w   -111.00 -86.00   0.50    0.30    --  -99.00 -55.00  16.47   50
 37  \w   -115.00 -80.00   0.50    0.30    --  -99.00 -71.00 -81.03   70
 38  \w   -103.00 -78.00   0.50    0.30    --  -99.00 -77.00 -94.05   50
 39  \w   -112.00 -82.00   0.50    0.30    --  -99.00 -63.00 -66.96   60
 40  \w   -101.00 -75.00   0.50    0.30    --  -99.00 -79.00 -81.89   52
 41  \w   -167.00-142.00   0.50    0.30    --  -99.00 -63.00 -54.42   50
 42  \w     76.00 111.00   0.50    0.30    --  103.25-125.00  30.00   70
 43  \w     39.00  71.00   0.50    0.30    --  103.25-125.00  30.00   64
 44  \w     47.00  73.00   0.50    0.30    --  103.25 -61.00 -60.00   52
 45  \w     31.00  74.00   0.50    0.30    --  103.25 -61.00  90.00   86
 46  \w     82.00 111.00   0.50    0.30    --  103.25  77.00-120.00   58
 47  \w     68.00 104.00   0.50    0.30    --  103.25 -94.00  30.00   72
 48  \w     32.00  58.00   0.50    0.30    --  103.25 -94.00  30.00   52
 49  \w     32.00  70.00   0.50    0.30    --  103.25 -61.00-120.00   76
 50  \w     31.00  75.00   0.50    0.30    --  103.25 -61.00-150.00   88
 51  \w     34.00  74.00   0.50    0.30    --  103.25 -61.00 -90.00   80
;
_diffrn_measurement_device       'four-circle diffractometer'
_diffrn_measurement_device_type  'XtaLAB Synergy R, HyPix'
_diffrn_measurement_method       '\w scans'
_diffrn_orient_matrix_type
'CrysAlisPro convention (1999,Acta A55,543-557)'
_diffrn_orient_matrix_UB_11      -0.1746422000
_diffrn_orient_matrix_UB_12      -0.0368966000
_diffrn_orient_matrix_UB_13      -0.0298302000
_diffrn_orient_matrix_UB_21      0.0232915000
_diffrn_orient_matrix_UB_22      0.0409705000
_diffrn_orient_matrix_UB_23      -0.1112344000
_diffrn_orient_matrix_UB_31      0.0288927000
_diffrn_orient_matrix_UB_32      -0.2551618000
_diffrn_orient_matrix_UB_33      -0.0135740000
_diffrn_radiation_monochromator  mirror
_diffrn_radiation_probe          x-ray
_diffrn_radiation_type           'Cu K\a'
_diffrn_radiation_wavelength     1.54184
_diffrn_reflns_av_R_equivalents  0.0216
_diffrn_reflns_av_unetI/netI     0.0133
_diffrn_reflns_Laue_measured_fraction_full 0.998
_diffrn_reflns_Laue_measured_fraction_max 0.962
_diffrn_reflns_limit_h_max       10
_diffrn_reflns_limit_h_min       -10
_diffrn_reflns_limit_k_max       6
_diffrn_reflns_limit_k_min       -7
_diffrn_reflns_limit_l_max       16
_diffrn_reflns_limit_l_min       -16
_diffrn_reflns_number            8108
_diffrn_reflns_point_group_measured_fraction_full 0.998
_diffrn_reflns_point_group_measured_fraction_max 0.962
_diffrn_reflns_theta_full        67.684
_diffrn_reflns_theta_max         75.087
_diffrn_reflns_theta_min         5.127
_diffrn_source                   'Rotating-anode X-ray tube'
_diffrn_source_type              'PhotonJet R (Cu) X-ray Source'
_exptl_absorpt_coefficient_mu    0.706
_exptl_absorpt_correction_T_max  1.00000
_exptl_absorpt_correction_T_min  0.84061
_exptl_absorpt_correction_type   multi-scan
_exptl_absorpt_process_details
;
CrysAlisPro 1.171.40.67a (Rigaku Oxford Diffraction, 2019)
Empirical absorption correction using spherical harmonics,
 implemented in SCALE3 ABSPACK scaling algorithm.
;
_exptl_crystal_colour            brown
_exptl_crystal_colour_primary    brown
_exptl_crystal_density_diffrn    1.310
_exptl_crystal_description       plate
_exptl_crystal_F_000             284
_exptl_crystal_size_max          0.18
_exptl_crystal_size_mid          0.05
_exptl_crystal_size_min          0.02
_refine_diff_density_max         0.218
_refine_diff_density_min         -0.186
_refine_diff_density_rms         0.040
_refine_ls_extinction_coef       .
_refine_ls_extinction_method     none
_refine_ls_goodness_of_fit_ref   1.061
_refine_ls_hydrogen_treatment    constr
_refine_ls_matrix_type           full
_refine_ls_number_parameters     93
_refine_ls_number_reflns         1353
_refine_ls_number_restraints     0
_refine_ls_restrained_S_all      1.061
_refine_ls_R_factor_all          0.0409
_refine_ls_R_factor_gt           0.0395
_refine_ls_shift/su_max          0.001
_refine_ls_shift/su_mean         0.000
_refine_ls_structure_factor_coef Fsqd
_refine_ls_weighting_details
'w=1/[\s^2^(Fo^2^)+(0.0673P)^2^+0.1947P] where P=(Fo^2^+2Fc^2^)/3'
_refine_ls_weighting_scheme      calc
_refine_ls_wR_factor_gt          0.1183
_refine_ls_wR_factor_ref         0.1195
_reflns_Friedel_coverage         0.000
_reflns_Friedel_fraction_full    .
_reflns_Friedel_fraction_max     .
_reflns_number_gt                1277
_reflns_number_total             1353
_reflns_threshold_expression     'I > 2\s(I)'
_cod_data_source_file            suppl_j_ncrs-2021-0411_suppl.cif
_cod_data_source_block           tx9545
_cod_database_code               8104983
_chemical_oxdiff_formula         CHNOFe
_shelx_space_group_comment
;
The symmetry employed for this shelxl refinement is uniquely defined
by the following loop, which should always be used as a source of
symmetry information in preference to the above space-group names.
They are only intended as comments.
;
_reflns_odcompleteness_completeness 99.93
_reflns_odcompleteness_iscentric 1
_reflns_odcompleteness_theta     66.97
_olex2_refinement_description
;
1. Fixed Uiso
 At 1.2 times of:
  All C(H) groups
 At 1.5 times of:
  All C(H,H,H) groups, All O(H) groups
2.a Aromatic/amide H refined with riding coordinates:
 C3(H3), C5(H5), C7(H7), C8(H8)
2.b Idealised Me refined as rotating group:
 C6(H6A,H6B,H6C)
2.c Idealised tetrahedral OH refined as rotating group:
 O1(H1)
;
_shelx_res_file
;
TITL tx9545_a.res in P2(1)/c
    tx9545.res
    created by SHELXL-2018/3 at 11:24:28 on 22-Oct-2021
REM Old TITL TX9545 in P2(1)/c
REM SHELXT solution in P2(1)/c: R1 0.114, Rweak 0.083, Alpha 0.014
REM <I/s> 0.821 for 141 systematic absences, Orientation as input
REM Formula found by SHELXT: C7 N O
CELL 1.54184 8.6766 5.9039 13.3603 90 96.166 90
ZERR 2 0.0001 0.0001 0.0002 0 0.001 0
LATT 1
SYMM -X,0.5+Y,0.5-Z
SFAC C H N O
UNIT 32 32 4 4

L.S. 4
PLAN  25
CONF
HTAB O1 N1
BOND
LIST 6
fmap 2
acta
MORE -1
BOND $H
REM <olex2.extras>
REM <HklSrc "%.\\TX9545.hkl">
REM </olex2.extras>

WGHT    0.067300    0.194700
FVAR       1.17195
O1    4    0.302119    0.907278    0.597103    11.00000    0.04421    0.02936 =
         0.03583    0.00256    0.01058    0.00563
AFIX 147
H1    2    0.353891    0.839600    0.558820    11.00000   -1.50000
AFIX   0
N1    3    0.458029    0.561886    0.532419    11.00000    0.03005    0.02996 =
         0.03090   -0.00485    0.00750    0.00208
C1    1    0.278450    0.771307    0.675655    11.00000    0.02708    0.02661 =
         0.02977   -0.00217    0.00148   -0.00098
C2    1    0.343020    0.551833    0.686821    11.00000    0.02373    0.02700 =
         0.02968   -0.00410    0.00314   -0.00103
C3    1    0.315594    0.426831    0.772119    11.00000    0.02853    0.02676 =
         0.03388   -0.00067    0.00384    0.00113
AFIX  43
H3    2    0.358807    0.283174    0.781215    11.00000   -1.20000
AFIX   0
C4    1    0.159058    0.726314    0.830278    11.00000    0.02504    0.03778 =
         0.03215   -0.00844    0.00355    0.00018
C5    1    0.186393    0.852960    0.746725    11.00000    0.02904    0.02850 =
         0.03686   -0.00557    0.00252    0.00396
AFIX  43
H5    2    0.142139    0.996017    0.737928    11.00000   -1.20000
AFIX   0
C6    1    0.059159    0.821132    0.905522    11.00000    0.03688    0.05256 =
         0.03649   -0.00917    0.00886    0.00752
AFIX 137
H6A   2    0.122887    0.901629    0.956921    11.00000   -1.50000
H6B   2    0.006817    0.699536    0.935541    11.00000   -1.50000
H6C   2   -0.015986    0.922749    0.872127    11.00000   -1.50000
AFIX   0
C7    1    0.431693    0.452005    0.612072    11.00000    0.02566    0.02584 =
         0.03184   -0.00336    0.00338    0.00045
AFIX  43
H7    2    0.470294    0.305800    0.621841    11.00000   -1.20000
AFIX   0
C8    1    0.226287    0.510677    0.843074    11.00000    0.03133    0.03592 =
         0.03034    0.00014    0.00670   -0.00135
AFIX  43
H8    2    0.210639    0.424396    0.899337    11.00000   -1.20000
AFIX   0
HKLF 4




REM  tx9545_a.res in P2(1)/c
REM wR2 = 0.1195, GooF = S = 1.061, Restrained GooF = 1.061 for all data
REM R1 = 0.0395 for 1277 Fo > 4sig(Fo) and 0.0409 for all 1353 data
REM 93 parameters refined using 0 restraints

END

WGHT      0.0673      0.1947

REM Highest difference peak  0.218,  deepest hole -0.186,  1-sigma level  0.040
Q1    1   0.3048  0.6416  0.6759  11.00000  0.05    0.22
Q2    1   0.1964  0.6408  0.8384  11.00000  0.05    0.20
Q3    1   0.0836  0.7443  0.9745  11.00000  0.05    0.20
Q4    1  -0.0600  0.7771  0.8852  11.00000  0.05    0.19
Q5    1   0.0767  0.9986  0.9159  11.00000  0.05    0.16
Q6    1   0.3195  0.4994  0.7244  11.00000  0.05    0.15
Q7    1   0.4551  0.7112  0.5183  11.00000  0.05    0.14
Q8    1   0.2483  0.8220  0.7196  11.00000  0.05    0.12
Q9    1   0.2596  0.4653  0.8001  11.00000  0.05    0.12
Q10   1   0.3639  0.5011  0.6462  11.00000  0.05    0.12
Q11   1   0.1848  0.7859  0.7943  11.00000  0.05    0.12
Q12   1   0.4204  0.2181  0.6219  11.00000  0.05    0.12
Q13   1   0.3537  0.6825  0.4855  11.00000  0.05    0.11
Q14   1   0.1127  0.7687  0.8655  11.00000  0.05    0.11
Q15   1   0.2921  0.4967  0.8142  11.00000  0.05    0.11
Q16   1   0.2126  0.7843  0.7044  11.00000  0.05    0.11
Q17   1   0.1938  1.0761  0.7224  11.00000  0.05    0.09
Q18   1   0.5005  0.9403  0.5060  11.00000  0.05    0.08
Q19   1   0.3717  1.1102  0.6209  11.00000  0.05    0.08
Q20   1   0.4116  0.2376  0.7950  11.00000  0.05    0.08
Q21   1   0.1505  0.3361  0.8805  11.00000  0.05    0.08
Q22   1   0.3741  0.2390  0.7443  11.00000  0.05    0.07
Q23   1   0.3045  0.1834  0.7620  11.00000  0.05    0.07
Q24   1   0.3353  0.3609  0.7744  11.00000  0.05    0.07
Q25   1   0.1222  1.0292  0.6982  11.00000  0.05    0.07
;
_shelx_hkl_file
;
   0   0   1    0.01    0.06
   0   0   2 2359.95   48.55
   0   0   3    0.04    0.20
   0   0   4  911.86   19.46
   0   0   4  935.45   19.28
   0   0   5    0.05    0.28
   0   0   5    0.33    0.41
   0   0   6  107.39    2.60
   0   0   6  103.82    2.86
   0   0   7    0.17    0.32
   0   0   7    0.08    0.48
   0   0  -8    0.30    0.22
   0   0  -8   -0.06    0.23
   0   0  -8    0.19    0.22
   0   0   8    0.34    0.51
   0   0  -8    0.20    0.23
   0   0  -8   -0.01    0.23
   0   0  -9    0.36    0.29
   0   0  -9    0.01    0.20
   0   0  -9    0.36    0.26
   0   0   9   -0.30    0.58
   0   0  -9    0.08    0.24
   0   0  -9   -0.09    0.28
   0   0  -9    0.13    0.27
   0   0  -9    0.31    0.24
   0   0  -9    0.08    0.24
   0   0 -10   32.54    1.09
   0   0 -10   31.92    1.02
   0   0 -10   34.38    1.07
   0   0 -10   33.35    0.99
   0   0 -10   35.81    1.10
   0   0 -10   32.83    1.07
   0   0 -10   34.32    1.09
   0   0  10   32.18    1.71
   0   0  11   -0.15    0.67
   0   0 -11    0.22    0.31
   0   0 -11    0.04    0.34
   0   0 -11    0.15    0.33
   0   0 -11    0.11    0.32
   0   0 -11    0.30    0.33
   0   0 -11    0.02    0.31
   0   0 -12  232.67    6.31
   0   0 -12  254.82    5.69
   0   0 -12  249.36    5.61
   0   0  12  253.28    6.82
   0   0 -12  247.51    5.67
   0   0 -12  260.87    5.70
   0   0 -12  256.62    5.69
   0   0 -13    0.22    0.39
   0   0 -13    0.29    0.34
   0   0 -13    0.39    0.38
   0   0 -14  534.69   11.52
   0   0 -14  539.54   11.49
   0   0 -14  545.32   11.52
   0   0 -15   -0.01    0.23
   0   0 -15    0.06    0.27
   0   0 -15    0.01    0.25
   0   0  16   47.37    1.32
   0   0 -16   49.08    1.21
   0   0 -16   47.80    1.19
   0   1   0    0.14    0.11
   0  -1   0    0.17    0.11
   0  -1  -1  298.06    5.98
   0  -1  -1  277.00    5.90
   0   1   1  277.58    5.97
   0  -1   1  298.11    5.97
   0  -1   1  297.39    6.02
   0   1  -1  304.51    6.04
   0   1  -2    1.93    0.23
   0   1  -2    1.55    0.19
   0  -1   2    2.07    0.26
   0  -1  -2    2.39    0.21
   0   1   2    2.39    0.26
   0   1  -3  819.42   17.53
   0  -1   3  824.72   17.54
   0  -1   3  859.66   17.50
   0   1   3  851.04   17.55
   0   1  -4  100.46    2.45
   0   1   4  102.58    2.52
   0  -1   4  105.11    2.42
   0  -1   4   97.00    2.50
   0  -1   5   42.00    1.41
   0   1   5   46.38    1.44
   0  -1   5   43.58    1.30
   0   1   6  554.18   12.28
   0  -1   6  538.42   12.26
   0  -1   7   35.62    1.34
   0   1   7   37.82    1.51
   0  -1   7   36.64    1.47
   0  -1   8   10.50    0.92
   0   1  -8    9.99    0.48
   0  -1  -8    9.34    0.50
   0   1  -8   10.78    0.51
   0  -1  -8    9.74    0.47
   0  -1   8   10.48    0.76
   0  -1  -8    9.64    0.46
   0   1  -8    9.84    0.46
   0   1  -8    9.55    0.47
   0   1  -8    9.71    0.48
   0  -1  -8    9.55    0.50
   0   1   8    8.50    0.83
   0   1  -8   10.00    0.50
   0   1  -8   10.19    0.49
   0  -1  -8    9.22    0.47
   0   1  -8    9.10    0.45
   0  -1  -8   10.27    0.47
   0   1  -9    5.87    0.43
   0   1  -9    6.34    0.41
   0  -1  -9    5.79    0.38
   0  -1  -9    5.67    0.44
   0  -1  -9    6.28    0.42
   0   1  -9    6.37    0.43
   0  -1  -9    6.64    0.45
   0  -1   9    6.36    0.82
   0   1  -9    5.81    0.42
   0   1  -9    6.19    0.47
   0   1  -9    6.04    0.42
   0   1  -9    6.65    0.45
   0   1  -9    6.37    0.44
   0  -1  -9    5.53    0.41
   0   1   9    5.83    0.82
   0  -1 -10   10.23    0.59
   0   1 -10    9.62    0.55
   0  -1 -10    9.50    0.51
   0  -1  10    8.91    1.01
   0   1 -10   10.90    0.57
   0  -1 -10   11.15    0.60
   0   1 -10    9.59    0.56
   0   1 -10   10.09    0.58
   0  -1 -10   10.28    0.56
   0   1 -11   11.12    0.61
   0  -1  11    8.47    1.03
   0   1 -11   10.07    0.58
   0  -1 -11   11.18    0.63
   0  -1 -11    8.57    0.59
   0   1  11    8.84    1.06
   0  -1 -11    9.34    0.57
   0   1 -11    8.75    0.57
   0   1 -11   10.08    0.59
   0  -1 -11   10.71    0.61
   0   1 -11    9.83    0.59
   0  -1  12    1.26    0.70
   0   1 -12    0.79    0.54
   0  -1 -12    1.27    0.37
   0  -1 -12    1.63    0.41
   0  -1 -12    1.13    0.38
   0  -1 -12    1.19    0.42
   0   1 -12    2.17    0.39
   0   1 -12    0.89    0.40
   0  -1 -12    2.26    0.59
   0   1  12   -0.08    0.73
   0   1 -12    1.70    0.38
   0   1 -12    1.49    0.38
   0   1 -12    1.97    0.40
   0   1 -12    1.21    0.37
   0   1 -13  473.98    9.96
   0   1 -13  458.54    9.95
   0   1 -13  459.15    9.98
   0  -1 -13  460.42    9.99
   0   1 -13  466.05    9.95
   0   1 -13  456.48    9.94
   0  -1 -13  463.16    9.98
   0  -1 -13  460.00    9.98
   0  -1 -14    0.31    0.30
   0   1 -14   -0.09    0.30
   0  -1 -14    0.15    0.33
   0   1 -14    0.09    0.26
   0   1 -14    0.50    0.29
   0  -1 -14   -0.02    0.30
   0   1 -15   19.11    0.63
   0   1 -15   21.03    0.70
   0  -1 -15   22.35    0.75
   0  -1 -15   20.78    0.71
   0  -1 -15   19.95    0.71
   0   1 -15   20.13    0.69
   0  -1  16    1.70    0.29
   0  -1 -16    1.94    0.22
   0  -2   0  914.72   19.04
   0   2   0  916.75   19.18
   0  -2   0  968.79   19.17
   0   2  -1 2122.49   43.83
   0  -2  -1 2096.52   43.79
   0  -2   1 2178.21   43.91
   0  -2   1 2147.08   43.88
   0  -2   2  105.22    2.33
   0   2  -2   98.38    2.14
   0  -2  -2   97.59    2.14
   0   2   2   91.45    2.18
   0   2  -2   97.53    2.32
   0   2  -2  105.72    2.31
   0  -2   2  100.37    2.34
   0  -2   2   94.49    2.17
   0   2   3  155.78    3.50
   0  -2   3  155.54    3.48
   0   2  -3  151.79    3.55
   0  -2   3  153.62    3.57
   0   2  -3  157.54    3.49
   0   2  -4    0.17    0.33
   0  -2   4    0.41    0.31
   0   2   4    0.35    0.31
   0  -2   4    0.34    0.34
   0   2  -5  281.84    6.15
   0  -2   5  274.70    6.10
   0  -2  -6   54.97    1.39
   0  -2  -6   53.28    1.38
   0  -2   6   50.66    1.70
   0   2   6   51.42    1.73
   0   2  -6   52.89    1.68
   0   2  -7 2572.88   53.05
   0  -2   7 2590.49   53.60
   0  -2   7 2506.47   53.62
   0   2  -7 2630.88   53.56
   0   2  -7 2557.57   53.02
   0  -2  -7 2558.29   53.04
   0  -2  -7 2570.01   53.08
   0   2  -7 2536.09   53.03
   0   2   7 2600.96   53.71
   0  -2  -7 2598.99   53.08
   0   2  -7 2583.88   53.06
   0  -2   7 2600.68   53.12
   0   2  -7 2538.21   53.06
   0   2  -8  117.09    2.75
   0   2  -8  121.12    2.71
   0   2  -8  117.01    2.74
   0  -2   8  116.42    3.29
   0   2   8  114.71    3.38
   0  -2   8  113.45    2.80
   0  -2  -8  115.72    2.70
   0   2  -8  116.81    2.70
   0   2  -8  118.38    2.72
   0   2  -8  115.07    2.74
   0  -2  -8  116.10    2.73
   0  -2   8  114.10    3.33
   0   2  -8  113.46    2.70
   0  -2  -8  114.50    2.76
   0   2  -9   29.23    0.95
   0  -2  -9   29.55    1.01
   0  -2  -9   29.48    0.95
   0   2  -9   28.60    0.94
   0  -2   9   29.08    1.00
   0  -2  -9   27.17    0.98
   0  -2   9   26.38    1.40
   0   2  -9   30.75    0.94
   0  -2  -9   27.38    1.00
   0   2  -9   29.79    0.94
   0   2  -9   28.18    0.98
   0  -2  -9   29.15    0.92
   0   2  -9   28.43    0.96
   0   2   9   29.49    1.50
   0   2  -9   28.75    0.95
   0   2  -9   28.96    1.00
   0  -2 -10    3.22    0.55
   0  -2 -10    3.22    0.38
   0  -2 -10    2.92    0.42
   0  -2 -10    3.22    0.36
   0   2 -10    2.84    0.39
   0  -2  10    2.62    0.38
   0   2 -10    2.96    0.39
   0   2 -10    2.66    0.40
   0   2 -10    2.90    0.35
   0   2 -10    2.65    0.57
   0   2 -10    2.49    0.35
   0   2  10    3.63    0.76
   0   2 -10    2.97    0.38
   0  -2  10    2.65    0.71
   0   2 -10    2.82    0.39
   0   2 -10    2.95    0.42
   0  -2 -10    3.23    0.44
   0   2 -10    2.42    0.43
   0   2 -11    0.23    0.36
   0   2 -11    0.25    0.33
   0   2 -11   -0.10    0.46
   0   2 -11    0.18    0.35
   0  -2 -11    0.27    0.32
   0  -2 -11   -0.14    0.37
   0   2 -11   -0.30    0.37
   0  -2 -11   -0.89    0.46
   0  -2 -11    0.54    0.29
   0   2 -11   -0.16    0.36
   0   2 -11    0.30    0.34
   0  -2  11   -0.20    0.57
   0   2 -11    0.02    0.28
   0  -2 -11    0.12    0.36
   0   2  11   -0.43    0.62
   0  -2  11    0.12    0.31
   0   2 -12  124.31    2.95
   0   2 -12  119.82    3.00
   0   2 -12  123.98    2.96
   0   2 -12  124.62    3.00
   0  -2 -12  120.84    2.91
   0  -2 -12  119.30    3.02
   0   2 -12  123.03    3.02
   0   2 -12  125.81    3.01
   0  -2 -12  118.77    3.00
   0   2 -12  122.49    2.95
   0   2 -13   49.27    1.40
   0   2 -13   50.62    1.42
   0   2 -13   51.08    1.48
   0   2 -13   50.66    1.45
   0   2 -13   50.60    1.45
   0  -2 -13   50.96    1.48
   0   2 -13   50.67    1.47
   0  -2 -13   52.25    1.49
   0   2 -13   49.60    1.46
   0   2 -14   -0.16    0.24
   0   2 -14    0.05    0.29
   0   2 -14    0.49    0.31
   0  -2 -14   -0.07    0.29
   0  -2 -14    0.27    0.29
   0   2 -14   -0.05    0.24
   0  -2  15    0.16    0.18
   0   2 -15    0.32    0.17
   0   2 -15    0.14    0.18
   0   2  15   -0.15    0.27
   0  -2 -15    0.52    0.24
   0   3   0    0.01    0.18
   0  -3   0   -0.07    0.21
   0   3  -1   56.70    1.59
   0  -3   1   57.44    1.54
   0   3   1   55.30    1.49
   0  -3   2  567.06   12.66
   0   3  -2  605.09   12.89
   0   3  -2  616.63   12.85
   0  -3   2  653.78   12.89
   0  -3   3    0.06    0.21
   0   3  -3    0.13    0.24
   0  -3   3    0.53    0.36
   0   3  -3    0.07    0.25
   0   3  -4   63.51    1.82
   0  -3  -4   62.30    1.58
   0  -3  -4   64.84    1.59
   0   3  -4   61.30    1.71
   0   3  -4   66.12    1.97
   0  -3   4   63.75    1.89
   0  -3   4   57.36    1.78
   0  -3   5   63.57    2.00
   0  -3  -5   65.01    1.63
   0  -3  -5   63.58    1.58
   0  -3  -5   61.50    1.60
   0  -3  -5   60.90    1.60
   0  -3   5   59.06    1.92
   0  -3  -5   62.12    1.60
   0   3  -5   65.66    2.03
   0  -3   5   65.46    1.68
   0  -3   6  290.64    6.38
   0  -3   6  285.72    6.80
   0  -3  -6  289.55    6.32
   0   3  -6  284.50    6.80
   0  -3  -6  294.43    6.30
   0  -3  -6  287.41    6.26
   0  -3  -6  280.53    6.27
   0  -3  -6  276.03    6.21
   0  -3  -6  293.05    6.31
   0   3  -7   12.43    0.87
   0  -3  -7   13.19    0.56
   0  -3   7   13.21    0.65
   0   3  -7   12.42    0.56
   0  -3   7   11.57    0.91
   0  -3  -7   12.53    0.56
   0   3  -7   12.15    0.56
   0  -3  -7   13.16    0.62
   0  -3  -7   13.14    0.59
   0  -3  -7   13.64    0.64
   0  -3  -7   12.80    0.61
   0  -3  -8   54.04    1.55
   0  -3  -8   55.12    1.48
   0  -3  -8   56.31    1.56
   0  -3  -8   53.57    1.53
   0   3  -8   56.24    1.48
   0  -3   8   53.06    1.58
   0   3  -8   55.20    1.51
   0   3  -8   54.21    1.49
   0  -3  -8   49.92    1.42
   0   3  -8   53.49    1.96
   0   3  -9    2.48    0.36
   0   3  -9    2.77    0.36
   0  -3   9    2.48    0.43
   0  -3  -9    2.82    0.43
   0   3  -9    2.24    0.34
   0   3  -9    2.21    0.56
   0  -3  -9    3.37    0.42
   0  -3  -9    2.53    0.35
   0   3 -10   12.38    0.67
   0   3 -10   10.65    0.87
   0  -3 -10   10.37    0.51
   0  -3  10   12.56    0.68
   0   3 -10   11.71    0.66
   0  -3 -10   12.09    0.70
   0   3 -10   11.99    0.58
   0   3 -10   12.56    0.62
   0   3 -10   11.12    0.59
   0   3 -10   10.78    0.58
   0  -3 -10   11.91    0.58
   0   3 -10   13.20    0.70
   0  -3 -11    3.18    0.47
   0   3 -11    2.43    0.44
   0   3 -11    3.80    0.46
   0  -3 -11    2.50    0.34
   0   3 -11    3.31    0.41
   0  -3 -11    2.91    0.29
   0   3 -11    3.48    0.37
   0  -3  11    3.53    0.43
   0   3 -11    2.91    0.37
   0   3 -11    3.18    0.45
   0   3 -12   10.93    0.57
   0   3 -12   10.66    0.54
   0  -3  12   11.19    0.57
   0   3 -12   11.77    0.63
   0   3 -12   10.49    0.61
   0   3 -12   10.84    0.51
   0   3 -12   11.09    0.60
   0   3 -13   63.56    1.64
   0   3 -13   61.59    1.62
   0   3 -13   61.54    1.62
   0   3 -13   61.71    1.62
   0   3 -13   63.25    1.59
   0  -3  13   56.99    1.51
   0  -3  13   63.88    1.67
   0   3 -13   58.66    1.53
   0   3 -14   72.53    1.73
   0   3 -14   69.48    1.73
   0  -3  14   70.14    1.75
   0   3 -14   71.11    1.73
   0   3 -14   72.16    1.75
   0  -3 -14   71.82    1.75
   0   4   0   79.63    2.26
   0  -4   0   80.06    1.98
   0  -4   0   81.91    1.97
   0  -4   0   82.73    1.98
   0   4  -1    2.64    0.40
   0  -4  -1    2.97    0.27
   0  -4   1    2.66    0.31
   0   4  -1    2.09    0.36
   0  -4  -1    2.37    0.28
   0  -4   1    2.64    0.30
   0  -4   1    3.10    0.32
   0  -4  -1    2.44    0.27
   0   4  -2   57.69    1.80
   0  -4  -2   58.68    1.53
   0   4  -2   57.98    1.81
   0  -4   2   62.07    1.60
   0  -4  -2   64.40    1.55
   0  -4   2   60.11    1.62
   0  -4   2   62.21    1.63
   0   4  -3   18.31    0.84
   0  -4  -3   19.63    0.72
   0  -4  -3   20.94    0.74
   0  -4   3   19.79    0.77
   0  -4   3   18.07    0.75
   0  -4  -3   19.04    0.67
   0  -4  -4  111.07    2.64
   0  -4  -4  110.29    2.60
   0  -4   4  107.03    2.68
   0  -4   4  106.97    2.51
   0  -4   4  104.42    2.66
   0   4  -4  108.79    3.14
   0   4  -5   22.14    1.20
   0  -4   5   21.81    0.88
   0  -4  -5   21.31    0.82
   0  -4   5   20.76    0.87
   0  -4  -5   19.89    0.76
   0   4  -6  711.13   15.79
   0  -4  -6  718.79   15.03
   0  -4   6  699.45   15.22
   0  -4  -6  721.72   15.11
   0  -4   7  443.14    9.43
   0   4  -7  460.07   10.06
   0   4  -7  431.81    9.23
   0  -4  -7  415.45    9.16
   0   4  -8  169.89    4.59
   0   4  -8  174.01    3.95
   0   4  -8  170.51    3.90
   0  -4   8  169.28    4.08
   0   4  -9    3.00    0.35
   0   4  -9    2.69    0.55
   0  -4  -9    2.03    0.36
   0  -4   9    2.82    0.50
   0  -4   9    2.54    0.47
   0   4  -9    2.83    0.36
   0   4 -10   10.58    0.55
   0   4 -10   11.26    0.53
   0  -4  10    9.45    0.66
   0  -4 -10   11.55    0.53
   0   4 -10   11.32    0.62
   0   4 -10   11.06    0.62
   0   4 -10   12.36    0.63
   0  -4  10   10.42    0.63
   0   4 -11    3.35    0.35
   0  -4  11    3.09    0.39
   0  -4  11    4.12    0.45
   0   4 -11    3.59    0.38
   0  -4 -11    3.26    0.29
   0   4 -11    3.57    0.41
   0   4 -11    3.81    0.39
   0   4 -11    3.80    0.42
   0   4 -12    4.88    0.37
   0   4 -12    4.67    0.39
   0  -4  12    5.06    0.42
   0   4 -12    5.16    0.38
   0  -4  12    4.42    0.36
   0   4 -12    4.95    0.36
   0   4 -13   20.51    0.66
   0  -4  13   21.44    0.69
   0   4 -13   20.51    0.64
   0   4 -13   20.42    0.64
   0   4 -13   19.74    0.62
   0  -5   0   -0.07    0.23
   0  -5   0    0.08    0.29
   0   5   0    0.12    0.32
   0  -5   0    0.14    0.23
   0  -5   1    5.40    0.40
   0  -5   1    5.46    0.41
   0  -5  -1    4.82    0.36
   0   5   1    4.26    0.55
   0  -5  -1    4.88    0.38
   0  -5   1    5.54    0.43
   0  -5   1    4.35    0.32
   0  -5   2   24.56    0.87
   0  -5  -2   23.22    0.83
   0   5  -2   25.04    1.28
   0  -5   2   22.79    0.83
   0  -5   2   23.71    0.88
   0  -5  -2   26.46    0.92
   0  -5   2   22.85    0.88
   0  -5   3   26.31    0.93
   0  -5   3   27.07    0.90
   0  -5   3   27.01    0.96
   0  -5   3   25.28    0.97
   0   5  -3   28.22    1.37
   0   5  -4    5.77    0.73
   0  -5  -4    7.33    0.51
   0  -5   4    6.62    0.53
   0  -5   4    5.80    0.46
   0  -5   4    5.87    0.50
   0  -5   4    6.16    0.41
   0  -5   5  210.25    4.95
   0  -5   5  217.70    4.97
   0  -5  -5  217.00    4.85
   0   5  -5  218.52    5.56
   0  -5   5  215.78    4.90
   0  -5  -6  193.35    4.25
   0  -5   6  184.37    4.40
   0  -5   6  193.71    4.42
   0  -5   6  181.51    4.33
   0  -5  -7  165.04    3.81
   0  -5   7  168.36    3.97
   0  -5  -7  175.76    3.92
   0   5  -7  174.64    3.88
   0  -5   7  171.64    4.04
   0  -5   8    0.44    0.38
   0  -5  -8    0.48    0.20
   0  -5   8    0.68    0.37
   0   5  -8    0.35    0.25
   0  -5   8    0.28    0.30
   0  -5  -8    0.15    0.31
   0   5  -9  259.75    5.61
   0  -5   9  260.77    5.69
   0  -5   9  247.92    5.69
   0  -5   9  244.24    5.62
   0   5  -9  255.36    5.59
   0   5  -9  252.94    5.50
   0  -5  -9  263.89    5.56
   0  -5  10    0.08    0.27
   0   5 -10   -0.01    0.23
   0   5 -10   -0.11    0.19
   0  -5 -10    0.04    0.21
   0   5 -10    0.16    0.25
   0   5 -10    0.14    0.23
   0  -5 -11    0.86    0.16
   0   5 -11    0.48    0.16
   0   5 -11    0.78    0.20
   0   5 -11    1.01    0.24
   0   5 -11    0.96    0.20
   0   5 -11    1.23    0.25
   0   5 -12   21.77    0.63
   0  -5  12   22.33    0.64
   0  -6   0  143.50    3.34
   0  -6   1   16.53    0.66
   0  -6  -2    0.13    0.24
   0  -6   2    0.12    0.25
   0  -6  -2    0.26    0.30
   0  -6  -3    8.90    0.46
   0  -6  -3    9.36    0.51
   0  -6   3    8.23    0.42
   0  -6   4   -0.02    0.25
   0  -6  -4    0.30    0.27
   0  -6  -4   -0.11    0.25
   0  -6   5    8.36    0.48
   0  -6  -5    9.09    0.46
   0  -6  -5    9.00    0.46
   0  -6  -6    3.48    0.33
   0  -6   6    4.13    0.36
   0  -6  -6    3.99    0.31
   0  -6   7   55.35    1.43
   0   6  -7   54.02    1.35
   0   6  -8   19.34    0.62
   0  -6  -8   18.99    0.59
   0  -6   8   18.36    0.63
   0  -6   9    5.13    0.29
   0  -6  -9    5.05    0.25
   0   6  -9    5.23    0.28
   0  -7   0    0.11    0.16
   0  -7  -1    4.35    0.27
   1   0 -16    2.09    0.24
   1   0 -16    2.26    0.27
   1   0 -16    2.28    0.26
   1   0 -15    0.08    0.28
   1   0 -15    0.05    0.28
   1   0 -15    0.21    0.25
   1   0 -14    2.78    0.41
   1   0 -14    2.30    0.37
   1   0 -14    2.64    0.41
   1   0 -13    0.42    0.39
   1   0 -13    0.36    0.38
   1   0 -13    0.21    0.27
  -1   0  12 1192.08   26.25
   1   0 -12 1212.32   24.96
   1   0 -12 1174.98   24.84
   1   0 -12 1192.54   24.92
   1   0 -12 1199.84   24.95
   1   0 -12 1136.75   25.64
   1   0 -12 1198.36   24.93
   1   0 -11   -0.02    0.30
   1   0 -11    0.09    0.28
   1   0 -11    0.35    0.36
   1   0 -11    0.22    0.50
   1   0 -11    0.17    0.32
   1   0 -11   -0.10    0.29
   1   0 -11    0.29    0.28
  -1   0  11   -0.23    0.70
   1   0 -11   -0.06    0.31
   1   0 -11    0.35    0.35
   1   0 -10  108.12    2.56
   1   0 -10   98.37    3.08
   1   0 -10  111.50    2.64
   1   0 -10  105.68    2.60
   1   0 -10  107.31    2.59
   1   0 -10  107.03    2.55
   1   0 -10  111.53    2.64
   1   0 -10  105.35    2.58
   1   0 -10  103.42    2.58
  -1   0  10  107.72    3.50
   1   0 -10  101.72    2.57
   1   0  -9    0.02    0.26
   1   0  -9    0.05    0.25
   1   0  -9    0.02    0.27
   1   0  -9   -0.04    0.24
   1   0  -9   -0.28    0.25
  -1   0   9    0.24    0.58
  -1   0   9    0.42    0.39
   1   0  -9    0.10    0.24
   1   0  -9   -0.10    0.24
   1   0  -9   -0.05    0.24
   1   0  -8  202.25    4.55
   1   0  -8  206.39    4.55
   1   0  -8  198.89    4.56
   1   0  -8  208.23    4.56
  -1   0   8  211.05    4.87
   1   0  -8  211.05    4.55
   1   0  -8  204.50    4.58
   1   0  -8  206.36    4.55
  -1   0   7   -0.02    0.29
  -1   0   7   -0.04    0.50
  -1   0   6   67.19    1.75
  -1   0   5    0.01    0.24
   1   0  -5    0.16    0.23
  -1   0   4  132.82    2.97
   1   0  -4  134.80    3.01
  -1   0   3    0.06    0.19
   1   0  -3    0.01    0.19
   1   0  -2    6.97    0.27
   1   0  -2    7.48    0.36
   1   0  -1    0.22    0.13
   1   0  -1    0.11    0.12
   1   0   0 1388.59   28.47
  -1   0   0 1375.36   28.52
   1   0   1    0.12    0.21
  -1   0  -1    0.19    0.14
  -1   0  -2 1467.80   30.58
   1   0   2 1492.68   30.64
   1   0   3   -0.12    0.37
  -1   0  -3   -0.24    0.24
  -1   0  -4  841.39   17.31
   1   0   4  805.36   17.43
   1   0   5    0.08    0.40
   1   0   6   38.43    1.43
   1   0   7    0.08    0.47
  -1   0  -8  114.86    2.69
  -1   0  -8  114.45    2.72
  -1   0  -8  115.47    2.72
  -1   0  -8  115.63    2.72
  -1   0  -8  119.72    2.66
  -1   0  -8  118.71    2.71
   1   0   8  118.15    3.41
  -1   0  -8  114.92    2.71
  -1   0  -8  112.13    2.71
  -1   0  -9    0.10    0.25
  -1   0  -9    0.46    0.29
  -1   0  -9    0.14    0.27
  -1   0  -9    0.11    0.27
  -1   0  -9   -0.03    0.26
  -1   0  -9    0.14    0.26
  -1   0  -9    0.45    0.22
   1   0   9    0.37    0.63
  -1   0 -10    0.31    0.28
  -1   0 -10    0.52    0.33
  -1   0 -10    0.45    0.31
  -1   0 -10    0.57    0.31
  -1   0 -10    0.21    0.25
  -1   0 -10    0.08    0.30
   1   0  10   -0.35    0.64
  -1   0 -11    0.53    0.35
  -1   0 -11   -0.11    0.27
   1   0  11   -0.08    0.67
  -1   0 -11   -0.06    0.28
  -1   0 -11    0.17    0.34
  -1   0 -11   -0.04    0.30
  -1   0 -11   -0.11    0.32
   1   0  12   38.55    2.01
  -1   0 -12   38.18    1.19
  -1   0 -12   41.88    1.30
  -1   0 -12   40.41    1.25
  -1   0 -12   39.21    1.25
  -1   0 -12   38.63    1.22
  -1   0 -13   -0.13    0.35
  -1   0 -13    0.26    0.33
  -1   0 -13    0.67    0.33
  -1   0 -13    0.21    0.29
  -1   0 -14  166.18    3.75
  -1   0 -14  166.39    3.79
  -1   0 -14  165.07    3.79
  -1   0 -15    0.07    0.22
   1   0  15    0.37    0.41
  -1   0 -15    0.14    0.25
  -1   0 -15    0.17    0.25
   1   0  16    1.57    0.30
   1  -1 -16    1.34    0.22
   1  -1 -16    1.09    0.21
   1  -1 -16    1.07    0.23
   1   1 -16    0.85    0.20
   1   1 -16    1.24    0.20
   1  -1 -15    8.84    0.48
   1   1 -15    9.48    0.48
   1   1 -15    9.75    0.48
   1  -1 -15    9.85    0.50
   1   1 -15    9.19    0.44
   1  -1 -15    8.82    0.49
   1  -1 -14   34.66    1.10
   1   1 -14   33.73    1.08
   1   1 -14   33.84    1.08
   1   1 -14   31.47    1.06
   1   1 -14   34.75    1.09
   1  -1 -14   35.36    1.12
   1   1 -13   34.14    1.10
   1   1 -13   29.94    1.08
   1  -1 -13   30.89    1.11
   1   1 -13   32.04    1.09
   1  -1 -13   30.96    1.09
   1   1 -13   31.00    1.09
   1   1 -13   32.48    1.04
   1   1 -12  440.93    9.35
   1   1 -12  425.21    9.33
  -1   1  12  433.95   10.54
   1  -1 -12  428.68    9.30
   1  -1 -12  436.37    9.37
   1  -1 -12  396.93    9.91
  -1  -1  12  433.23   10.48
   1   1 -12  434.59    9.29
   1   1 -12  404.79    9.93
   1   1 -12  432.01    9.32
   1   1 -12  429.26    9.35
   1   1 -12  429.30    9.32
   1   1 -12  444.91    9.36
   1  -1 -11    5.80    0.74
   1   1 -11    4.95    0.70
   1   1 -11    4.66    0.44
   1   1 -11    5.48    0.45
   1  -1 -11    5.75    0.52
   1   1 -11    5.81    0.48
  -1   1  11    3.89    0.84
   1   1 -11    5.74    0.50
   1   1 -11    6.56    0.50
   1   1 -11    4.98    0.48
   1  -1 -11    4.33    0.44
   1   1 -11    5.17    0.48
  -1  -1  11    4.76    0.88
   1   1 -10   27.42    0.93
   1   1 -10   27.49    0.95
   1   1 -10   26.09    0.93
  -1   1  10   26.56    1.54
   1   1 -10   26.90    0.93
   1   1 -10   27.01    0.94
   1  -1 -10   27.21    0.93
  -1  -1  10   26.27    1.30
   1   1 -10   27.62    0.92
   1   1 -10   26.26    1.30
   1   1 -10   27.02    0.95
   1  -1 -10   26.59    0.93
   1  -1 -10   28.22    1.33
   1   1 -10   24.68    0.89
   1   1 -10   26.54    0.95
   1   1 -10   26.29    0.94
  -1  -1  10   28.81    1.58
   1   1  -9  116.42    2.83
   1   1  -9  120.14    2.85
  -1  -1   9  122.33    3.60
   1   1  -9  121.99    2.86
   1   1  -9  121.88    2.85
   1   1  -9  120.37    3.31
  -1   1   9  114.92    3.58
   1  -1  -9  118.56    2.81
   1  -1  -9  122.37    2.82
   1  -1  -9  119.49    2.80
   1   1  -9  118.93    2.85
   1   1  -9  120.20    2.83
   1   1  -9  119.61    2.84
   1  -1  -9  117.10    2.84
   1   1  -9  119.79    2.83
   1  -1  -9  119.27    2.83
   1   1  -9  119.05    2.83
   1  -1  -9  114.73    3.28
   1   1  -9  120.24    2.80
  -1  -1   9  121.23    3.32
   1   1  -8  127.42    2.96
   1  -1  -8  126.21    2.92
   1  -1  -8  124.24    2.94
   1   1  -8  127.35    2.92
   1  -1  -8  126.95    2.93
   1   1  -8  125.52    2.95
   1  -1  -8  125.43    2.93
   1   1  -8  126.52    2.96
   1  -1  -8  128.15    2.91
   1   1  -8  129.28    2.94
   1   1  -8  130.95    3.29
  -1  -1   8  142.22    3.39
  -1  -1   8  140.94    3.69
   1   1  -8  128.12    2.95
  -1   1   8  139.64    3.70
   1  -1  -8  122.92    2.96
   1   1  -8  127.69    2.96
   1   1  -8  133.10    2.98
   1   1  -7  340.25    7.49
  -1  -1   7  325.57    7.48
  -1   1   7  344.05    7.80
  -1  -1   7  334.57    7.76
  -1   1   6  465.24   10.20
   1   1  -6  488.78   10.46
   1   1  -5 1386.69   27.99
  -1   1   5 1307.81   27.73
  -1  -1   5 1377.57   27.96
  -1   1   4  105.46    2.29
  -1  -1   4  101.29    2.46
   1   1  -4  107.04    2.51
   1   1  -3  375.93    8.08
   1   1  -3  385.14    8.00
   1  -1  -3  365.95    7.99
  -1   1   3  370.93    7.81
   1   1  -2  378.09    8.19
   1  -1  -2  392.59    8.13
   1   1  -2  397.94    8.13
   1   1  -2  373.03    8.21
   1   1  -1    5.42    0.33
   1  -1  -1    5.92    0.25
   1   1  -1    5.03    0.24
   1   1  -1    5.94    0.32
  -1  -1   1    5.58    0.38
  -1   1   1    5.80    0.20
   1   1   0 5866.40  120.08
  -1   1   0 5994.25  119.97
  -1  -1   0 5727.45  120.07
  -1  -1   0 5730.72  119.97
  -1   1  -1 3261.32   67.85
  -1   1  -1 3254.58   67.77
  -1  -1  -2 2785.00   62.10
   1  -1   2 3048.40   62.11
  -1   1  -2 3233.24   61.97
   1   1   2 2800.67   62.08
  -1   1  -2 3027.49   62.06
  -1  -1  -3  257.73    5.69
  -1   1  -3  261.64    5.67
   1   1   3  246.61    5.73
   1  -1   4  322.34    6.83
   1   1   4  313.63    6.82
  -1   1  -4  314.03    6.71
   1  -1   5   44.79    1.51
  -1   1  -5   46.01    1.38
   1   1   5   47.58    1.52
   1  -1   6    1.45    0.50
  -1   1  -6    1.74    0.37
   1   1   6    1.13    0.47
  -1   1  -7 1156.57   24.38
   1  -1   7 1237.15   25.05
   1   1   7 1182.06   25.05
  -1   1  -7 1176.70   24.39
  -1  -1  -7 1167.94   24.38
  -1   1  -7 1195.43   24.77
  -1  -1  -7 1158.97   24.38
  -1   1  -7 1172.53   24.38
  -1   1  -8  114.26    2.70
   1   1   8  119.90    3.40
  -1   1  -8  113.25    2.71
  -1   1  -8  108.38    2.64
   1  -1   8  115.12    3.35
  -1  -1  -8  115.77    2.70
  -1  -1  -8  117.65    2.67
  -1   1  -8  112.69    2.66
  -1   1  -8  113.22    2.69
  -1   1  -8  118.99    2.67
  -1  -1  -8  112.43    2.71
  -1  -1  -8  115.61    2.72
  -1  -1  -9    0.48    0.23
  -1   1  -9    1.04    0.27
  -1  -1  -9    0.68    0.27
  -1   1  -9    0.73    0.29
  -1  -1  -9    0.66    0.27
  -1   1  -9    0.59    0.29
  -1  -1  -9    0.84    0.30
  -1   1  -9    0.71    0.28
   1   1   9    1.05    0.61
   1  -1   9   -0.12    0.55
  -1  -1  -9    1.16    0.32
  -1   1  -9    0.94    0.32
   1  -1  10   26.97    1.57
  -1  -1 -10   26.95    0.90
  -1  -1 -10   28.39    1.00
  -1   1 -10   29.03    0.96
   1   1  10   25.85    1.57
  -1   1 -10   28.46    0.95
  -1  -1 -10   29.34    1.00
  -1   1 -10   27.98    1.00
  -1   1 -10   29.17    1.01
  -1   1 -10   27.64    0.97
  -1  -1 -10   27.88    0.99
  -1   1 -10   29.78    1.01
  -1   1 -10   30.04    0.95
  -1  -1 -10   27.25    0.96
  -1   1 -11    7.91    0.51
   1   1  11    7.22    0.99
  -1   1 -11    8.86    0.58
  -1   1 -11    8.92    0.55
  -1   1 -11    7.73    0.53
  -1   1 -11    8.12    0.56
  -1  -1 -11    7.54    0.56
  -1   1 -11    8.10    0.52
  -1  -1 -11    7.52    0.54
  -1  -1 -11    7.31    0.56
  -1  -1 -11    7.62    0.53
  -1   1 -11    7.35    0.55
   1  -1  11    8.13    1.03
  -1  -1 -12   87.55    2.26
  -1   1 -12   86.79    2.26
  -1   1 -12   85.26    2.25
  -1   1 -12   85.02    2.20
  -1   1 -12   85.83    2.27
  -1  -1 -12   86.12    2.24
   1  -1  12   80.06    3.03
  -1   1 -12   87.02    2.19
  -1  -1 -12   90.40    2.28
  -1   1 -12   86.67    2.26
  -1   1 -12   88.02    2.21
  -1   1 -12   85.54    2.15
   1   1  12   86.16    3.12
  -1  -1 -12   85.11    2.24
  -1   1 -13  184.14    4.21
  -1  -1 -13  189.34    4.28
  -1  -1 -13  189.36    4.25
  -1  -1 -13  184.91    4.26
  -1   1 -13  188.34    4.21
  -1   1 -13  186.71    4.26
  -1  -1 -13  186.84    4.26
  -1   1 -13  177.97    4.13
  -1   1 -13  181.62    4.20
  -1   1 -14  291.02    6.33
  -1  -1 -14  293.50    6.39
  -1  -1 -14  293.44    6.36
  -1  -1 -14  309.98    6.43
  -1   1 -14  282.60    6.32
  -1  -1 -14  294.49    6.37
  -1   1 -14  284.93    6.34
  -1   1 -15    0.47    0.19
   1  -1  15    0.41    0.36
  -1  -1 -15    0.33    0.23
  -1   1 -15    0.61    0.21
  -1  -1 -15    0.76    0.28
   1   1  15    0.35    0.37
   1   2 -15    8.05    0.39
   1   2 -15    7.50    0.39
   1   2 -14   20.48    0.72
   1  -2 -14   19.58    0.76
   1   2 -14   21.27    0.74
   1   2 -14   21.27    0.75
   1  -2 -14   20.74    0.78
  -1  -2  14   20.50    0.72
   1  -2 -13   10.73    0.61
   1   2 -13   11.18    0.59
   1   2 -13   12.33    0.63
   1   2 -13   11.61    0.60
   1  -2 -13   12.28    0.64
   1   2 -13   11.39    0.61
  -1  -2  13   11.44    0.60
   1   2 -13   13.74    0.65
   1   2 -12  147.71    3.36
   1  -2 -12  135.92    3.37
   1   2 -12  142.74    3.37
   1   2 -12  136.01    3.32
   1   2 -11   30.29    1.10
   1  -2 -11   32.64    1.12
   1   2 -11   32.79    1.09
  -1  -2  11   29.48    1.63
  -1   2  11   31.50    1.74
   1   2 -11   33.87    1.11
   1   2 -11   32.07    1.09
   1  -2 -11   29.92    1.36
   1   2 -11   30.81    1.37
   1  -2 -11   32.30    0.99
   1   2 -11   33.59    1.12
   1   2 -11   32.11    1.07
   1   2 -11   33.00    1.08
   1   2 -10   24.75    0.94
   1   2 -10   26.32    0.92
   1   2 -10   26.73    1.27
  -1  -2  10   26.35    1.38
   1  -2 -10   24.52    1.20
   1  -2 -10   25.16    0.85
   1   2 -10   27.70    0.96
  -1   2  10   24.67    1.47
   1   2 -10   26.67    1.24
   1   2 -10   27.17    0.96
   1  -2 -10   25.17    0.95
   1   2 -10   26.54    0.97
   1  -2 -10   26.32    0.96
  -1  -2  10   26.06    1.48
   1  -2 -10   25.25    0.96
   1   2 -10   27.76    0.94
   1   2 -10   26.38    0.92
   1   2 -10   25.22    0.94
  -1  -2  10   27.15    0.92
   1  -2  -9   14.41    0.67
  -1  -2   9   13.67    0.99
   1  -2  -9   13.44    0.85
   1   2  -9   13.45    0.85
  -1  -2   9   11.80    0.99
   1  -2  -9   13.00    0.56
   1   2  -9   13.54    0.63
   1   2  -9   12.30    0.61
   1  -2  -9   14.74    0.66
   1   2  -9   12.64    0.60
   1   2  -9   12.36    0.84
  -1  -2   9   12.95    0.62
   1   2  -9   13.24    0.60
   1  -2  -9   13.39    0.64
   1   2  -9   13.77    0.64
  -1   2   9   12.21    1.03
   1   2  -9   13.18    0.63
   1   2  -9   14.03    0.61
   1  -2  -9   13.43    0.63
  -1  -2   8   82.93    2.08
   1   2  -8   84.11    2.08
   1   2  -8   80.79    2.05
   1  -2  -8   84.92    2.08
   1  -2  -8   83.49    2.06
  -1  -2   8   80.57    2.58
   1   2  -8   82.18    2.47
   1  -2  -8   80.33    2.08
  -1   2   8   82.92    2.68
   1   2  -8   85.77    2.41
   1   2  -8   84.22    2.05
   1   2  -8   84.55    2.09
   1  -2  -8   81.52    2.07
   1  -2  -8   80.85    1.95
   1  -2  -8   78.68    1.97
   1   2  -8   80.20    2.00
   1   2  -8   84.33    2.05
   1  -2  -8   79.83    2.37
  -1  -2   8   90.05    2.57
   1   2  -8   81.63    2.06
  -1   2   7   35.18    1.46
   1   2  -7   35.03    1.34
   1   2  -7   35.47    1.04
   1   2  -7   35.17    1.05
   1  -2  -7   36.14    1.07
   1  -2  -7   38.51    1.08
   1  -2  -7   36.82    1.29
  -1  -2   7   34.92    1.41
   1   2  -7   38.83    1.31
   1  -2  -7   36.10    1.03
   1   2  -7   33.88    1.02
  -1  -2   7   32.83    1.36
  -1   2   6    6.86    0.66
   1   2  -6    8.46    0.55
  -1  -2   6    7.09    0.62
   1  -2  -6    8.95    0.55
  -1  -2   6    7.84    0.63
   1  -2  -6    8.38    0.41
   1  -2  -6    8.47    0.43
  -1  -2   5 1355.38   28.79
   1   2  -5 1418.66   28.68
  -1   2   5 1374.79   28.84
   1  -2  -5 1348.39   28.65
   1   2  -4  397.35    8.37
   1   2  -4  375.06    8.46
   1   2  -4  393.96    8.57
   1  -2  -4  394.81    8.36
  -1  -2   4  394.14    8.48
   1   2  -3   67.46    1.82
  -1  -2   3   69.49    1.75
   1   2  -3   67.43    1.60
  -1  -2   3   61.82    1.88
   1  -2  -3   66.83    1.60
   1   2  -3   66.95    1.76
   1   2  -2   10.22    0.52
  -1  -2   2   10.28    0.50
   1   2  -2   10.01    0.53
  -1  -2   2   11.25    0.58
  -1  -2   1  115.08    2.38
  -1  -2   1   96.56    2.20
  -1   2   1  104.50    2.20
  -1  -2   1  100.30    2.43
   1   2  -1  112.16    2.46
   1   2   0 2525.26   52.19
  -1  -2   0 2464.94   52.06
  -1  -2   0 2456.46   52.16
  -1  -2   0 2525.88   52.15
  -1  -2  -1  200.62    4.30
   1  -2   1  184.61    4.08
  -1  -2  -1  211.02    4.15
  -1   2  -1  193.71    4.19
  -1   2  -2  234.86    5.06
  -1  -2  -2  248.47    5.21
  -1   2  -2  231.81    5.09
  -1  -2  -2  237.99    4.98
  -1  -2  -3   31.97    1.00
   1  -2   3   31.36    0.99
   1   2   3   31.75    1.01
   1  -2   3   33.00    1.09
   1   2   4   73.14    2.06
  -1  -2  -4   81.94    2.05
  -1   2  -4   82.82    2.13
   1  -2   4   73.38    2.04
   1   2   5   92.11    2.54
   1  -2   5   94.83    2.56
  -1   2  -5   98.28    2.54
   1  -2   6   26.21    1.17
  -1  -2  -6   27.88    0.86
  -1  -2  -6   27.35    0.88
  -1  -2  -6   28.25    0.88
   1   2   6   27.35    1.20
  -1   2  -7  191.74    4.40
  -1   2  -7  200.18    4.43
  -1  -2  -7  202.63    4.45
  -1  -2  -7  206.85    4.52
  -1  -2  -7  200.09    4.43
  -1  -2  -7  200.91    4.52
  -1   2  -7  201.68    4.43
  -1   2  -7  214.43    4.95
   1  -2   7  205.24    5.05
  -1  -2  -7  202.70    4.49
   1   2   7  213.93    5.12
   1   2   8   78.37    2.58
  -1   2  -8   80.45    2.01
  -1  -2  -8   79.36    2.02
  -1   2  -8   73.19    1.91
   1  -2   8   72.95    2.50
  -1   2  -8   77.28    1.92
  -1   2  -8   78.24    1.92
  -1   2  -8   78.75    2.39
  -1  -2  -8   80.75    2.00
  -1  -2  -8   79.33    2.01
  -1  -2  -8   77.94    2.01
  -1  -2  -8   77.40    1.91
  -1   2  -8   81.64    2.01
  -1  -2  -8   78.91    1.92
  -1   2  -8   76.58    1.93
  -1  -2  -8   80.41    1.93
  -1  -2  -9   14.22    0.61
   1   2   9   14.99    1.11
  -1   2  -9   15.43    0.68
  -1   2  -9   16.12    0.64
  -1  -2  -9   14.98    0.70
  -1   2  -9   15.81    0.72
  -1   2  -9   15.39    0.64
  -1   2  -9   13.75    0.62
   1  -2   9   15.79    0.72
  -1  -2  -9   14.56    0.68
  -1  -2  -9   14.48    0.58
  -1   2  -9   16.28    0.71
  -1  -2  -9   14.93    0.72
   1  -2   9   13.19    1.04
  -1  -2  -9   14.63    0.71
   1  -2  10   30.62    1.62
   1  -2  10   33.72    1.14
  -1   2 -10   32.14    1.12
  -1   2 -10   33.14    1.07
  -1   2 -10   34.64    1.14
  -1  -2 -10   34.30    1.12
  -1   2 -10   32.85    1.11
  -1  -2 -10   33.44    1.06
  -1  -2 -10   33.52    1.16
  -1  -2 -10   34.41    1.16
   1   2  10   30.54    1.68
  -1   2 -10   35.20    1.15
  -1  -2 -10   35.35    1.15
  -1   2 -10   32.84    1.04
  -1   2 -11   53.51    1.46
  -1   2 -11   51.51    1.52
   1  -2  11   53.05    1.53
  -1  -2 -11   51.88    1.47
  -1   2 -11   51.70    1.44
  -1  -2 -11   50.23    1.50
   1   2  11   46.10    2.12
  -1   2 -11   51.43    1.47
  -1   2 -11   52.68    1.55
  -1   2 -11   55.18    1.57
  -1  -2 -11   50.01    1.53
   1  -2  11   49.45    2.13
  -1  -2 -11   53.06    1.57
  -1  -2 -11   51.25    1.55
  -1   2 -12   91.40    2.27
  -1  -2 -12   92.55    2.40
  -1   2 -12   95.01    2.40
  -1  -2 -12   89.99    2.30
  -1   2 -12   96.22    2.41
  -1  -2 -12   97.64    2.43
  -1  -2 -12   91.32    2.38
  -1   2 -12   90.52    2.32
   1  -2  12   92.57    2.32
  -1   2 -12   96.19    2.39
  -1   2 -12   91.91    2.29
  -1  -2 -12   95.05    2.36
  -1   2 -13   26.75    0.91
  -1  -2 -13   26.78    0.96
  -1   2 -13   25.15    0.91
  -1  -2 -13   23.71    0.90
  -1   2 -13   22.67    0.77
  -1   2 -13   24.71    0.81
   1  -2  13   22.09    0.93
  -1  -2 -13   25.24    0.86
  -1   2 -14  140.11    3.12
  -1  -2 -14  138.99    3.14
   1  -2  15    8.16    0.37
   1   2  15    7.08    0.41
   1  -3 -14   -0.10    0.23
   1   3 -14    0.01    0.24
  -1  -3  14   -0.11    0.22
   1   3 -14    0.22    0.20
   1   3 -14    0.09    0.18
   1   3 -14    0.04    0.21
   1   3 -14    0.22    0.24
   1  -3 -13  121.21    2.93
  -1  -3  13  125.94    2.96
   1   3 -13  123.11    2.94
   1   3 -13  127.64    2.96
   1   3 -13  124.53    2.88
   1   3 -13  122.90    2.90
   1   3 -13  126.12    2.93
   1   3 -13  127.82    2.91
   1   3 -12    0.69    0.32
   1  -3 -12    0.53    0.35
  -1  -3  12    0.66    0.28
   1   3 -12    1.08    0.36
  -1  -3  12    0.77    0.37
   1   3 -12    0.16    0.35
   1  -3 -12    0.75    0.37
   1   3 -12    0.71    0.33
   1  -3 -12    0.59    0.33
   1   3 -12    0.44    0.36
   1   3 -11   74.64    1.92
   1  -3 -11   68.76    1.93
   1   3 -11   73.92    1.98
   1  -3 -11   69.54    1.94
   1   3 -11   73.02    1.90
   1   3 -11   75.90    2.00
   1  -3 -11   66.69    1.72
   1   3 -11   72.16    1.91
   1   3 -11   75.60    1.90
  -1  -3  11   73.03    1.93
  -1  -3  11   71.63    2.02
   1   3 -11   69.74    1.82
   1  -3 -11   75.02    1.96
   1   3 -10  132.87    3.12
   1  -3 -10  129.30    3.17
   1   3 -10  132.00    3.08
   1  -3 -10  128.74    3.16
  -1  -3  10  130.75    3.17
   1   3 -10  127.10    3.05
   1   3 -10  132.19    3.14
   1  -3 -10  133.16    3.15
   1  -3 -10  122.12    2.98
   1   3 -10  138.22    3.15
   1   3 -10  129.67    3.67
  -1  -3  10  118.55    3.91
   1   3 -10  131.70    3.09
   1   3  -9    4.36    0.40
   1  -3  -9    3.47    0.32
   1  -3  -9    3.98    0.37
  -1  -3   9    4.31    0.45
   1  -3  -9    4.14    0.45
   1  -3  -9    3.84    0.43
  -1  -3   9    4.45    0.74
   1   3  -9    3.87    0.39
   1   3  -9    4.05    0.65
   1   3  -9    4.71    0.39
   1   3  -9    4.24    0.43
   1   3  -9    4.12    0.45
   1   3  -9    4.47    0.45
   1  -3  -9    4.26    0.45
   1   3  -9    4.42    0.40
   1   3  -8   51.85    1.43
   1  -3  -8   50.58    1.45
   1  -3  -8   47.98    1.35
   1  -3  -8   49.17    1.33
  -1  -3   8   51.84    1.50
   1  -3  -8   53.42    1.46
   1  -3  -8   51.88    1.46
   1   3  -8   49.02    1.38
   1   3  -8   50.50    1.44
   1   3  -8   51.98    1.41
   1   3  -8   50.34    1.44
   1  -3  -7    0.29    0.27
  -1  -3   7    0.63    0.52
   1  -3  -7    0.80    0.20
  -1  -3   7    0.48    0.32
   1  -3  -7    0.66    0.30
   1  -3  -7    0.93    0.29
   1   3  -7    0.62    0.25
   1   3  -7    0.40    0.26
  -1  -3   7    0.38    0.51
   1   3  -7    0.51    0.28
   1  -3  -6    4.35    0.35
   1  -3  -6    4.42    0.35
   1  -3  -6    4.16    0.37
  -1  -3   6    3.48    0.56
   1   3  -6    3.66    0.33
   1  -3  -6    3.48    0.29
  -1  -3   6    3.46    0.58
  -1  -3   6    3.70    0.40
   1   3  -5   73.01    2.22
  -1  -3   5   70.69    1.84
   1  -3  -5   71.30    1.73
  -1  -3   5   71.79    2.13
   1  -3  -5   68.61    1.74
   1  -3  -5   72.31    1.76
   1  -3  -5   74.39    1.77
   1   3  -5   69.36    2.14
   1  -3  -5   71.14    1.77
  -1  -3   5   72.79    2.22
  -1  -3   4    3.15    0.44
  -1  -3   4    2.88    0.44
   1  -3  -4    2.86    0.28
   1   3  -4    2.94    0.43
   1   3  -4    3.02    0.40
   1   3  -3    5.90    0.55
  -1  -3   3    7.10    0.52
  -1  -3   3    5.87    0.48
   1   3  -3    6.07    0.48
   1   3  -2  322.43    7.02
  -1  -3   2  331.23    6.91
   1   3  -2  299.49    7.03
  -1  -3   2  302.14    6.88
   1   3  -1  167.18    3.74
   1   3  -1  148.19    3.56
  -1  -3   1  166.84    3.56
  -1  -3   1  155.86    3.52
  -1  -3   1  145.10    3.35
  -1  -3   0    0.30    0.22
  -1  -3   0    0.19    0.14
   1   3   0    0.49    0.28
   1   3   1 2261.46   47.26
  -1   3  -1 2330.33   47.16
  -1  -3  -1 2200.32   47.02
  -1  -3  -1 2323.58   47.07
   1   3   1 2340.82   47.33
   1   3   2  250.99    5.92
  -1  -3  -2  276.28    5.78
  -1   3  -2  266.85    5.80
  -1   3  -2  256.14    5.78
   1   3   2  275.83    6.04
  -1  -3  -3   11.76    0.53
  -1   3  -3   12.95    0.72
  -1   3  -4  130.46    3.21
  -1  -3  -4  119.70    2.79
   1  -3   4  123.93    2.84
  -1  -3  -4  124.11    2.80
  -1  -3  -4  120.26    2.77
  -1  -3  -5   39.92    1.15
  -1  -3  -5   41.90    1.15
  -1   3  -5   41.63    1.51
  -1  -3  -5   40.94    1.17
  -1  -3  -5   40.39    1.17
  -1  -3  -6  639.17   13.38
   1  -3   6  621.78   13.45
  -1  -3  -6  638.87   13.38
  -1   3  -6  627.41   13.90
  -1  -3  -6  632.89   13.37
  -1   3  -7   34.69    1.48
  -1   3  -7   36.40    1.06
  -1  -3  -7   35.67    1.11
  -1  -3  -7   34.98    1.14
  -1  -3  -7   36.91    1.11
   1  -3   7   37.37    1.21
  -1  -3  -7   35.14    1.10
  -1  -3  -8    1.98    0.34
  -1  -3  -8    2.32    0.36
  -1  -3  -8    1.90    0.38
  -1  -3  -8    2.28    0.42
  -1   3  -8    1.28    0.51
   1  -3   8    1.51    0.41
  -1   3  -8    1.39    0.29
  -1  -3  -8    2.06    0.35
  -1  -3  -9   36.89    1.13
  -1   3  -9   38.58    1.21
  -1   3  -9   33.53    1.08
  -1  -3  -9   36.95    1.18
  -1  -3  -9   37.56    1.24
  -1   3  -9   38.43    1.21
  -1   3  -9   37.84    1.60
  -1  -3  -9   38.68    1.28
   1  -3   9   36.41    1.28
  -1   3  -9   37.05    1.20
  -1  -3 -10    0.21    0.34
   1  -3  10   -0.35    0.37
  -1   3 -10   -0.09    0.33
  -1   3 -10    0.18    0.36
  -1  -3 -10   -0.07    0.38
  -1   3 -10    0.24    0.35
  -1   3 -11    0.21    0.34
  -1   3 -11    0.31    0.37
  -1  -3 -11    0.08    0.30
   1  -3  11    0.25    0.34
  -1  -3 -11   -0.09    0.36
  -1   3 -11    0.37    0.33
  -1   3 -11   -0.06    0.33
  -1   3 -11    0.28    0.36
  -1  -3 -12    5.69    0.41
  -1  -3 -12    5.08    0.46
  -1   3 -12    5.90    0.45
  -1   3 -12    4.92    0.43
  -1   3 -12    5.37    0.46
  -1   3 -12    5.25    0.45
   1  -3  12    4.79    0.42
  -1   3 -12    5.71    0.47
  -1   3 -13    3.33    0.35
  -1   3 -13    3.45    0.34
  -1   3 -13    3.88    0.36
  -1   3 -13    3.85    0.39
   1  -3  13    3.19    0.31
  -1  -3 -13    4.19    0.39
  -1   3 -14    4.72    0.32
   1  -3  14    4.37    0.34
  -1  -4  14    9.43    0.37
   1   4 -13    0.10    0.22
   1   4 -13    0.25    0.22
   1   4 -13    0.01    0.20
   1   4 -13    0.13    0.16
  -1  -4  13    0.29    0.21
   1   4 -13    0.05    0.21
   1   4 -12   18.05    0.63
   1   4 -12   18.22    0.69
  -1  -4  12   18.94    0.73
   1   4 -12   19.98    0.72
   1   4 -12   19.49    0.71
   1   4 -12   18.40    0.70
   1   4 -11   11.87    0.53
  -1  -4  11   11.73    0.58
   1   4 -11   11.71    0.61
   1   4 -11   11.67    0.61
   1   4 -11   10.72    0.53
   1  -4 -11   10.84    0.45
   1   4 -11   10.79    0.53
  -1  -4  11   11.15    0.62
   1   4 -11   11.13    0.59
   1   4 -10    0.71    0.28
   1   4 -10    0.96    0.30
   1   4 -10    0.74    0.32
  -1  -4  10    0.45    0.41
  -1  -4  10    0.62    0.35
   1  -4 -10    0.25    0.25
   1   4 -10    0.87    0.30
   1   4  -9    6.88    0.47
   1   4  -9    7.92    0.52
   1  -4  -9    6.80    0.46
   1  -4  -9    6.74    0.52
  -1  -4   9    6.49    0.55
   1   4  -9    7.25    0.44
  -1  -4   9    6.97    0.59
   1   4  -9    6.14    0.47
   1   4  -8   18.38    0.73
   1  -4  -8   16.09    0.69
  -1  -4   8   16.98    0.80
   1  -4  -8   17.93    0.76
  -1  -4   8   16.28    0.82
   1   4  -8   15.58    1.05
   1  -4  -8   14.56    0.62
   1   4  -8   17.17    0.66
   1   4  -8   16.78    0.73
   1  -4  -8   14.86    0.59
  -1  -4   7  451.62    9.70
   1  -4  -7  431.84    9.42
  -1  -4   7  434.85   10.21
  -1  -4   7  456.26    9.67
   1  -4  -7  447.75    9.51
   1   4  -7  441.73    9.48
   1   4  -7  440.23   10.25
  -1  -4   6   92.62    2.40
   1  -4  -6   92.48    2.24
   1   4  -6   96.91    2.93
   1  -4  -6   88.45    2.27
  -1  -4   6   94.21    2.82
   1  -4  -5  638.04   13.37
  -1  -4   5  629.54   13.94
  -1  -4   5  624.87   13.53
   1   4  -5  640.84   14.11
  -1  -4   4   18.43    0.98
   1   4  -4   16.15    0.89
   1   4  -4   18.60    1.07
  -1  -4   4   17.51    0.76
  -1  -4   4   18.22    0.78
   1  -4  -4   18.80    0.70
   1   4  -4   19.40    0.99
  -1  -4   4   18.59    0.67
   1   4  -3  143.45    3.67
  -1  -4   3  142.63    3.37
  -1  -4   3  141.29    3.28
  -1  -4   3  149.74    3.64
   1  -4  -3  139.73    3.29
  -1  -4   3  142.06    3.37
  -1  -4   3  142.75    3.36
   1   4  -3  149.10    3.76
   1  -4  -2   70.01    1.76
  -1  -4   2   68.74    1.80
  -1  -4   2   65.65    1.93
  -1  -4   2   68.58    1.80
  -1  -4   2   70.65    1.76
   1   4  -2   69.11    2.11
   1   4  -2   68.48    2.13
  -1  -4   2   67.16    1.79
  -1  -4   1   36.49    1.08
  -1  -4   1   32.70    1.13
  -1  -4   1   36.20    1.09
  -1  -4   1   36.09    1.07
   1  -4  -1   34.06    1.00
   1   4  -1   32.86    1.32
  -1  -4   1   36.62    0.99
   1   4  -1   35.39    1.35
  -1  -4   1   36.66    1.09
  -1  -4   0    1.47    0.28
   1  -4   0    1.72    0.28
  -1  -4   0    1.62    0.28
  -1  -4   0    1.17    0.29
  -1  -4   0    1.53    0.26
   1   4   0    0.75    0.36
   1  -4   0    1.82    0.26
   1  -4   0    1.95    0.24
   1  -4   1    8.90    0.39
   1  -4   1    9.12    0.45
  -1  -4  -1    9.50    0.53
  -1   4  -1    9.84    0.56
   1  -4   1    8.11    0.45
  -1  -4  -1    8.62    0.50
  -1  -4  -1    8.65    0.46
   1  -4   1    8.82    0.45
  -1  -4  -1    9.07    0.46
  -1  -4  -1    9.13    0.47
   1  -4   2  116.93    2.70
  -1   4  -2  115.06    3.17
   1  -4   2  113.86    2.77
  -1  -4  -2  117.66    2.74
  -1  -4  -2  121.16    2.79
  -1  -4  -2  117.32    2.74
  -1  -4  -2  118.56    2.80
   1  -4   2  111.66    2.74
  -1  -4  -2  114.50    2.75
  -1   4  -3   11.16    0.80
   1  -4   3    9.64    0.54
  -1  -4  -3    9.46    0.52
   1   4   3    8.85    0.66
   1  -4   3    9.70    0.54
  -1  -4  -3    8.88    0.51
  -1  -4  -3   10.52    0.50
   1  -4   3    9.49    0.45
   1  -4   4    2.36    0.36
   1  -4   4    2.53    0.40
   1  -4   4    2.73    0.27
  -1  -4  -4    2.52    0.39
   1   4   4    2.09    0.47
  -1   4  -4    2.17    0.52
  -1  -4  -4    2.11    0.30
  -1  -4  -5  480.60   10.13
   1   4   5  462.84   10.67
  -1  -4  -5  479.23   10.14
  -1   4  -5  468.70   10.69
   1  -4   5  462.43   10.18
  -1  -4  -5  465.50   10.05
  -1   4  -6    7.11    0.77
  -1  -4  -6    7.55    0.55
  -1  -4  -6    6.84    0.45
  -1  -4  -6    8.07    0.53
  -1   4  -7  634.85   14.36
  -1  -4  -7  657.12   13.75
  -1  -4  -7  679.09   13.77
  -1  -4  -7  621.78   13.60
  -1  -4  -8    1.89    0.39
  -1   4  -8    2.49    0.56
   1  -4   8    1.15    0.43
   1  -4   9  139.63    3.41
  -1   4  -9  142.07    3.31
  -1   4  -9  139.33    3.33
  -1   4  -9  137.80    3.30
   1  -4  10    5.66    0.52
  -1   4 -10    6.24    0.48
  -1   4 -10    6.44    0.46
  -1  -4 -10    5.08    0.39
  -1   4 -10    5.09    0.43
  -1   4 -11    2.92    0.36
  -1   4 -11    2.56    0.33
  -1  -4 -11    2.42    0.27
  -1   4 -11    2.42    0.32
  -1   4 -11    2.72    0.34
   1  -4  11    2.31    0.38
  -1   4 -11    2.82    0.39
   1  -4  11    2.97    0.39
   1  -4  12    1.13    0.31
   1  -4  12    0.84    0.26
  -1   4 -12    1.45    0.30
  -1   4 -12    1.34    0.28
  -1   4 -12    1.12    0.24
  -1   4 -12    1.27    0.26
  -1   4 -12    0.82    0.23
  -1   4 -13    0.76    0.20
   1  -4  13    0.92    0.17
   1  -4  13    1.16    0.24
  -1   4 -13    0.94    0.22
   1   5 -12    3.85    0.26
   1   5 -12    3.80    0.26
  -1  -5  12    4.44    0.27
  -1  -5  11    3.68    0.33
  -1  -5  11    3.15    0.30
   1   5 -11    3.17    0.29
   1   5 -11    3.46    0.31
   1  -5 -11    3.12    0.21
   1   5 -11    3.90    0.29
   1   5 -10    4.93    0.32
   1   5 -10    4.67    0.37
   1   5 -10    5.33    0.38
  -1  -5  10    4.68    0.41
  -1  -5  10    5.12    0.40
   1   5 -10    4.95    0.39
   1  -5 -10    4.51    0.30
   1  -5  -9    0.32    0.26
   1   5  -9    0.97    0.28
  -1  -5   9    0.71    0.31
   1  -5  -8   44.68    1.23
   1   5  -8   41.29    1.18
  -1  -5   8   42.91    1.33
  -1  -5   8   40.38    1.31
   1   5  -8   43.33    1.24
  -1  -5   7    9.55    0.60
   1  -5  -7    8.59    0.46
   1  -5  -7    9.24    0.54
   1   5  -7    8.28    0.49
  -1  -5   7    9.37    0.64
  -1  -5   6  992.50   20.97
   1  -5  -6  995.31   20.80
  -1  -5   6  996.91   20.99
   1  -5  -5   31.65    1.01
  -1  -5   5   32.95    1.14
  -1  -5   5   30.79    0.94
  -1  -5   5   30.69    1.13
  -1  -5   5   30.46    1.09
   1   5  -5   32.00    1.53
   1  -5  -4  200.05    4.46
  -1  -5   4  190.89    4.40
  -1  -5   4  191.64    4.55
   1  -5  -4  202.34    4.48
  -1  -5   4  201.77    4.57
   1   5  -4  190.64    5.15
  -1  -5   4  198.41    4.55
  -1  -5   3  216.31    4.99
   1   5  -3  211.96    5.60
  -1  -5   3  218.89    4.89
   1  -5  -3  223.90    4.93
  -1  -5   3  217.17    4.97
   1  -5  -3  218.55    4.88
   1  -5  -2   10.27    0.53
  -1  -5   2   10.20    0.58
   1   5  -2    9.82    0.76
  -1  -5   2   11.01    0.61
  -1  -5   1   17.75    0.64
  -1  -5   1   22.32    0.83
  -1  -5   1   20.47    0.80
   1  -5  -1   20.37    0.72
   1   5  -1   18.56    1.04
   1  -5  -1   20.80    0.79
  -1  -5   1   20.25    0.75
   1  -5   0   15.93    0.67
  -1  -5   0   14.55    0.63
  -1  -5   0   14.23    0.65
   1   5   0   15.13    0.95
   1  -5   0   14.28    0.56
   1  -5   1    8.94    0.47
   1  -5   1    9.46    0.53
  -1   5  -1    8.36    0.74
   1  -5   1    8.96    0.40
  -1  -5  -1    9.16    0.50
  -1  -5  -1    9.19    0.51
   1   5   1    9.74    0.79
   1  -5   1    9.11    0.49
   1   5   2    0.66    0.46
   1  -5   2    0.32    0.29
   1  -5   2    0.22    0.25
  -1   5  -2   -0.10    0.39
  -1  -5  -2    0.37    0.26
   1  -5   2    0.09    0.27
  -1  -5  -2    0.06    0.34
   1   5   2    0.51    0.38
  -1  -5  -3   29.49    0.95
  -1   5  -3   28.36    1.37
  -1  -5  -3   30.68    1.02
   1  -5   3   28.39    0.98
   1  -5   3   27.66    0.90
   1  -5   3   27.64    1.00
   1  -5   4    9.76    0.60
   1  -5   4    9.35    0.46
  -1   5  -4    9.63    0.82
   1  -5   4    9.44    0.56
  -1  -5  -5   40.15    1.19
   1  -5   5   37.08    1.12
  -1   5  -5   38.49    1.59
   1  -5   5   35.66    1.21
   1  -5   5   38.42    1.27
  -1  -5  -6   26.82    0.89
   1  -5   6   27.67    1.01
   1  -5   6   26.63    1.03
  -1   5  -7    5.89    0.41
   1  -5   7    5.66    0.51
   1  -5   7    6.27    0.54
  -1  -5  -7    5.28    0.37
  -1   5  -8  479.83   10.08
   1  -5   8  476.79   10.23
  -1   5  -8  465.12   10.06
  -1  -5  -8  477.70   10.10
  -1   5  -9    0.42    0.24
  -1  -5  -9    0.30    0.26
  -1   5  -9    0.18    0.26
   1  -5   9    0.15    0.32
   1  -5   9    0.59    0.32
  -1   5  -9    0.28    0.22
   1  -5  10   17.56    0.68
  -1   5 -10   17.32    0.57
  -1   5 -10   17.57    0.63
  -1  -5 -10   17.23    0.58
  -1   5 -10   18.32    0.60
  -1   5 -10   19.28    0.67
   1  -5  10   18.21    0.69
  -1   5 -11    6.63    0.32
   1  -5  11    7.01    0.37
  -1   5 -11    7.95    0.37
   1  -5  11    7.10    0.38
  -1  -5 -11    5.53    0.26
  -1   5 -11    6.56    0.30
   1  -6  -9    9.99    0.35
   1   6  -9   10.56    0.40
   1   6  -8    0.09    0.17
   1   6  -8    0.32    0.19
   1  -6  -8    0.01    0.18
  -1  -6   8    0.43    0.23
  -1  -6   7    0.24    0.26
   1  -6  -6    1.58    0.26
  -1  -6   6    1.71    0.32
   1  -6  -5   24.67    0.79
   1  -6  -5   26.17    0.82
   1  -6  -4    0.48    0.25
   1  -6  -4    0.82    0.26
   1  -6  -3   26.24    0.88
   1  -6  -3   25.69    0.81
  -1  -6   3   25.43    0.82
   1  -6  -2   80.70    1.96
  -1  -6   2   84.72    2.06
   1  -6  -1    7.86    0.50
  -1  -6   1    8.58    0.50
  -1  -6   0  140.74    3.25
   1  -6   0  136.31    3.19
   1  -6   1    6.96    0.43
   1  -6   2  116.46    2.74
  -1  -6  -2  114.48    2.73
  -1  -6  -3    7.93    0.45
  -1  -6  -3    9.20    0.50
  -1  -6  -4    6.70    0.42
  -1  -6  -4    5.65    0.41
  -1  -6  -5   10.22    0.48
  -1  -6  -5   10.76    0.51
  -1  -6  -6   68.97    1.68
  -1  -6  -6   67.04    1.63
  -1  -6  -7  136.07    3.12
  -1   6  -7  156.21    3.20
  -1  -6  -8   20.61    0.62
  -1   6  -8   20.90    0.63
  -1  -6  -9   30.76    0.77
  -1  -7   1    0.08    0.15
  -1  -7   0    5.62    0.30
  -1  -7  -1   68.01    1.60
  -1  -7  -3   38.15    0.96
  -1  -7  -4   13.55    0.42
   2   0 -16   13.58    0.50
   2   0 -16   14.55    0.52
   2   0 -16   14.94    0.52
   2   0 -15    0.03    0.27
   2   0 -15    0.02    0.27
   2   0 -15    0.43    0.27
   2   0 -14    0.16    0.24
   2   0 -14    0.43    0.34
   2   0 -14    0.39    0.33
   2   0 -13    0.15    0.29
   2   0 -12 1737.75   36.33
   2   0 -12 1759.74   36.32
   2   0 -12 1763.36   36.34
   2   0 -12 1697.68   37.03
  -2   0  12 1758.75   37.74
  -2   0  11    0.79    0.74
   2   0 -11    0.61    0.54
   2   0 -11    0.20    0.31
   2   0 -11    0.47    0.32
   2   0 -11    0.71    0.32
   2   0 -11    0.04    0.35
   2   0 -11    0.27    0.26
  -2   0  10  438.51    9.83
   2   0 -10  448.36    9.42
   2   0 -10  434.79    9.42
   2   0 -10  435.84    9.47
   2   0 -10  437.36    9.36
   2   0 -10  442.09    9.43
   2   0 -10  436.01    9.49
   2   0 -10  442.83   10.07
  -2   0  10  455.03   10.57
   2   0  -9    0.13    0.24
   2   0  -9    0.26    0.28
   2   0  -9   -0.05    0.20
   2   0  -9    0.17    0.25
   2   0  -9    0.10    0.28
   2   0  -9    0.24    0.24
   2   0  -9    0.33    0.45
  -2   0   9   -0.06    0.59
  -2   0   9   -0.13    0.36
   2   0  -9   -0.05    0.25
   2   0  -8    1.28    0.27
   2   0  -8    1.34    0.43
   2   0  -8    1.13    0.25
   2   0  -8    1.14    0.25
  -2   0   8    1.22    0.34
   2   0  -8    1.48    0.24
   2   0  -8    1.40    0.27
   2   0  -8    1.45    0.27
   2   0  -8    1.76    0.26
   2   0  -7    0.24    0.37
  -2   0   7    0.02    0.30
  -2   0   6    1.91    0.33
   2   0  -6    1.53    0.37
   2   0  -5    0.25    0.32
   2   0  -5   -0.11    0.21
  -2   0   5    0.19    0.27
  -2   0   4   13.74    0.54
   2   0  -4   13.03    0.60
   2   0  -3    0.32    0.15
   2   0  -3    0.32    0.25
   2   0  -2  133.88    2.87
   2   0  -2  132.14    3.03
  -2   0   2  130.56    3.13
  -2   0   1    0.04    0.26
   2   0  -1   -0.11    0.32
   2   0  -1    0.07    0.18
   2   0   0 3372.80   67.77
  -2   0   0 3313.28   67.69
  -2   0   0 3194.64   67.70
   2   0   0 3172.07   67.74
   2   0   0 3356.39   67.64
   2   0   1    0.04    0.25
   2   0   1    0.30    0.15
  -2   0  -1    0.35    0.23
   2   0   3    0.22    0.39
  -2   0  -3    0.14    0.29
   2   0   4   55.09    1.67
  -2   0  -4   54.60    1.54
  -2   0  -5    0.44    0.31
   2   0   5   -0.26    0.44
   2   0   6  271.75    6.89
  -2   0  -6  314.28    6.74
  -2   0  -7    0.32    0.23
  -2   0  -7    0.01    0.23
  -2   0  -7    0.22    0.23
   2   0   7    0.28    0.50
  -2   0  -8  249.24    5.39
  -2   0  -8  250.22    5.46
  -2   0  -8  242.45    5.47
   2   0   8  251.30    6.29
  -2   0  -8  254.30    5.50
  -2   0  -8  249.97    5.44
  -2   0  -8  246.35    5.42
  -2   0  -8  251.30    5.45
  -2   0  -8  248.81    5.49
  -2   0  -9    0.49    0.32
  -2   0  -9   -0.25    0.24
  -2   0  -9   -0.18    0.30
  -2   0  -9    0.09    0.29
  -2   0  -9   -0.02    0.27
  -2   0  -9   -0.02    0.27
  -2   0  -9    0.84    0.28
   2   0   9   -0.45    0.65
  -2   0  -9    0.43    0.22
  -2   0 -10   68.12    1.73
  -2   0 -10   66.12    1.75
   2   0  10   67.54    2.61
  -2   0 -10   67.58    1.79
  -2   0 -10   66.09    1.78
  -2   0 -10   68.08    1.81
  -2   0 -11   -0.06    0.30
  -2   0 -11    0.11    0.32
   2   0  11    0.16    0.71
  -2   0 -11    0.08    0.31
  -2   0 -11   -0.02    0.27
  -2   0 -11    0.09    0.27
  -2   0 -12    3.92    0.45
  -2   0 -12    3.64    0.40
   2   0  12    2.27    0.76
  -2   0 -12    3.27    0.39
  -2   0 -12    3.17    0.35
  -2   0 -12    2.98    0.35
  -2   0 -13    0.17    0.28
  -2   0 -13   -0.12    0.25
  -2   0 -13    0.02    0.34
  -2   0 -13    0.02    0.29
  -2   0 -14    5.93    0.40
  -2   0 -14    5.42    0.44
   2   0  14    6.23    0.59
  -2   0 -14    5.13    0.35
   2   0  15    0.25    0.34
  -2   0 -15    0.28    0.23
   2   1 -16   19.60    0.60
   2  -1 -16   21.54    0.64
   2   1 -16   21.38    0.63
   2  -1 -16   22.65    0.65
   2   1 -16   20.23    0.64
   2  -1 -15   43.41    1.21
   2   1 -15   44.00    1.21
   2  -1 -15   43.11    1.21
   2   1 -15   43.96    1.22
   2  -1 -14    5.54    0.45
   2   1 -14    5.10    0.41
   2   1 -14    5.30    0.45
   2   1 -14    4.79    0.40
   2   1 -14    5.65    0.46
   2  -1 -14    5.21    0.44
   2  -1 -13    0.11    0.34
   2  -1 -13    0.18    0.30
   2   1 -13    0.06    0.24
   2   1 -13    0.06    0.35
   2   1 -13    0.06    0.31
   2  -1 -13    0.08    0.35
   2   1 -13    0.28    0.37
   2  -1 -13   -0.11    0.35
   2   1 -13    0.48    0.33
   2   1 -12  124.15    3.04
   2   1 -12  126.77    3.04
   2   1 -12  123.70    3.04
   2   1 -12  128.37    3.02
   2  -1 -12  126.02    3.05
   2   1 -12  127.57    2.97
   2   1 -12  120.46    2.95
   2  -1 -12  125.57    3.08
  -2   1  12  137.70    4.17
   2   1 -12  129.96    3.09
  -2  -1  12  132.68    4.08
   2  -1 -12  121.37    3.05
   2  -1 -12  120.19    3.52
   2   1 -12  121.01    3.53
   2   1 -11   93.21    2.42
   2   1 -11   96.11    2.39
   2   1 -11   98.95    2.42
  -2  -1  11   93.78    2.89
   2   1 -11   93.70    2.34
   2   1 -11   96.01    2.41
  -2   1  11   92.65    3.31
   2  -1 -11   96.86    2.43
  -2  -1  11   93.35    3.30
   2   1 -11   94.98    2.44
   2  -1 -11   95.91    2.44
   2   1 -11   98.73    2.46
   2  -1 -11   95.33    2.43
   2  -1 -11   90.68    2.87
   2   1 -11   91.52    2.88
   2   1 -11   95.48    2.42
   2   1 -10   99.18    2.42
   2  -1 -10   99.94    2.44
   2   1 -10   98.52    2.45
   2  -1 -10   96.70    2.44
  -2   1  10   97.09    3.31
   2   1 -10  103.12    2.46
  -2  -1  10  100.01    3.31
   2  -1 -10   96.38    2.36
   2   1 -10   95.99    2.44
   2   1 -10   97.86    2.43
  -2  -1  10  100.09    2.92
   2  -1 -10   96.53    2.89
   2   1 -10   95.06    2.36
   2   1 -10   98.84    2.46
   2   1 -10   98.07    2.43
   2  -1 -10   98.71    2.45
   2   1 -10   97.66    2.46
   2   1 -10   92.69    2.86
   2   1 -10   96.90    2.40
   2   1  -9   12.87    0.61
  -2   1   9   15.01    1.11
  -2  -1   9   13.92    0.89
   2   1  -9   13.30    0.59
   2  -1  -9   12.10    0.55
   2   1  -9   14.57    0.63
   2   1  -9   13.80    0.64
  -2  -1   9   13.13    1.06
   2  -1  -9   14.23    0.63
   2   1  -9   14.16    0.63
   2  -1  -9   13.24    0.55
   2   1  -9   12.64    0.62
   2  -1  -9   13.69    0.62
   2  -1  -9   13.17    0.60
   2   1  -9   13.86    0.88
   2  -1  -9   13.09    0.56
   2  -1  -9   14.29    0.88
   2  -1  -9   14.29    0.62
   2   1  -9   14.27    0.63
   2   1  -9   13.27    0.62
   2   1  -9   13.01    0.59
   2  -1  -8  123.31    2.87
   2  -1  -8  120.17    2.79
   2   1  -8  119.84    2.88
   2   1  -8  120.58    2.88
   2  -1  -8  122.68    2.81
  -2  -1   8  131.09    3.27
   2   1  -8  130.12    3.18
   2   1  -8  121.89    2.84
   2  -1  -8  120.97    3.23
   2  -1  -8  125.07    2.88
   2  -1  -8  124.76    2.87
   2  -1  -8  122.14    2.84
   2   1  -8  123.94    2.87
   2   1  -8  124.01    2.89
   2   1  -8  123.70    3.26
   2   1  -7    0.12    0.24
  -2  -1   7   -0.03    0.34
  -2   1   7    0.22    0.23
   2   1  -7    0.05    0.23
   2   1  -7    0.18    0.22
   2  -1  -7    0.21    0.34
   2   1  -7    0.19    0.26
   2  -1  -7    0.15    0.21
   2   1  -7   -0.03    0.21
   2   1  -7    0.31    0.31
   2  -1  -7   -0.16    0.22
   2   1  -7    0.09    0.34
  -2   1   6  230.31    5.05
   2   1  -6  238.67    5.27
  -2  -1   6  247.97    5.30
   2  -1  -6  219.28    5.29
   2   1  -6  227.06    5.31
   2   1  -5 1314.47   26.98
  -2  -1   5 1271.12   26.95
   2   1  -5 1294.90   26.98
  -2   1   5 1289.73   26.75
   2  -1  -5 1294.34   26.97
  -2   1   4   24.63    0.67
   2   1  -4   24.42    0.92
   2   1  -4   22.34    0.79
  -2  -1   4   23.57    0.81
   2   1  -4   24.29    0.83
   2  -1  -4   22.81    0.81
   2   1  -3    2.04    0.30
   2  -1  -3    1.47    0.25
   2   1  -3    1.65    0.27
  -2  -1   3    2.13    0.29
   2   1  -2  303.81    6.61
   2  -1  -2  314.05    6.55
  -2   1   2  298.78    6.51
   2   1  -2  306.98    6.55
   2   1  -1  623.67   12.99
   2   1  -1  617.98   12.83
   2   1  -1  621.56   13.03
  -2   1   1  604.38   12.64
   2  -1  -1  623.11   12.83
  -2   1   1  634.67   12.76
   2  -1   0  805.04   16.35
  -2   1   0  801.87   16.35
  -2   1   0  786.35   16.23
   2   1   0  760.39   16.54
  -2  -1   0  771.07   16.35
   2   1   0  771.69   16.49
   2  -1   1 9465.18  194.17
  -2  -1  -1 9153.23  194.23
  -2   1  -1 8904.25  194.16
  -2   1  -1 9999.00  194.28
  -2  -1  -1 9080.47  194.40
   2   1   1 9997.61  194.41
  -2   1  -1 9989.91  194.24
  -2   1  -2 3680.88   74.37
  -2   1  -2 3718.48   74.40
   2  -1   2 3492.83   74.29
   2  -1   3 1249.23   25.53
  -2   1  -3 1227.87   25.35
  -2   1  -3 1199.57   25.33
   2   1   3 1206.81   25.52
   2  -1   4   17.93    0.89
   2   1   4   18.14    0.86
  -2   1  -4   17.90    0.68
  -2   1  -4   18.27    0.73
  -2   1  -5    9.57    0.57
   2   1   5    8.58    0.72
   2  -1   5   10.08    0.71
   2   1   6    0.40    0.47
   2  -1   6    0.67    0.48
   2  -1   7    1.27    0.55
  -2   1  -7    1.92    0.26
  -2   1  -7    2.58    0.29
  -2  -1  -7    1.99    0.29
  -2  -1  -7    1.75    0.26
   2   1   7    1.29    0.56
  -2   1  -7    2.53    0.31
  -2   1  -7    3.01    0.31
  -2  -1  -7    2.18    0.28
  -2  -1  -7    2.36    0.31
  -2   1  -7    2.05    0.28
  -2  -1  -8  552.47   11.85
   2  -1   8  566.63   12.70
  -2   1  -8  566.71   11.87
  -2   1  -8  551.68   11.78
  -2  -1  -8  570.21   11.84
  -2   1  -8  542.75   11.78
   2   1   8  579.05   12.76
  -2   1  -8  552.84   11.87
  -2  -1  -8  568.75   11.85
  -2   1  -8  555.42   11.85
  -2  -1  -8  562.07   11.86
  -2   1  -8  565.61   11.84
  -2   1  -8  564.36   11.88
  -2  -1  -9  164.24    3.74
  -2   1  -9  173.60    3.80
  -2   1  -9  162.01    3.75
  -2   1  -9  163.67    3.75
  -2  -1  -9  160.87    3.75
   2   1   9  153.91    4.57
   2  -1   9  165.08    4.60
  -2  -1  -9  150.95    3.60
  -2   1  -9  164.95    3.68
  -2  -1  -9  161.33    3.74
  -2  -1  -9  163.98    3.73
  -2   1  -9  159.69    3.75
  -2   1  -9  165.73    3.73
  -2   1  -9  161.95    3.67
   2   1  10    0.29    0.63
  -2   1 -10    0.53    0.34
  -2   1 -10    0.27    0.34
  -2  -1 -10    0.28    0.29
  -2   1 -10    0.42    0.30
  -2   1 -10    0.48    0.32
   2  -1  10    0.07    0.59
  -2  -1 -10    0.26    0.31
  -2   1 -10    0.89    0.32
  -2  -1 -10   -0.13    0.22
  -2  -1 -10    0.70    0.34
  -2   1 -10    0.09    0.26
  -2  -1 -10    0.70    0.34
  -2   1 -10    0.37    0.33
  -2   1 -10    0.52    0.27
  -2   1 -11   12.64    0.68
   2   1  11   12.62    1.20
  -2   1 -11   14.19    0.70
  -2   1 -11   13.73    0.62
  -2  -1 -11   13.59    0.69
  -2   1 -11   13.32    0.70
  -2  -1 -11   12.15    0.64
  -2  -1 -11   13.47    0.65
  -2  -1 -11   13.05    0.66
  -2   1 -11   13.78    0.61
  -2   1 -11   12.21    0.60
   2  -1  11   12.78    1.18
  -2   1 -11   13.22    0.67
  -2  -1 -12    0.26    0.36
  -2   1 -12    0.33    0.30
  -2   1 -12    0.27    0.34
  -2  -1 -12   -0.04    0.32
  -2   1 -12    0.02    0.27
  -2  -1 -12   -0.02    0.29
  -2   1 -12    0.10    0.27
  -2  -1 -12    0.15    0.33
  -2   1 -13   16.69    0.72
  -2  -1 -13   15.98    0.68
   2   1  13   15.32    0.87
   2  -1  13   16.15    0.87
  -2   1 -13   15.24    0.65
  -2   1 -13   16.07    0.63
  -2  -1 -13   16.41    0.73
  -2  -1 -13   16.73    0.71
  -2  -1 -13   17.31    0.73
  -2  -1 -14   21.51    0.75
   2   1  14   19.82    0.88
   2  -1  14   19.83    0.86
  -2   1 -14   19.48    0.73
  -2  -1 -14   19.49    0.69
   2  -1  15  256.76    5.66
   2   1  15  271.84    5.69
  -2  -1 -15  270.31    5.57
  -2  -1 -15  247.77    5.50
   2   2 -15    0.62    0.24
   2  -2 -15    0.72    0.23
   2   2 -15    1.03    0.23
   2  -2 -15    0.88    0.25
   2   2 -14    8.66    0.49
   2   2 -14    8.79    0.48
   2  -2 -14    8.07    0.49
   2   2 -14    8.85    0.50
   2   2 -14    8.87    0.49
   2  -2 -14    8.76    0.49
   2  -2 -14    7.96    0.48
   2   2 -13   52.86    1.52
  -2  -2  13   52.08    1.44
   2   2 -13   53.25    1.49
   2   2 -13   52.09    1.43
   2  -2 -13   53.19    1.50
   2  -2 -13   53.10    1.52
   2   2 -13   52.42    1.51
   2   2 -13   56.32    1.55
   2  -2 -13   53.77    1.52
   2   2 -13   54.51    1.51
   2   2 -12  106.37    2.70
   2   2 -12  106.94    2.69
   2  -2 -12  108.42    2.72
   2   2 -12  109.10    2.68
   2   2 -12  110.47    2.64
   2   2 -12  108.37    2.71
   2  -2 -12  108.35    2.68
  -2  -2  12  105.88    2.67
   2   2 -12  115.11    2.71
   2   2 -12  108.73    2.67
   2  -2 -12  105.36    2.70
   2   2 -11   75.57    2.02
   2   2 -11   77.71    1.98
   2   2 -11   77.53    2.03
   2   2 -11   75.33    2.01
   2   2 -11   76.79    2.00
   2   2 -11   75.76    2.00
   2   2 -11   77.59    2.04
   2  -2 -11   76.20    2.02
   2   2 -11   69.88    2.29
   2  -2 -11   71.82    2.00
   2   2 -11   72.69    1.94
  -2  -2  11   76.17    2.02
   2  -2 -11   74.38    2.02
   2  -2 -11   69.94    2.29
   2   2 -11   76.29    2.02
   2   2 -11   73.74    1.99
  -2   2  11   72.19    2.74
  -2  -2  11   73.40    2.57
   2  -2 -11   71.72    1.97
  -2  -2  11   74.47    2.70
  -2  -2  11   70.89    2.91
   2   2 -10   62.77    1.65
   2   2 -10   62.84    1.69
   2   2 -10   63.41    1.72
   2   2 -10   59.63    1.70
  -2  -2  10   66.36    2.31
   2   2 -10   62.39    1.72
   2  -2 -10   59.73    1.70
   2   2 -10   60.55    1.68
   2  -2 -10   58.09    1.71
   2   2 -10   59.44    2.03
   2   2 -10   61.61    1.71
  -2   2  10   60.84    2.38
  -2  -2  10   60.04    2.32
   2   2 -10   61.09    1.69
   2  -2 -10   59.13    1.66
   2  -2 -10   60.11    2.02
   2   2 -10   60.15    2.00
   2   2 -10   60.04    1.69
  -2  -2  10   59.72    1.62
   2  -2 -10   59.55    1.69
   2   2  -9    1.43    0.36
   2   2  -9    1.89    0.31
  -2   2   9    0.49    0.57
  -2  -2   9    1.87    0.32
   2   2  -9    1.40    0.42
   2  -2  -9    1.39    0.41
  -2  -2   9    2.14    0.59
   2   2  -9    1.44    0.45
   2   2  -9    1.78    0.36
  -2  -2   9    2.06    0.63
   2  -2  -9    1.15    0.36
   2   2  -9    1.76    0.36
   2  -2  -9    1.51    0.32
   2   2  -9    1.58    0.35
   2   2  -9    1.75    0.33
   2   2  -9    1.49    0.34
   2  -2  -9    1.85    0.24
   2  -2  -9    2.13    0.37
   2  -2  -8    4.57    0.38
  -2  -2   8    4.13    0.60
   2   2  -8    4.31    0.35
   2  -2  -8    3.71    0.48
   2  -2  -8    4.07    0.41
   2  -2  -8    4.45    0.31
   2   2  -8    4.57    0.53
  -2  -2   8    3.73    0.67
   2   2  -8    3.90    0.36
   2   2  -8    4.55    0.34
   2   2  -8    4.34    0.42
   2   2  -8    4.12    0.39
   2  -2  -8    4.71    0.37
   2  -2  -8    4.40    0.39
   2   2  -8    4.26    0.53
   2   2  -8    3.98    0.39
  -2   2   8    5.06    0.73
  -2  -2   8    3.95    0.37
   2   2  -7   18.79    0.62
  -2  -2   7   19.74    1.00
  -2  -2   7   17.73    1.02
   2  -2  -7   17.16    0.60
   2  -2  -7   17.90    0.67
   2   2  -7   17.85    0.65
   2   2  -7   17.16    0.68
   2   2  -7   18.16    0.71
   2   2  -7   16.34    0.62
   2   2  -7   16.87    0.63
   2  -2  -7   18.71    0.65
   2  -2  -7   17.93    0.83
   2   2  -7   18.68    0.85
   2  -2  -7   18.07    0.69
  -2  -2   7   18.44    0.68
   2   2  -7   19.72    0.95
   2   2  -6  218.90    4.97
  -2  -2   6  209.36    5.26
   2  -2  -6  205.10    4.57
  -2  -2   6  206.80    4.91
   2  -2  -6  200.46    4.76
   2   2  -6  203.92    4.77
   2  -2  -6  210.35    4.58
   2   2  -5 3902.42   79.37
   2  -2  -5 3761.83   79.15
   2   2  -5 3871.23   79.17
   2   2  -5 3836.78   79.46
  -2  -2   5 3824.47   79.67
   2   2  -4    0.15    0.29
  -2  -2   4    0.41    0.42
   2   2  -4   -0.03    0.35
  -2  -2   3   57.90    1.61
   2   2  -3   57.39    1.70
   2   2  -3   62.33    1.75
  -2  -2   3   62.41    1.81
  -2  -2   2    2.55    0.33
   2   2  -2    2.55    0.38
   2   2  -2    2.34    0.37
  -2  -2   2    2.75    0.42
  -2  -2   1   48.85    1.30
   2   2  -1   53.44    1.45
  -2   2   1   49.67    1.21
  -2  -2   1   46.44    1.20
   2  -2  -1   47.16    1.22
   2   2  -1   49.90    1.24
   2   2  -1   47.35    1.46
   2   2  -1   48.26    1.51
  -2  -2   1   53.99    1.46
   2  -2   0    0.02    0.15
   2   2   0    0.47    0.32
   2   2   0    0.07    0.16
  -2   2   0    0.14    0.16
  -2   2   0    0.06    0.05
  -2  -2   0    0.20    0.31
   2   2   0    0.22    0.36
  -2   2  -1  899.08   18.70
   2   2   1  890.28   18.89
  -2  -2  -1  894.89   18.88
  -2  -2  -2  178.93    4.15
  -2   2  -2  176.44    4.04
  -2   2  -3    5.46    0.44
  -2  -2  -3    6.61    0.51
  -2   2  -4  361.12    7.98
  -2  -2  -4  365.41    8.07
  -2  -2  -5   73.11    1.86
  -2   2  -5   76.70    2.14
  -2  -2  -5   82.35    2.20
  -2  -2  -5   82.83    1.91
  -2  -2  -5   76.96    1.88
   2   2   5   71.53    2.22
   2  -2   6   53.23    1.83
  -2  -2  -6   52.07    1.42
  -2  -2  -6   52.54    1.42
  -2   2  -6   52.03    1.38
  -2   2  -6   51.19    1.36
  -2   2  -6   56.85    1.73
  -2  -2  -6   53.78    1.44
   2   2   6   51.10    1.81
  -2  -2  -7   21.61    0.76
  -2   2  -7   19.64    0.73
   2  -2   7   18.31    1.09
  -2   2  -7   20.36    0.72
  -2   2  -7   18.97    0.72
  -2  -2  -7   20.37    0.73
  -2  -2  -7   20.17    0.77
  -2  -2  -7   22.39    0.76
  -2  -2  -7   19.89    0.67
  -2  -2  -7   21.02    0.78
  -2   2  -7   19.17    0.67
  -2  -2  -7   20.92    0.78
  -2   2  -7   17.90    0.95
   2   2   7   19.12    1.11
  -2  -2  -8   20.17    0.74
  -2  -2  -8   21.21    0.81
  -2   2  -8   20.55    0.74
  -2   2  -8   21.13    0.77
  -2   2  -8   21.44    0.79
  -2   2  -8   21.37    0.79
  -2  -2  -8   20.16    0.73
  -2  -2  -8   20.48    0.76
  -2  -2  -8   20.85    0.81
  -2  -2  -8   21.33    0.84
   2   2   8   19.24    1.21
   2  -2   8   19.94    1.19
  -2  -2  -8   21.06    0.82
  -2   2  -9  175.22    4.05
   2  -2   9  167.02    4.74
  -2   2  -9  182.22    4.07
  -2   2  -9  170.66    3.98
  -2   2  -9  172.38    4.08
  -2   2  -9  178.60    4.04
   2   2   9  180.22    4.87
  -2  -2  -9  171.56    3.97
  -2  -2  -9  175.24    3.99
  -2  -2  -9  173.56    3.96
  -2  -2  -9  171.57    4.07
  -2  -2  -9  178.65    4.10
  -2  -2  -9  183.03    4.09
  -2  -2  -9  180.12    4.09
  -2  -2 -10   11.83    0.57
  -2   2 -10   12.88    0.65
  -2   2 -10   12.94    0.65
   2  -2  10   13.81    0.70
  -2   2 -10   12.53    0.62
  -2  -2 -10   13.13    0.70
  -2   2 -10   11.60    0.66
  -2   2 -10   13.39    0.69
  -2  -2 -10   13.73    0.72
  -2  -2 -10   13.83    0.67
  -2  -2 -10   13.42    0.62
  -2  -2 -10   13.20    0.69
   2  -2  11   35.00    1.19
  -2  -2 -11   39.79    1.28
  -2   2 -11   38.11    1.23
  -2   2 -11   34.12    1.14
  -2  -2 -11   36.52    1.13
  -2   2 -11   37.20    1.19
  -2   2 -11   38.24    1.20
   2  -2  11   31.46    1.24
  -2   2 -11   33.93    1.12
  -2  -2 -11   35.22    1.19
  -2   2 -11   37.43    1.15
  -2  -2 -11   35.51    1.18
  -2   2 -12    9.34    0.55
  -2  -2 -12    9.35    0.59
   2  -2  12    9.39    0.64
  -2   2 -12   10.61    0.57
   2   2  12   10.36    0.70
  -2  -2 -12    9.38    0.57
  -2   2 -12    9.80    0.61
  -2  -2 -12    9.30    0.52
  -2   2 -12    9.71    0.53
   2  -2  12    9.23    0.54
  -2   2 -12   10.26    0.59
  -2  -2 -13    5.03    0.41
  -2   2 -13    4.33    0.39
  -2  -2 -13    4.54    0.41
   2   2  13    4.20    0.50
  -2   2 -14  161.10    3.56
  -2  -2 -14  161.59    3.57
   2   2  14  157.69    3.64
  -2  -2 -14  159.15    3.56
   2  -2  15    0.96    0.19
   2  -3 -14   31.37    0.88
   2   3 -14   30.63    0.87
   2   3 -14   29.81    0.88
   2   3 -13    2.95    0.36
   2  -3 -13    2.70    0.34
   2   3 -13    2.69    0.34
   2   3 -13    2.89    0.31
  -2  -3  13    3.11    0.33
   2   3 -12   15.75    0.69
   2  -3 -12   17.45    0.72
   2  -3 -12   15.97    0.70
   2   3 -12   16.50    0.72
   2   3 -12   16.49    0.67
   2   3 -12   15.28    0.64
   2   3 -12   15.76    0.70
   2   3 -12   16.06    0.70
   2   3 -12   15.99    0.68
   2  -3 -12   18.06    0.72
  -2  -3  12   16.04    0.71
   2   3 -11  149.68    3.44
   2   3 -11  150.56    3.41
   2   3 -11  147.99    3.48
  -2  -3  11  150.82    3.53
  -2  -3  11  148.32    3.43
   2   3 -11  149.51    3.47
   2  -3 -11  152.25    3.46
   2  -3 -11  146.62    3.47
   2   3 -11  149.93    3.43
   2   3 -11  151.44    3.48
   2  -3 -11  147.20    3.46
   2   3 -11  150.69    3.48
   2  -3 -10    6.18    0.38
   2   3 -10    4.36    0.46
   2   3 -10    4.58    0.41
  -2  -3  10    4.73    0.84
   2  -3 -10    5.42    0.48
  -2  -3  10    5.13    0.80
   2  -3 -10    5.46    0.46
   2   3 -10    5.35    0.51
   2   3 -10    4.32    0.65
   2   3 -10    5.61    0.45
   2  -3 -10    5.68    0.46
  -2  -3  10    5.90    0.47
   2   3 -10    5.39    0.46
   2   3 -10    5.90    0.47
  -2  -3  10    5.93    0.53
   2   3 -10    5.18    0.50
   2   3  -9    0.39    0.37
   2   3  -9    0.39    0.27
  -2  -3   9    0.18    0.30
   2  -3  -9    0.29    0.32
   2   3  -9    0.50    0.30
   2   3  -9    0.20    0.35
   2   3  -9    0.35    0.31
   2  -3  -9    0.89    0.32
  -2  -3   9    0.21    0.58
   2   3  -9    0.44    0.43
   2   3  -9   -0.05    0.34
   2  -3  -9    0.32    0.30
  -2  -3   9    0.15    0.35
   2  -3  -9    0.65    0.25
   2   3  -9   -0.32    0.32
   2   3  -8   96.69    2.32
  -2  -3   8   96.47    3.16
   2   3  -8   97.36    2.32
   2   3  -8   98.86    2.91
   2   3  -8   96.13    2.40
   2  -3  -8   93.30    2.31
   2   3  -8  101.27    2.44
   2  -3  -8   94.47    2.37
   2  -3  -8   94.50    2.35
  -2  -3   8   93.88    2.47
   2   3  -8   97.66    2.41
  -2  -3   8   94.12    2.43
   2  -3  -8   97.50    2.39
  -2  -3   7    6.77    0.72
  -2  -3   7    7.27    0.49
   2   3  -7    7.17    0.71
   2  -3  -7    7.00    0.44
   2  -3  -7    6.36    0.36
  -2  -3   7    6.92    0.53
   2   3  -7    6.92    0.43
   2   3  -7    7.76    0.49
   2  -3  -7    6.87    0.43
   2  -3  -7    6.77    0.42
   2  -3  -7    6.98    0.44
  -2  -3   7    5.98    0.80
   2   3  -7    7.34    0.40
  -2  -3   6  430.09    9.21
   2  -3  -6  444.58    9.05
   2   3  -6  415.97    9.05
   2  -3  -6  427.94    9.07
  -2  -3   6  454.24    9.64
   2  -3  -6  419.31    9.06
   2   3  -6  429.10    9.68
  -2  -3   6  421.65    9.16
   2  -3  -6  424.00    9.01
  -2  -3   6  428.09    9.82
   2  -3  -6  407.99    9.04
  -2  -3   5   97.77    2.58
   2  -3  -5   87.17    2.11
   2   3  -5   93.88    2.64
  -2  -3   5   87.33    2.23
   2  -3  -5   92.33    2.15
  -2  -3   5   89.52    2.67
   2  -3  -5   90.63    2.13
   2  -3  -5   90.08    2.14
   2   3  -5   91.63    2.66
  -2  -3   5   88.73    2.26
  -2  -3   4   71.11    1.83
   2  -3  -4   68.65    1.71
   2  -3  -4   70.75    1.71
  -2  -3   4   71.73    2.15
  -2  -3   4   72.20    1.81
  -2  -3   4   72.31    2.04
   2   3  -4   69.29    2.18
   2   3  -4   71.15    2.10
  -2  -3   3    5.00    0.48
   2   3  -3    5.27    0.57
  -2  -3   3    4.71    0.52
   2   3  -3    5.12    0.50
  -2  -3   2    3.23    0.39
   2   3  -2    2.26    0.43
   2   3  -2    3.03    0.43
  -2  -3   2    3.62    0.42
  -2  -3   1    7.84    0.48
   2   3  -1    8.18    0.59
   2   3  -1    7.40    0.55
  -2  -3   1    7.54    0.49
  -2  -3   1    7.32    0.51
  -2  -3   0  244.06    5.50
  -2  -3   0  248.42    5.63
   2   3   0  251.23    5.82
  -2  -3  -1   36.32    1.00
  -2   3  -1   35.74    1.17
  -2  -3  -1   35.98    1.02
   2   3   1   37.84    1.32
  -2  -3  -1   34.93    1.14
  -2  -3  -2  316.78    7.00
  -2  -3  -2  325.40    7.29
  -2   3  -2  349.59    7.40
  -2  -3  -2  342.84    7.10
   2   3   2  324.56    7.50
   2   3   2  338.79    7.53
  -2  -3  -3   37.91    1.08
  -2  -3  -3   37.07    1.08
  -2   3  -3   40.77    1.36
  -2  -3  -3   37.64    1.24
   2   3   3   38.35    1.45
  -2  -3  -4   54.48    1.52
  -2   3  -4   58.83    1.81
  -2  -3  -4   56.91    1.48
  -2  -3  -5   10.03    0.53
  -2  -3  -5   11.02    0.55
  -2  -3  -5   10.22    0.56
  -2  -3  -5    9.51    0.47
  -2   3  -5   11.32    0.75
  -2  -3  -5   10.95    0.54
  -2  -3  -6    1.27    0.31
  -2  -3  -6    1.48    0.34
  -2  -3  -6    2.06    0.35
  -2  -3  -6    1.39    0.32
  -2   3  -6    1.32    0.43
  -2   3  -7  276.27    6.06
  -2  -3  -7  292.57    6.17
  -2  -3  -7  274.68    6.12
  -2  -3  -7  277.32    6.11
  -2   3  -7  267.74    6.06
  -2   3  -7  281.67    6.61
  -2  -3  -7  271.38    6.13
  -2   3  -8  957.65   20.02
  -2  -3  -8  975.08   20.11
  -2   3  -8  958.14   20.62
  -2  -3  -8  957.26   20.05
  -2  -3  -8  945.06   20.09
  -2   3  -8  949.54   20.04
  -2   3  -8  957.40   20.05
  -2  -3  -8  950.93   20.04
   2  -3   8  942.72   20.17
  -2  -3  -9   35.89    1.12
  -2  -3  -9   34.43    1.18
   2  -3   9   34.22    1.24
  -2   3  -9   35.32    1.16
  -2  -3  -9   34.89    1.13
  -2   3  -9   36.98    1.15
  -2  -3  -9   36.22    1.20
  -2   3  -9   35.96    1.12
  -2   3 -10   57.59    1.60
  -2  -3 -10   57.05    1.63
  -2   3 -10   55.40    1.56
  -2   3 -10   55.27    1.62
   2  -3  10   56.08    1.67
  -2   3 -10   56.12    1.55
  -2  -3 -10   52.67    1.58
  -2   3 -11    6.49    0.52
  -2   3 -11    5.42    0.42
  -2   3 -11    6.34    0.46
  -2  -3 -11    5.97    0.50
  -2   3 -11    6.09    0.47
  -2  -3 -11    6.15    0.48
   2  -3  11    5.34    0.48
   2  -3  12    5.78    0.44
  -2   3 -12    5.93    0.42
  -2   3 -12    7.35    0.50
  -2   3 -12    6.53    0.41
  -2   3 -13    0.01    0.25
   2  -3  13   -0.01    0.21
   2  -3  14    6.52    0.36
  -2  -4  14    1.29    0.17
   2   4 -13    4.06    0.31
   2   4 -13    3.64    0.29
  -2  -4  13    3.42    0.28
   2   4 -13    3.23    0.26
   2   4 -13    4.27    0.30
  -2  -4  12    1.61    0.30
   2   4 -12    2.29    0.32
   2   4 -12    1.95    0.33
   2   4 -12    1.63    0.29
   2   4 -12    2.10    0.32
   2   4 -12    1.78    0.28
   2   4 -12    2.23    0.29
  -2  -4  11    9.14    0.55
   2   4 -11    9.47    0.55
   2   4 -11    8.73    0.48
   2  -4 -11    8.51    0.39
   2   4 -11   10.18    0.57
   2   4 -11    9.91    0.52
   2   4 -11    8.51    0.43
   2   4 -11    9.08    0.51
   2  -4 -10   40.54    1.16
   2   4 -10   42.39    1.28
   2  -4 -10   40.41    1.21
   2   4 -10   41.67    1.26
   2   4 -10   43.69    1.18
   2   4 -10   45.23    1.22
  -2  -4  10   44.83    1.37
   2   4 -10   45.95    1.32
   2   4 -10   41.18    1.21
   2  -4  -9    3.70    0.37
   2   4  -9    3.48    0.43
   2   4  -9    3.35    0.38
   2   4  -9    3.75    0.45
   2  -4  -9    3.53    0.36
  -2  -4   9    3.27    0.43
   2   4  -9    3.55    0.33
  -2  -4   9    3.25    0.46
   2   4  -9    3.00    0.37
   2   4  -9    3.35    0.41
   2  -4  -8    8.83    0.52
  -2  -4   8    8.84    0.91
   2   4  -8    8.34    0.82
   2  -4  -8    9.57    0.53
  -2  -4   8   10.09    0.66
   2   4  -8   10.09    0.56
   2   4  -8    9.65    0.51
   2   4  -8   10.27    0.57
  -2  -4   8    9.07    0.63
   2  -4  -7   81.63    2.06
   2  -4  -7   79.85    2.04
  -2  -4   7   82.47    2.22
   2   4  -7   81.94    2.07
   2   4  -7   76.52    2.63
  -2  -4   7   85.24    2.21
   2   4  -7   78.70    2.01
   2  -4  -7   82.58    2.01
   2   4  -7   80.00    2.10
  -2  -4   7   85.11    2.69
   2  -4  -6  657.63   13.56
   2  -4  -6  634.65   13.59
  -2  -4   6  656.38   14.25
  -2  -4   6  654.36   13.77
   2   4  -6  629.06   13.62
   2  -4  -6  636.27   13.57
  -2  -4   6  641.47   13.73
   2  -4  -5  714.30   15.28
  -2  -4   5  740.86   15.84
   2  -4  -5  739.79   15.27
  -2  -4   5  671.61   15.69
  -2  -4   5  723.53   15.25
   2   4  -5  775.78   16.03
   2  -4  -5  726.93   15.24
  -2  -4   4  329.51    7.10
  -2  -4   4  335.53    7.54
   2  -4  -4  334.76    7.09
   2   4  -4  335.24    7.66
   2   4  -4  328.01    7.73
   2  -4  -4  328.30    7.05
  -2  -4   3  123.29    3.26
   2  -4  -3  128.87    2.97
  -2  -4   3  129.20    3.07
  -2  -4   3  128.25    3.01
   2  -4  -3  131.88    3.00
   2   4  -3  124.43    3.46
   2  -4  -3  128.75    2.93
   2   4  -3  124.86    3.53
  -2  -4   3  128.55    3.24
  -2  -4   3  127.19    3.11
  -2  -4   3  128.12    3.10
  -2  -4   2    0.63    0.30
   2  -4  -2    0.46    0.20
  -2  -4   2    0.58    0.32
   2   4  -2    0.13    0.41
  -2  -4   2    0.68    0.28
   2  -4  -2    0.58    0.24
  -2  -4   2    0.60    0.31
   2   4  -2    0.58    0.44
   2  -4  -1    9.63    0.45
   2  -4  -1   10.24    0.49
   2   4  -1    9.83    0.77
  -2  -4   1   10.34    0.54
  -2  -4   1    8.82    0.54
  -2  -4   1   10.28    0.46
  -2  -4   1   10.66    0.54
  -2  -4   1    9.32    0.54
  -2  -4   1   10.51    0.56
   2   4  -1    8.28    0.71
   2  -4  -1   10.28    0.44
  -2  -4   0    2.21    0.30
   2  -4   0    1.73    0.25
   2  -4   0    1.80    0.28
   2   4   0    1.72    0.46
  -2  -4   0    1.75    0.35
  -2  -4   0    1.99    0.32
  -2  -4  -1    0.24    0.26
   2  -4   1    0.23    0.17
  -2  -4  -1    0.26    0.29
  -2  -4  -1    0.34    0.28
   2   4   1    0.48    0.43
  -2  -4  -1    0.40    0.30
  -2   4  -1    0.20    0.30
   2  -4   1    0.53    0.23
   2   4   1    0.11    0.35
   2  -4   1    0.56    0.23
  -2  -4  -2  139.42    3.20
   2  -4   2  131.06    3.18
  -2  -4  -2  132.98    3.18
   2  -4   2  137.51    3.09
  -2  -4  -2  141.39    3.22
  -2  -4  -2  133.06    3.22
   2   4   2  127.99    3.58
  -2   4  -2  137.34    3.54
  -2  -4  -2  141.04    3.20
   2  -4   2  134.17    3.14
   2  -4   3   87.40    2.23
  -2  -4  -3   91.31    2.24
   2  -4   3   87.47    2.27
  -2  -4  -3   91.27    2.26
  -2   4  -3   89.05    2.60
   2  -4   3   88.75    2.11
  -2  -4  -3   91.42    2.28
  -2  -4  -3   91.19    2.29
   2   4   3   88.67    2.69
  -2  -4  -4   45.21    1.32
  -2   4  -4   46.51    1.66
  -2  -4  -4   45.16    1.31
   2   4   4   43.20    1.71
   2  -4   4   42.76    1.37
  -2  -4  -5    6.38    0.50
  -2  -4  -5    6.22    0.47
  -2   4  -5    6.71    0.65
  -2  -4  -5    6.69    0.53
   2   4   5    5.67    0.70
   2  -4   5    6.09    0.54
  -2  -4  -6  281.92    6.10
   2  -4   6  278.22    6.18
  -2  -4  -6  279.29    6.12
  -2   4  -6  272.54    6.56
   2   4   6  264.56    6.78
  -2  -4  -6  260.72    5.96
  -2   4  -7   10.85    0.53
  -2  -4  -7   12.06    0.67
  -2   4  -7    9.84    0.80
  -2  -4  -7    8.89    0.48
   2   4   7   11.39    1.03
  -2  -4  -7   11.42    0.63
  -2  -4  -8  213.15    4.66
   2   4   8  200.91    5.44
  -2   4  -8  203.66    4.61
  -2   4  -8  205.58    4.56
  -2  -4  -8  203.47    4.64
  -2   4  -8  198.53    4.55
  -2   4  -8  197.96    5.11
   2  -4   8  200.02    4.75
   2  -4   9   14.65    0.76
  -2  -4  -9   14.42    0.66
  -2   4  -9   15.11    0.66
  -2   4  -9   13.98    0.60
  -2   4  -9   13.91    0.60
  -2   4 -10    0.17    0.24
  -2   4 -10    0.18    0.28
  -2   4 -10    0.18    0.24
   2  -4  10    0.26    0.37
  -2   4 -10    0.60    0.32
  -2   4 -11   23.93    0.77
   2  -4  11   24.08    0.83
  -2  -4 -11   22.15    0.67
  -2   4 -11   23.20    0.80
  -2   4 -11   20.92    0.69
  -2   4 -11   21.15    0.70
  -2   4 -11   23.64    0.76
  -2   4 -12    9.49    0.43
   2  -4  12    9.61    0.45
  -2   4 -12    9.97    0.45
   2  -4  13    1.61    0.22
  -2   4 -13    1.76    0.20
  -2  -5  12    0.02    0.14
  -2  -5  12    0.13    0.15
  -2  -5  11    0.38    0.23
   2   5 -11    0.53    0.21
   2   5 -11    0.65    0.23
   2   5 -11    0.35    0.18
  -2  -5  11    0.28    0.23
   2   5 -11    0.66    0.23
  -2  -5  10    6.60    0.43
   2  -5 -10    5.57    0.32
   2   5 -10    6.25    0.41
   2   5 -10    5.83    0.34
   2   5 -10    6.59    0.42
   2   5 -10    6.36    0.37
  -2  -5  10    6.58    0.43
   2  -5  -9   21.12    0.69
   2   5  -9   19.97    0.69
   2   5  -9   19.59    0.71
   2   5  -9   21.25    0.76
  -2  -5   9   21.60    0.83
  -2  -5   9   20.70    0.82
   2   5  -8   12.91    0.57
   2  -5  -8   12.83    0.57
  -2  -5   8   13.98    0.72
   2   5  -8   12.42    0.59
  -2  -5   8   13.44    0.69
  -2  -5   7  232.39    5.35
   2  -5  -7  241.09    5.19
   2   5  -7  229.95    5.16
   2  -5  -6   10.48    0.52
  -2  -5   6   10.02    0.65
   2   5  -6    9.72    0.52
   2  -5  -5    0.77    0.32
   2   5  -5    0.11    0.49
  -2  -5   5    0.53    0.39
  -2  -5   5    1.13    0.43
  -2  -5   5    0.79    0.26
   2   5  -4  156.71    4.43
  -2  -5   4  162.84    3.87
   2  -5  -4  165.31    3.71
   2  -5  -4  165.50    3.74
  -2  -5   4  154.67    3.84
   2  -5  -3  297.05    6.38
   2  -5  -3  285.66    6.32
  -2  -5   3  289.52    6.48
   2   5  -3  286.26    6.94
   2   5  -3  289.19    6.99
  -2  -5   3  289.30    6.47
   2  -5  -2   21.97    0.76
   2   5  -2   19.47    1.13
  -2  -5   2   22.32    0.86
  -2  -5   2   22.21    0.89
   2   5  -2   19.88    1.14
  -2  -5   2   21.13    0.88
   2  -5  -1    6.35    0.39
   2  -5  -1    6.54    0.45
  -2  -5   1    5.84    0.45
  -2  -5   1    6.54    0.50
   2   5  -1    5.62    0.69
  -2  -5   1    6.07    0.48
   2   5  -1    5.40    0.68
   2   5   0   25.77    1.30
  -2  -5   0   26.95    0.93
   2  -5   0   25.62    0.89
  -2  -5   0   26.56    0.95
   2  -5   0   25.23    0.79
   2   5   0   24.11    1.27
  -2  -5  -1   12.32    0.61
   2  -5   1   11.19    0.46
  -2  -5  -1   11.73    0.60
  -2  -5  -1   12.05    0.59
   2  -5   1   12.12    0.56
   2   5   1   10.81    0.88
   2   5   1    9.65    0.84
   2  -5   1   10.53    0.52
  -2  -5  -1   12.88    0.67
  -2  -5  -2   14.08    0.66
   2  -5   2   13.75    0.64
  -2  -5  -2   14.90    0.67
   2  -5   2   13.81    0.59
   2   5   2   14.72    1.01
   2  -5   3    0.85    0.27
   2  -5   3    0.38    0.29
   2  -5   3    0.45    0.22
   2   5   3    0.28    0.45
  -2  -5  -3    0.73    0.32
  -2  -5  -3    0.39    0.28
   2  -5   4    2.68    0.35
  -2  -5  -4    3.60    0.44
   2  -5   4    2.39    0.39
  -2  -5  -4    3.39    0.41
  -2  -5  -5   39.49    1.19
  -2  -5  -5   40.67    1.28
   2  -5   5   39.41    1.27
   2  -5   6    3.46    0.41
   2  -5   6    4.44    0.49
  -2  -5  -6    3.65    0.36
   2  -5   7    3.65    0.41
  -2  -5  -7    2.73    0.27
  -2   5  -7    3.21    0.35
   2  -5   7    2.30    0.41
  -2   5  -8   91.66    2.17
   2  -5   8   90.44    2.28
  -2  -5  -9  175.76    3.95
  -2   5  -9  177.46    3.92
  -2   5  -9  183.01    4.00
   2  -5   9  181.25    4.04
  -2  -5 -10    2.95    0.26
  -2   5 -10    3.45    0.29
  -2   5 -10    4.04    0.29
   2  -5  10    3.27    0.34
   2  -5  10    3.18    0.32
  -2   5 -11   33.44    0.84
   2  -5  11   32.14    0.88
   2  -5  11   33.28    0.88
   2   6  -9    7.71    0.34
   2   6  -9    7.73    0.32
   2  -6  -8    0.43    0.18
   2   6  -8    0.46    0.18
  -2  -6   7   43.94    1.20
   2   6  -7   45.61    1.18
  -2  -6   6   18.42    0.69
   2  -6  -6   19.55    0.63
   2  -6  -5   96.70    2.23
  -2  -6   5   94.44    2.32
   2  -6  -4   19.65    0.66
  -2  -6   4   19.43    0.74
   2  -6  -3   23.54    0.76
   2  -6  -3   26.53    0.84
  -2  -6   3   25.82    0.87
  -2  -6   3   24.64    0.82
   2  -6  -2    5.55    0.34
  -2  -6   2    6.08    0.42
  -2  -6   2    5.52    0.42
  -2  -6   1    5.98    0.45
   2  -6  -1    5.76    0.41
  -2  -6   1    5.41    0.41
   2  -6   0   16.66    0.65
  -2  -6   0   16.94    0.71
   2  -6   1   40.73    1.15
  -2  -6  -1   43.76    1.18
  -2  -6  -2   49.15    1.33
  -2  -6  -2   55.43    1.46
  -2  -6  -3    0.02    0.27
  -2  -6  -3    0.33    0.25
  -2  -6  -4   14.46    0.59
  -2  -6  -4   13.63    0.56
  -2  -6  -5   26.72    0.81
  -2  -6  -5   26.63    0.83
   2  -6   6   11.62    0.50
  -2  -6  -6   11.64    0.43
  -2  -6  -6   11.92    0.50
   2  -6   7   62.34    1.53
  -2  -6  -8   34.56    0.88
  -2  -7   1   23.63    0.65
  -2  -7   0    2.68    0.22
  -2  -7  -2   13.34    0.44
  -2  -7  -3    0.13    0.14
   3   0 -16   -0.12    0.18
   3   0 -16    0.11    0.18
   3   0 -16    0.12    0.19
   3   0 -15    0.06    0.25
   3   0 -15   -0.04    0.25
   3   0 -15    0.01    0.26
   3   0 -14    0.44    0.27
   3   0 -14    0.45    0.32
   3   0 -14    0.33    0.31
   3   0 -13    0.08    0.29
   3   0 -13    0.08    0.35
   3   0 -13   -0.02    0.33
   3   0 -12   39.14    1.17
   3   0 -12   37.17    1.23
   3   0 -12   38.46    1.15
   3   0 -12   40.29    1.23
   3   0 -12   39.46    1.26
   3   0 -12   35.61    1.56
  -3   0  12   37.18    1.98
  -3   0  11    0.32    0.73
   3   0 -11    1.07    0.31
   3   0 -11    0.07    0.29
   3   0 -11    0.26    0.37
   3   0 -11    0.19    0.45
  -3   0  10 1678.26   35.77
  -3   0  10 1803.66   36.69
   3   0 -10 1725.93   35.36
   3   0 -10 1720.96   35.43
   3   0 -10 1725.78   35.35
   3   0 -10 1653.15   35.98
   3   0 -10 1661.69   35.32
   3   0  -9    0.24    0.28
  -3   0   9    0.56    0.35
   3   0  -9   -0.06    0.22
   3   0  -9    0.05    0.28
   3   0  -9   -0.10    0.22
   3   0  -9    0.09    0.24
   3   0  -9    0.09    0.28
   3   0  -9   -0.02    0.29
   3   0  -9    0.40    0.30
   3   0  -9    0.23    0.23
   3   0  -9   -0.20    0.39
   3   0  -8   37.15    1.11
   3   0  -8   37.52    1.10
   3   0  -8   38.92    1.13
   3   0  -8   40.33    1.05
   3   0  -8   37.04    1.05
   3   0  -8   37.62    1.11
   3   0  -8   38.89    1.06
  -3   0   8   38.38    1.32
   3   0  -8   38.80    1.11
   3   0  -8   39.80    1.15
   3   0  -8   37.21    1.42
   3   0  -8   38.73    1.07
   3   0  -7    0.10    0.21
  -3   0   7    0.33    0.31
   3   0  -7    0.53    0.22
   3   0  -7    0.22    0.21
   3   0  -7   -0.09    0.22
   3   0  -7    0.06    0.23
   3   0  -7    0.17    0.22
   3   0  -7    0.09    0.32
  -3   0   6  236.82    5.18
   3   0  -6  221.64    5.26
   3   0  -5    0.11    0.17
  -3   0   5    0.10    0.44
  -3   0   5    0.31    0.30
   3   0  -5   -0.07    0.30
   3   0  -4  377.09    7.96
  -3   0   4  384.20    8.43
   3   0  -3    0.05    0.12
   3   0  -3    0.09    0.25
   3   0  -2   33.34    0.80
   3   0  -2   35.18    1.06
   3   0  -2   35.82    1.02
  -3   0   2   35.79    1.12
   3   0  -1    1.08    0.22
  -3   0   1    0.79    0.32
  -3   0   0  120.57    2.76
   3   0   0  118.07    2.67
   3   0   0  122.08    2.91
  -3   0   0  112.49    2.76
   3   0   0  113.10    2.82
   3   0   1   -0.08    0.16
  -3   0  -1   -0.08    0.24
   3   0   1    0.18    0.30
   3   0   2   97.70    2.48
  -3   0  -2  100.02    2.42
   3   0   2   99.56    2.25
  -3   0  -2  103.84    2.60
  -3   0  -3    0.18    0.32
   3   0   3   -0.07    0.32
  -3   0  -4  154.73    3.75
  -3   0  -5    0.30    0.32
   3   0   6  242.68    6.04
  -3   0  -6  243.74    5.40
   3   0   7    0.26    0.54
  -3   0  -7    0.20    0.25
  -3   0  -7    0.14    0.22
  -3   0  -7    0.04    0.20
   3   0   8  550.94   12.46
  -3   0  -8  562.36   11.53
   3   0   8  519.00   11.44
  -3   0  -8  548.13   11.47
  -3   0  -9    0.07    0.23
  -3   0  -9    0.21    0.28
  -3   0  -9   -0.19    0.26
  -3   0 -10   34.52    1.04
  -3   0 -10   36.16    1.11
  -3   0 -10   37.25    1.17
  -3   0 -10   35.82    1.08
  -3   0 -11    0.15    0.24
  -3   0 -11   -0.02    0.34
   3   0  11    0.03    0.52
  -3   0 -11    0.04    0.29
   3   0  12    9.96    0.78
  -3   0 -12    9.68    0.52
  -3   0 -12   10.21    0.58
   3   0  13    0.13    0.43
  -3   0 -13   -0.09    0.31
   3   0  14   26.14    0.98
  -3   0 -14   27.46    0.86
   3   0  15    0.26    0.27
   3   1 -16    1.93    0.20
   3  -1 -16    1.89    0.20
   3  -1 -16    2.32    0.21
   3  -1 -15    0.35    0.24
   3   1 -15    0.32    0.26
   3  -1 -15    0.44    0.24
   3  -1 -14    0.02    0.30
   3   1 -14    0.21    0.23
   3   1 -14   -0.16    0.25
   3  -1 -14   -0.07    0.27
   3   1 -14    0.69    0.32
   3  -1 -14    0.10    0.29
   3   1 -13   23.67    0.85
   3   1 -13   24.02    0.84
   3   1 -13   23.15    0.83
   3  -1 -13   24.38    0.89
   3  -1 -13   23.76    0.88
   3  -1 -13   23.13    0.89
   3   1 -12   32.18    1.04
   3   1 -12   31.83    1.04
  -3   1  12   29.45    1.76
  -3  -1  12   29.45    1.74
   3  -1 -12   31.82    1.09
   3   1 -12   32.01    1.01
   3   1 -12   31.06    1.11
   3  -1 -12   31.44    1.07
  -3  -1  12   27.44    1.76
  -3   1  12   28.03    1.65
   3  -1 -12   31.07    1.09
  -3  -1  11  409.76    9.44
   3   1 -11  413.01    8.87
   3   1 -11  402.70    8.76
   3   1 -11  415.12    8.81
   3   1 -11  409.77    8.80
  -3   1  11  399.70    9.99
  -3  -1  11  393.70    9.91
   3  -1 -11  413.57    8.86
   3   1 -11  391.83    8.68
   3   1 -11  415.57    8.88
   3  -1 -11  415.88    8.83
   3   1 -11  399.95    9.36
   3  -1 -11  387.66    9.33
  -3  -1  11  395.67   10.06
   3  -1 -11  414.15    8.84
   3   1 -10  103.74    2.56
   3   1 -10  101.83    2.58
   3   1 -10   99.18    2.43
   3   1 -10  104.33    2.54
   3   1 -10  104.15    2.54
   3  -1 -10  104.83    2.58
  -3   1  10  103.33    3.47
   3   1 -10  103.55    2.50
  -3  -1  10  105.56    3.47
   3   1 -10  102.68    2.59
   3  -1 -10  104.31    2.55
   3   1 -10  103.55    2.99
   3  -1 -10  102.27    2.98
   3  -1 -10  104.43    2.52
  -3  -1  10  102.82    3.53
   3   1 -10  102.43    2.57
  -3  -1  10  102.94    3.00
   3  -1 -10  106.11    2.56
   3   1  -9  172.97    3.95
   3   1  -9  169.66    4.00
   3   1  -9  175.76    3.93
   3   1  -9  174.09    4.00
   3   1  -9  167.60    3.94
   3   1  -9  177.88    3.99
   3  -1  -9  173.57    3.99
   3  -1  -9  175.65    3.96
   3   1  -9  174.31    4.40
   3  -1  -9  164.34    4.36
   3  -1  -9  177.16    3.97
   3  -1  -9  174.43    3.97
  -3  -1   9  178.40    4.45
   3   1  -9  176.59    4.01
   3   1  -9  178.05    4.04
   3   1  -8    0.66    0.30
   3   1  -8    1.01    0.25
  -3  -1   8    1.14    0.44
   3   1  -8    1.19    0.28
   3   1  -8    0.67    0.26
   3  -1  -8    1.01    0.26
   3   1  -8    1.10    0.28
   3   1  -8    0.84    0.29
   3  -1  -8    1.20    0.24
   3   1  -8    1.16    0.31
   3   1  -8    0.86    0.36
   3   1  -8    1.04    0.31
   3  -1  -8    1.08    0.27
   3   1  -8    1.05    0.33
   3  -1  -8    1.01    0.26
   3  -1  -8    0.96    0.38
  -3  -1   7   10.84    0.69
   3   1  -7   10.49    0.51
   3  -1  -7    9.91    0.46
   3   1  -7    9.29    0.49
   3   1  -7    9.72    0.48
  -3   1   7    9.94    0.51
   3   1  -7    9.84    0.60
   3  -1  -7    9.85    0.46
   3   1  -7    9.71    0.49
   3   1  -7   10.17    0.51
   3  -1  -7   10.08    0.47
   3   1  -7   10.26    0.67
   3  -1  -7    9.22    0.66
   3  -1  -7   10.88    0.48
  -3  -1   7    9.36    0.87
  -3   1   6   62.58    1.63
  -3  -1   6   60.75    1.83
   3   1  -6   64.26    1.58
   3   1  -6   62.60    1.75
   3   1  -6   63.65    1.62
   3   1  -6   63.76    1.59
   3   1  -6   64.55    1.85
   3  -1  -6   62.78    1.83
  -3  -1   6   64.95    2.20
   3   1  -5  732.56   15.29
  -3   1   5  716.45   15.14
  -3  -1   5  723.54   15.72
  -3   1   5  703.70   15.48
  -3  -1   5  736.72   15.32
  -3  -1   4 1228.82   25.36
   3   1  -4 1209.04   25.31
   3   1  -4 1179.86   25.51
  -3  -1   4 1223.64   25.74
  -3   1   4 1233.51   25.49
   3   1  -3   20.93    0.86
  -3   1   3   19.68    0.76
  -3  -1   3   19.05    0.93
   3   1  -2  122.09    3.00
   3   1  -2  126.10    2.94
  -3   1   2  124.99    2.88
   3  -1  -2  125.28    2.94
  -3  -1   2  125.30    3.10
   3   1  -1  203.92    4.53
  -3   1   1  197.96    4.47
  -3  -1   1  199.88    4.47
   3   1  -1  197.15    4.73
   3  -1  -1  203.33    4.46
   3   1  -1  199.99    4.46
   3   1  -1  193.90    4.52
  -3   1   1  202.60    4.38
  -3  -1   1  203.98    4.62
   3   1  -1  198.34    4.67
   3   1   0   63.10    1.64
  -3   1   0   61.70    1.60
  -3  -1   0   59.00    1.59
   3  -1   0   62.35    1.63
   3   1   0   65.74    1.86
  -3  -1   0   60.55    1.68
   3   1   0   59.01    1.78
   3  -1   1  534.39   11.01
  -3   1  -1  529.07   11.04
  -3  -1  -1  501.21   11.03
   3  -1   1  537.94   11.10
  -3   1  -1  522.34   11.14
   3   1   1  497.76   11.07
  -3   1  -2 1991.91   41.06
  -3  -1  -2 1986.74   41.06
  -3   1  -2 1939.56   41.12
   3  -1   2 2000.85   41.03
  -3   1  -3 1396.79   28.28
   3  -1   3 1322.26   28.17
   3  -1   4  321.32    7.14
  -3   1  -4  337.09    7.24
  -3   1  -5    6.02    0.47
   3  -1   5    5.33    0.43
  -3  -1  -6    6.21    0.37
  -3   1  -6    6.18    0.37
  -3   1  -6    5.57    0.38
  -3  -1  -6    6.45    0.37
  -3   1  -6    5.66    0.35
  -3  -1  -6    5.63    0.35
  -3  -1  -6    5.86    0.61
  -3  -1  -6    6.38    0.38
  -3  -1  -7  147.72    3.33
  -3   1  -7  142.90    3.36
  -3   1  -7  146.66    3.31
  -3  -1  -7  150.34    3.34
  -3   1  -7  144.89    3.34
  -3   1  -7  140.62    3.32
  -3  -1  -7  156.66    3.93
  -3   1  -7  147.93    3.34
  -3  -1  -7  145.06    3.35
  -3  -1  -7  144.61    3.32
  -3  -1  -8    2.21    0.32
  -3  -1  -8    2.44    0.31
  -3   1  -8    2.36    0.34
  -3   1  -8    2.18    0.36
  -3   1  -8    2.28    0.31
  -3   1  -8    1.97    0.31
  -3  -1  -8    1.73    0.29
  -3   1  -8    2.50    0.34
  -3  -1  -8    1.86    0.33
  -3  -1  -9  173.49    3.95
  -3   1  -9  171.00    3.95
  -3  -1  -9  170.21    3.93
  -3  -1  -9  171.57    3.92
  -3   1  -9  162.74    3.92
  -3   1  -9  169.10    3.96
  -3   1  -9  175.01    4.01
  -3  -1  -9  183.35    3.99
  -3   1 -10   63.39    1.76
  -3  -1 -10   64.99    1.74
   3  -1  10   61.14    1.94
   3   1  10   64.62    1.97
  -3  -1 -10   66.32    1.77
  -3   1 -10   66.01    1.81
  -3  -1 -10   65.86    1.78
  -3   1 -10   65.48    1.71
  -3  -1 -11   20.65    0.83
  -3   1 -11   20.00    0.75
  -3  -1 -11   20.41    0.79
   3   1  11   18.53    1.00
   3  -1  11   18.74    0.99
  -3   1 -11   21.67    0.84
  -3  -1 -11   22.97    0.88
   3  -1  12   -0.12    0.27
  -3  -1 -12    0.20    0.25
  -3   1 -12    0.06    0.30
   3   1  12    0.03    0.45
   3  -1  12   -0.46    0.48
  -3  -1 -12    0.10    0.32
  -3   1 -12    0.05    0.26
  -3  -1 -13   16.22    0.66
   3   1  13   14.94    0.79
   3  -1  13   14.57    0.78
  -3   1 -13   15.40    0.65
  -3  -1 -13   14.16    0.56
   3   1  14   27.55    0.96
   3  -1  14   26.70    0.94
  -3  -1 -14   27.04    0.83
  -3   1 -14   28.01    0.85
  -3   1 -15  107.43    2.43
  -3  -1 -15  110.58    2.42
   3   1  15  107.80    2.49
   3  -1  15  109.52    2.48
   3  -2 -15    6.77    0.35
   3   2 -15    6.90    0.37
   3   2 -15    6.77    0.36
   3  -2 -14   13.14    0.57
   3   2 -14   12.21    0.54
   3   2 -14   13.65    0.55
   3   2 -14   12.48    0.57
   3   2 -14   12.95    0.58
   3  -2 -14   12.89    0.55
   3  -2 -13    5.71    0.44
   3   2 -13    5.33    0.41
   3  -2 -13    5.21    0.43
   3   2 -13    4.55    0.41
   3   2 -13    5.25    0.43
   3   2 -13    5.49    0.44
   3  -2 -13    5.24    0.42
   3   2 -12   70.17    1.94
   3  -2 -12   71.01    1.91
   3   2 -12   72.70    1.88
   3   2 -12   72.29    1.94
   3   2 -12   74.11    1.92
   3  -2 -12   70.58    1.90
   3   2 -12   73.40    1.93
   3  -2 -12   70.00    1.93
   3   2 -12   76.31    1.96
   3   2 -12   70.50    1.92
   3  -2 -12   70.24    1.87
  -3   2  11  129.98    4.08
   3   2 -11  138.55    3.28
  -3  -2  11  144.85    3.93
   3   2 -11  134.88    3.21
   3  -2 -11  137.20    3.26
   3   2 -11  135.92    3.28
   3   2 -11  132.35    3.15
   3   2 -11  137.07    3.25
   3   2 -11  136.34    3.26
   3   2 -11  136.68    3.28
   3   2 -11  129.19    3.24
   3   2 -11  135.65    3.20
  -3  -2  11  129.71    4.01
   3  -2 -11  135.56    3.29
   3   2 -11  136.62    3.27
   3  -2 -11  131.48    3.19
  -3  -2  11  126.28    4.20
   3  -2 -11  135.19    3.24
  -3  -2  11  138.50    3.20
   3   2 -10    4.28    0.46
  -3  -2  10    4.53    0.72
  -3  -2  10    3.97    0.84
  -3   2  10    4.22    0.78
  -3  -2  10    5.88    0.83
   3   2 -10    4.82    0.44
   3  -2 -10    3.71    0.50
   3   2 -10    5.39    0.50
   3   2 -10    4.69    0.40
   3   2 -10    5.01    0.50
   3   2 -10    4.83    0.50
   3  -2 -10    4.77    0.42
   3   2 -10    4.08    0.56
   3   2 -10    5.12    0.49
   3  -2 -10    5.50    0.46
  -3  -2  10    4.84    0.41
  -3  -2   9   23.62    0.86
  -3  -2   9   23.73    1.34
   3   2  -9   22.76    0.91
   3   2  -9   22.24    0.83
   3   2  -9   24.74    0.82
  -3   2   9   23.74    1.39
   3   2  -9   22.59    1.10
  -3  -2   9   25.53    1.26
   3   2  -9   23.74    0.90
   3   2  -9   23.51    0.85
   3   2  -9   22.92    0.90
   3  -2  -9   21.90    0.71
   3   2  -9   23.43    0.90
   3  -2  -9   23.83    0.83
   3  -2  -9   25.13    0.89
  -3  -2   9   23.13    1.51
   3   2  -9   24.33    0.90
   3  -2  -9   24.05    0.86
   3  -2  -8   38.61    1.05
   3   2  -8   40.36    1.11
  -3  -2   8   41.33    1.61
   3   2  -8   38.05    1.15
   3   2  -8   40.63    1.24
   3   2  -8   37.14    1.15
   3   2  -8   40.08    1.47
   3  -2  -8   38.05    1.19
   3   2  -8   37.44    1.17
   3   2  -8   39.60    1.23
   3  -2  -8   38.68    1.12
  -3  -2   8   38.82    1.15
   3  -2  -8   39.80    1.20
  -3  -2   8   40.12    1.87
   3   2  -8   39.36    1.22
   3  -2  -8   39.80    1.15
  -3  -2   8   39.98    1.19
   3  -2  -7   33.08    0.91
  -3  -2   7   31.60    1.30
   3   2  -7   32.87    1.00
   3   2  -7   33.31    1.01
   3   2  -7   31.45    1.26
   3  -2  -7   32.62    1.01
   3   2  -7   32.07    0.92
   3   2  -7   33.40    1.04
   3   2  -7   30.94    1.04
   3  -2  -7   32.43    0.94
   3  -2  -7   34.49    1.04
  -3  -2   7   32.05    1.61
  -3  -2   7   31.65    0.98
   3  -2  -7   31.39    0.95
  -3  -2   7   32.24    1.02
   3   2  -6    5.71    0.38
   3   2  -6    5.69    0.38
  -3  -2   6    5.12    0.73
   3   2  -6    5.27    0.53
   3  -2  -6    5.47    0.37
   3   2  -6    5.01    0.42
   3  -2  -6    5.05    0.37
  -3  -2   6    5.16    0.57
   3  -2  -6    5.59    0.39
   3  -2  -6    5.22    0.32
  -3  -2   6    4.97    0.36
   3  -2  -6    5.88    0.34
   3  -2  -5    0.21    0.21
   3  -2  -5    0.21    0.23
   3   2  -5    0.12    0.33
   3  -2  -5   -0.08    0.22
   3   2  -5    0.53    0.27
   3   2  -5   -0.04    0.38
  -3  -2   5    0.27    0.45
   3   2  -4  109.09    2.90
  -3  -2   4  106.62    2.99
   3   2  -3  698.39   14.94
  -3  -2   3  700.10   14.76
   3   2  -3  685.08   15.00
  -3  -2   3  701.93   15.05
   3   2  -2  186.53    4.21
   3   2  -2  172.51    4.20
  -3   2   2  177.52    3.97
  -3  -2   2  163.63    3.95
  -3  -2   2  184.34    4.27
  -3   2   1  712.03   14.53
  -3  -2   1  664.92   14.52
   3   2  -1  690.00   14.92
   3   2  -1  662.62   14.53
   3  -2  -1  698.90   14.54
  -3  -2   1  726.63   14.81
   3   2  -1  699.32   14.89
  -3   2   0  107.16    2.42
  -3  -2   0  101.06    2.42
  -3   2   0  102.48    2.28
   3   2   0  106.86    2.82
   3  -2   0  100.83    2.42
   3   2   0   99.97    2.43
  -3   2   0   95.50    2.35
  -3  -2   0  109.23    2.66
   3   2   0  101.15    2.74
  -3   2  -1  131.59    2.99
  -3  -2  -1  132.32    3.00
   3   2   1  142.23    3.24
  -3   2  -1  129.87    2.93
   3   2   1  136.91    3.40
  -3   2  -1  120.18    2.88
  -3  -2  -1  131.55    3.38
   3   2   1  128.38    3.35
  -3   2  -2 3278.27   64.78
   3   2   2 3204.45   65.17
   3  -2   2 3029.71   64.70
  -3   2  -2 3063.19   64.65
  -3  -2  -2 3309.48   65.15
  -3   2  -3  346.87    7.50
  -3   2  -3  352.95    7.38
  -3  -2  -3  333.17    7.76
   3   2   3  329.78    7.86
  -3  -2  -4  115.40    2.65
  -3   2  -4  116.77    2.87
  -3  -2  -4  110.95    2.67
  -3  -2  -4  119.74    3.08
  -3  -2  -5   21.02    0.71
   3   2   5   20.27    0.77
  -3   2  -5   22.20    0.91
   3  -2   5   20.84    0.78
  -3  -2  -5   22.30    0.77
  -3  -2  -5   20.19    1.00
  -3  -2  -5   21.77    0.74
  -3  -2  -6    4.14    0.32
  -3   2  -6    4.60    0.34
  -3   2  -6    3.78    0.32
  -3  -2  -6    4.11    0.39
  -3  -2  -6    3.63    0.33
   3   2   6    3.57    0.41
   3  -2   6    4.06    0.42
  -3  -2  -6    4.22    0.56
  -3   2  -6    4.21    0.31
  -3   2  -7    4.20    0.34
  -3  -2  -7    3.73    0.33
  -3   2  -7    3.84    0.35
  -3   2  -7    3.82    0.38
  -3   2  -7    3.65    0.32
  -3   2  -7    4.04    0.36
  -3  -2  -7    3.47    0.42
   3   2   7    3.61    0.46
   3  -2   7    3.60    0.45
  -3  -2  -7    4.09    0.39
  -3  -2  -8   89.74    2.25
  -3  -2  -8   91.49    2.23
  -3   2  -8   92.85    2.24
  -3   2  -8   92.53    2.31
  -3   2  -8   87.22    2.21
  -3  -2  -8   92.12    2.29
  -3   2  -8   92.18    2.25
   3   2   8   89.46    2.41
   3  -2   8   90.42    2.39
  -3  -2  -8   90.13    2.34
  -3  -2  -8   91.60    2.29
  -3   2  -8   90.26    2.25
  -3  -2  -9    0.24    0.31
  -3   2  -9    0.31    0.31
   3   2   9    0.25    0.40
  -3   2  -9    1.22    0.36
  -3  -2  -9    0.93    0.29
  -3   2  -9    0.63    0.27
  -3   2  -9    0.13    0.29
  -3  -2  -9   -0.10    0.32
  -3   2  -9    0.17    0.29
   3  -2   9    0.24    0.39
  -3  -2  -9    0.10    0.27
  -3   2 -10   22.87    0.91
  -3   2 -10   22.42    0.83
  -3  -2 -10   22.96    0.83
  -3   2 -10   22.15    0.85
   3   2  10   20.62    0.98
   3  -2  10   20.68    0.95
  -3  -2 -10   22.83    0.87
  -3  -2 -10   24.05    0.84
  -3   2 -10   22.88    0.82
  -3  -2 -11    1.32    0.34
  -3   2 -11    1.56    0.36
   3  -2  11    1.63    0.36
  -3  -2 -11    1.15    0.30
  -3   2 -11    1.52    0.32
  -3   2 -11    1.15    0.38
   3   2  11    1.42    0.46
   3  -2  11    1.12    0.43
  -3   2 -12    0.42    0.29
  -3  -2 -12    0.25    0.24
  -3  -2 -12    0.32    0.28
   3  -2  12    0.56    0.29
  -3   2 -12    0.64    0.28
  -3  -2 -12    0.55    0.34
   3   2  12    0.35    0.39
   3  -2  12    0.35    0.36
  -3   2 -13    2.46    0.29
  -3   2 -13    2.45    0.29
  -3  -2 -13    2.59    0.33
   3   2  13    2.24    0.38
   3  -2  13    2.53    0.28
  -3  -2 -14   26.16    0.75
   3   2  14   23.46    0.75
   3   3 -14    1.49    0.23
   3   3 -14    2.28    0.26
   3  -3 -14    2.03    0.25
   3   3 -14    1.98    0.25
   3   3 -14    2.00    0.26
   3  -3 -13    0.08    0.26
   3   3 -13    0.56    0.26
   3   3 -13    0.43    0.28
   3   3 -13    0.55    0.26
   3   3 -13    0.35    0.28
   3   3 -12    7.18    0.49
   3   3 -12    7.05    0.48
   3  -3 -12    5.94    0.42
   3   3 -12    6.68    0.46
   3   3 -12    7.06    0.50
   3   3 -12    7.37    0.50
   3   3 -12    6.45    0.49
   3   3 -12    6.45    0.44
  -3  -3  12    6.63    0.43
   3  -3 -11  154.14    3.67
   3   3 -11  163.33    3.76
   3   3 -11  155.63    3.70
   3   3 -11  158.86    3.75
   3   3 -11  159.07    3.74
   3   3 -11  159.34    3.73
   3   3 -11  162.30    3.75
   3   3 -11  162.38    3.71
   3  -3 -11  159.32    3.68
  -3  -3  11  161.46    3.74
   3   3 -10   62.58    1.74
   3  -3 -10   56.89    1.51
   3   3 -10   60.79    1.60
  -3  -3  10   60.60    2.24
   3   3 -10   58.13    2.03
   3  -3 -10   58.74    1.64
   3   3 -10   62.27    1.74
   3   3 -10   61.96    1.73
   3   3 -10   59.20    1.68
   3  -3 -10   62.35    1.62
  -3  -3  10   58.60    2.36
   3   3 -10   61.59    1.70
   3   3 -10   63.51    1.73
   3  -3 -10   59.14    1.64
  -3  -3  10   63.70    1.73
   3  -3  -9   72.29    1.79
   3   3  -9   71.32    1.81
   3   3  -9   73.24    1.97
  -3  -3   9   71.07    2.45
   3   3  -9   72.92    1.88
   3  -3  -9   70.47    1.87
   3  -3  -9   72.69    1.88
   3   3  -9   72.42    1.98
   3   3  -9   71.78    2.35
   3   3  -9   73.87    2.00
   3   3  -9   71.37    1.97
   3   3  -9   72.63    1.95
   3  -3  -9   71.84    1.83
  -3  -3   9   70.32    2.62
   3   3  -9   74.10    1.97
  -3  -3   9   69.82    1.96
   3  -3  -8  163.39    3.70
   3   3  -8  165.66    3.82
   3   3  -8  166.77    3.74
   3  -3  -8  160.58    3.69
   3   3  -8  154.64    3.69
   3   3  -8  153.78    4.23
   3  -3  -8  158.85    3.78
   3   3  -8  154.40    3.70
   3   3  -8  169.58    3.83
   3  -3  -8  162.37    3.64
  -3  -3   8  156.06    4.53
   3   3  -8  163.65    3.80
   3  -3  -8  161.72    3.64
  -3  -3   8  160.10    3.82
  -3  -3   7   40.63    1.62
   3  -3  -7   39.99    1.13
   3   3  -7   40.18    1.21
   3  -3  -7   39.85    1.14
   3   3  -7   43.01    1.64
   3  -3  -7   39.56    1.23
   3  -3  -7   40.65    1.15
   3   3  -7   41.14    1.22
   3   3  -7   38.69    1.25
   3   3  -7   37.04    1.17
  -3  -3   7   37.14    1.74
  -3  -3   7   40.59    1.25
  -3  -3   7   39.31    1.26
   3  -3  -6  357.23    7.41
   3   3  -6  337.11    7.47
   3  -3  -6  341.84    7.38
   3   3  -6  351.17    8.04
   3  -3  -6  350.17    7.49
   3   3  -6  335.39    7.49
   3   3  -6  363.55    8.18
  -3  -3   6  332.41    8.17
  -3  -3   6  346.59    7.97
   3  -3  -6  334.96    7.50
   3  -3  -6  343.95    7.38
  -3  -3   6  345.16    7.52
  -3  -3   6  349.56    7.55
   3  -3  -5  114.78    2.70
   3  -3  -5  123.75    2.71
   3   3  -5  111.95    3.19
   3  -3  -5  115.08    2.77
   3  -3  -5  120.26    2.76
  -3  -3   5  115.88    3.12
  -3  -3   5  116.53    2.72
   3   3  -5  122.54    3.36
  -3  -3   5  113.83    3.33
   3  -3  -5  119.79    2.80
   3   3  -5  108.83    2.78
  -3  -3   5  122.45    2.83
  -3  -3   5  114.03    2.83
   3  -3  -4  194.11    4.40
  -3  -3   4  209.18    4.80
   3  -3  -4  199.85    4.48
   3  -3  -4  201.48    4.42
   3   3  -4  198.99    4.99
   3   3  -4  213.15    5.10
  -3  -3   4  203.15    5.04
   3  -3  -4  204.21    4.49
  -3  -3   4  199.96    4.54
  -3  -3   3   59.66    1.80
   3  -3  -3   59.48    1.55
   3   3  -3   63.31    1.99
   3  -3  -3   58.07    1.56
   3   3  -3   63.91    2.04
  -3  -3   3   55.86    1.94
   3  -3  -3   59.30    1.55
   3  -3  -3   62.91    1.52
   3  -3  -3   66.63    1.59
  -3  -3   3   59.21    1.61
   3  -3  -2  132.02    2.91
  -3  -3   2  130.79    3.18
   3   3  -2  127.99    3.43
   3  -3  -2  128.08    2.96
   3  -3  -2  126.25    2.94
   3  -3  -2  129.69    2.96
   3   3  -2  127.14    3.44
  -3  -3   2  131.15    3.36
   3  -3  -2  131.81    2.94
  -3  -3   2  127.87    3.04
  -3  -3   2  128.19    3.02
  -3  -3   1   55.99    1.65
   3  -3  -1   59.95    1.46
   3   3  -1   62.68    1.96
  -3  -3   1   58.30    1.57
  -3  -3   1   58.19    1.50
   3  -3  -1   59.57    1.49
   3   3  -1   57.30    1.92
  -3  -3   1   60.24    1.89
  -3  -3   1   60.45    1.84
  -3  -3   1   59.78    1.56
   3   3  -1   57.86    1.91
  -3  -3   0    1.44    0.29
   3  -3   0    1.32    0.21
   3   3   0    0.98    0.41
  -3  -3   0    1.22    0.26
  -3  -3   0    1.27    0.28
   3  -3   0    0.99    0.21
   3   3   0    1.26    0.44
   3   3   0    0.94    0.41
  -3  -3   0    0.96    0.37
  -3  -3  -1   38.63    1.11
   3  -3   1   37.78    1.06
  -3  -3  -1   36.17    1.07
  -3   3  -1   37.74    1.14
   3   3   1   38.68    1.50
   3   3   1   40.64    1.52
  -3  -3  -1   34.18    1.30
  -3  -3  -1   35.90    1.09
  -3  -3  -2   15.86    0.62
   3   3   2   18.76    1.03
  -3  -3  -2   16.57    0.66
  -3   3  -2   16.28    0.72
   3   3   2   18.75    1.04
  -3  -3  -2   16.28    0.85
  -3  -3  -2   16.85    0.66
  -3  -3  -3  387.83    8.37
  -3  -3  -3  393.63    8.39
  -3   3  -3  379.25    8.56
   3   3   3  386.41    9.00
  -3  -3  -3  382.52    8.74
  -3  -3  -3  399.47    8.37
   3   3   3  388.21    8.98
  -3  -3  -4  327.72    7.12
   3   3   4  323.67    7.83
  -3   3  -4  330.05    7.41
  -3  -3  -4  326.13    7.14
  -3  -3  -4  340.81    7.54
  -3  -3  -5    6.28    0.44
  -3  -3  -5    6.35    0.48
  -3  -3  -5    6.07    0.41
  -3   3  -5    6.00    0.55
  -3  -3  -5    7.69    0.65
   3   3   5    7.13    0.78
  -3   3  -6   68.15    1.74
  -3  -3  -6   65.76    1.84
  -3  -3  -6   70.95    1.87
  -3   3  -6   69.08    2.12
   3   3   6   73.17    2.51
  -3  -3  -7   45.21    1.35
  -3   3  -7   42.75    1.25
  -3  -3  -7   44.16    1.35
   3   3   7   46.07    1.95
  -3  -3  -8  695.55   14.80
   3   3   8  726.59   15.87
  -3   3  -8  683.81   14.74
  -3   3  -8  722.37   14.82
  -3  -3  -8  710.98   14.83
  -3   3  -8  680.71   14.71
   3   3   9    0.35    0.55
  -3  -3  -9    0.85    0.30
  -3   3  -9    0.29    0.31
  -3   3  -9    0.51    0.35
  -3  -3  -9   -0.02    0.36
  -3   3  -9    0.22    0.27
   3  -3   9    0.57    0.42
  -3  -3 -10    6.22    0.42
  -3   3 -10    6.57    0.51
  -3   3 -10    6.75    0.46
  -3   3 -10    6.09    0.41
  -3  -3 -10    6.88    0.47
  -3   3 -10    6.24    0.43
  -3  -3 -10    5.81    0.51
   3  -3  10    6.06    0.56
  -3   3 -11   43.21    1.24
  -3   3 -11   43.46    1.28
  -3  -3 -11   43.65    1.29
   3  -3  11   41.92    1.30
  -3   3 -12    0.83    0.27
   3  -3  12    0.37    0.29
  -3   3 -13    0.47    0.20
   3  -3  13    0.64    0.19
   3  -3  14    0.90    0.16
   3   4 -13    1.55    0.22
   3   4 -13    1.45    0.20
  -3  -4  13    1.41    0.25
   3   4 -13    1.05    0.22
  -3  -4  12    2.59    0.28
   3   4 -12    2.37    0.31
   3   4 -12    2.10    0.29
   3   4 -12    2.52    0.29
  -3  -4  11    1.65    0.33
   3  -4 -11    1.69    0.29
   3   4 -11    1.48    0.28
   3   4 -11    1.82    0.33
   3   4 -11    1.43    0.32
   3   4 -11    1.47    0.33
   3   4 -11    1.67    0.32
   3   4 -11    1.25    0.24
  -3  -4  10    1.03    0.36
   3   4 -10    0.46    0.33
   3   4 -10    0.17    0.31
   3  -4 -10    0.66    0.23
   3   4 -10    0.37    0.29
   3   4 -10    0.43    0.32
   3   4 -10    0.43    0.28
   3   4 -10    0.14    0.26
   3  -4 -10    0.39    0.27
   3   4  -9   13.61    0.68
   3  -4  -9   13.22    0.56
   3   4  -9   12.25    0.55
   3   4  -9   11.81    0.65
   3   4  -9   13.02    0.65
   3   4  -9   13.63    0.72
   3  -4  -9   12.46    0.61
   3   4  -9   11.75    0.59
   3   4  -9   14.10    0.65
  -3  -4   9   13.38    0.71
  -3  -4   8    0.82    0.39
   3  -4  -8    1.96    0.32
   3   4  -8    0.87    0.36
   3  -4  -8    1.33    0.32
   3   4  -8    1.22    0.32
  -3  -4   8    1.77    0.58
   3   4  -8    1.51    0.37
   3   4  -8    1.40    0.49
   3   4  -8    1.05    0.33
   3  -4  -7   66.37    1.71
   3   4  -7   68.84    1.77
  -3  -4   7   66.08    2.27
   3   4  -7   65.82    2.32
   3  -4  -7   65.04    1.75
   3   4  -7   62.09    1.77
  -3  -4   7   67.37    1.87
   3  -4  -6   73.66    1.85
   3   4  -6   69.48    2.42
  -3  -4   6   67.42    2.29
  -3  -4   6   69.71    1.80
   3   4  -6   73.34    1.87
   3  -4  -6   74.07    1.88
  -3  -4   6   63.66    2.29
  -3  -4   6   76.92    2.03
  -3  -4   5  578.43   12.20
   3  -4  -5  576.67   12.18
   3  -4  -5  576.94   12.21
   3  -4  -5  588.72   12.19
   3   4  -5  594.59   12.99
   3   4  -5  565.32   12.23
   3   4  -5  562.61   12.23
   3   4  -5  593.03   13.03
  -3  -4   5  570.17   12.71
  -3  -4   5  594.74   12.38
  -3  -4   4  280.66    6.58
  -3  -4   4  278.52    6.16
   3  -4  -4  287.50    6.12
   3  -4  -4  282.98    6.12
   3   4  -4  288.79    6.82
   3   4  -4  287.57    6.91
  -3  -4   4  275.49    6.26
   3  -4  -3   73.25    1.83
   3  -4  -3   73.19    1.85
  -3  -4   3   76.35    2.21
  -3  -4   3   71.29    1.91
   3  -4  -3   74.14    1.86
   3   4  -3   72.92    2.40
   3   4  -3   70.54    2.44
   3  -4  -2   10.86    0.50
   3  -4  -2   10.86    0.52
   3   4  -2   11.03    0.85
  -3  -4   2   11.63    0.69
   3   4  -2   12.47    0.93
  -3  -4   2   11.78    0.61
  -3  -4   1    4.16    0.36
   3  -4  -1    4.83    0.33
  -3  -4   1    4.15    0.42
   3  -4  -1    4.23    0.36
   3   4  -1    5.17    0.64
   3  -4  -1    4.21    0.35
  -3  -4   1    4.14    0.40
   3   4  -1    3.50    0.58
  -3  -4   1    3.84    0.42
   3   4   0   33.43    1.43
   3  -4   0   36.96    0.98
  -3  -4   0   32.90    1.06
   3  -4   0   33.36    1.01
   3   4   0   34.40    1.53
  -3  -4   0   34.56    1.10
   3   4   0   34.75    1.52
  -3  -4   0   34.35    1.13
  -3  -4  -1    5.16    0.44
   3  -4   1    4.63    0.34
   3   4   1    5.13    0.65
  -3  -4  -1    5.09    0.44
   3   4   1    4.05    0.60
  -3  -4  -1    5.23    0.46
   3  -4   1    4.89    0.31
  -3  -4  -1    5.25    0.45
   3  -4   1    4.60    0.39
  -3  -4  -2  162.60    3.74
   3  -4   2  160.78    3.59
   3   4   2  168.84    4.36
  -3  -4  -2  161.38    3.74
  -3  -4  -2  163.71    3.76
  -3  -4  -2  166.42    3.75
  -3  -4  -2  157.06    3.73
   3  -4   2  147.89    3.68
   3   4   2  153.70    4.28
  -3  -4  -3   89.52    2.26
  -3  -4  -3   88.33    2.29
   3   4   3   86.32    2.82
  -3  -4  -3   92.65    2.30
   3  -4   3   84.29    2.26
  -3  -4  -4   31.24    1.01
  -3  -4  -4   29.29    1.07
   3   4   4   28.82    1.47
   3  -4   4   28.28    1.05
  -3  -4  -5   90.77    2.27
  -3  -4  -5   90.78    2.37
   3   4   5   86.33    2.96
   3  -4   5   93.61    2.41
  -3  -4  -6   20.41    0.86
  -3  -4  -6   21.28    0.91
   3   4   6   20.83    1.30
   3  -4   6   19.68    0.91
  -3  -4  -7  148.42    3.49
  -3  -4  -7  146.06    3.46
  -3  -4  -8   17.96    0.76
  -3   4  -8   16.98    0.66
  -3   4  -8   17.71    0.73
  -3  -4  -8   17.44    0.78
  -3  -4  -9  237.33    5.28
  -3   4  -9  241.54    5.29
  -3   4  -9  233.03    5.20
  -3  -4  -9  238.12    5.30
   3  -4   9  245.65    5.43
  -3   4 -10   21.04    0.76
   3  -4  10   22.49    0.85
   3  -4  11   11.40    0.53
  -3  -4 -11    9.67    0.37
  -3   4 -11   10.94    0.48
  -3   4 -11   11.06    0.48
   3  -4  11    9.96    0.51
   3  -4  12    0.21    0.21
   3   4  12    0.22    0.21
   3  -4  12    0.21    0.20
   3   5 -11    1.32    0.22
   3   5 -11    0.93    0.18
   3   5 -11    1.09    0.23
   3   5 -11    1.31    0.23
   3   5 -11    0.95    0.20
  -3  -5  10    0.80    0.26
   3   5 -10    0.79    0.23
   3   5 -10    0.63    0.26
   3   5 -10    0.48    0.20
   3   5 -10    0.56    0.24
   3   5 -10    0.50    0.25
   3   5  -9    6.31    0.35
   3   5  -9    6.45    0.40
   3   5  -9    6.67    0.42
   3  -5  -9    6.40    0.36
   3   5  -9    6.83    0.44
   3   5  -9    6.14    0.36
  -3  -5   9    6.36    0.46
   3   5  -8   17.77    0.67
   3  -5  -8   18.66    0.66
   3   5  -8   19.81    0.75
   3   5  -8   18.70    0.72
   3   5  -8   18.79    0.69
  -3  -5   8   19.27    0.79
  -3  -5   7    2.92    0.43
   3   5  -7    2.95    0.36
   3  -5  -7    2.62    0.31
   3   5  -7    2.97    0.35
   3   5  -7    2.64    0.30
  -3  -5   6    2.62    0.45
   3   5  -6    3.15    0.36
  -3  -5   6    2.71    0.45
   3   5  -5   10.43    0.55
  -3  -5   5   10.55    0.67
  -3  -5   4  769.00   16.35
   3   5  -4  756.24   17.11
   3  -5  -4  785.86   16.28
   3   5  -4  757.06   17.07
  -3  -5   4  786.12   16.50
   3  -5  -3  158.02    3.54
   3  -5  -3  160.54    3.60
  -3  -5   3  156.34    3.74
   3   5  -3  149.42    4.20
  -3  -5   3  154.97    3.65
   3   5  -3  144.33    4.22
   3  -5  -2  127.80    2.97
  -3  -5   2  134.23    3.13
   3   5  -2  125.20    3.67
   3   5  -2  124.73    3.70
  -3  -5   2  128.48    3.17
  -3  -5   1   38.35    1.11
   3   5  -1   37.00    1.65
  -3  -5   1   41.36    1.28
   3  -5  -1   39.09    1.16
   3  -5  -1   39.14    1.10
   3   5  -1   37.24    1.69
  -3  -5   1   40.73    1.30
  -3  -5   0   13.10    0.59
  -3  -5   0   12.57    0.66
   3  -5   0   12.18    0.57
   3   5   0   11.37    0.92
   3  -5   0   13.02    0.52
  -3  -5   0   12.80    0.69
   3   5   0   12.05    0.95
  -3  -5  -1  144.03    3.43
  -3  -5  -1  146.52    3.42
  -3  -5  -1  145.79    3.46
   3   5   1  142.63    4.05
  -3  -5  -1  142.72    3.36
   3   5   1  133.26    3.98
  -3  -5  -2  141.24    3.33
  -3  -5  -2  146.09    3.36
  -3  -5  -2  146.83    3.40
   3   5   2  142.32    4.00
  -3  -5  -2  144.61    3.40
   3   5   2  134.98    3.95
  -3  -5  -3   16.70    0.72
  -3  -5  -3   14.99    0.69
  -3  -5  -3   17.04    0.75
   3   5   3   13.73    1.02
  -3  -5  -3   15.44    0.76
   3  -5   3   14.05    0.67
  -3  -5  -4    0.70    0.35
  -3  -5  -4    0.92    0.44
   3  -5   4    0.53    0.34
   3  -5   5    6.75    0.50
  -3  -5  -5    5.55    0.42
  -3  -5  -6    2.08    0.39
  -3  -5  -6    2.22    0.29
  -3  -5  -6    2.58    0.45
   3  -5   6    2.30    0.38
  -3   5  -7   21.73    0.73
  -3  -5  -7   23.22    0.86
   3  -5   7   22.56    0.86
  -3   5  -8   25.84    0.79
   3  -5   8   27.26    0.92
  -3  -5  -9    7.14    0.36
  -3   5  -9    6.63    0.34
  -3  -5 -10   71.07    1.69
  -3   5 -10   80.47    1.74
   3   6  -8    0.22    0.17
  -3  -6   8   -0.15    0.18
   3   6  -7    2.64    0.24
   3   6  -7    3.28    0.29
  -3  -6   7    2.97    0.30
   3   6  -6   15.48    0.55
  -3  -6   6   17.28    0.64
   3  -6  -5  104.12    2.35
  -3  -6   5  106.67    2.47
   3   6  -5   99.38    2.36
   3   6  -4   36.07    1.02
  -3  -6   4   37.52    1.12
   3  -6  -4   37.98    1.01
  -3  -6   3    6.87    0.41
  -3  -6   3    6.62    0.45
  -3  -6   2  136.92    3.18
  -3  -6   2  137.98    3.16
  -3  -6   2  138.36    3.21
  -3  -6   1   20.95    0.78
  -3  -6   1   22.01    0.75
  -3  -6   0   91.02    2.20
  -3  -6  -1    8.66    0.45
  -3  -6  -1    8.66    0.50
  -3  -6  -2   30.19    0.96
  -3  -6  -3    9.68    0.50
  -3  -6  -4   12.16    0.51
  -3  -6  -5   11.14    0.47
  -3  -6  -5   11.91    0.45
  -3  -6  -6   46.70    1.14
   3   6   6   45.35    1.19
  -3  -6  -8   21.27    0.56
  -3  -7   1    0.93    0.14
  -3  -7   0    5.49    0.26
  -3  -7  -2    1.08    0.14
   4   0 -15    0.15    0.22
   4   0 -15    0.22    0.20
   4   0 -15    0.03    0.22
   4   0 -14    1.50    0.31
   4   0 -14    1.22    0.28
   4   0 -14    1.49    0.30
   4   0 -13    0.17    0.30
   4   0 -13    0.43    0.34
   4   0 -13   -0.02    0.29
   4   0 -12   45.48    1.40
   4   0 -12   46.66    1.42
   4   0 -12   47.62    1.40
   4   0 -12   47.64    1.40
  -4   0  11    0.41    0.73
   4   0 -11    0.09    0.24
   4   0 -11   -0.07    0.35
   4   0 -11    0.20    0.24
  -4   0  11    0.61    0.66
   4   0 -11   -0.08    0.32
   4   0 -10 1138.02   23.48
   4   0 -10 1116.75   23.46
   4   0 -10 1109.08   23.35
   4   0 -10 1138.34   23.51
   4   0 -10 1107.08   23.41
  -4   0  10 1147.81   24.66
   4   0  -9    0.13    0.29
   4   0  -9    0.11    0.28
   4   0  -9    0.45    0.31
   4   0  -9    0.19    0.22
  -4   0   9   -0.33    0.56
  -4   0   9    0.21    0.41
   4   0  -9    0.04    0.30
   4   0  -9    0.19    0.24
   4   0  -8  198.37    4.43
   4   0  -8  195.94    4.40
   4   0  -8  193.56    4.41
   4   0  -8  202.67    4.40
   4   0  -8  194.19    4.34
   4   0  -8  200.27    4.46
  -4   0   8  197.15    4.69
  -4   0   8  198.58    5.26
   4   0  -8  193.82    4.42
   4   0  -7    0.01    0.23
   4   0  -7    0.11    0.25
  -4   0   7    0.08    0.33
   4   0  -7   -0.17    0.23
  -4   0   7   -0.16    0.52
   4   0  -7   -0.04    0.20
   4   0  -7    0.12    0.25
   4   0  -7    0.01    0.20
   4   0  -7    0.47    0.29
   4   0  -7    0.32    0.27
   4   0  -6   29.99    0.87
  -4   0   6   29.31    1.06
   4   0  -6   30.33    0.91
   4   0  -6   29.78    0.91
   4   0  -6   30.42    0.93
   4   0  -6   28.91    0.89
   4   0  -6   30.36    0.93
  -4   0   6   28.32    1.35
   4   0  -6   29.57    0.89
   4   0  -5    0.26    0.24
  -4   0   5    0.16    0.39
  -4   0   4 1705.71   35.76
   4   0  -3   -0.03    0.35
   4   0  -3    0.15    0.26
  -4   0   3   -0.23    0.39
   4   0  -2  778.34   16.81
   4   0  -2  806.21   16.72
  -4   0   2  794.39   16.89
  -4   0   1    0.22    0.33
   4   0  -1    0.06    0.40
   4   0  -1    0.32    0.24
  -4   0   1    0.09    0.34
  -4   0   0  140.80    3.38
   4   0   0  148.62    3.64
   4   0   0  136.98    3.23
   4   0   0  146.00    3.52
   4   0   1    0.20    0.36
  -4   0  -1    0.17    0.30
   4   0   1    0.06    0.37
   4   0   2   -0.09    0.36
   4   0   2    0.25    0.17
  -4   0  -2    0.16    0.31
  -4   0  -2    0.14    0.40
   4   0   3    0.06    0.36
   4   0   3   -0.03    0.13
  -4   0  -3    0.54    0.38
   4   0   4  363.45    7.63
   4   0   4  345.73    7.72
  -4   0  -4  361.15    8.10
   4   0   4  355.78    8.02
   4   0   5    0.21    0.35
  -4   0  -5    0.19    0.22
   4   0   5   -0.04    0.25
   4   0   5    0.46    0.34
  -4   0  -5    0.04    0.35
  -4   0  -6   76.96    1.90
   4   0   6   75.79    1.88
   4   0   6   73.67    2.03
  -4   0  -6   74.50    2.28
   4   0   6   71.94    2.28
   4   0   7    0.22    0.40
  -4   0  -7    0.04    0.26
   4   0   7    0.03    0.28
   4   0   7   -0.03    0.42
  -4   0  -7    0.62    0.45
  -4   0  -8   76.10    1.98
   4   0   8   78.48    1.93
   4   0   8   74.61    2.16
   4   0   8   72.19    2.40
   4   0   9   -0.05    0.41
   4   0   9   -0.06    0.26
  -4   0  -9   -0.08    0.31
   4   0   9    0.12    0.50
  -4   0 -10  456.40    9.64
   4   0  10  430.96    9.84
  -4   0 -11   -0.21    0.33
   4   0  11    0.57    0.50
   4   0  12    6.84    0.62
  -4   0 -12    6.96    0.48
  -4   0 -13   -0.06    0.26
  -4   0 -13    0.11    0.28
   4   0  13    0.22    0.38
  -4   0 -14    0.24    0.21
  -4   0 -14    0.42    0.22
   4   0  14    0.41    0.29
   4  -1 -15    9.34    0.41
   4   1 -15    8.89    0.41
   4   1 -15    9.12    0.42
   4  -1 -14   25.10    0.83
   4   1 -14   24.35    0.78
   4  -1 -14   24.44    0.82
   4   1 -14   24.92    0.84
   4   1 -14   24.80    0.83
   4  -1 -14   25.20    0.81
   4   1 -13   86.42    2.17
   4  -1 -13   89.04    2.23
   4   1 -13   87.97    2.24
   4   1 -13   87.37    2.22
   4  -1 -13   85.08    2.16
   4   1 -13   90.58    2.23
   4  -1 -13   88.65    2.19
   4   1 -12    9.48    0.59
   4   1 -12   10.17    0.52
   4   1 -12    9.93    0.52
   4  -1 -12    9.92    0.61
   4   1 -12    9.85    0.61
   4  -1 -12   10.17    0.56
   4  -1 -12   11.19    0.58
   4   1 -11  276.72    6.17
   4   1 -11  270.93    6.01
   4   1 -11  275.59    6.15
  -4   1  11  275.18    7.26
  -4  -1  11  271.05    7.22
   4   1 -11  276.65    6.06
   4   1 -11  278.52    6.08
   4  -1 -11  285.07    6.19
  -4  -1  11  264.07    6.62
   4   1 -11  266.66    6.18
   4  -1 -11  280.72    6.11
  -4  -1  11  284.99    7.32
   4  -1 -11  278.61    6.10
   4  -1 -11  277.48    6.12
  -4  -1  10  569.25   12.58
   4   1 -10  558.13   11.95
   4   1 -10  553.88   11.90
   4   1 -10  561.66   12.04
   4   1 -10  563.59   12.05
   4   1 -10  553.33   11.96
   4  -1 -10  577.60   12.07
   4   1 -10  566.93   12.03
   4  -1 -10  569.05   11.99
   4  -1 -10  571.37   12.03
   4  -1 -10  555.88   11.98
   4  -1 -10  574.38   12.01
  -4  -1  10  557.19   13.22
  -4   1  10  546.44   12.87
   4   1  -9   24.09    0.92
   4   1  -9   23.96    0.92
   4   1  -9   24.68    0.80
   4   1  -9   26.32    0.93
   4   1  -9   24.59    0.85
   4  -1  -9   25.79    0.87
   4   1  -9   24.84    0.89
   4  -1  -9   26.29    0.87
   4   1  -9   25.02    0.92
  -4  -1   9   23.41    1.18
   4  -1  -9   26.41    0.90
   4  -1  -9   25.56    0.87
   4  -1  -9   24.98    0.88
  -4  -1   9   24.22    1.50
  -4   1   9   22.11    1.29
   4  -1  -8  181.87    4.07
  -4  -1   8  191.67    4.55
   4   1  -8  187.93    4.18
   4   1  -8  183.27    4.14
   4   1  -8  182.82    4.15
   4   1  -8  179.65    4.14
   4   1  -8  179.82    4.27
   4   1  -8  184.45    4.13
   4  -1  -8  182.62    4.10
   4   1  -8  171.23    4.14
   4   1  -8  173.07    4.01
   4  -1  -8  187.05    4.12
   4   1  -8  174.57    4.12
   4  -1  -8  190.59    4.14
  -4  -1   8  187.28    5.08
  -4   1   8  178.14    4.75
   4   1  -8  185.24    4.17
  -4   1   7    4.61    0.41
   4   1  -7    4.84    0.42
  -4  -1   7    3.22    0.50
   4   1  -7    4.72    0.38
  -4  -1   7    4.16    0.75
   4   1  -7    4.18    0.38
   4  -1  -7    4.55    0.35
  -4   1   7    4.75    0.60
   4   1  -7    3.73    0.37
   4   1  -7    4.25    0.38
   4  -1  -7    4.88    0.36
   4   1  -7    5.45    0.43
   4   1  -7    4.12    0.41
   4  -1  -7    4.30    0.34
   4  -1  -7    4.99    0.38
   4   1  -7    4.64    0.38
   4  -1  -7    4.40    0.33
  -4   1   6   84.09    2.11
  -4  -1   6   89.04    2.33
   4   1  -6   80.30    1.98
   4   1  -6   83.79    2.04
   4   1  -6   82.35    2.06
   4  -1  -6   81.14    1.98
   4   1  -6   78.15    2.10
   4  -1  -6   81.12    1.96
   4   1  -6   83.04    2.08
   4  -1  -6   84.49    2.02
   4  -1  -6   85.09    1.99
  -4  -1   6   88.29    2.73
  -4   1   6   83.66    2.46
  -4  -1   5  100.91    2.56
   4   1  -5   94.13    2.28
   4   1  -5   98.30    2.35
   4  -1  -5   99.34    2.29
   4   1  -5   96.27    2.41
   4   1  -5   97.18    2.38
   4  -1  -5  100.19    2.31
   4   1  -5   99.81    2.71
  -4   1   5   97.47    2.65
  -4  -1   5   97.82    2.90
   4   1  -4  568.28   12.27
   4   1  -4  593.76   12.60
  -4   1   4  575.92   12.47
  -4  -1   4  593.23   12.75
   4  -1  -3 1383.94   29.19
   4   1  -3 1386.02   29.26
  -4   1   3 1398.59   29.14
  -4  -1   3 1450.18   29.43
   4   1  -3 1367.69   29.20
   4   1  -2   40.28    1.29
   4   1  -2   36.71    1.27
   4   1  -2   38.70    1.25
   4  -1  -2   36.68    1.22
  -4   1   2   37.12    1.14
  -4  -1   2   36.39    1.37
  -4   1   1  102.55    2.56
  -4  -1   1  104.18    2.56
   4   1  -1  105.83    2.59
   4   1  -1  102.12    2.86
   4  -1  -1   96.60    2.53
   4   1  -1   99.11    2.58
   4   1  -1   96.68    2.52
  -4  -1   1  100.68    2.67
  -4   1   0   42.98    1.29
  -4  -1   0   41.16    1.27
   4   1   0   40.47    1.29
   4   1   0   40.84    1.56
   4  -1   0   41.27    1.35
   4   1   1   10.77    0.59
   4  -1   1   11.54    0.71
  -4   1  -1    9.80    0.69
  -4   1  -1    9.87    0.60
  -4   1  -2  863.70   17.79
  -4  -1  -2  852.61   17.78
   4   1   2  838.58   17.76
   4  -1   2  891.80   17.95
  -4   1  -2  803.60   17.88
  -4  -1  -2  800.56   18.14
   4   1   2  832.76   18.07
   4  -1   2  836.47   17.78
   4   1   3 4969.80  103.56
  -4   1  -3 5009.39  103.71
  -4  -1  -3 5074.61  103.95
   4   1   3 4952.48  103.91
   4  -1   3 5104.38  103.63
   4   1   4 1143.80   24.28
   4   1   4 1128.93   24.21
   4  -1   4 1182.42   24.22
  -4  -1  -4 1172.98   24.10
   4  -1   4 1123.21   24.37
  -4   1  -4 1172.08   24.49
  -4  -1  -4 1192.41   24.71
   4   1   4 1174.35   24.71
  -4   1  -5  103.63    2.37
  -4  -1  -5  102.41    2.36
   4   1   5   90.06    2.46
  -4   1  -5   97.25    2.32
   4  -1   5   99.03    2.35
   4  -1   5  102.88    2.32
   4   1   5   94.83    2.47
   4  -1   5   97.92    2.48
  -4   1  -5  101.03    2.66
  -4  -1  -5   97.67    2.88
   4   1   5  100.03    2.91
   4  -1   5   97.79    2.60
   4   1   6    5.47    0.67
   4  -1   6    4.38    0.46
  -4   1  -6    6.04    0.40
  -4  -1  -6    6.49    0.42
   4   1   6    5.81    0.40
  -4   1  -6    5.67    0.40
   4  -1   6    5.47    0.40
   4   1   6    5.53    0.53
   4  -1   6    4.86    0.50
  -4   1  -6    6.02    0.58
  -4  -1  -6    6.01    0.62
  -4   1  -7   21.10    0.79
  -4  -1  -7   21.05    0.79
  -4   1  -7   22.00    0.79
   4   1   7   21.94    0.93
   4  -1   7   20.34    0.91
  -4  -1  -7   22.32    1.15
   4   1   7   20.94    1.19
   4   1   8    0.40    0.48
  -4   1  -8    0.96    0.33
  -4   1  -8    1.18    0.30
  -4  -1  -8    0.96    0.30
   4   1   8    1.17    0.46
   4  -1   8    1.15    0.46
  -4   1  -9   13.00    0.63
  -4  -1  -9   11.84    0.61
   4   1   9   11.57    1.00
   4   1   9   11.07    0.63
   4   1   9   12.85    0.81
   4  -1   9   12.45    0.77
  -4   1 -10   84.85    2.15
  -4   1 -10   79.04    2.02
   4   1  10   78.87    2.08
   4   1  10   84.32    2.33
   4  -1  10   82.87    2.31
   4   1  10   84.39    2.78
  -4  -1 -10   84.22    2.20
  -4  -1 -10   84.47    2.14
  -4   1 -11    8.61    0.44
   4   1  11    6.97    0.66
   4  -1  11    6.86    0.66
  -4  -1 -11    8.09    0.56
  -4  -1 -11    7.43    0.50
  -4   1 -11    7.31    0.50
   4   1  12    8.83    0.65
   4  -1  12    9.39    0.65
  -4  -1 -12    8.27    0.54
  -4  -1 -12    9.31    0.51
  -4   1 -12    8.13    0.50
   4  -1  12    8.86    0.49
  -4  -1 -13   18.97    0.69
   4   1  13   18.04    0.77
   4  -1  13   17.93    0.76
  -4  -1 -13   16.96    0.64
  -4   1 -13   17.64    0.65
  -4  -1 -14    1.77    0.22
  -4   1 -14    1.88    0.23
  -4   1 -14    2.27    0.26
  -4  -1 -14    2.37    0.25
   4  -2 -15    5.37    0.31
   4   2 -15    5.35    0.30
   4  -2 -14    4.67    0.38
   4   2 -14    4.35    0.36
   4  -2 -13   41.04    1.19
   4   2 -13   42.69    1.16
   4   2 -13   43.55    1.25
   4   2 -13   41.85    1.25
   4   2 -12    1.27    0.38
   4  -2 -12    1.01    0.30
   4   2 -12    1.27    0.31
   4   2 -12    0.88    0.31
   4  -2 -12    1.32    0.37
   4   2 -12    1.56    0.36
   4   2 -12    1.32    0.36
   4   2 -11   10.88    0.64
   4  -2 -11   11.49    0.59
   4   2 -11   10.67    0.54
   4   2 -11   10.97    0.58
   4   2 -11   11.09    0.61
   4   2 -11   10.88    0.63
   4   2 -11   10.84    0.64
   4  -2 -11    9.49    0.52
   4  -2 -11   10.63    0.55
  -4  -2  10  218.36    5.65
   4   2 -10  225.60    5.15
   4   2 -10  222.41    5.01
   4   2 -10  224.30    5.13
  -4   2  10  233.52    6.07
   4   2 -10  225.72    5.06
  -4  -2  10  220.54    5.93
   4   2 -10  228.87    5.12
   4   2 -10  227.47    5.15
   4  -2 -10  218.88    4.98
   4  -2 -10  229.34    5.11
   4   2 -10  227.00    5.12
   4  -2 -10  224.48    5.02
   4   2  -9    7.77    0.56
   4   2  -9    8.16    0.52
  -4  -2   9    7.21    0.79
   4   2  -9    7.70    0.55
   4  -2  -9    7.41    0.53
   4   2  -9    6.49    0.59
   4   2  -9    7.79    0.53
   4   2  -9    8.37    0.54
   4   2  -9    7.77    0.56
   4  -2  -9    7.43    0.44
   4  -2  -9    7.45    0.53
   4   2  -9    7.79    0.55
   4  -2  -9    8.02    0.48
   4  -2  -8   16.84    0.60
   4   2  -8   17.63    0.79
   4   2  -8   18.65    0.76
   4   2  -8   17.37    0.73
   4   2  -8   17.69    0.90
   4  -2  -8   17.15    0.75
  -4  -2   8   19.04    1.07
   4   2  -8   17.95    0.77
   4   2  -8   17.33    0.79
   4  -2  -8   17.39    0.74
   4   2  -8   18.83    0.80
   4  -2  -8   17.24    0.66
  -4  -2   8   16.38    0.68
  -4  -2   7   25.61    1.19
   4   2  -7   25.33    0.89
   4  -2  -7   24.39    0.76
   4   2  -7   25.29    0.92
   4   2  -7   23.34    1.06
   4  -2  -7   25.76    0.89
   4   2  -7   24.76    0.93
   4  -2  -7   24.90    0.88
   4   2  -7   23.80    0.92
   4  -2  -7   24.28    0.89
  -4  -2   7   24.79    0.84
   4   2  -6   20.81    0.72
   4  -2  -6   23.63    0.71
   4   2  -6   21.53    0.81
   4   2  -6   22.29    0.83
   4  -2  -6   23.69    0.81
   4  -2  -6   22.68    0.79
   4   2  -6   23.18    1.02
   4   2  -6   21.61    0.87
   4  -2  -6   23.58    0.81
  -4  -2   6   22.46    1.05
  -4  -2   6   22.58    0.78
  -4  -2   5    2.13    0.29
   4  -2  -5    2.58    0.25
   4  -2  -5    2.55    0.30
   4  -2  -5    2.50    0.28
   4  -2  -5    1.93    0.29
   4   2  -5    2.56    0.36
   4   2  -5    2.28    0.29
   4  -2  -5    2.25    0.30
   4  -2  -4    8.48    0.38
   4   2  -4    8.97    0.45
   4  -2  -4    8.30    0.46
   4  -2  -4    7.88    0.43
   4  -2  -4    7.82    0.39
   4  -2  -4    8.77    0.44
   4   2  -3  338.12    7.13
  -4   2   3  338.40    7.37
  -4  -2   3  325.52    7.36
   4  -2  -3  342.87    7.12
  -4  -2   3  332.46    7.71
  -4   2   2    8.60    0.53
  -4  -2   2    7.95    0.53
   4  -2  -2    8.08    0.42
   4  -2  -2    7.56    0.40
   4   2  -2    8.16    0.66
  -4  -2   2    6.99    0.65
   4   2  -2    8.56    0.55
   4  -2  -2    7.47    0.53
   4   2  -1    2.36    0.37
   4  -2  -1    2.54    0.36
   4   2  -1    2.09    0.51
   4   2  -1    3.04    0.44
  -4   2   1    1.95    0.31
  -4  -2   1    2.10    0.35
   4   2  -1    2.47    0.54
   4   2  -1    2.47    0.45
  -4  -2   1    2.21    0.47
  -4   2   0   18.24    0.75
  -4  -2   0   17.55    0.74
   4   2   0   17.74    0.87
   4   2   0   18.61    1.01
   4   2   0   17.68    1.06
   4  -2   0   16.92    0.73
   4   2   0   16.86    0.73
  -4   2   0   16.78    0.73
  -4   2  -1  159.67    3.65
  -4  -2  -1  152.29    3.63
   4   2   1  164.70    3.87
   4   2   1  164.74    4.23
  -4  -2  -1  156.82    4.10
   4   2   1  164.40    4.12
   4   2   2   91.21    2.41
   4   2   2   90.45    2.71
  -4  -2  -2   84.04    2.06
  -4  -2  -2   79.99    2.51
   4   2   2   86.97    2.63
  -4  -2  -3  196.21    4.49
   4   2   3  204.41    4.88
   4  -2   3  208.62    4.46
  -4  -2  -3  205.65    4.51
  -4  -2  -3  204.11    5.10
   4   2   3  200.87    5.14
  -4  -2  -4   40.13    1.15
  -4   2  -4   40.73    1.11
  -4  -2  -4   40.41    1.11
   4   2   4   42.65    1.44
   4  -2   4   41.87    1.10
  -4  -2  -4   41.78    1.18
   4   2   4   38.89    1.20
   4  -2   4   41.13    1.22
  -4  -2  -4   39.96    1.57
   4   2   4   40.27    1.66
  -4   2  -5  165.94    3.74
  -4  -2  -5  163.33    3.73
  -4   2  -5  164.12    3.72
   4   2   5  169.30    3.88
   4  -2   5  165.12    3.86
  -4  -2  -5  168.81    3.83
  -4  -2  -5  162.71    4.32
  -4  -2  -5  171.98    3.78
  -4   2  -6   97.23    2.36
  -4   2  -6   98.90    2.37
  -4  -2  -6   98.30    2.37
   4   2   6   95.31    2.50
   4  -2   6   98.84    2.51
  -4  -2  -6  101.82    2.48
  -4  -2  -6  101.71    2.95
  -4   2  -7    9.94    0.51
  -4   2  -7   10.66    0.55
  -4  -2  -7    9.93    0.51
   4   2   7   10.26    0.66
   4  -2   7   10.45    0.63
  -4  -2  -7   11.06    0.62
  -4  -2  -7   10.47    0.86
  -4   2  -8   87.91    2.25
  -4  -2  -8   89.02    2.25
  -4   2  -8   91.80    2.30
   4   2   8   93.97    2.46
   4  -2   8   90.39    2.41
  -4  -2  -8   94.22    2.39
   4   2   8   95.99    3.10
  -4  -2  -9  120.56    2.88
  -4   2  -9  121.21    2.89
  -4   2  -9  117.90    2.93
  -4  -2  -9  123.18    2.95
   4   2   9  123.75    3.09
   4  -2   9  118.30    3.04
  -4  -2  -9  126.54    3.03
  -4  -2  -9  118.67    2.86
   4   2   9  122.00    3.73
  -4  -2 -10    1.77    0.32
  -4   2 -10    1.64    0.32
  -4  -2 -10    1.60    0.35
  -4  -2 -10    1.17    0.42
   4   2  10    2.13    0.48
   4  -2  10    1.04    0.42
  -4   2 -11    1.51    0.30
  -4  -2 -11    1.75    0.30
  -4   2 -11    1.39    0.29
   4   2  11    1.03    0.35
  -4  -2 -11    1.34    0.37
   4   2  11    1.60    0.42
   4  -2  11    2.17    0.42
   4  -2  11    1.49    0.38
  -4   2 -12    2.37    0.29
  -4   2 -12    2.92    0.31
  -4  -2 -12    3.07    0.37
   4   2  12    2.87    0.41
   4  -2  12    2.22    0.33
  -4   2 -13    0.29    0.19
   4  -2  13    0.47    0.17
   4  -3 -14   12.24    0.45
   4   3 -14   12.26    0.45
  -4  -3  14   12.58    0.45
   4   3 -14   12.13    0.46
   4   3 -13    0.94    0.28
   4   3 -13    0.77    0.24
   4  -3 -13    1.02    0.27
   4   3 -13    0.73    0.23
   4   3 -12    7.83    0.50
   4   3 -12    8.64    0.50
   4  -3 -12    8.58    0.50
   4   3 -12    8.85    0.51
   4   3 -12    8.85    0.48
   4   3 -12    8.67    0.49
   4   3 -12    8.49    0.48
  -4  -3  11    0.79    0.27
   4   3 -11    1.45    0.39
   4   3 -11    1.47    0.37
   4   3 -11    1.36    0.31
   4   3 -11    1.00    0.37
   4   3 -11    1.52    0.33
   4  -3 -11    1.61    0.36
   4   3 -11    1.37    0.35
   4   3 -11    0.96    0.35
   4   3 -10   17.22    0.78
   4   3 -10   16.07    0.78
   4   3 -10   16.55    0.78
   4  -3 -10   16.22    0.75
   4   3 -10   16.65    0.76
   4   3 -10   16.56    0.77
  -4  -3  10   16.56    0.70
   4  -3  -9   97.49    2.33
   4   3  -9   95.62    2.52
   4  -3  -9   98.95    2.51
   4   3  -9   98.73    2.54
  -4  -3   9   95.54    2.97
   4   3  -9  100.63    2.46
   4   3  -9   96.48    2.52
   4   3  -9   93.05    2.81
   4   3  -9  102.19    2.46
   4   3  -9  100.81    2.53
  -4  -3   9   98.83    3.23
   4   3  -9   98.41    2.52
  -4  -3   9   95.27    2.46
   4  -3  -8   12.13    0.53
   4   3  -8   10.67    0.66
   4   3  -8   12.38    0.64
   4   3  -8   12.38    0.64
   4   3  -8   10.96    0.81
   4  -3  -8   11.74    0.62
   4   3  -8   12.85    0.65
   4   3  -8   13.00    0.70
  -4  -3   8   11.91    1.05
   4  -3  -8   12.43    0.68
   4   3  -8   13.26    0.71
   4  -3  -8   12.10    0.66
  -4  -3   8   12.48    0.65
  -4  -3   7    0.04    0.31
   4  -3  -7    0.27    0.25
   4   3  -7   -0.06    0.33
   4  -3  -7    0.52    0.35
   4   3  -7    0.32    0.34
  -4  -3   7    0.47    0.50
   4  -3  -7    0.30    0.30
   4   3  -7   -0.14    0.41
   4   3  -7    0.62    0.34
   4   3  -7    0.20    0.34
  -4  -3   7    0.57    0.56
  -4  -3   6    0.23    0.31
   4  -3  -6    0.48    0.24
  -4  -3   6    0.04    0.46
   4  -3  -6    0.50    0.31
   4   3  -6    0.43    0.34
   4  -3  -6    0.07    0.26
   4   3  -6    0.62    0.45
   4   3  -6    0.47    0.32
   4  -3  -6    0.71    0.31
   4   3  -6    0.78    0.52
  -4  -3   6   -0.06    0.53
   4  -3  -5   58.05    1.48
   4   3  -5   53.71    1.49
  -4  -3   5   56.54    1.90
   4  -3  -5   58.70    1.59
   4   3  -5   59.02    1.96
   4  -3  -5   58.41    1.53
   4   3  -5   56.27    1.64
   4  -3  -5   58.32    1.59
   4   3  -5   61.19    2.15
  -4  -3   5   58.18    2.16
   4  -3  -5   57.45    1.59
  -4  -3   5   57.90    1.62
   4  -3  -4 2264.35   46.04
   4   3  -4 2156.14   46.10
  -4  -3   4 2248.00   46.53
   4  -3  -4 2245.10   46.15
   4  -3  -4 2196.06   46.16
   4  -3  -4 2228.76   46.15
   4   3  -4 2248.76   46.92
  -4  -3   4 2271.97   46.88
   4  -3  -4 2244.83   46.14
  -4  -3   4 2228.48   46.23
  -4  -3   4 2225.70   46.19
  -4  -3   3  269.66    6.13
   4   3  -3  260.07    6.40
   4  -3  -3  267.50    5.82
   4  -3  -3  262.96    5.82
   4  -3  -3  258.12    5.80
   4   3  -3  257.34    6.47
  -4  -3   3  270.61    6.40
   4  -3  -3  263.83    5.79
  -4  -3   3  272.04    5.90
  -4  -3   3  263.35    5.86
   4  -3  -2   93.98    2.22
  -4  -3   2   94.57    2.52
   4  -3  -2   99.12    2.31
   4   3  -2   99.59    2.84
  -4  -3   2   96.37    2.37
   4  -3  -2   97.32    2.31
   4  -3  -2   96.19    2.28
   4   3  -2   86.35    2.23
   4   3  -2   93.98    2.85
  -4  -3   2   93.80    2.76
   4  -3  -2   94.30    2.25
   4   3  -1   19.06    1.12
   4  -3  -1   19.35    0.65
  -4  -3   1   19.28    0.85
   4  -3  -1   19.78    0.71
  -4  -3   1   17.80    0.68
   4  -3  -1   20.53    0.71
  -4  -3   1   19.41    0.76
   4  -3  -1   18.98    0.67
   4   3  -1   18.70    1.08
  -4  -3   1   19.02    1.07
   4  -3  -1   19.71    0.64
  -4  -3   0    6.47    0.49
   4  -3   0    5.44    0.39
   4   3   0    5.21    0.39
  -4  -3   0    4.88    0.38
   4  -3   0    5.78    0.37
   4  -3   0    5.50    0.33
  -4  -3   0    5.50    0.64
   4   3   0    4.57    0.67
  -4  -3   0    5.50    0.42
   4   3   1    3.71    0.70
   4   3   1    3.71    0.41
   4   3   1    4.02    0.56
  -4  -3  -1    4.76    0.40
   4  -3   1    4.45    0.34
   4   3   1    3.27    0.65
  -4  -3  -1    4.36    0.58
  -4  -3  -1    4.25    0.38
   4   3   2    4.53    0.70
  -4  -3  -2    4.48    0.40
   4   3   2    5.16    0.60
  -4  -3  -2    5.05    0.45
   4  -3   2    4.66    0.33
  -4  -3  -2    5.25    0.41
   4   3   2    5.12    0.45
   4   3   2    4.43    0.73
  -4  -3  -2    5.80    0.64
  -4  -3  -3   23.41    0.86
  -4  -3  -3   23.90    0.87
   4   3   3   23.12    0.94
   4   3   3   25.21    1.19
  -4  -3  -3   25.19    0.90
   4   3   3   26.68    1.45
  -4  -3  -3   23.66    1.15
   4   3   3   23.90    1.35
  -4  -3  -4   31.48    1.04
  -4  -3  -4   30.96    1.01
   4   3   4   31.24    1.39
  -4  -3  -4   32.25    1.08
   4   3   4   35.19    1.66
  -4  -3  -4   31.50    1.36
   4   3   4   35.02    1.64
  -4  -3  -5   13.00    0.58
   4   3   5   11.96    0.86
   4   3   5   12.64    1.05
  -4  -3  -5   12.01    0.61
  -4  -3  -5   13.18    0.87
   4   3   5   11.96    1.03
  -4   3  -6   13.92    0.60
  -4  -3  -6   14.77    0.74
  -4  -3  -6   16.80    1.00
   4   3   6   14.03    1.10
  -4  -3  -7   51.52    1.54
   4   3   7   53.90    1.89
  -4   3  -7   51.83    1.46
  -4  -3  -7   55.93    1.61
  -4  -3  -7   55.28    1.58
   4   3   7   50.77    2.17
  -4  -3  -8   40.27    1.27
  -4   3  -8   40.33    1.23
  -4  -3  -8   41.32    1.31
  -4  -3  -8   42.13    1.33
   4   3   8   41.54    1.89
  -4   3  -9  216.85    4.96
  -4  -3  -9  225.54    5.02
  -4  -3  -9  234.09    5.09
  -4  -3  -9  216.56    4.96
  -4  -3 -10  362.20    7.95
  -4   3 -10  376.17    8.02
  -4  -3 -10  377.51    8.03
   4  -3  10  376.51    8.15
  -4   3 -11    6.42    0.39
   4   3  11    5.31    0.45
   4  -3  11    5.75    0.45
  -4   3 -12    0.10    0.20
   4   3  12    0.09    0.32
   4  -3  12    0.19    0.23
   4   4 -13    2.98    0.23
  -4  -4  13    2.86    0.22
   4   4 -12    0.87    0.24
   4   4 -12    0.66    0.23
   4   4 -12    0.68    0.21
   4   4 -12    0.83    0.25
   4   4 -12    1.13    0.25
   4   4 -12    0.61    0.18
  -4  -4  12    0.83    0.25
   4   4 -11    6.41    0.42
   4   4 -11    6.08    0.39
   4  -4 -11    6.21    0.38
   4   4 -11    5.95    0.40
   4   4 -11    6.03    0.41
   4   4 -11    6.11    0.43
   4   4 -11    6.24    0.42
   4   4 -11    6.03    0.36
  -4  -4  11    5.54    0.44
  -4  -4  11    5.87    0.37
   4   4 -10   48.04    1.38
   4  -4 -10   47.33    1.33
   4   4 -10   48.59    1.37
   4   4 -10   47.94    1.39
   4   4 -10   49.84    1.40
   4   4 -10   47.98    1.33
   4   4 -10   48.24    1.36
  -4  -4  10   50.18    1.46
  -4  -4  10   47.40    1.35
   4   4  -9    8.49    0.56
   4  -4  -9    8.59    0.50
   4   4  -9    9.24    0.58
   4   4  -9    8.27    0.47
   4   4  -9    8.54    0.58
   4   4  -9    8.84    0.55
   4   4  -9    8.37    0.51
   4   4  -9    8.49    0.56
  -4  -4   9    9.52    0.62
  -4  -4   9    8.59    0.55
   4   4  -8   46.77    1.40
   4  -4  -8   43.15    1.31
   4   4  -8   44.04    1.31
   4   4  -8   43.56    1.26
   4  -4  -8   45.59    1.25
   4   4  -8   43.85    1.25
   4   4  -8   45.79    1.37
   4   4  -8   46.49    1.40
  -4  -4   8   44.63    1.44
  -4  -4   8   46.09    1.40
   4  -4  -7   19.66    0.72
   4  -4  -7   18.70    0.77
  -4  -4   7   16.02    1.06
   4   4  -7   18.63    0.79
   4   4  -7   19.20    0.76
   4   4  -7   17.59    1.08
   4   4  -7   19.56    0.76
   4   4  -7   20.21    0.85
  -4  -4   7   15.04    1.05
  -4  -4   7   19.47    0.89
  -4  -4   7   19.05    0.83
   4  -4  -6  125.75    2.90
  -4  -4   6  129.24    3.51
  -4  -4   6  122.40    2.92
   4   4  -6  125.15    3.03
   4   4  -6  120.11    2.99
   4   4  -6  121.57    3.52
   4   4  -6  123.58    2.99
   4  -4  -6  122.27    2.97
  -4  -4   6  114.28    3.48
  -4  -4   6  127.10    3.14
  -4  -4   6  126.74    3.08
   4  -4  -5  109.74    2.58
  -4  -4   5  106.65    2.64
   4   4  -5  106.16    2.70
   4   4  -5  107.31    3.21
   4   4  -5  111.14    2.72
   4  -4  -5  106.30    2.64
  -4  -4   5  111.25    3.12
  -4  -4   5  102.93    3.15
   4   4  -5  111.92    3.38
  -4  -4   5  108.96    2.80
  -4  -4   5  110.10    2.76
   4   4  -4  297.18    6.63
  -4  -4   4  291.23    7.08
  -4  -4   4  308.15    6.72
   4  -4  -4  307.37    6.67
   4   4  -4  299.67    7.48
  -4  -4   4  300.89    7.26
  -4  -4   4  307.59    6.82
  -4  -4   4  314.28    6.80
   4  -4  -3  233.70    5.10
   4  -4  -3  236.27    5.18
  -4  -4   3  228.16    5.52
  -4  -4   3  226.89    5.24
   4   4  -3  224.00    5.88
   4   4  -3  235.34    6.00
  -4  -4   3  235.10    5.32
   4  -4  -2    2.48    0.30
   4  -4  -2    1.76    0.33
  -4  -4   2    2.10    0.40
  -4  -4   2    2.24    0.45
  -4  -4   2    2.04    0.31
   4   4  -2    1.98    0.53
  -4  -4   2    2.09    0.34
   4   4  -2    1.24    0.59
  -4  -4   2    1.90    0.40
   4  -4  -1  110.81    2.56
   4  -4  -1  110.11    2.64
   4   4  -1  108.63    3.28
  -4  -4   1  105.98    2.64
   4   4  -1  107.64    3.34
  -4  -4   1  110.43    2.76
  -4  -4   0    3.40    0.43
   4   4   0    2.95    0.61
  -4  -4   0    2.70    0.40
   4   4   0    4.13    0.68
  -4  -4   0    2.79    0.40
  -4  -4  -1   40.05    1.28
  -4  -4  -1   42.04    1.31
  -4  -4  -1   41.69    1.28
   4   4   1   40.81    1.77
  -4  -4  -1   42.76    1.30
   4  -4   1   39.80    1.19
   4   4   1   37.28    1.71
  -4  -4  -2   13.11    0.65
  -4  -4  -2   12.37    0.65
   4   4   2   11.36    0.92
  -4  -4  -2   12.19    0.68
   4  -4   2   11.75    0.61
   4   4   2   11.52    0.97
  -4  -4  -3   66.06    1.85
  -4  -4  -3   67.35    1.81
   4   4   3   67.91    2.34
  -4  -4  -3   67.47    1.86
  -4  -4  -3   65.68    1.81
   4  -4   3   63.18    1.80
   4   4   3   65.33    2.43
  -4  -4  -4  151.55    3.45
  -4  -4  -4  140.69    3.38
   4   4   4  149.15    4.04
  -4  -4  -4  146.14    3.48
   4  -4   4  135.47    3.44
   4   4   4  136.58    4.18
  -4  -4  -5   57.87    1.64
  -4  -4  -5   58.15    1.70
  -4  -4  -5   59.33    1.60
   4   4   5   55.67    1.68
   4   4   5   62.37    2.17
   4  -4   5   58.78    1.72
  -4  -4  -5   60.85    1.72
   4   4   5   56.57    2.31
  -4  -4  -6    0.57    0.38
   4   4   6    0.38    0.38
   4  -4   6    1.02    0.41
   4   4   7    2.55    0.43
  -4  -4  -7    3.18    0.48
  -4  -4  -7    2.91    0.42
   4  -4   7    2.79    0.46
  -4  -4  -8   58.80    1.55
   4   4   8   54.15    1.62
  -4   4  -8   53.58    1.44
  -4  -4  -8   56.43    1.58
  -4  -4  -9   47.14    1.27
   4   4   9   44.35    1.37
  -4   4  -9   44.12    1.20
  -4  -4  -9   46.89    1.31
   4  -4   9   46.79    1.37
   4   4  10   -0.02    0.29
   4  -4  10    0.10    0.29
   4  -4  11   11.61    0.47
  -4   4 -11   13.32    0.46
   4   4  11   10.33    0.47
   4   4  11   11.49    0.52
   4   4  11   12.77    0.51
   4  -4  11   12.28    0.49
   4   5 -11   62.95    1.44
  -4  -5  11   60.66    1.47
   4   5 -10    8.97    0.39
  -4  -5  10    9.43    0.44
   4   5 -10    8.12    0.34
   4   5 -10    9.70    0.42
   4   5 -10    9.79    0.43
   4   5 -10    9.08    0.41
   4   5  -9    4.65    0.35
   4   5  -9    4.22    0.31
   4   5  -9    3.85    0.34
   4   5  -9    4.10    0.35
   4   5  -9    3.77    0.30
  -4  -5   9    4.25    0.38
   4   5  -8    0.51    0.28
   4   5  -8    0.51    0.27
   4   5  -8    0.35    0.21
   4   5  -8    0.45    0.31
   4   5  -8    0.63    0.32
   4   5  -8    0.28    0.21
   4   5  -8    0.36    0.25
  -4  -5   8    0.48    0.30
   4   5  -7   45.78    1.31
   4   5  -7   44.01    1.24
   4   5  -7   44.95    1.24
   4   5  -7   45.27    1.30
  -4  -5   7   48.24    1.40
   4   5  -6   15.74    0.67
   4   5  -6   15.15    0.65
  -4  -5   6   17.14    0.78
   4  -5  -5    0.03    0.26
   4  -5  -5    0.06    0.24
  -4  -5   5    0.18    0.27
   4   5  -5   -0.09    0.27
   4  -5  -4   45.74    1.26
   4  -5  -4   47.42    1.27
  -4  -5   4   46.47    1.34
   4   5  -4   44.80    1.34
  -4  -5   3   80.71    2.09
   4   5  -3   79.33    2.05
  -4  -5   2   83.68    2.19
  -4  -5   1   67.83    1.75
  -4  -5   1   68.69    1.90
  -4  -5   0   15.99    0.66
  -4  -5   0   15.78    0.75
  -4  -5  -1   35.33    1.11
  -4  -5  -1   35.48    1.17
  -4  -5  -1   35.96    1.18
  -4  -5  -1   34.44    1.15
  -4  -5  -2   24.62    0.89
  -4  -5  -2   23.07    0.89
  -4  -5  -2   23.81    0.91
  -4  -5  -2   21.95    0.91
  -4  -5  -3   17.24    0.75
  -4  -5  -3   17.50    0.75
  -4  -5  -3   15.75    0.76
  -4  -5  -4    9.27    0.57
  -4  -5  -4    8.32    0.59
   4  -5   4    8.12    0.50
  -4  -5  -5   46.42    1.29
  -4  -5  -5   47.38    1.40
   4  -5   5   47.08    1.36
  -4  -5  -6    4.36    0.42
  -4  -5  -6    4.85    0.32
   4   5   6    4.24    0.39
   4  -5   6    4.75    0.42
   4   5   7    0.32    0.28
  -4  -5  -7    0.47    0.31
   4  -5   7    0.80    0.29
   4   5   8   26.14    0.84
   4   5   8   28.95    0.89
   4  -5   8   28.32    0.86
  -4  -5  -9   11.12    0.39
   4   5   9   10.92    0.46
   4  -5   9   10.86    0.45
  -4  -6   8   12.37    0.42
   4   6  -7    9.57    0.38
   4   6  -7   10.57    0.42
  -4  -6   7   10.43    0.43
   4   6  -6   46.72    1.18
   4   6  -6   44.86    1.14
   4   6  -5   69.10    1.70
   4   6  -5   71.66    1.70
   4   6  -5   74.04    1.74
  -4  -6   4   12.41    0.52
  -4  -6   4   13.98    0.58
   4   6  -4   12.31    0.51
  -4  -6   3  110.86    2.56
  -4  -6   3  106.83    2.53
  -4  -6   3  113.09    2.62
  -4  -6   2   66.85    1.68
  -4  -6   2   66.58    1.68
  -4  -6   1   61.23    1.57
   4   6   0    0.18    0.22
  -4  -6   0    0.42    0.25
  -4  -6  -1   -0.13    0.23
  -4  -6  -1    0.02    0.27
  -4  -6  -2    4.05    0.35
  -4  -6  -3   21.30    0.71
  -4  -6  -4    1.77    0.24
   4   6   4    1.16    0.23
  -4  -6  -5   -0.04    0.18
  -4  -6  -5    0.13    0.14
   4   6   5   -0.09    0.20
  -4  -6  -6    1.65    0.19
   5   0 -15    0.07    0.17
   5   0 -15   -0.09    0.17
   5   0 -15    0.01    0.14
   5   0 -14    7.89    0.43
   5   0 -14    6.77    0.38
   5   0 -13   -0.02    0.30
   5   0 -13    0.22    0.27
   5   0 -12    8.18    0.53
   5   0 -12    7.43    0.52
   5   0 -12    8.54    0.51
   5   0 -12    7.25    0.41
   5   0 -12    7.71    0.48
   5   0 -11    0.45    0.34
   5   0 -11    0.12    0.25
   5   0 -11    0.13    0.29
   5   0 -10    7.45    0.49
   5   0 -10    8.42    0.55
   5   0 -10    8.25    0.50
  -5   0  10    6.95    0.86
   5   0 -10    8.25    0.51
   5   0  -9    1.51    0.32
   5   0  -9    0.12    0.30
  -5   0   9   -0.22    0.40
   5   0  -9    0.12    0.27
   5   0  -9   -0.07    0.26
   5   0  -9   -0.02    0.31
   5   0  -9    0.10    0.30
  -5   0   9    0.38    0.55
   5   0  -8  381.35    8.10
  -5   0   8  370.26    8.45
   5   0  -8  380.07    8.14
   5   0  -8  375.27    8.07
   5   0  -8  368.51    8.07
   5   0  -8  378.02    8.18
   5   0  -8  376.07    8.16
  -5   0   8  372.77    8.96
   5   0  -8  376.51    8.12
   5   0  -7   -0.14    0.24
   5   0  -7    0.10    0.27
  -5   0   7    0.35    0.38
   5   0  -7   -0.05    0.26
   5   0  -7   -0.04    0.23
   5   0  -7    0.23    0.22
   5   0  -7    0.18    0.24
   5   0  -7   -0.04    0.30
   5   0  -7    0.07    0.27
  -5   0   7    0.26    0.47
   5   0  -6  188.88    4.21
  -5   0   6  199.42    4.56
   5   0  -6  189.67    4.25
   5   0  -6  186.27    4.19
   5   0  -6  196.95    4.31
   5   0  -6  187.78    4.20
   5   0  -6  195.06    4.32
   5   0  -6  189.78    4.29
  -5   0   6  186.59    4.88
   5   0  -6  190.51    4.25
   5   0  -5    0.35    0.21
   5   0  -5   -0.21    0.23
   5   0  -5   -0.06    0.24
   5   0  -5    0.65    0.27
   5   0  -5    0.09    0.21
   5   0  -5    0.07    0.28
   5   0  -5    0.13    0.25
   5   0  -5    0.13    0.21
  -5   0   5   -0.30    0.44
   5   0  -4   18.97    0.66
   5   0  -4   18.38    0.68
   5   0  -4   17.64    0.63
   5   0  -4   18.47    0.69
  -5   0   4   17.87    0.98
   5   0  -4   17.32    0.65
   5   0  -3    0.07    0.41
   5   0  -3    0.20    0.22
   5   0  -3    0.26    0.24
  -5   0   3   -0.25    0.38
   5   0  -2    0.43    0.24
   5   0  -2    0.96    0.39
   5   0  -2    0.93    0.24
  -5   0   2    0.34    0.37
   5   0  -2    0.75    0.25
   5   0  -2    1.52    0.28
  -5   0   2    1.00    0.40
   5   0  -1   -0.15    0.33
   5   0  -1    0.05    0.22
  -5   0   1   -0.09    0.35
   5   0  -1   -0.08    0.22
  -5   0   0  211.63    5.00
   5   0   0  213.64    4.78
   5   0   0  219.23    5.31
   5   0   0  213.92    4.67
   5   0   0  205.73    4.77
   5   0   1    0.27    0.38
   5   0   1    0.18    0.29
   5   0   1   -0.13    0.26
  -5   0  -1    0.12    0.33
   5   0   1    0.18    0.49
   5   0   1    0.24    0.24
  -5   0  -1    0.14    0.42
   5   0   1    0.30    0.20
  -5   0  -2  144.80    3.50
   5   0   2  138.63    3.31
   5   0   2  140.20    3.24
   5   0   2  139.75    3.19
   5   0   2  148.87    3.87
   5   0   2  141.87    3.18
   5   0   2  129.81    3.24
  -5   0  -2  132.93    3.77
   5   0   2  141.29    3.67
   5   0   3    0.16    0.40
   5   0   3    0.15    0.20
   5   0   3    0.02    0.33
   5   0   3   -0.02    0.30
   5   0   3   -0.03    0.27
   5   0   3   -0.09    0.26
  -5   0  -3    0.52    0.39
   5   0   4    0.13    0.39
   5   0   4    0.02    0.34
   5   0   4    0.10    0.31
   5   0   4    1.25    0.31
   5   0   4   -0.06    0.26
   5   0   4   -0.02    0.37
  -5   0  -4   -0.40    0.42
   5   0   5   -0.41    0.46
   5   0   5    0.08    0.31
  -5   0  -5    0.11    0.26
   5   0   5   -0.11    0.30
   5   0   5   -0.05    0.26
   5   0   5    0.39    0.40
  -5   0  -5   -0.27    0.43
   5   0   6    1.92    0.50
  -5   0  -6    2.15    0.34
   5   0   6    2.37    0.36
   5   0   6    1.83    0.29
   5   0   6    1.54    0.44
  -5   0  -6    2.05    0.49
   5   0   6    1.85    0.39
   5   0   7    0.40    0.42
   5   0   7   -0.18    0.33
  -5   0  -7    0.08    0.29
   5   0   7    0.43    0.32
   5   0   7    0.03    0.45
  -5   0  -7   -0.05    0.39
   5   0   8   -0.05    0.43
   5   0   8    0.27    0.36
  -5   0  -8    0.02    0.31
   5   0   8    0.07    0.28
   5   0   8    0.27    0.46
  -5   0  -9   -0.10    0.31
   5   0   9   -0.17    0.34
   5   0   9   -0.03    0.28
   5   0   9    0.18    0.49
  -5   0 -10  319.48    7.05
   5   0  10  325.51    7.25
   5   0  11    0.26    0.36
  -5   0 -11    0.31    0.29
  -5   0 -11    0.35    0.32
   5   0  11    0.18    0.43
  -5   0 -12    0.90    0.29
  -5   0 -12    0.81    0.29
   5   0  12    0.71    0.41
  -5   0 -13   -0.11    0.22
  -5   0 -13   -0.01    0.21
   5  -1 -15    2.98    0.22
   5   1 -15    2.99    0.23
   5   1 -14   18.62    0.62
   5  -1 -14   17.60    0.64
   5   1 -14   18.14    0.62
   5  -1 -14   16.72    0.63
   5   1 -14   17.05    0.62
   5  -1 -13   -0.15    0.25
   5   1 -13    0.19    0.27
   5  -1 -13   -0.03    0.29
   5   1 -13    0.34    0.29
   5   1 -13    0.05    0.27
   5  -1 -12    6.79    0.51
   5   1 -12    7.68    0.50
   5   1 -11   15.89    0.72
   5   1 -11   15.60    0.73
   5   1 -11   15.83    0.70
   5   1 -11   14.29    0.74
   5  -1 -11   16.04    0.68
   5   1 -10    0.51    0.38
   5   1 -10    0.38    0.37
  -5  -1  10    0.61    0.49
   5   1 -10    0.24    0.34
   5   1 -10    0.25    0.33
   5  -1 -10    0.51    0.30
   5  -1 -10    0.59    0.30
   5   1 -10    0.39    0.25
   5  -1 -10    0.48    0.33
  -5  -1  10    0.07    0.59
   5   1 -10    0.35    0.37
   5  -1 -10    0.10    0.27
   5   1  -9  983.53   20.58
  -5  -1   9 1009.83   21.10
   5   1  -9  992.64   20.62
   5   1  -9  980.43   20.56
   5   1  -9  987.41   20.53
   5  -1  -9  976.46   20.53
   5   1  -9  997.51   20.63
   5   1  -9  979.48   20.63
   5  -1  -9  974.52   20.52
   5  -1  -9  967.86   20.46
   5  -1  -9  977.10   20.57
  -5  -1   9  948.82   21.56
   5   1  -9  981.93   20.59
   5  -1  -9  961.12   20.45
   5   1  -8    0.28    0.30
   5   1  -8    0.98    0.36
  -5  -1   8    0.69    0.47
   5   1  -8    0.82    0.35
   5   1  -8    0.44    0.31
   5   1  -8    1.12    0.32
   5  -1  -8    0.55    0.27
   5   1  -8    0.51    0.33
   5   1  -8    0.87    0.30
   5  -1  -8    0.85    0.30
   5   1  -8    0.93    0.37
   5   1  -8    0.34    0.33
   5  -1  -8    0.69    0.27
   5  -1  -8    0.36    0.24
   5  -1  -8    0.95    0.32
  -5   1   8    0.14    0.41
  -5  -1   8    0.52    0.60
  -5  -1   7  100.90    2.80
   5   1  -7  100.82    2.47
   5   1  -7   97.65    2.47
   5  -1  -7   96.69    2.39
   5   1  -7  102.30    2.40
   5  -1  -7  101.49    2.43
   5   1  -7   98.62    2.50
   5  -1  -7   97.14    2.36
  -5   1   7   96.38    2.85
  -5  -1   7   97.47    3.13
   5   1  -7   97.48    2.44
  -5   1   6   19.99    0.84
  -5  -1   6   19.79    0.97
   5   1  -6   19.08    0.72
   5   1  -6   20.22    0.77
   5  -1  -6   19.38    0.72
   5   1  -6   20.38    0.71
   5  -1  -6   19.24    0.73
   5  -1  -6   19.68    0.67
  -5   1   6   21.51    1.04
  -5  -1   6   18.65    1.17
   5   1  -6   19.03    0.74
  -5  -1   5   60.43    1.91
   5   1  -5   64.89    1.65
   5  -1  -5   64.28    1.67
   5   1  -5   66.11    1.69
   5  -1  -5   62.23    1.64
   5  -1  -5   68.07    1.68
   5  -1  -5   63.45    1.63
  -5   1   5   61.06    1.96
  -5  -1   5   61.43    2.24
   5   1  -4   17.54    0.68
   5   1  -4   19.22    0.69
   5   1  -4   17.56    0.71
   5   1  -4   17.06    0.60
   5  -1  -4   18.95    0.67
   5  -1  -4   17.58    0.62
   5  -1  -4   17.07    0.66
  -5   1   4   17.41    0.85
   5   1  -4   19.15    0.95
  -5  -1   4   18.85    1.07
   5   1  -3  190.77    4.30
   5  -1  -3  188.18    4.26
   5   1  -3  189.50    4.23
   5  -1  -3  192.55    4.28
  -5   1   3  202.79    4.68
  -5  -1   3  204.61    4.69
   5   1  -3  189.65    4.26
   5   1  -3  194.56    4.69
  -5   1   3  190.56    4.52
  -5  -1   3  205.05    4.89
   5   1  -3  193.25    4.69
   5  -1  -3  189.66    4.68
   5   1  -2  716.66   14.90
  -5   1   2  723.71   15.27
  -5  -1   2  716.88   15.27
   5  -1  -2  732.02   14.88
   5   1  -2  688.41   14.86
   5   1  -2  696.78   15.28
  -5  -1   2  730.90   15.42
   5   1  -2  685.61   15.28
   5  -1  -2  680.51   15.26
  -5   1   1   37.20    1.34
  -5  -1   1   39.81    1.35
   5   1  -1   41.33    1.20
   5   1  -1   36.85    1.10
   5   1  -1   39.93    1.08
   5   1  -1   37.76    1.09
   5   1  -1   37.02    1.33
   5   1  -1   35.29    1.32
   5  -1  -1   34.80    1.31
   5   1   0    2.07    0.56
   5   1   0    1.05    0.32
   5   1   0    0.72    0.31
   5   1   0    0.67    0.28
   5  -1   0    0.58    0.25
  -5   1   0    0.38    0.36
  -5  -1   0    0.76    0.36
   5   1   0    0.66    0.28
   5   1   0    0.91    0.28
   5   1   0    0.78    0.33
  -5   1  -1   17.30    0.84
  -5  -1  -1   16.75    0.81
   5   1   1   16.30    0.73
   5  -1   1   17.68    0.70
   5   1   1   15.25    0.78
   5  -1   1   16.99    0.65
   5   1   1   17.04    0.70
   5   1   1   15.83    0.63
   5  -1   1   17.10    0.92
  -5   1  -1   17.05    0.93
  -5  -1  -1   17.00    1.10
   5   1   1   17.28    1.02
   5   1   2   33.34    1.20
   5  -1   2   37.33    1.13
   5   1   2   36.62    1.23
   5  -1   2   38.18    1.09
   5   1   2   35.16    1.13
   5   1   2   36.13    1.09
   5  -1   2   37.35    1.46
  -5   1  -2   35.09    1.37
  -5  -1  -2   37.94    1.59
   5   1   2   38.73    1.59
   5  -1   3  320.22    7.03
   5   1   3  305.56    6.88
   5  -1   3  317.69    6.79
   5   1   3  296.51    6.87
   5  -1   3  322.22    6.72
   5  -1   3  325.39    7.28
  -5  -1  -3  291.53    6.63
  -5   1  -3  294.59    7.11
  -5  -1  -3  316.65    7.40
   5   1   3  321.62    7.42
   5  -1   4   79.56    2.04
   5   1   4   72.68    2.04
   5  -1   4   80.57    1.96
  -5  -1  -4   74.40    1.91
  -5   1  -4   78.29    2.31
  -5  -1  -4   76.76    2.50
   5   1   4   80.03    2.58
   5  -1   4   77.27    2.21
  -5   1  -5  182.57    4.09
  -5  -1  -5  173.86    4.08
   5  -1   5  178.66    4.18
   5  -1   5  181.37    4.08
   5   1   5  190.91    4.15
  -5  -1  -5  177.60    4.07
   5   1   5  185.73    4.24
   5  -1   5  180.50    4.23
  -5   1  -5  166.31    4.41
  -5  -1  -5  175.27    4.69
   5   1   5  177.22    4.80
  -5   1  -6   39.19    1.20
  -5  -1  -6   39.39    1.20
   5  -1   6   36.79    1.27
   5  -1   6   40.08    1.19
   5   1   6   40.17    1.26
  -5  -1  -6   39.78    1.22
   5   1   6   40.48    1.34
   5  -1   6   41.07    1.35
  -5  -1  -6   40.88    1.65
   5   1   6   37.40    1.71
  -5  -1  -7   29.94    1.01
   5  -1   7   29.34    1.10
   5  -1   7   30.15    0.95
   5  -1   7   29.44    0.97
   5   1   7   31.22    1.07
   5   1   7   30.88    1.17
   5  -1   7   31.48    1.18
  -5  -1  -7   31.16    1.05
  -5  -1  -7   29.51    1.43
  -5   1  -7   29.43    1.01
   5   1   7   29.63    1.48
   5   1   8    0.30    0.49
   5  -1   8    0.35    0.35
  -5   1  -8    0.28    0.31
  -5  -1  -8    0.18    0.30
   5   1   8    0.94    0.37
  -5  -1  -8    0.18    0.35
   5   1   8    0.25    0.28
   5   1   8    0.67    0.46
   5  -1   8    1.23    0.49
   5   1   9    1.95    0.60
   5  -1   9    1.50    0.36
  -5   1  -9    1.75    0.34
  -5  -1  -9    2.25    0.37
   5   1   9    2.50    0.38
  -5  -1  -9    1.45    0.37
   5   1   9    1.87    0.52
   5  -1   9    2.57    0.54
  -5  -1 -10   42.64    1.26
  -5   1 -10   41.66    1.25
   5   1  10   38.59    1.29
  -5  -1 -10   42.10    1.29
   5   1  10   41.99    1.42
   5  -1  10   42.46    1.42
  -5  -1 -11    0.70    0.29
  -5   1 -11    0.78    0.30
  -5  -1 -11    0.86    0.33
   5   1  11    0.71    0.41
   5  -1  11    1.21    0.43
   5   1  12   18.46    0.79
  -5   1 -12   18.98    0.67
  -5  -1 -12   19.38    0.70
  -5  -1 -12   18.32    0.66
  -5   1 -12   19.66    0.68
   5  -1  12   17.52    0.64
  -5  -1 -13    1.52    0.22
  -5   1 -13    1.37    0.22
  -5   1 -13    1.52    0.22
  -5  -1 -13    2.00    0.24
   5  -2 -14    2.03    0.25
   5   2 -14    1.46    0.18
   5   2 -14    2.04    0.25
   5   2 -14    1.68    0.24
   5  -2 -13    0.45    0.27
   5   2 -13    0.69    0.28
   5   2 -13    0.43    0.27
   5   2 -12    7.00    0.49
   5  -2 -12    7.03    0.49
   5   2 -12    6.50    0.47
   5   2 -12    7.46    0.49
   5   2 -11    4.00    0.46
   5  -2 -11    4.06    0.44
   5   2 -11    4.35    0.45
   5  -2 -11    3.83    0.45
   5   2 -11    4.36    0.42
   5   2 -11    4.03    0.45
   5   2 -10  208.48    4.75
   5   2 -10  207.06    4.73
   5   2 -10  204.77    4.63
   5  -2 -10  204.97    4.74
   5  -2 -10  202.34    4.75
   5   2 -10  207.78    4.71
   5   2 -10  211.86    4.78
   5  -2 -10  208.41    4.73
  -5  -2   9   54.30    1.97
   5  -2  -9   49.72    1.53
   5   2  -9   50.62    1.54
   5   2  -9   54.03    1.54
   5   2  -9   52.61    1.54
   5  -2  -9   52.20    1.53
   5   2  -9   50.72    1.51
   5   2  -9   52.76    1.55
   5   2  -9   53.42    1.58
   5  -2  -9   51.83    1.54
  -5  -2   8  152.45    4.24
   5  -2  -8  158.29    3.82
   5   2  -8  150.69    3.82
   5   2  -8  167.57    3.84
   5   2  -8  165.77    3.84
   5  -2  -8  166.22    3.80
   5   2  -8  167.74    3.82
   5  -2  -8  161.68    3.80
   5   2  -8  165.66    3.86
   5   2  -8  160.91    3.88
   5  -2  -8  169.46    3.84
   5   2  -8  158.15    3.84
  -5  -2   7   18.81    1.06
   5  -2  -7   19.07    0.80
   5   2  -7   19.21    0.82
   5   2  -7   19.71    0.82
   5  -2  -7   20.13    0.78
   5  -2  -7   19.54    0.77
   5   2  -7   20.06    0.86
   5  -2  -7   20.05    0.80
   5  -2  -7   19.16    0.79
  -5  -2   6   85.86    2.56
   5   2  -6   84.12    2.14
   5  -2  -6   88.93    2.23
   5   2  -6   86.91    2.23
   5   2  -6   89.69    2.26
   5  -2  -6   86.34    2.19
   5   2  -6   84.55    2.38
   5  -2  -6   86.78    2.16
   5   2  -6   90.00    2.30
   5  -2  -6   86.40    2.21
  -5  -2   6   86.06    2.13
   5   2  -5    1.83    0.32
   5  -2  -5    1.20    0.33
   5   2  -5    1.05    0.36
   5  -2  -5    1.44    0.31
   5  -2  -5    1.46    0.27
   5   2  -5    1.66    0.36
   5   2  -5    1.39    0.39
   5  -2  -5    1.86    0.32
   5   2  -5    1.73    0.49
  -5  -2   5    1.52    0.31
   5   2  -4  322.66    6.96
   5  -2  -4  324.46    6.97
   5   2  -4  309.27    7.17
  -5   2   4  324.29    7.33
  -5  -2   4  330.46    7.35
   5  -2  -4  331.00    6.97
   5  -2  -4  315.95    6.85
   5  -2  -4  317.75    6.95
   5   2  -4  303.78    6.87
   5   2  -4  323.36    7.59
   5  -2  -4  327.43    6.96
  -5  -2   4  317.71    6.95
   5   2  -3    1.52    0.33
   5  -2  -3    2.19    0.33
   5  -2  -3    3.17    0.34
  -5   2   3    2.05    0.40
   5   2  -3    1.97    0.31
   5   2  -3    2.42    0.53
  -5  -2   3    1.77    0.29
   5   2  -2   66.75    1.77
   5  -2  -2   69.92    1.74
  -5   2   2   72.45    1.99
  -5  -2   2   66.99    1.96
   5   2  -2   75.09    2.22
   5  -2  -2   68.67    1.73
  -5  -2   2   64.64    1.70
   5   2  -2   61.87    1.63
   5  -2  -2   68.74    1.71
   5   2  -2   62.96    1.71
   5   2  -2   68.20    2.19
   5   2  -2   65.03    1.99
   5  -2  -2   66.74    2.01
   5  -2  -1    1.32    0.29
   5   2  -1    0.97    0.38
   5  -2  -1    0.95    0.35
   5   2  -1    1.34    0.44
   5   2  -1    1.25    0.30
  -5  -2   1    1.34    0.26
   5  -2  -1    1.16    0.28
  -5   2   1    0.81    0.34
  -5  -2   1    1.04    0.36
   5   2  -1    0.71    0.25
   5   2  -1    1.01    0.30
   5   2  -1    1.43    0.45
  -5  -2   1    0.98    0.25
   5   2   0    0.43    0.53
   5   2   0    0.22    0.31
   5  -2   0    0.40    0.31
   5  -2   0    0.26    0.25
   5   2   0    0.40    0.33
   5   2   0    0.15    0.37
   5   2   0    0.07    0.28
   5  -2   0    0.42    0.25
  -5   2   0    0.25    0.31
  -5  -2   0    0.25    0.32
   5   2   0    0.24    0.26
   5   2   0   -0.06    0.52
  -5  -2   0    0.33    0.49
   5   2   0    0.21    0.37
  -5  -2   0    0.41    0.23
  -5  -2  -1  122.29    3.08
   5   2   1  116.90    2.98
   5   2   1  123.94    3.27
   5   2   1  116.21    2.92
   5  -2   1  127.84    2.87
   5   2   1  119.96    2.88
   5   2   1  126.04    3.72
  -5  -2  -1  123.72    3.57
  -5  -2  -1  123.12    2.85
   5   2   1  123.25    3.57
  -5  -2  -2   91.07    2.30
   5   2   2   93.55    2.51
   5   2   2   94.13    2.69
   5  -2   2  100.92    2.33
   5   2   2   94.00    2.42
   5   2   2   97.67    2.38
   5   2   2   97.85    3.24
  -5  -2  -2   95.92    2.96
   5   2   2  103.31    3.11
  -5  -2  -3  425.07    9.39
   5   2   3  439.48    9.63
   5   2   3  435.77    9.83
   5  -2   3  458.41    9.41
   5   2   3  470.83   10.51
  -5  -2  -3  441.50    9.42
  -5  -2  -3  416.30   10.12
  -5  -2  -4 1470.08   30.94
  -5   2  -4 1483.46   30.93
  -5  -2  -4 1493.66   30.94
   5   2   4 1437.23   31.35
   5  -2   4 1489.34   30.90
   5   2   4 1560.92   32.11
  -5  -2  -4 1521.00   30.99
  -5  -2  -4 1489.55   31.76
  -5   2  -5   43.57    1.28
  -5  -2  -5   45.28    1.29
   5   2   5   40.83    1.52
  -5  -2  -5   44.05    1.34
  -5  -2  -5   43.04    1.81
  -5   2  -6  140.18    3.25
  -5  -2  -6  134.70    3.23
  -5  -2  -6  143.30    3.33
  -5  -2  -6  143.57    3.92
   5   2   6  134.75    4.10
   5   2   7    0.62    0.59
  -5   2  -7    1.01    0.30
  -5  -2  -7    1.49    0.31
   5   2   7    0.53    0.43
  -5  -2  -7    1.72    0.40
  -5  -2  -7    1.55    0.55
  -5   2  -8   59.51    1.62
  -5  -2  -8   59.45    1.61
  -5  -2  -8   60.86    1.73
   5   2   8   61.74    1.75
  -5  -2  -8   59.48    1.70
   5   2   8   59.73    2.35
  -5  -2  -9   72.55    1.87
  -5   2  -9   73.42    1.87
  -5  -2  -9   75.33    1.96
   5   2   9   78.30    1.99
  -5  -2  -9   74.44    1.98
  -5   2 -10  215.04    4.73
  -5  -2 -10  216.09    4.81
   5   2  10  218.05    4.83
  -5  -2 -10  221.70    4.87
  -5  -2 -10  209.83    4.75
  -5   2 -10  212.87    4.77
   5   2  11    1.19    0.42
  -5   2 -11    0.54    0.23
   5   2  11    0.48    0.35
  -5  -2 -11    0.80    0.30
   5  -2  11    0.75    0.32
  -5   2 -12    1.41    0.22
   5  -2  12    1.23    0.26
   5   3 -13   11.66    0.45
   5   3 -13   11.80    0.47
  -5  -3  13   10.85    0.41
   5   3 -12    0.15    0.26
   5   3 -12   -0.10    0.27
   5   3 -12   -0.01    0.25
  -5  -3  12   -0.01    0.24
   5   3 -11    2.24    0.37
   5   3 -11    2.25    0.37
   5   3 -11    2.53    0.34
   5   3 -11    2.74    0.36
   5   3 -11    2.62    0.36
   5   3 -11    2.18    0.36
  -5  -3  11    2.45    0.36
   5   3 -10    1.46    0.38
   5   3 -10    1.98    0.40
   5   3 -10    1.30    0.35
   5   3 -10    1.43    0.37
   5   3 -10    1.43    0.37
  -5  -3  10    1.56    0.37
   5   3  -9   40.19    1.35
   5   3  -9   43.19    1.31
   5   3  -9   42.35    1.35
   5   3  -9   43.11    1.34
   5   3  -9   43.79    1.31
   5   3  -9   42.56    1.36
   5   3  -9   42.29    1.36
  -5  -3   9   42.60    1.35
   5   3  -8   96.02    2.52
   5   3  -8   97.57    2.46
   5   3  -8   98.17    2.45
   5  -3  -8   94.34    2.40
   5   3  -8   99.19    2.47
   5   3  -8   97.56    2.53
  -5  -3   8   96.10    3.16
   5   3  -8   95.59    2.49
  -5  -3   8   94.80    2.50
  -5  -3   8   94.20    2.39
   5   3  -7    8.57    0.59
  -5  -3   7    7.46    0.79
   5   3  -7    9.57    0.61
   5  -3  -7    8.35    0.51
   5   3  -7    9.33    0.62
   5   3  -7    8.60    0.63
  -5  -3   7    9.26    0.96
   5  -3  -7    8.00    0.56
  -5  -3   7    7.85    0.59
  -5  -3   7    8.36    0.53
   5   3  -6    1.00    0.30
  -5  -3   6    1.21    0.51
   5   3  -6    0.63    0.39
   5   3  -6    1.25    0.39
   5  -3  -6    1.00    0.29
   5   3  -6    0.98    0.41
   5   3  -6    0.91    0.43
   5  -3  -6    0.96    0.35
  -5  -3   6    0.88    0.58
  -5  -3   6    1.17    0.37
   5   3  -5   98.12    2.43
  -5  -3   5  100.25    2.85
   5   3  -5  100.32    2.55
   5   3  -5   99.93    2.85
   5   3  -5   98.48    2.58
   5  -3  -5  100.32    2.50
  -5  -3   5   98.03    3.14
   5  -3  -5   99.21    2.49
  -5  -3   5   97.49    2.53
  -5  -3   4  348.07    8.01
   5   3  -4  358.79    7.63
   5  -3  -4  347.05    7.61
  -5  -3   4  337.64    8.30
   5  -3  -4  346.07    7.60
  -5  -3   4  349.09    7.68
  -5  -3   3  295.82    6.88
   5   3  -3  305.84    6.59
   5  -3  -3  301.61    6.56
   5  -3  -3  299.52    6.54
   5   3  -3  283.37    6.47
  -5  -3   3  300.94    7.25
   5  -3  -3  306.60    6.52
  -5  -3   3  293.17    6.60
  -5  -3   2  273.30    6.31
   5  -3  -2  279.05    6.04
   5  -3  -2  273.56    6.00
   5   3  -2  265.47    5.99
   5   3  -2  251.35    6.69
  -5  -3   2  270.69    6.84
   5  -3  -2  275.61    5.96
  -5  -3   2  281.03    6.10
  -5  -3   1   45.68    1.52
   5   3  -1   50.34    1.86
   5   3  -1   46.60    1.30
   5  -3  -1   46.71    1.33
  -5  -3   1   41.90    1.26
   5   3  -1   46.52    1.27
   5  -3  -1   45.96    1.29
   5   3  -1   44.10    1.34
   5   3  -1   45.15    1.86
  -5  -3   1   50.49    1.97
   5  -3  -1   47.74    1.25
  -5  -3   1   46.96    1.38
   5   3   0    1.05    0.58
  -5  -3   0    0.92    0.35
   5   3   0    1.34    0.36
   5   3   0    0.79    0.47
   5   3   0    0.81    0.30
  -5  -3   0    0.73    0.31
   5  -3   0    0.88    0.27
   5   3   0    0.76    0.30
   5  -3   0    0.97    0.26
  -5  -3   0    1.17    0.51
   5   3   0    0.84    0.45
  -5  -3   0    1.38    0.34
   5   3   1   67.37    1.90
   5   3   1   71.13    2.32
   5   3   1   67.06    1.86
   5  -3   1   70.42    1.78
  -5  -3  -1   69.34    1.84
   5   3   1   69.30    1.83
   5   3   1   69.08    2.57
  -5  -3  -1   72.92    2.41
  -5  -3  -1   70.00    1.86
   5   3   1   67.39    2.51
  -5  -3  -2   13.86    0.66
   5   3   2   14.39    0.75
   5   3   2   14.58    0.94
   5   3   2   14.28    0.71
   5  -3   2   15.37    0.61
  -5  -3  -2   13.84    0.69
   5   3   2   14.14    0.68
   5   3   2   12.93    1.15
  -5  -3  -2   14.05    0.95
   5   3   2   13.22    1.11
  -5  -3  -3  100.55    2.50
  -5  -3  -3  100.82    2.51
   5   3   3   97.18    2.62
   5   3   3  101.46    2.98
  -5  -3  -3   98.87    2.53
   5  -3   3  100.63    2.38
   5   3   3  105.83    3.46
  -5  -3  -3   99.86    3.04
   5   3   3  103.64    3.33
   5   3   4    1.70    0.71
  -5  -3  -4    2.01    0.33
  -5  -3  -4    1.65    0.34
   5   3   4    1.66    0.46
   5   3   4    2.08    0.49
  -5  -3  -4    2.21    0.43
   5   3   4    1.79    0.69
  -5  -3  -4    1.47    0.50
   5   3   5    4.83    0.87
  -5  -3  -5    5.91    0.45
  -5  -3  -5    5.76    0.42
   5   3   5    6.18    0.60
   5   3   5    5.52    0.62
  -5  -3  -5    5.42    0.54
   5   3   5    6.85    0.93
  -5  -3  -5    5.17    0.64
   5   3   6   24.88    1.06
   5   3   6   20.39    1.10
   5   3   6   19.57    1.47
  -5  -3  -6   24.42    1.25
   5   3   6   20.56    1.38
  -5  -3  -7   10.73    0.62
   5   3   7   12.36    0.79
  -5  -3  -7   11.62    0.68
  -5  -3  -8  120.66    2.91
   5   3   8  119.87    3.13
  -5  -3  -8  123.43    2.98
  -5  -3  -9   23.58    0.81
   5   3   9   24.79    1.04
  -5  -3  -9   25.18    0.89
   5   3   9   25.78    0.94
   5   3  10  194.83    4.40
  -5  -3 -10  189.94    4.20
   5   3  10  197.34    4.26
   5  -3  10  193.77    4.29
   5   3  11    2.23    0.38
   5   3  11    2.45    0.30
   5  -3  11    2.71    0.31
   5   3  12    1.28    0.25
   5   3  12    1.26    0.23
   5  -3  12    1.50    0.19
   5  -4 -12   11.16    0.40
   5   4 -12   12.48    0.44
  -5  -4  12   11.99    0.42
   5   4 -11   15.20    0.57
   5   4 -11   14.33    0.55
   5   4 -11   15.60    0.58
   5  -4 -11   14.29    0.53
   5   4 -11   15.34    0.55
   5   4 -11   15.39    0.56
   5   4 -11   14.59    0.53
  -5  -4  11   14.80    0.57
   5   4 -10    1.26    0.30
   5   4 -10    1.35    0.30
   5   4 -10    1.62    0.33
   5   4 -10    1.85    0.30
   5   4 -10    1.90    0.32
   5  -4 -10    1.15    0.26
   5   4 -10    1.64    0.30
   5   4 -10    1.57    0.30
  -5  -4  10    1.35    0.30
   5   4  -9   23.77    0.87
   5  -4  -9   22.83    0.81
   5   4  -9   23.61    0.86
   5   4  -9   22.78    0.80
   5   4  -9   24.17    0.88
   5   4  -9   22.57    0.83
   5   4  -9   23.43    0.85
  -5  -4   9   23.44    0.87
   5  -4  -8    0.13    0.30
   5   4  -8    0.34    0.35
   5   4  -8    0.19    0.32
   5   4  -8    0.29    0.28
   5   4  -8   -0.18    0.27
   5   4  -8    0.13    0.33
   5   4  -8    0.08    0.34
  -5  -4   8    0.16    0.35
   5  -4  -7  141.81    3.38
   5   4  -7  147.87    3.43
   5   4  -7  142.42    3.39
   5   4  -7  139.53    3.37
   5   4  -7  149.94    3.49
  -5  -4   7  145.77    3.50
   5  -4  -6    2.05    0.39
  -5  -4   6    2.25    0.34
   5   4  -6    2.15    0.43
   5   4  -6    2.28    0.39
   5   4  -6    1.46    0.38
  -5  -4   6    1.60    0.39
   5   4  -5   14.51    0.60
   5  -4  -5   14.32    0.68
  -5  -4   5   12.95    0.92
  -5  -4   5   15.27    0.69
   5   4  -5   14.20    0.72
   5   4  -5   12.37    0.92
   5   4  -5   13.78    0.72
   5   4  -5   11.88    1.01
  -5  -4   5   14.02    0.75
   5   4  -4  109.28    2.74
  -5  -4   4  115.18    3.16
  -5  -4   4  114.88    2.83
   5   4  -4  117.09    3.32
   5  -4  -4  116.44    2.80
   5   4  -4  118.33    3.56
  -5  -4   4  115.69    2.90
   5   4  -3  461.18    9.74
  -5  -4   3  431.24   10.06
  -5  -4   3  442.79    9.76
   5  -4  -3  455.07    9.70
   5   4  -3  446.10   10.60
  -5  -4   3  458.02    9.83
   5  -4  -2  102.72    2.46
  -5  -4   2   90.50    2.65
  -5  -4   2   96.42    2.51
   5   4  -2  106.00    3.15
   5   4  -2   95.15    2.37
   5   4  -2   96.14    3.15
  -5  -4   2   98.71    2.54
  -5  -4   1   53.19    1.48
   5   4  -1   49.71    1.48
   5   4  -1   53.59    2.11
  -5  -4   0   18.72    0.85
   5   4   0   22.07    1.25
  -5  -4   0   19.94    0.81
   5  -4   0   19.16    0.73
   5   4   0   19.99    0.83
   5   4   0   18.11    1.21
  -5  -4   0   19.65    0.85
  -5  -4  -1    0.46    0.33
  -5  -4  -1    0.43    0.34
   5   4   1    0.34    0.47
  -5  -4  -1    1.05    0.36
   5  -4   1    0.75    0.25
   5   4   1    0.80    0.32
   5   4   2    4.37    0.75
  -5  -4  -2    3.35    0.42
  -5  -4  -2    3.44    0.45
   5   4   2    2.92    0.59
   5   4   2    3.39    0.40
  -5  -4  -2    3.13    0.47
   5   4   2    3.89    0.42
   5  -4   2    3.12    0.38
  -5  -4  -3   68.11    1.83
  -5  -4  -3   66.50    1.83
   5   4   3   64.66    2.31
   5   4   3   66.93    1.84
  -5  -4  -3   67.88    1.86
   5   4   3   66.41    1.83
   5  -4   3   63.40    1.80
   5   4   3   70.89    2.58
  -5  -4  -4   60.11    1.61
  -5  -4  -4   53.64    1.55
   5   4   4   56.94    1.63
   5   4   4   56.93    1.64
  -5  -4  -4   56.09    1.65
   5  -4   4   52.85    1.60
  -5  -4  -5   91.01    2.34
  -5  -4  -5   86.35    2.18
   5   4   5   91.48    2.33
   5   4   5   88.71    2.33
  -5  -4  -5   89.20    2.32
   5  -4   5   87.36    2.30
  -5  -4  -6    0.71    0.37
   5   4   6    0.40    0.35
   5   4   6    0.49    0.39
  -5  -4  -6    0.81    0.40
   5  -4   6    0.49    0.35
  -5  -4  -7   21.87    0.82
   5   4   7   20.96    0.85
   5   4   7   21.63    0.88
   5   4   7   20.05    0.84
   5  -4   7   20.44    0.84
  -5  -4  -8   -0.11    0.26
   5   4   8    0.10    0.30
   5   4   8    0.56    0.36
  -5  -4  -8    0.17    0.31
   5   4   8   -0.09    0.32
   5  -4   8    0.19    0.31
  -5  -4  -9    3.03    0.28
   5   4   9    2.29    0.34
   5   4   9    3.19    0.38
  -5  -4  -9    2.75    0.33
  -5   4 -10   25.48    0.70
   5   4  10   23.61    0.77
   5  -4  10   23.73    0.75
   5   5 -10   70.43    1.61
   5   5 -10   68.88    1.61
  -5  -5  10   69.85    1.62
   5   5  -9    3.25    0.28
   5   5  -9    3.03    0.26
   5   5  -9    2.73    0.28
   5   5  -9    3.20    0.26
  -5  -5   9    3.29    0.29
   5   5  -8    0.17    0.25
   5   5  -8    0.22    0.23
   5   5  -8   -0.22    0.20
   5   5  -8    0.24    0.26
   5   5  -8    0.18    0.20
   5   5  -8    0.14    0.24
  -5  -5   8    0.15    0.26
   5   5  -7    0.57    0.28
   5   5  -7    0.16    0.25
   5   5  -7   -0.07    0.24
   5   5  -7    0.13    0.26
  -5  -5   7    0.09    0.28
   5  -5  -6    0.97    0.25
   5   5  -6    0.98    0.30
   5   5  -6    1.14    0.26
   5   5  -6    0.78    0.29
  -5  -5   6    0.88    0.34
  -5  -5   5   22.70    0.78
   5   5  -5   23.24    0.85
   5   5  -5   22.41    0.80
   5   5  -5   21.75    0.76
  -5  -5   4   61.30    1.61
   5   5  -4   58.38    1.63
   5   5  -4   59.58    1.60
  -5  -5   4   60.91    1.69
   5   5  -3    0.13    0.25
  -5  -5   3    0.04    0.32
   5   5  -3    0.47    0.32
  -5  -5   3   -0.04    0.33
   5   5  -2  153.93    3.65
  -5  -5   2  162.99    3.74
  -5  -5   2  164.42    3.78
   5   5  -1   44.08    1.33
  -5  -5   1   47.47    1.41
  -5  -5   0    5.70    0.41
  -5  -5   0    5.54    0.49
   5   5   0    5.20    0.39
  -5  -5  -1   11.88    0.57
  -5  -5  -1   11.79    0.61
  -5  -5  -1   11.33    0.59
  -5  -5  -2   50.96    1.42
  -5  -5  -2   53.38    1.47
  -5  -5  -2   51.49    1.45
  -5  -5  -2   48.64    1.43
   5   5   2   47.69    1.41
  -5  -5  -3   41.55    1.25
  -5  -5  -3   46.03    1.27
  -5  -5  -3   43.96    1.26
  -5  -5  -3   41.96    1.28
   5   5   3   40.12    1.17
  -5  -5  -4  186.38    4.13
  -5  -5  -4  182.22    4.15
   5   5   4  178.40    4.07
  -5  -5  -5   15.72    0.57
  -5  -5  -5   15.69    0.68
   5   5   5   16.57    0.64
  -5  -5  -6    5.93    0.40
   5   5   6    4.79    0.34
  -5  -5  -6    5.01    0.40
   5   5   6    5.15    0.38
   5   5   7   14.02    0.54
   5   5   7   14.24    0.56
   5  -5   7   13.68    0.51
   5   5   8   12.15    0.46
   5   5   8   13.06    0.48
   5  -5   8   12.33    0.44
   5   6  -6   16.80    0.53
  -5  -6   5    2.18    0.21
   5   6  -5    1.96    0.20
   5   6  -5    2.47    0.23
  -5  -6   4    9.27    0.41
   5   6  -4    9.61    0.40
  -5  -6   3  192.20    4.15
   5   6  -3  187.96    4.15
  -5  -6   3  187.82    4.11
  -5  -6   2  141.72    3.05
   5   6  -2  129.94    2.99
  -5  -6   1   12.19    0.50
   5   6  -1   11.39    0.47
   5   6   0  117.29    2.73
  -5  -6   0  132.33    2.82
   5   6   1    8.76    0.40
  -5  -6  -1    9.12    0.42
   5   6   2    3.40    0.29
  -5  -6  -2    3.50    0.28
   5   6   3    0.41    0.22
  -5  -6  -3    0.63    0.18
  -5  -6  -4   -0.10    0.12
   5   6   4   -0.10    0.19
   6   0 -14   88.28    2.05
   6   0 -13    0.02    0.19
   6   0 -13    0.22    0.25
   6   0 -12   59.49    1.54
   6   0 -12   61.31    1.63
   6   0 -12   60.36    1.52
   6   0 -11    0.08    0.26
   6   0 -11   -0.19    0.29
   6   0 -11    0.19    0.26
   6   0 -10    1.61    0.33
   6   0 -10    1.36    0.28
   6   0 -10    2.15    0.35
   6   0 -10    1.73    0.34
   6   0  -9    0.06    0.27
   6   0  -9   -0.26    0.29
   6   0  -9    0.28    0.27
   6   0  -9   -0.08    0.29
   6   0  -9    0.41    0.31
  -6   0   9   -0.06    0.51
   6   0  -8   39.41    1.15
  -6   0   8   43.42    1.52
   6   0  -8   40.57    1.20
   6   0  -8   40.51    1.20
   6   0  -8   39.53    1.20
   6   0  -8   41.05    1.28
   6   0  -8   40.18    1.24
  -6   0   8   37.69    1.72
   6   0  -7    0.18    0.23
   6   0  -7    0.10    0.25
   6   0  -7    0.14    0.26
  -6   0   7   -0.22    0.42
   6   0  -7    0.06    0.23
   6   0  -7   -0.13    0.30
   6   0  -7    0.13    0.33
   6   0  -7    0.17    0.29
  -6   0   7    0.51    0.48
   6   0  -7    0.20    0.27
  -6   0   6   33.26    1.32
   6   0  -6   35.13    1.04
   6   0  -6   34.08    1.04
   6   0  -6   34.38    1.11
   6   0  -6   36.27    1.05
   6   0  -6   35.27    1.13
   6   0  -6   34.51    1.08
  -6   0   6   34.11    1.53
   6   0  -6   34.03    1.03
   6   0  -5   -0.05    0.23
   6   0  -5    0.06    0.23
   6   0  -5    0.07    0.26
   6   0  -5    0.31    0.29
   6   0  -5    0.20    0.26
   6   0  -5   -0.12    0.31
   6   0  -5   -0.05    0.27
  -6   0   5    0.05    0.43
   6   0  -5    0.07    0.21
   6   0  -4   10.66    0.52
   6   0  -4   10.83    0.54
   6   0  -4   10.50    0.53
  -6   0   4    9.03    0.79
   6   0  -4   10.11    0.56
  -6   0   4   10.39    0.80
   6   0  -3    0.23    0.29
   6   0  -3    0.26    0.46
   6   0  -3    0.04    0.23
   6   0  -3    0.21    0.25
   6   0  -3    0.20    0.26
  -6   0   3   -0.45    0.49
   6   0  -3   -0.13    0.29
  -6   0   3    0.55    0.40
   6   0  -2 2554.21   52.42
   6   0  -2 2509.92   52.31
  -6   0   2 2613.35   52.95
   6   0  -2 2548.04   52.38
   6   0  -2 2523.18   52.44
   6   0  -2 2483.45   52.95
   6   0  -1    0.23    0.27
   6   0  -1   -0.06    0.24
   6   0  -1   -0.11    0.28
  -6   0   1    0.08    0.42
   6   0   0  201.76    4.42
  -6   0   0  208.27    4.89
   6   0   0  199.64    4.44
   6   0   1   -0.14    0.25
   6   0   1   -0.15    0.35
   6   0   1    0.23    0.32
  -6   0  -1   -0.23    0.41
   6   0   1   -0.17    0.52
   6   0   1    0.11    0.29
  -6   0  -1   -0.06    0.50
   6   0   2   73.71    2.43
   6   0   2   73.21    1.85
   6   0   2   73.74    2.06
   6   0   2   75.96    1.99
   6   0   2   82.04    2.69
   6   0   2   74.05    1.91
  -6   0  -2   71.96    2.47
   6   0   3    0.35    0.24
   6   0   3    0.27    0.39
   6   0   3    0.09    0.33
   6   0   3    0.37    0.35
   6   0   3   -0.32    0.52
   6   0   3    0.31    0.29
  -6   0  -3   -0.21    0.44
   6   0   4  761.40   16.57
   6   0   4  791.31   16.46
   6   0   4  792.74   16.40
   6   0   4  778.36   17.36
   6   0   4  786.08   16.35
  -6   0  -4  736.76   17.03
   6   0   4  745.90   17.03
   6   0   5   -0.31    0.45
   6   0   5    0.23    0.41
   6   0   5    0.14    0.36
  -6   0  -5    0.40    0.32
   6   0   5    0.20    0.33
   6   0   5    0.27    0.55
   6   0   5    0.09    0.29
  -6   0  -5    0.52    0.49
  -6   0  -6   49.05    1.42
   6   0   6   44.46    1.55
   6   0   6   50.13    1.48
   6   0   6   50.30    1.43
   6   0   6   49.00    2.06
  -6   0  -6   45.51    1.32
   6   0   6   46.81    1.32
  -6   0  -6   45.28    1.82
   6   0   6   43.65    1.79
   6   0   7    0.33    0.45
   6   0   7    0.21    0.35
  -6   0  -7   -0.04    0.31
  -6   0  -7    0.15    0.29
   6   0   7    0.20    0.53
  -6   0  -7    0.10    0.42
   6   0   8    0.61    0.46
   6   0   8    0.45    0.34
  -6   0  -8    0.23    0.33
  -6   0  -8    0.06    0.29
   6   0   9   -0.03    0.39
  -6   0  -9    0.21    0.30
  -6   0  -9    0.12    0.28
  -6   0 -10   17.08    0.68
   6   0  10   15.36    0.74
  -6   0 -10   16.45    0.65
  -6   0 -11    0.40    0.26
  -6   0 -11   -0.07    0.23
  -6   0 -12  118.75    2.74
  -6   0 -12  132.98    2.81
   6  -1 -14    8.28    0.35
   6   1 -14    9.43    0.38
   6  -1 -13    0.59    0.24
   6   1 -13    0.61    0.24
   6  -1 -12    0.53    0.27
   6   1 -12    0.47    0.29
   6   1 -12    0.49    0.28
   6  -1 -12    0.43    0.24
   6  -1 -11    5.07    0.43
   6  -1 -11    6.08    0.48
   6   1 -11    6.42    0.48
   6  -1 -11    5.74    0.43
   6   1 -10   59.72    1.64
   6  -1 -10   58.47    1.66
   6   1 -10   60.05    1.68
   6   1 -10   59.79    1.61
   6  -1 -10   62.21    1.71
   6   1 -10   63.77    1.72
   6   1 -10   57.05    1.58
   6  -1 -10   63.38    1.69
   6   1  -9  602.68   12.68
  -6  -1   9  596.00   13.20
   6  -1  -9  591.55   12.70
   6   1  -9  612.87   12.73
   6   1  -9  594.04   12.65
   6   1  -9  584.85   12.61
   6  -1  -9  598.59   12.68
   6   1  -9  604.51   12.76
   6  -1  -9  579.15   12.61
  -6  -1   9  576.19   13.62
   6  -1  -9  607.56   12.74
   6   1  -9  600.96   12.71
   6   1  -8  397.82    8.64
  -6  -1   8  405.11    9.16
   6  -1  -8  393.81    8.66
   6   1  -8  410.08    8.70
   6   1  -8  401.04    8.61
   6  -1  -8  406.11    8.62
   6   1  -8  398.77    8.57
   6   1  -8  381.97    8.55
   6  -1  -8  403.98    8.67
   6   1  -8  410.05    8.74
   6  -1  -8  384.75    8.56
  -6  -1   8  393.22    9.58
   6  -1  -8  413.71    8.71
   6   1  -8  410.26    8.69
   6   1  -7   43.44    1.28
  -6  -1   7   46.30    1.68
   6  -1  -7   43.39    1.31
   6   1  -7   42.23    1.31
   6   1  -7   44.39    1.34
   6   1  -7   42.46    1.25
   6  -1  -7   45.29    1.28
   6   1  -7   42.87    1.21
   6  -1  -7   44.68    1.33
   6   1  -7   40.74    1.36
   6   1  -7   44.49    1.37
   6  -1  -7   43.74    1.21
  -6  -1   7   44.76    1.91
   6   1  -7   44.13    1.31
  -6   1   6  112.34    2.91
  -6  -1   6  111.03    3.07
   6  -1  -6  107.31    2.69
   6   1  -6  117.11    2.76
   6   1  -6  115.52    2.79
   6  -1  -6  113.92    2.70
   6   1  -6  109.24    2.60
   6  -1  -6  113.51    2.74
   6   1  -6  116.29    2.83
   6   1  -6  107.08    2.77
  -6  -1   6  110.25    3.43
   6   1  -6  108.79    2.70
  -6  -1   5   13.15    0.84
   6   1  -5   12.94    0.64
   6  -1  -5   12.71    0.60
   6   1  -5   13.73    0.63
   6   1  -5   13.21    0.68
   6   1  -5   13.06    0.55
   6  -1  -5   13.50    0.62
  -6   1   5   12.08    0.86
  -6  -1   5   13.47    0.92
   6  -1  -5   14.18    0.64
   6   1  -5   13.49    0.71
   6  -1  -5   13.70    0.58
  -6  -1   5   13.10    0.99
   6   1  -4   29.66    1.00
   6   1  -4   32.72    1.01
   6   1  -4   30.83    1.04
   6  -1  -4   31.22    0.99
   6   1  -4   31.30    0.95
  -6   1   4   31.55    1.36
  -6  -1   4   29.75    1.33
   6  -1  -4   30.68    1.00
   6   1  -4   28.94    1.07
   6  -1  -4   29.99    0.92
  -6  -1   4   30.29    1.43
   6   1  -4   33.17    1.35
   6   1  -3    0.36    0.29
   6  -1  -3    0.28    0.27
   6   1  -3    0.09    0.39
   6   1  -3    0.26    0.25
   6  -1  -3    0.13    0.42
   6   1  -3    0.08    0.29
   6   1  -3    0.07    0.25
   6  -1  -3    0.44    0.27
  -6   1   3    0.04    0.39
  -6  -1   3    0.57    0.43
   6   1  -3    0.36    0.38
  -6  -1   3   -0.10    0.47
   6  -1  -2   30.55    0.96
   6   1  -2   28.43    0.95
  -6   1   2   31.60    1.30
  -6  -1   2   30.15    1.31
   6   1  -2   30.99    0.99
   6  -1  -2   33.44    1.02
   6   1  -2   32.45    1.02
   6   1  -2   33.26    1.30
   6   1  -2   28.49    1.33
   6  -1  -2   27.47    1.29
   6   1  -1   24.98    0.90
   6  -1  -1   25.81    0.85
  -6   1   1   28.54    1.19
  -6  -1   1   24.73    1.16
   6  -1  -1   25.84    0.89
   6   1  -1   23.16    0.89
   6   1  -1   26.03    1.12
   6   1  -1   23.92    1.18
   6  -1  -1   25.29    1.19
   6   1   0   22.63    0.88
   6  -1   0   24.02    0.81
  -6   1   0   24.18    1.11
  -6  -1   0   23.98    1.13
   6   1   0   23.98    0.96
   6   1   0   24.06    0.89
   6   1   0   24.78    0.85
   6   1   0   22.80    1.40
   6   1   0   22.47    0.85
   6  -1   0   21.50    1.09
   6   1   0   21.07    1.11
   6   1   0   22.65    1.04
  -6   1   0   25.26    1.28
  -6  -1   0   22.13    1.39
   6   1   1   33.23    1.57
   6   1   1   30.63    1.06
  -6   1  -1   33.27    1.31
  -6  -1  -1   33.48    1.31
   6   1   1   32.45    1.17
   6  -1   1   34.39    1.08
   6   1   1   31.18    1.10
   6   1   1   31.76    1.04
   6   1   1   32.97    1.67
   6   1   1   33.22    1.27
  -6   1  -1   30.17    1.43
  -6  -1  -1   30.01    1.62
   6   1   2   10.85    0.57
   6   1   2   10.86    0.69
   6  -1   2   10.34    0.58
   6   1   2    9.62    0.61
   6   1   2   10.61    0.59
   6   1   2    8.68    1.00
   6  -1   2    9.50    0.82
   6   1   2   10.57    0.58
   6   1   2   10.09    0.67
  -6   1  -2    8.15    0.75
  -6  -1  -2    8.16    0.84
   6   1   2   10.45    0.98
   6   1   3   48.08    1.38
   6  -1   3   50.79    1.50
   6  -1   3   48.11    1.43
   6   1   3   47.68    1.42
   6   1   3   49.67    2.20
   6  -1   3   50.55    1.89
   6   1   3   50.32    1.42
  -6   1  -3   43.79    1.70
  -6  -1  -3   44.93    1.95
   6   1   3   48.89    2.00
   6   1   4  168.84    3.89
   6  -1   4  173.66    4.04
   6  -1   4  181.72    3.95
   6   1   4  186.44    5.01
   6  -1   4  174.42    4.63
  -6  -1  -4  160.31    3.83
   6   1   4  170.78    3.95
  -6   1  -4  163.98    4.35
  -6  -1  -4  167.94    4.64
   6   1   4  161.47    4.64
   6   1   5  617.96   13.45
  -6   1  -5  645.42   13.55
  -6  -1  -5  649.43   13.54
   6  -1   5  629.49   13.63
   6  -1   5  668.34   13.54
   6   1   5  648.49   13.66
   6   1   5  657.02   13.57
   6   1   5  635.88   14.69
   6  -1   5  631.59   14.32
  -6  -1  -5  621.28   13.46
   6   1   5  644.29   13.53
  -6   1  -5  596.69   13.94
  -6  -1  -5  612.21   14.30
   6   1   5  614.21   14.38
  -6   1  -6  137.81    3.33
  -6  -1  -6  136.65    3.33
   6  -1   6  136.50    3.42
   6  -1   6  142.13    3.30
   6   1   6  141.64    3.47
   6   1   6  146.10    3.39
   6   1   6  144.25    4.32
   6  -1   6  134.17    3.96
  -6  -1  -6  143.65    3.30
   6   1   6  141.64    3.33
  -6   1  -6  141.25    3.76
  -6  -1  -6  137.00    3.92
   6   1   6  135.19    4.07
   6   1   7    2.97    0.67
  -6   1  -7    4.16    0.43
  -6  -1  -7    3.94    0.41
   6   1   7    4.23    0.60
   6  -1   7    3.39    0.46
   6  -1   7    3.37    0.36
   6   1   7    4.15    0.51
   6   1   7    4.90    0.50
  -6  -1  -7    3.94    0.41
   6   1   7    4.08    0.79
   6   1   7    4.00    0.41
  -6  -1  -7    4.17    0.66
  -6   1  -8    9.47    0.55
  -6  -1  -8    9.60    0.54
   6   1   8    9.25    0.73
   6   1   8    9.60    0.66
   6   1   8    9.13    0.58
  -6  -1  -8    9.52    0.55
  -6   1  -9   12.22    0.60
  -6  -1  -9   12.27    0.58
   6   1   9   12.53    0.76
   6   1   9   11.94    0.66
   6   1   9   12.34    0.60
  -6   1  -9   12.17    0.53
  -6  -1  -9   12.93    0.61
  -6  -1 -10   32.14    0.94
  -6   1 -10   30.44    0.93
   6   1  10   28.86    1.08
  -6  -1 -10   27.96    0.93
  -6   1 -10   26.88    0.85
  -6  -1 -10   27.37    0.91
   6   1  11   57.67    1.60
  -6  -1 -11   57.37    1.46
  -6  -1 -11   59.97    1.47
  -6   1 -11   61.03    1.48
  -6  -1 -12    1.09    0.20
  -6   1 -12    0.62    0.19
   6  -2 -14    0.47    0.15
   6  -2 -13   10.87    0.45
   6   2 -13   10.36    0.43
   6   2 -13   10.68    0.44
   6  -2 -12    2.97    0.33
   6   2 -12    3.02    0.32
   6  -2 -12    2.93    0.33
   6   2 -11   70.85    1.85
   6  -2 -11   73.69    1.88
   6   2 -11   73.55    1.88
   6   2 -11   70.05    1.83
   6  -2 -11   72.48    1.86
   6  -2 -11   71.30    1.85
   6   2 -10    0.98    0.35
   6  -2 -10    0.94    0.35
   6   2 -10    0.29    0.33
   6   2 -10    0.73    0.32
   6  -2 -10    0.72    0.32
   6   2 -10    0.50    0.29
   6  -2 -10    0.75    0.34
   6   2 -10    0.95    0.35
   6   2  -9  135.69    3.31
   6  -2  -9  136.29    3.32
   6   2  -9  141.53    3.36
   6   2  -9  138.98    3.30
   6  -2  -9  135.59    3.29
   6   2  -9  140.91    3.27
   6   2  -9  137.32    3.34
   6  -2  -9  140.83    3.34
   6   2  -9  144.04    3.36
   6   2  -8  133.20    3.26
   6  -2  -8  131.19    3.25
   6   2  -8  135.25    3.31
  -6  -2   8  130.49    3.69
   6   2  -8  141.97    3.30
   6   2  -8  131.90    3.24
   6   2  -8  145.59    3.32
  -6   2   8  128.24    3.66
  -6  -2   8  133.80    3.70
   6  -2  -8  136.11    3.23
   6   2  -8  138.97    3.21
   6  -2  -8  135.94    3.27
   6   2  -8  141.70    3.34
   6   2  -8  125.57    3.30
  -6  -2   8  136.59    4.08
   6  -2  -8  138.02    3.30
   6   2  -8  138.50    3.30
  -6  -2   7  106.48    3.14
   6  -2  -7  104.84    2.70
   6   2  -7  117.53    2.80
  -6   2   7  104.42    3.11
  -6  -2   7  106.87    3.13
   6  -2  -7  111.18    2.70
   6  -2  -7  110.14    2.67
   6   2  -7  111.03    2.68
   6  -2  -7  108.50    2.73
   6   2  -7  111.43    2.82
   6   2  -7  110.99    2.82
  -6  -2   7  107.86    3.47
   6   2  -7  110.98    2.76
   6   2  -6    0.33    0.30
   6  -2  -6    0.21    0.34
  -6  -2   6    0.18    0.46
   6   2  -6    0.24    0.40
   6  -2  -6    0.67    0.34
   6  -2  -6    0.71    0.28
   6  -2  -6    0.63    0.35
   6   2  -6    0.26    0.42
  -6   2   6    0.31    0.41
  -6  -2   6    0.22    0.43
   6  -2  -6    0.89    0.36
  -6  -2   6    0.96    0.59
  -6  -2   6    0.43    0.27
   6   2  -5   19.50    0.80
   6  -2  -5   20.88    0.82
   6   2  -5   19.63    0.82
  -6   2   5   19.29    1.04
  -6  -2   5   18.14    1.03
   6  -2  -5   19.29    0.80
   6  -2  -5   20.66    0.71
   6   2  -5   19.32    0.89
  -6  -2   5   17.89    1.21
   6   2  -5   22.29    1.20
   6  -2  -5   19.55    0.79
  -6  -2   5   18.70    0.74
   6   2  -4    2.28    0.37
   6  -2  -4    2.58    0.37
   6   2  -4    2.00    0.39
   6  -2  -4    2.14    0.37
  -6   2   4    2.43    0.50
  -6  -2   4    1.92    0.47
   6  -2  -4    2.12    0.36
   6  -2  -4    2.32    0.33
   6   2  -4    2.49    0.53
  -6  -2   4    2.48    0.63
  -6  -2   4    1.96    0.30
   6   2  -3  413.92    8.75
   6  -2  -3  411.96    8.71
  -6   2   3  418.89    9.13
  -6  -2   3  394.61    9.09
   6   2  -3  400.33    8.62
   6  -2  -3  393.44    8.71
   6  -2  -3  410.44    8.71
   6   2  -3  402.07    8.69
   6   2  -3  410.80    9.40
  -6  -2   3  409.59    9.50
  -6  -2   3  382.41    8.63
   6   2  -2   47.59    1.73
   6  -2  -2   46.32    1.71
   6   2  -2   51.23    1.49
   6  -2  -2   51.57    1.43
  -6   2   2   49.26    1.69
  -6  -2   2   48.56    1.69
   6  -2  -2   50.15    1.42
   6   2  -2   48.22    1.44
   6   2  -2   53.67    1.95
  -6  -2   2   49.29    1.37
   6   2  -1   46.26    1.40
  -6   2   1   47.55    1.61
  -6  -2   1   43.40    1.57
   6  -2  -1   45.66    1.33
   6  -2  -1   44.99    1.34
   6   2  -1   47.06    1.38
  -6  -2   1   42.97    1.24
   6   2  -1   45.81    1.30
   6  -2  -1   47.11    1.31
   6   2  -1   45.63    1.35
   6   2  -1   44.32    1.76
  -6  -2   1   45.16    2.02
   6   2  -1   42.66    1.63
   6  -2  -1   42.04    1.60
  -6  -2   1   44.37    1.27
   6   2   0    2.45    0.50
   6  -2   0    2.01    0.34
   6  -2   0    2.42    0.48
   6   2   0    1.95    0.43
   6   2   0    2.02    0.49
   6   2   0    1.99    0.39
  -6   2   0    2.12    0.42
  -6  -2   0    0.92    0.40
   6  -2   0    2.69    0.37
   6   2   0    1.64    0.34
   6   2   0    1.55    0.39
  -6  -2   0    1.96    0.68
   6   2   0    2.40    0.51
  -6  -2  -1   17.38    0.70
   6   2   1   20.33    0.90
   6   2   1   19.08    1.01
   6  -2   1   19.05    0.75
   6   2   1   18.30    0.81
   6   2   1   17.77    0.77
   6   2   1   18.27    1.32
   6   2   1   17.11    0.77
   6   2   1   16.00    1.00
  -6  -2  -1   18.25    1.23
   6  -2   1   17.93    0.98
   6   2   1   15.43    0.93
   6   2   2    5.25    0.59
  -6  -2  -2    5.70    0.41
   6   2   2    6.54    0.61
   6   2   2    4.79    0.55
   6  -2   2    6.16    0.45
   6   2   2    6.31    0.55
   6   2   2    5.64    0.47
   6   2   2    5.40    0.51
   6  -2   2    5.58    0.61
   6   2   2    5.24    0.88
   6   2   2    5.54    0.67
  -6  -2  -2    4.42    0.72
  -6  -2  -3    0.22    0.25
   6   2   3    0.25    0.43
   6   2   3    0.04    0.32
   6   2   3    0.03    0.40
   6   2   3   -0.13    0.35
   6   2   3    0.32    0.64
  -6  -2  -3    0.06    0.56
  -6  -2  -4  206.46    4.59
  -6   2  -4  211.29    4.65
  -6  -2  -4  201.77    4.62
   6   2   4  209.04    4.93
   6  -2   4  206.65    4.61
   6   2   4  193.01    4.80
   6   2   4  204.12    4.73
   6   2   4  224.38    5.96
   6   2   4  210.51    4.74
  -6  -2  -4  204.21    5.41
   6   2   4  199.29    5.58
  -6   2  -5  485.95   10.41
  -6  -2  -5  492.06   10.41
   6   2   5  485.06   10.73
   6   2   5  488.60   10.60
   6  -2   5  480.32   10.35
   6   2   5  490.45   10.52
   6   2   5  513.67   11.81
   6   2   5  491.73   10.50
  -6  -2  -5  465.77   11.19
   6   2   5  471.91   11.46
  -6   2  -6   45.94    1.31
  -6  -2  -6   45.54    1.31
   6   2   6   48.14    1.60
   6   2   6   44.40    1.48
   6   2   6   46.87    2.18
   6   2   6   45.00    1.40
  -6  -2  -6   43.17    1.82
   6   2   6   42.15    1.99
  -6   2  -7   31.52    1.00
  -6  -2  -7   29.95    0.97
   6   2   7   32.00    1.26
   6   2   7   30.82    1.11
  -6  -2  -7   30.88    1.04
   6   2   7   31.66    1.07
   6   2   8   -0.30    0.48
  -6   2  -8    0.52    0.27
  -6  -2  -8    0.42    0.26
   6   2   8    1.17    0.42
  -6  -2  -8    0.89    0.38
   6   2   8    0.60    0.38
  -6  -2  -8    0.34    0.30
   6   2   8    0.49    0.32
  -6  -2  -9   15.32    0.59
  -6  -2  -9   13.71    0.56
  -6   2  -9   13.96    0.58
   6   2   9   15.25    0.81
   6   2   9   16.24    0.74
  -6  -2  -9   15.87    0.70
   6   2   9   15.31    0.67
   6   2  10   90.49    2.30
   6   2  10   86.61    2.18
  -6  -2 -10   87.94    2.12
  -6   2 -10   86.36    2.06
   6   2  11  137.99    3.02
  -6   2 -11  132.31    2.92
   6  -2  11  129.79    3.01
   6  -3 -13   27.80    0.72
   6  -3 -12    1.40    0.23
   6   3 -12    1.40    0.23
   6   3 -12    1.50    0.24
   6   3 -11    8.44    0.46
   6  -3 -11    9.35    0.47
   6   3 -11    8.92    0.45
   6   3 -11    8.53    0.43
   6   3 -11    8.97    0.48
  -6  -3  11    7.58    0.38
   6   3 -10    0.56    0.33
   6  -3 -10    0.74    0.30
   6   3 -10    0.78    0.32
   6   3 -10    0.96    0.28
   6   3 -10    1.20    0.34
  -6  -3  10    1.06    0.27
   6   3  -9   21.46    0.84
   6  -3  -9   21.97    0.83
   6   3  -9   21.02    0.81
   6   3  -9   21.00    0.82
   6   3  -9   21.09    0.79
   6   3  -9   20.78    0.81
   6   3  -9   22.09    0.87
  -6  -3   9   19.57    0.76
   6  -3  -8    1.29    0.38
   6   3  -8    1.56    0.38
   6   3  -8    1.51    0.37
   6   3  -8    1.88    0.38
   6   3  -8    1.69    0.40
   6   3  -8    1.35    0.43
   6  -3  -8    0.83    0.34
  -6  -3   8    2.36    0.36
   6  -3  -7    8.83    0.56
   6   3  -7    8.14    0.59
   6   3  -7    7.52    0.59
   6   3  -7    8.95    0.62
   6   3  -7    8.14    0.62
   6  -3  -7    7.26    0.54
   6   3  -7    7.66    0.58
  -6  -3   7    9.50    0.55
  -6  -3   6   19.72    1.11
   6   3  -6   20.07    0.77
   6  -3  -6   20.49    0.84
   6   3  -6   21.48    0.91
   6   3  -6   21.95    0.93
   6   3  -6   21.85    0.95
   6  -3  -6   18.00    0.82
  -6  -3   6   18.61    1.23
   6  -3  -6   20.38    0.83
  -6  -3   6   19.78    0.82
   6   3  -5    1.58    0.35
   6  -3  -5    2.22    0.38
  -6  -3   5    1.86    0.54
   6   3  -5    1.69    0.45
   6  -3  -5    2.11    0.39
   6  -3  -5    1.60    0.38
   6   3  -5    1.26    0.46
   6  -3  -5    2.09    0.37
   6   3  -5    2.21    0.61
  -6  -3   5    1.42    0.57
  -6  -3   5    1.69    0.35
  -6  -3   4  165.06    4.25
   6   3  -4  164.92    3.84
   6  -3  -4  164.40    3.85
   6  -3  -4  162.37    3.84
   6   3  -4  167.63    4.61
   6  -3  -4  163.72    3.81
  -6  -3   4  163.48    3.85
  -6  -3   3   91.02    2.68
   6   3  -3   99.61    2.43
   6  -3  -3   94.16    2.36
   6  -3  -3   94.05    2.38
   6  -3  -3   92.04    2.35
   6   3  -3   91.59    2.31
  -6  -3   3   89.67    3.12
   6   3  -3   92.95    3.04
   6  -3  -3   91.34    2.31
  -6  -3   3   90.03    2.37
  -6  -3   2 1371.16   29.65
   6   3  -2 1464.48   29.40
   6  -3  -2 1408.57   29.32
   6  -3  -2 1399.02   29.32
   6  -3  -2 1399.47   29.27
   6   3  -2 1407.56   29.30
  -6  -3   2 1392.27   30.37
   6   3  -2 1414.69   30.20
   6  -3  -2 1390.36   29.21
  -6  -3   2 1398.44   29.32
  -6  -3   1  101.25    2.84
   6   3  -1  108.64    2.67
   6  -3  -1  107.53    2.60
   6   3  -1  110.03    3.20
   6  -3  -1  104.24    2.58
  -6  -3   1   98.80    2.48
   6   3  -1  100.51    2.48
   6  -3  -1  101.17    2.51
   6   3  -1  105.18    2.59
  -6  -3   1  103.67    3.38
   6   3  -1  103.09    3.23
  -6  -3   1  104.41    2.59
  -6  -3   0    2.87    0.50
   6   3   0    4.68    0.66
   6   3   0    4.23    0.43
  -6  -3   0    3.96    0.42
   6  -3   0    3.59    0.40
   6   3   0    3.33    0.41
   6  -3   0    3.50    0.34
   6   3   0    3.64    0.46
  -6  -3   0    3.66    0.68
   6   3   0    4.41    0.69
   6   3   1    4.95    0.79
  -6  -3  -1    4.48    0.42
   6   3   1    4.28    0.65
   6   3   1    4.99    0.49
   6  -3   1    5.22    0.41
  -6  -3  -1    4.90    0.47
   6   3   1    4.36    0.46
   6   3   1    4.68    0.51
  -6  -3  -1    6.10    0.76
   6   3   1    4.58    0.71
   6   3   2    0.88    0.62
  -6  -3  -2    0.56    0.32
   6   3   2    0.93    0.43
   6   3   2    0.50    0.42
   6   3   2    0.52    0.38
  -6  -3  -2    0.83    0.39
   6  -3   2    0.75    0.27
   6   3   2    0.95    0.39
   6   3   2    0.14    0.36
   6   3   2    1.42    0.75
  -6  -3  -2    0.40    0.47
   6   3   2    0.51    0.44
   6   3   3    3.69    0.78
  -6  -3  -3    5.61    0.45
  -6  -3  -3    5.58    0.48
   6   3   3    5.48    0.58
   6   3   3    6.48    0.66
   6   3   3    5.13    0.54
  -6  -3  -3    4.63    0.51
   6  -3   3    5.54    0.38
   6   3   3    4.96    0.51
   6   3   3    4.39    0.88
  -6  -3  -3    5.09    0.69
   6   3   3    5.76    0.71
  -6  -3  -4   89.66    2.15
  -6  -3  -4   77.83    2.10
   6   3   4   89.52    2.37
   6   3   4   77.63    2.52
   6   3   4   86.99    2.29
  -6  -3  -4   83.02    2.23
   6   3   4   85.68    2.22
   6   3   4   86.09    3.11
  -6  -3  -4   78.67    2.66
   6   3   4   79.87    2.94
  -6  -3  -5   17.52    0.69
   6   3   5   19.77    0.95
   6   3   5   19.20    0.89
  -6  -3  -5   18.44    0.86
   6   3   5   19.28    0.84
   6   3   6   65.49    1.91
   6   3   6   61.54    1.83
  -6  -3  -6   62.21    1.78
   6   3   6   62.82    1.78
  -6  -3  -7    8.19    0.54
   6   3   7    8.77    0.64
   6   3   7    7.37    0.60
   6   3   7    7.77    0.56
   6   3   7    7.99    0.54
  -6  -3  -8    9.16    0.48
   6   3   8    8.65    0.62
   6   3   8    9.12    0.59
  -6  -3  -8    8.50    0.53
   6   3   8    9.09    0.52
  -6  -3  -9   22.84    0.73
   6   3   9   24.78    0.92
   6   3   9   24.39    0.88
  -6  -3  -9   25.67    0.83
   6   3   9   24.79    0.83
   6  -3   9   25.12    0.85
   6   3  10   14.15    0.62
   6   3  10   14.63    0.55
   6  -3  10   15.98    0.59
   6  -3  11   39.74    0.99
   6  -4 -11    0.05    0.16
   6   4 -11    0.01    0.17
   6   4 -11    0.02    0.16
   6   4 -11    0.15    0.15
   6  -4 -10   16.87    0.58
   6   4 -10   18.28    0.62
   6   4 -10   17.14    0.61
   6   4 -10   17.50    0.59
   6   4 -10   17.15    0.59
   6   4 -10   16.97    0.60
  -6  -4  10   16.29    0.57
   6  -4  -9   16.74    0.62
   6   4  -9   16.00    0.65
   6   4  -9   16.36    0.65
   6   4  -9   16.89    0.62
   6   4  -9   16.34    0.64
   6   4  -9   17.25    0.66
  -6  -4   9   16.22    0.62
   6  -4  -8   99.49    2.41
   6   4  -8  101.63    2.48
   6   4  -8   98.72    2.43
   6   4  -8  101.08    2.46
   6   4  -8  102.27    2.41
   6   4  -8  105.23    2.45
   6   4  -8  100.39    2.40
   6   4  -8  101.36    2.47
   6   4  -8  100.88    2.47
  -6  -4   8   98.14    2.43
   6  -4  -7    0.15    0.29
   6   4  -7    0.08    0.32
   6   4  -7    0.27    0.29
   6   4  -7    0.42    0.31
   6   4  -7    0.46    0.35
   6   4  -7    0.81    0.37
  -6  -4   7    0.19    0.31
   6  -4  -6    2.23    0.36
  -6  -4   6    2.65    0.33
   6   4  -6    1.82    0.38
   6   4  -6    2.15    0.40
   6   4  -6    2.28    0.41
  -6  -4   6    1.87    0.36
   6   4  -5   47.69    1.38
   6  -4  -5   52.21    1.47
  -6  -4   5   52.30    1.47
   6   4  -5   52.54    1.55
   6   4  -5   52.61    1.55
   6   4  -5   52.48    1.56
  -6  -4   5   54.26    1.53
   6   4  -4   39.06    1.19
   6  -4  -4   39.74    1.22
  -6  -4   4   37.85    1.23
   6   4  -4   41.15    1.33
   6   4  -4   39.75    1.32
  -6  -4   4   38.60    1.25
   6   4  -3    1.95    0.38
   6  -4  -3    2.69    0.39
  -6  -4   3    3.47    0.47
  -6  -4   3    2.92    0.41
   6   4  -2    0.74    0.36
  -6  -4   2    0.18    0.32
   6   4  -1   12.61    0.67
  -6  -4   1   11.96    0.68
   6  -4  -1   10.96    0.57
   6   4  -1   12.14    0.60
  -6  -4   1   12.03    0.64
  -6  -4   0   32.83    1.08
  -6  -4   0   29.11    1.08
  -6  -4   0   26.63    0.96
   6  -4   0   30.92    0.96
   6   4   0   29.04    1.03
  -6  -4  -1   23.44    0.91
  -6  -4  -1   24.55    0.95
  -6  -4  -1   25.10    0.90
   6   4   1   24.04    0.84
   6   4   1   23.93    0.94
  -6  -4  -2   19.78    0.81
  -6  -4  -2   19.90    0.83
   6   4   2   18.78    0.77
  -6  -4  -2   19.76    0.83
   6   4   2   21.28    0.79
   6   4   2   19.67    0.84
  -6  -4  -3   10.00    0.56
  -6  -4  -3    8.82    0.53
   6   4   3    9.77    0.56
  -6  -4  -3    9.88    0.61
   6   4   3    8.45    0.52
   6   4   3    8.86    0.60
   6  -4   3    8.66    0.51
  -6  -4  -4   46.92    1.34
   6   4   4   48.28    1.42
  -6  -4  -4   47.88    1.43
   6   4   4   48.11    1.40
   6   4   4   50.35    1.44
   6  -4   4   47.30    1.38
  -6  -4  -5   58.79    1.62
  -6  -4  -5   55.73    1.48
   6   4   5   61.80    1.64
   6   4   5   57.09    1.62
  -6  -4  -5   58.76    1.63
   6   4   5   60.33    1.61
   6   4   5   59.91    1.64
   6  -4   5   57.74    1.60
  -6  -4  -6   26.64    0.90
   6   4   6   26.07    0.91
   6   4   6   26.62    0.92
  -6  -4  -6   25.19    0.91
   6   4   6   26.95    0.91
   6  -4   6   25.81    0.89
  -6  -4  -7    0.20    0.26
   6   4   7   -0.18    0.27
   6   4   7    0.20    0.29
   6   4   7    0.03    0.29
   6  -4   7    0.33    0.29
  -6  -4  -8    0.04    0.21
   6   4   8   -0.13    0.21
   6   4   8   -0.11    0.26
  -6  -4  -8    0.15    0.26
   6   4   8    0.19    0.26
   6   4   8    0.04    0.25
   6  -4   8   -0.08    0.24
   6   4   9    7.03    0.36
  -6  -4  -9    6.94    0.34
   6   4   9    6.62    0.34
   6  -4   9    6.50    0.34
   6   5  -8   24.71    0.73
   6   5  -8   24.57    0.72
   6   5  -8   26.08    0.72
   6   5  -8   25.74    0.72
  -6  -5   8   24.72    0.71
   6   5  -7   41.57    1.13
   6   5  -7   40.00    1.12
   6   5  -7   42.59    1.10
   6   5  -7   43.96    1.12
   6   5  -7   40.59    1.10
   6   5  -7   42.55    1.13
  -6  -5   7   41.65    1.12
   6   5  -6   -0.01    0.26
   6   5  -6    0.35    0.26
   6   5  -6    0.07    0.21
   6   5  -6    0.01    0.18
   6   5  -6    0.03    0.24
   6   5  -6    0.20    0.26
  -6  -5   6   -0.04    0.23
   6   5  -5    0.02    0.27
   6   5  -5   -0.06    0.25
   6   5  -5   -0.25    0.24
   6   5  -5    0.10    0.27
  -6  -5   5    0.20    0.25
  -6  -5   4    8.96    0.46
   6   5  -4    8.46    0.50
   6   5  -4    8.82    0.50
   6   5  -4    9.18    0.48
  -6  -5   4    9.06    0.50
   6   5  -3   91.18    2.25
  -6  -5   3   97.45    2.38
  -6  -5   3   99.71    2.36
   6   5  -3   95.13    2.37
   6   5  -3   97.62    2.37
  -6  -5   3  102.17    2.39
   6   5  -2   34.07    1.03
  -6  -5   2   36.45    1.11
  -6  -5   2   34.23    1.09
   6   5  -2   35.58    1.11
   6   5  -1   12.73    0.59
  -6  -5   1   13.64    0.62
   6   5   0   34.50    1.05
  -6  -5   0   35.44    1.05
  -6  -5   0   32.34    1.04
  -6  -5  -1    2.46    0.30
   6   5   1    2.40    0.35
  -6  -5  -1    2.65    0.34
  -6  -5  -1    2.42    0.35
   6   5   1    2.36    0.31
  -6  -5  -2    1.47    0.28
   6   5   2    1.33    0.34
  -6  -5  -2    1.95    0.31
  -6  -5  -2    1.51    0.31
   6   5   2    1.64    0.31
  -6  -5  -3   21.70    0.73
  -6  -5  -3   21.82    0.72
   6   5   3   21.63    0.74
  -6  -5  -4   17.24    0.63
  -6  -5  -4   17.35    0.65
   6   5   4   16.00    0.56
   6   5   4   18.21    0.65
  -6  -5  -5    2.48    0.31
   6   5   5    2.77    0.26
   6   5   5    2.85    0.31
  -6  -5  -6    0.62    0.20
   6   5   6    0.94    0.23
   6   5   6    0.44    0.18
   6   5   6    0.10    0.21
  -6  -6   4   38.85    0.94
  -6  -6   3   40.46    1.00
  -6  -6   2    6.06    0.29
   6   6  -2    5.79    0.30
  -6  -6   2    5.09    0.27
   6   6  -1   47.82    1.19
  -6  -6   0   31.42    0.82
  -6  -6  -1   46.16    1.11
   7   0 -12   24.84    0.81
   7   0 -12   24.76    0.73
   7   0 -11    0.44    0.30
   7   0 -11    0.12    0.23
   7   0 -10   45.38    1.24
   7   0 -10   47.90    1.33
   7   0  -9    0.13    0.23
   7   0  -9   -0.07    0.25
   7   0  -9    0.17    0.27
   7   0  -9   -0.06    0.29
   7   0  -8   65.74    1.70
  -7   0   8   67.67    2.31
   7   0  -8   69.60    1.79
   7   0  -8   66.33    1.75
  -7   0   7    0.20    0.42
   7   0  -7   -0.02    0.24
   7   0  -7    0.10    0.31
   7   0  -7    0.49    0.34
  -7   0   7   -0.31    0.47
   7   0  -7   -0.27    0.30
  -7   0   7   -0.41    0.45
  -7   0   6    0.24    0.46
   7   0  -6    0.33    0.27
   7   0  -6    0.25    0.32
  -7   0   6    0.21    0.46
   7   0  -6    0.44    0.35
   7   0  -6    0.18    0.26
  -7   0   6    0.31    0.46
   7   0  -5    0.35    0.31
   7   0  -5    0.42    0.30
  -7   0   5   -0.05    0.48
   7   0  -5    0.21    0.33
   7   0  -5    0.04    0.26
  -7   0   5    0.30    0.40
  -7   0   4   12.64    0.93
   7   0  -4   13.16    0.62
   7   0  -4   12.50    0.62
   7   0  -4   13.48    0.65
   7   0  -4   11.93    0.56
   7   0  -3    0.47    0.32
   7   0  -3    0.05    0.27
   7   0  -3    0.30    0.32
  -7   0   3    0.19    0.43
   7   0  -3   -0.04    0.31
   7   0  -2   90.15    2.23
  -7   0   2   89.66    2.72
   7   0  -2   85.90    2.15
   7   0  -2   87.15    2.25
   7   0  -2   87.63    2.21
   7   0  -2   82.45    2.73
   7   0  -1    0.33    0.31
   7   0  -1    0.05    0.47
   7   0  -1   -0.02    0.32
  -7   0   1    0.28    0.47
   7   0  -1    0.51    0.30
  -7   0   1   -0.36    0.55
   7   0   0   79.93    2.03
  -7   0   0   79.38    2.50
   7   0   0   80.08    2.12
  -7   0   0   79.74    2.86
   7   0   0   74.96    2.54
   7   0   1   -0.10    0.43
   7   0   1    0.21    0.29
   7   0   1   -0.09    0.33
  -7   0  -1   -0.13    0.53
   7   0   2    6.67    0.44
   7   0   2    7.54    0.51
   7   0   2    5.70    0.85
  -7   0  -2    5.04    0.73
   7   0   3    0.51    0.25
   7   0   3    0.06    0.44
   7   0   3   -0.28    0.60
   7   0   3   -0.08    0.34
  -7   0  -3   -0.06    0.48
  -7   0  -4  184.06    4.27
   7   0   4  183.80    4.44
   7   0   4  191.80    4.33
   7   0   4  172.94    5.08
   7   0   4  184.86    4.19
  -7   0  -4  170.54    4.83
   7   0   5   -0.15    0.43
   7   0   5    0.78    0.41
  -7   0  -5    0.16    0.34
   7   0   5    0.07    0.54
  -7   0  -5    0.48    0.41
   7   0   6    0.40    0.43
   7   0   6    0.27    0.36
  -7   0  -6   -0.15    0.32
   7   0   6    0.80    0.33
   7   0   7    0.29    0.39
   7   0   7    0.02    0.32
  -7   0  -7   -0.06    0.32
   7   0   7   -0.06    0.28
  -7   0  -8   11.49    0.56
   7   0   8   10.42    0.62
  -7   0  -9   -0.11    0.25
  -7   0 -10    0.07    0.23
  -7   0 -11    0.07    0.17
   7   1 -13    2.70    0.25
   7  -1 -13    2.55    0.24
   7  -1 -12    4.97    0.30
   7   1 -12    4.97    0.36
   7  -1 -12    4.92    0.35
   7   1 -12    4.95    0.34
   7  -1 -11    1.49    0.26
   7  -1 -11    1.56    0.31
   7   1 -11    0.99    0.28
   7   1 -11    1.28    0.23
   7  -1 -11    1.50    0.29
   7  -1 -10    2.61    0.33
   7   1 -10    2.37    0.33
   7  -1 -10    3.02    0.35
   7   1 -10    3.38    0.38
   7   1 -10    2.85    0.32
   7  -1 -10    2.96    0.37
   7  -1  -9    3.08    0.36
   7   1  -9    3.20    0.38
   7  -1  -9    3.13    0.38
   7  -1  -9    2.72    0.37
   7   1  -9    2.78    0.37
   7  -1  -9    3.18    0.40
   7  -1  -8   19.19    0.76
   7   1  -8   21.13    0.80
   7  -1  -8   20.47    0.76
   7   1  -8   18.87    0.73
   7  -1  -8   21.18    0.83
   7   1  -8   19.58    0.85
   7   1  -8   20.70    0.84
   7  -1  -8   21.41    0.85
   7   1  -8   20.11    0.77
  -7  -1   7  431.98    9.67
   7  -1  -7  416.11    9.11
   7   1  -7  419.39    9.13
   7   1  -7  437.06    9.22
  -7   1   7  405.37    9.78
  -7  -1   7  414.17    9.79
   7  -1  -7  419.13    9.12
   7   1  -7  424.74    9.10
   7  -1  -7  431.83    9.18
   7   1  -7  433.78    9.24
   7   1  -7  419.24    9.19
  -7  -1   7  419.69    9.94
   7  -1  -7  431.62    9.21
   7   1  -7  417.73    9.11
   7   1  -6    2.12    0.30
   7  -1  -6    2.21    0.36
   7   1  -6    2.06    0.36
  -7  -1   6    2.53    0.59
   7   1  -6    3.12    0.39
   7   1  -6    2.77    0.43
   7  -1  -6    2.77    0.38
   7  -1  -6    2.27    0.41
  -7   1   6    1.57    0.53
  -7  -1   6    2.19    0.57
   7   1  -6    2.42    0.46
   7   1  -6    2.69    0.41
  -7  -1   6    2.00    0.61
   7   1  -6    2.74    0.36
  -7  -1   5    8.96    0.76
   7  -1  -5    9.33    0.53
   7   1  -5   10.63    0.62
   7   1  -5   10.09    0.57
  -7   1   5    9.21    0.84
  -7  -1   5    8.96    0.82
   7   1  -5   10.38    0.62
   7   1  -5    9.42    0.50
   7  -1  -5   10.16    0.57
   7  -1  -5    9.88    0.59
   7   1  -5   10.84    0.66
  -7  -1   5    9.74    0.89
   7   1  -5    9.57    0.52
   7  -1  -4   19.13    0.77
   7   1  -4   21.14    0.85
   7   1  -4   21.39    0.81
  -7   1   4   20.70    1.14
  -7  -1   4   19.98    1.14
   7   1  -4   21.63    0.87
   7   1  -4   21.07    0.79
   7  -1  -4   22.24    0.84
   7   1  -4   22.00    0.93
   7   1  -4   20.01    0.75
   7  -1  -3    4.53    0.41
   7   1  -3    4.16    0.39
   7   1  -3    5.68    0.47
   7   1  -3    5.09    0.43
   7  -1  -3    4.85    0.45
  -7   1   3    3.71    0.62
  -7  -1   3    4.67    0.65
   7   1  -3    3.84    0.48
   7  -1  -2   20.34    0.76
  -7   1   2   19.61    1.10
   7   1  -2   20.55    0.75
  -7  -1   2   19.16    1.07
   7   1  -2   20.00    0.80
   7   1  -2   20.80    0.82
   7  -1  -2   20.59    0.84
  -7   1   2   18.53    1.24
   7   1  -2   18.32    1.12
   7  -1  -2   20.20    1.16
   7   1  -1   17.94    0.77
  -7   1   1   19.32    1.07
  -7  -1   1   16.58    1.03
   7   1  -1   16.30    0.66
   7   1  -1   16.89    0.74
   7   1  -1   17.15    0.78
   7  -1  -1   17.80    0.78
   7   1  -1   17.95    0.79
  -7   1   1   16.54    1.16
  -7  -1   1   19.51    1.37
   7   1  -1   18.65    1.10
   7  -1  -1   16.96    1.08
   7   1   0  153.93    3.57
  -7   1   0  155.04    4.02
  -7  -1   0  148.54    3.99
  -7   1   0  144.26    4.20
  -7  -1   0  160.88    4.62
   7   1   0  148.79    4.10
   7  -1   0  144.94    4.08
   7   1   1    1.64    0.50
   7  -1   1    1.68    0.52
   7   1   1    1.63    0.37
   7  -1   1    1.80    0.39
  -7   1  -1    1.43    0.47
  -7  -1  -1    0.91    0.66
   7   1   2   20.06    0.79
   7  -1   2   20.94    0.85
   7   1   2   19.64    0.90
   7   1   2   19.52    1.38
   7   1   2   20.76    0.86
   7  -1   2   19.56    1.11
   7   1   2   17.08    1.07
  -7   1  -2   18.12    1.10
  -7  -1  -2   17.01    1.23
   7   1   3   22.71    1.35
   7   1   3   22.18    0.84
   7  -1   3   22.82    0.89
   7   1   3   21.74    0.91
   7   1   3   24.32    1.52
   7   1   3   23.72    0.93
  -7   1  -3   19.73    1.10
  -7  -1  -3   19.88    1.28
   7   1   4   12.82    1.10
   7   1   4   14.89    0.65
  -7   1  -4   15.57    0.72
  -7  -1  -4   15.90    0.73
   7  -1   4   15.24    0.73
   7   1   4   17.06    1.33
   7   1   4   15.76    0.73
  -7  -1  -4   14.00    1.07
  -7   1  -5   69.67    1.88
  -7  -1  -5   70.84    1.88
   7  -1   5   67.06    1.84
   7   1   5   66.95    1.95
   7   1   5   68.55    1.89
   7   1   5   68.78    2.72
   7   1   5   70.86    1.86
  -7  -1  -5   64.32    2.35
   7   1   5   69.23    2.51
  -7   1  -6    5.67    0.47
  -7  -1  -6    6.24    0.48
   7   1   6    5.88    0.65
   7  -1   6    6.06    0.44
   7   1   6    6.86    0.59
   7   1   6    7.83    0.57
   7   1   6    7.49    0.49
   7   1   7    1.71    0.49
   7   1   7    2.32    0.42
  -7   1  -7    1.41    0.33
  -7  -1  -7    1.21    0.33
  -7   1  -8    5.51    0.42
  -7  -1  -8    5.68    0.42
   7   1   8    5.13    0.55
   7   1   8    6.61    0.50
   7   1   9    1.03    0.37
  -7  -1  -9    0.78    0.25
  -7   1  -9    0.51    0.26
  -7  -1  -9    1.16    0.33
  -7  -1 -10    4.52    0.31
  -7   1 -10    4.88    0.32
   7   1  10    4.50    0.40
  -7  -1 -10    4.68    0.34
  -7  -1 -11   89.60    1.97
  -7   1 -11   85.72    1.96
   7  -2 -12    0.27    0.19
   7   2 -12    0.35    0.21
   7  -2 -11    0.01    0.23
   7   2 -11   -0.03    0.25
   7  -2 -10    0.80    0.28
   7   2 -10    0.57    0.29
   7   2 -10    0.98    0.32
   7  -2 -10    0.73    0.29
   7   2  -9   17.70    0.70
   7  -2  -9   17.49    0.72
   7   2  -9   19.16    0.76
   7   2  -9   19.11    0.78
   7   2  -9   18.04    0.77
   7  -2  -9   18.29    0.75
   7   2  -9   18.93    0.74
   7   2  -8  372.41    8.08
   7  -2  -8  361.81    8.09
   7   2  -8  377.88    8.14
   7  -2  -8  369.13    8.12
   7   2  -8  383.08    8.19
   7   2  -8  377.72    8.18
   7   2  -8  375.00    8.11
   7   2  -7   10.30    0.57
   7  -2  -7    8.94    0.57
   7   2  -7   10.46    0.62
   7   2  -7   10.69    0.63
   7   2  -7    9.25    0.53
   7  -2  -7   10.13    0.58
   7  -2  -7    9.77    0.61
   7   2  -7   10.03    0.65
   7  -2  -7   10.12    0.62
   7   2  -7   10.64    0.60
  -7  -2   6  352.41    8.05
   7  -2  -6  334.64    7.51
   7   2  -6  373.56    7.60
  -7   2   6  319.80    7.94
  -7  -2   6  328.89    7.99
   7  -2  -6  346.45    7.54
   7  -2  -6  337.65    7.56
   7   2  -6  344.25    7.63
  -7  -2   6  334.89    8.33
   7  -2  -6  348.50    7.57
   7   2  -6  347.30    7.54
   7   2  -5   16.88    0.76
   7  -2  -5   16.57    0.73
   7   2  -5   16.66    0.76
  -7   2   5   13.50    0.92
  -7  -2   5   14.00    0.93
   7   2  -5   16.72    0.83
   7  -2  -5   17.68    0.75
   7  -2  -5   16.75    0.74
   7   2  -4    0.43    0.38
   7  -2  -4    0.06    0.32
   7   2  -4    0.15    0.34
   7   2  -4    0.08    0.37
   7  -2  -4   -0.04    0.33
  -7   2   4   -0.13    0.39
  -7  -2   4   -0.04    0.40
   7  -2  -4    0.11    0.35
   7   2  -4   -0.17    0.44
   7  -2  -4    0.17    0.31
   7   2  -4    0.05    0.42
  -7  -2   3   16.07    1.00
   7   2  -3   21.32    0.86
   7  -2  -3   19.91    0.81
  -7   2   3   18.16    1.03
  -7  -2   3   18.33    1.06
   7   2  -3   20.69    0.83
   7   2  -3   20.96    0.90
   7   2  -3   19.61    0.74
   7  -2  -3   20.36    0.84
   7  -2  -3   19.85    0.83
   7   2  -3   20.94    1.17
   7  -2  -3   19.98    0.78
   7   2  -2  691.34   14.21
   7  -2  -2  671.99   14.13
  -7   2   2  660.75   14.57
  -7  -2   2  655.79   14.57
   7   2  -2  656.63   14.11
   7   2  -2  648.48   14.10
   7  -2  -2  676.16   14.14
   7   2  -2  684.34   14.16
  -7  -2   2  645.46   15.35
   7   2  -2  656.84   14.77
   7  -2  -2  653.89   14.06
   7  -2  -1   64.34    2.20
  -7   2   1   66.40    2.11
  -7  -2   1   68.24    2.15
   7  -2  -1   67.30    1.85
   7  -2  -1   65.76    1.79
   7   2  -1   70.62    1.87
  -7  -2   1   68.57    2.67
   7   2  -1   67.50    2.28
   7  -2  -1   63.90    1.71
   7   2  -1   65.05    2.20
   7   2   0   35.28    1.17
  -7  -2   0   31.48    1.01
   7  -2   0   32.70    1.12
  -7  -2   0   30.06    1.02
   7  -2   0   33.92    1.06
   7   2   0   32.25    1.14
  -7  -2   0   32.39    1.73
   7   2   0   32.07    1.45
   7   2   0   31.10    1.40
   7  -2   0   30.08    1.38
   7   2   1    4.59    0.49
   7   2   1    4.18    0.61
   7  -2   1    4.21    0.59
   7  -2   1    4.59    0.46
   7   2   1    4.89    0.54
   7   2   1    5.63    0.49
   7  -2   1    4.34    0.39
   7   2   1    4.28    0.48
  -7  -2  -1    3.85    0.74
   7   2   1    4.20    0.59
   7   2   2    1.36    0.45
   7  -2   2    1.34    0.44
   7   2   2    2.36    0.43
   7   2   2    2.87    0.53
   7   2   2    2.99    0.48
   7  -2   2    2.96    0.39
   7   2   2    3.08    0.44
   7  -2   2    1.67    0.29
   7   2   2    1.50    0.71
  -7  -2  -2    1.39    0.57
   7   2   2    2.40    0.48
   7   2   3    1.67    0.64
   7  -2   3    1.44    0.44
   7   2   3    0.92    0.41
   7   2   3    0.60    0.39
   7   2   3    2.00    0.53
   7   2   3    2.01    0.46
   7  -2   3    1.22    0.33
  -7   2  -3    1.67    0.33
  -7  -2  -3    1.58    0.34
   7   2   3    1.17    0.40
   7   2   3    0.67    0.68
   7   2   4    9.18    0.57
  -7   2  -4    8.79    0.51
  -7  -2  -4    9.26    0.53
   7   2   4    9.76    0.71
   7   2   4    9.17    0.64
   7  -2   4   10.03    0.54
   7   2   4    9.98    0.62
   7   2   4   10.45    1.11
   7   2   4    9.76    0.61
   7   2   4   10.01    1.01
   7   2   5  136.15    3.16
  -7   2  -5  132.40    3.14
  -7  -2  -5  135.86    3.15
   7   2   5  134.62    3.42
   7   2   5  132.93    3.31
   7   2   5  129.95    3.23
   7   2   5  135.32    3.22
  -7   2  -6  328.02    7.39
  -7  -2  -6  343.67    7.40
   7   2   6  354.31    7.71
  -7  -2  -6  342.83    7.52
   7   2   6  352.69    7.48
   7   2   7    2.13    0.49
  -7   2  -7    2.60    0.31
  -7  -2  -7    2.20    0.30
  -7  -2  -7    2.63    0.43
   7   2   7    2.44    0.41
   7   2   7    2.17    0.34
  -7  -2  -8   12.93    0.54
  -7   2  -8   13.03    0.53
   7   2   8   15.32    0.73
   7   2   8   14.35    0.67
   7   2   8   14.10    0.62
  -7   2  -9    8.70    0.39
   7   2   9    8.90    0.54
   7   2   9    8.79    0.49
  -7  -2  -9    9.63    0.48
   7   2  10   70.81    1.67
  -7  -2 -10   71.60    1.64
   7  -2  10   66.65    1.67
   7  -3 -11   24.44    0.71
   7   3 -11   24.14    0.72
   7   3 -10    0.23    0.23
   7  -3 -10    0.20    0.23
   7   3 -10    0.01    0.24
   7   3  -9    0.89    0.29
   7  -3  -9    0.19    0.26
   7   3  -9    0.18    0.30
   7   3  -9    0.21    0.28
   7   3  -9    0.42    0.28
   7   3  -8    2.37    0.35
   7  -3  -8    2.50    0.35
   7   3  -8    2.48    0.39
   7   3  -8    3.47    0.40
   7   3  -8    2.35    0.34
   7   3  -8    2.86    0.37
   7   3  -8    2.52    0.39
   7  -3  -8    2.24    0.35
   7   3  -8    2.59    0.38
   7  -3  -7    3.99    0.41
   7   3  -7    3.59    0.44
   7   3  -7    3.01    0.44
   7  -3  -7    3.02    0.38
   7   3  -7    3.78    0.43
  -7  -3   7    3.23    0.31
   7  -3  -6    0.62    0.34
   7   3  -6    1.61    0.32
   7   3  -6    0.30    0.37
   7   3  -6    0.60    0.40
   7  -3  -6    0.83    0.31
   7   3  -6    0.70    0.36
  -7  -3   6    0.95    0.27
   7  -3  -5   11.62    0.62
   7   3  -5   11.90    0.61
   7   3  -5   13.24    0.69
   7   3  -5   12.31    0.72
   7  -3  -5   12.22    0.64
   7   3  -5   11.47    0.73
   7  -3  -5   10.76    0.60
   7  -3  -5   10.33    0.57
  -7  -3   5   11.38    0.55
   7   3  -4   26.85    0.96
   7  -3  -4   26.84    0.95
   7   3  -4   26.50    0.98
   7   3  -4   25.26    1.06
   7  -3  -4   23.45    0.91
   7  -3  -4   23.87    0.87
  -7  -3   4   24.74    0.86
   7   3  -3   97.70    2.38
   7  -3  -3   92.51    2.33
   7   3  -3   93.01    2.37
   7  -3  -3   93.74    2.35
   7  -3  -3   89.86    2.30
   7  -3  -3   86.65    2.23
  -7  -3   3   87.85    2.25
   7   3  -2  105.62    2.62
   7  -3  -2  100.63    2.56
   7  -3  -2   97.00    2.50
   7   3  -2  108.07    2.57
  -7  -3   2   99.60    3.33
   7   3  -2  101.40    3.17
   7   3  -1  221.08    4.92
   7  -3  -1  212.65    4.83
   7  -3  -1  206.67    4.75
   7   3  -1  214.80    4.85
  -7  -3   1  201.76    5.61
   7   3  -1  215.96    5.56
   7   3   0   23.16    0.95
  -7  -3   0   24.45    0.88
   7  -3   0   24.15    0.87
   7   3   0   23.87    0.94
  -7  -3  -1   22.28    0.82
   7  -3   1   22.34    0.82
  -7  -3  -1   19.69    0.81
   7   3   1   22.05    0.84
   7   3   1   21.24    0.90
   7   3   2   17.37    0.83
  -7  -3  -2   19.17    0.73
   7   3   2   18.08    0.81
  -7  -3  -2   17.98    0.77
   7  -3   2   18.26    0.71
   7   3   2   19.30    0.78
   7   3   2   18.25    0.83
   7   3   3   13.92    0.71
  -7  -3  -3   13.76    0.60
  -7  -3  -3   13.84    0.66
   7   3   3   14.13    0.72
  -7  -3  -3   14.74    0.70
   7   3   3   14.79    0.70
   7   3   3   13.94    0.72
   7   3   4   22.48    0.86
   7   3   4   22.97    0.97
   7   3   4   20.27    0.87
  -7  -3  -4   21.20    0.86
   7   3   4   22.02    0.86
   7   3   5  195.57    4.34
   7   3   5  189.75    4.40
  -7  -3  -5  180.24    4.33
   7   3   5  186.48    4.34
   7   3   6    1.41    0.39
   7   3   6    1.17    0.38
  -7  -3  -6    1.03    0.37
   7   3   6    1.63    0.36
   7   3   6    1.98    0.36
  -7  -3  -7   55.12    1.47
   7   3   7   56.60    1.60
   7   3   7   56.48    1.55
  -7  -3  -7   56.19    1.51
   7   3   7   58.06    1.51
   7   3   7   57.98    1.50
  -7  -3  -8    1.40    0.23
   7   3   8    1.89    0.33
   7   3   8    1.87    0.32
   7  -3   8    1.96    0.31
  -7  -3  -9    2.84    0.26
   7  -4 -10    6.37    0.27
   7   4  -9   57.46    1.37
   7  -4  -9   53.31    1.34
   7   4  -9   56.68    1.38
   7   4  -8    0.71    0.25
   7   4  -8    0.91    0.24
   7   4  -8    0.43    0.23
   7   4  -8    0.83    0.26
  -7  -4   8    0.88    0.19
   7   4  -7   43.44    1.19
   7   4  -7   41.67    1.18
   7   4  -7   43.14    1.19
   7   4  -7   44.33    1.19
   7   4  -7   43.91    1.23
   7   4  -7   41.71    1.20
  -7  -4   7   40.64    1.11
   7   4  -6    2.42    0.36
   7   4  -6    2.07    0.35
   7   4  -6    2.53    0.36
   7   4  -6    2.90    0.40
   7   4  -6    2.26    0.36
  -7  -4   6    2.27    0.29
   7   4  -5   77.09    1.92
  -7  -4   5   76.91    1.99
   7   4  -5   85.02    2.08
   7   4  -5   83.48    2.09
  -7  -4   5   78.98    1.96
   7   4  -4    0.58    0.28
  -7  -4   4    0.80    0.33
   7   4  -4    0.86    0.37
   7   4  -4    0.59    0.38
  -7  -4   4    0.55    0.27
   7   4  -3   27.52    0.93
  -7  -4   3   28.21    0.99
   7   4  -3   29.75    1.01
   7   4  -3   27.48    1.03
   7   4  -3   29.92    1.08
   7   4  -2   24.15    0.87
  -7  -4   2   22.23    0.86
   7   4  -1  185.63    4.08
  -7  -4   1  180.21    4.05
  -7  -4   1  170.55    4.06
   7   4  -1  169.43    3.96
   7   4   0    9.02    0.57
  -7  -4   0    7.97    0.50
  -7  -4   0    8.28    0.56
   7   4   0    9.29    0.52
   7   4   1   55.47    1.55
  -7  -4  -1   56.27    1.48
  -7  -4  -1   51.83    1.51
  -7  -4  -1   50.39    1.42
   7   4   1   54.91    1.50
   7   4   2    0.48    0.34
  -7  -4  -2    0.78    0.27
  -7  -4  -2    0.60    0.31
  -7  -4  -2    0.81    0.30
   7   4   2    0.38    0.32
  -7  -4  -3   26.78    0.90
  -7  -4  -3   25.32    0.84
  -7  -4  -3   24.34    0.86
   7   4   3   24.66    0.82
   7   4   3   26.74    0.90
   7   4   4    1.45    0.32
  -7  -4  -4    1.39    0.25
   7   4   4    1.49    0.30
  -7  -4  -4    1.33    0.33
   7   4   4    1.23    0.31
   7   4   4    1.71    0.35
  -7  -4  -5  138.46    3.25
   7   4   5  149.84    3.27
   7   4   5  141.42    3.24
  -7  -4  -5  135.11    3.24
   7   4   5  143.80    3.23
   7   4   5  149.17    3.28
  -7  -4  -6    2.60    0.28
   7   4   6    2.98    0.31
  -7  -4  -6    2.36    0.31
   7   4   6    2.73    0.30
  -7  -4  -7   14.78    0.49
   7   4   7   16.10    0.53
  -7  -5   7    0.65    0.15
   7   5  -6   11.80    0.44
   7   5  -6   11.44    0.45
  -7  -5   6   12.16    0.44
   7   5  -6   11.89    0.43
   7   5  -6   11.27    0.43
   7   5  -6   11.40    0.43
   7   5  -5   28.72    0.84
  -7  -5   5   30.80    0.84
   7   5  -5   29.87    0.83
   7   5  -5   27.94    0.80
   7   5  -5   27.46    0.77
   7   5  -5   29.31    0.84
  -7  -5   4    9.05    0.42
  -7  -5   4    8.70    0.39
   7   5  -4    8.58    0.42
   7   5  -4    8.87    0.42
   7   5  -4    8.11    0.39
   7   5  -4    8.44    0.44
  -7  -5   3    5.40    0.34
  -7  -5   3    4.83    0.33
   7   5  -3    5.36    0.37
   7   5  -3    5.04    0.35
   7   5  -2  147.88    3.36
  -7  -5   2  154.66    3.43
   7   5  -2  158.93    3.47
   7   5  -2  153.23    3.46
   7   5  -1    0.06    0.22
  -7  -5   1    0.43    0.23
  -7  -5   1    0.34    0.25
   7   5  -1    0.20    0.25
   7   5  -1    0.10    0.27
   7   5  -1    0.28    0.27
   7   5   0   -0.16    0.23
  -7  -5   0    0.05    0.21
  -7  -5   0    0.09    0.23
   7   5   1    2.54    0.29
  -7  -5  -1    2.07    0.27
   7   5   1    1.73    0.22
   7   5   2    4.02    0.32
  -7  -5  -2    4.18    0.29
   7   5   2    3.41    0.27
  -7  -5  -3    1.59    0.21
   7   5   3    1.15    0.23
   7   5   3    1.28    0.21
  -7  -5  -4    5.14    0.27
   8   0 -12   54.98    1.32
   8   0 -11    0.18    0.21
   8   0 -11   -0.01    0.18
   8   0 -10   39.67    1.11
   8   0 -10   40.04    1.12
   8   0  -9    0.28    0.24
   8   0  -9   -0.02    0.28
   8   0  -8  200.83    4.50
   8   0  -7    0.18    0.24
   8   0  -7    0.11    0.28
   8   0  -6   55.62    1.51
   8   0  -6   56.88    1.60
   8   0  -6   56.65    1.54
   8   0  -5    0.17    0.29
   8   0  -5    0.30    0.30
   8   0  -4    0.02    0.33
  -8   0   4    0.15    0.44
   8   0  -4    0.09    0.29
   8   0  -3    0.20    0.34
  -8   0   3    0.05    0.44
   8   0  -3    0.13    0.28
  -8   0   3   -0.54    0.64
   8   0  -2   19.33    1.14
  -8   0   2   16.23    1.05
   8   0  -2   18.49    0.80
  -8   0   2   17.36    1.34
   8   0  -1    0.23    0.47
   8   0  -1   -0.09    0.34
  -8   0   1    1.13    0.46
  -8   0   1   -0.73    0.58
  -8   0   0  641.21   15.28
   8   0   0  645.50   15.08
   8   0   1   -0.33    0.52
   8   0   1   -0.14    0.36
  -8   0  -1   -0.19    0.52
   8   0   2    0.16    0.46
  -8   0  -2    0.18    0.47
   8   0   3   -0.14    0.35
  -8   0  -3    0.25    0.32
   8   0   4    0.21    0.31
  -8   0  -4    0.55    0.34
  -8   0  -5    0.18    0.31
   8   0   5    0.59    0.32
  -8   0  -6  500.38   10.41
   8   0   6  474.21   10.38
  -8   0  -7   -0.17    0.27
  -8   0  -8   20.69    0.69
  -8   0  -9    0.17    0.19
   8   1 -12   16.91    0.53
   8   1 -11    3.37    0.28
   8  -1 -11    3.37    0.28
   8  -1 -10   12.95    0.47
   8   1 -10   12.94    0.51
   8  -1 -10   14.09    0.56
   8  -1  -9    5.62    0.34
   8  -1  -9    5.59    0.39
   8   1  -9    5.72    0.39
   8  -1  -9    5.62    0.43
   8  -1  -8   12.36    0.53
   8   1  -8   12.85    0.53
   8  -1  -8   13.49    0.62
   8  -1  -8   13.58    0.63
   8  -1  -7  223.49    5.07
   8  -1  -7  235.23    5.13
   8   1  -7  229.81    5.12
   8  -1  -7  232.44    5.18
   8   1  -7  237.30    5.21
   8  -1  -6   63.72    1.70
   8  -1  -6   65.60    1.77
   8  -1  -6   69.07    1.83
   8   1  -6   70.05    1.85
   8   1  -6   66.57    1.77
   8  -1  -5   13.20    0.59
   8   1  -5   14.04    0.67
   8   1  -5   14.09    0.59
   8  -1  -5   14.30    0.66
   8  -1  -5   14.27    0.71
   8   1  -5   13.48    0.71
   8   1  -5   14.13    0.65
  -8  -1   4   39.06    1.57
   8  -1  -4   41.25    1.20
  -8   1   4   37.13    1.60
  -8  -1   4   41.23    1.68
   8   1  -4   42.07    1.21
   8   1  -4   43.42    1.29
   8   1  -4   43.14    1.25
   8  -1  -4   43.48    1.31
   8   1  -4   43.37    1.35
   8   1  -4   41.11    1.26
   8   1  -3    5.00    0.45
   8   1  -3    5.10    0.44
   8  -1  -3    6.15    0.49
  -8   1   3    3.99    0.63
  -8  -1   3    4.03    0.61
   8   1  -3    5.71    0.53
  -8  -1   3    2.53    0.80
   8   1  -2   83.45    2.19
  -8   1   2   80.00    2.57
  -8  -1   2   79.35    2.58
   8   1  -2   82.31    2.12
   8   1  -2   86.77    2.18
   8  -1  -2   86.13    2.21
   8   1  -2   82.79    2.21
  -8  -1   2   80.45    3.07
  -8   1   1  249.54    6.16
  -8  -1   1  238.53    6.14
   8   1  -1  267.02    5.70
   8   1  -1  250.52    5.61
   8   1  -1  258.25    5.72
   8  -1  -1  263.32    5.73
   8   1  -1  250.90    5.71
  -8  -1   1  251.18    6.76
   8   1  -1  241.06    6.30
   8  -1  -1  240.35    6.29
   8   1   0   79.82    2.07
   8   1   0   81.47    2.14
  -8  -1   0   73.13    2.79
   8   1   0   78.37    2.62
   8  -1   0   77.83    2.60
   8   1   1   35.94    1.14
   8   1   1   35.60    1.21
   8  -1   1   36.17    1.21
  -8  -1  -1   33.92    1.72
   8   1   1   35.97    1.59
   8  -1   1   32.03    1.52
   8   1   2   14.28    0.64
   8   1   2   13.97    0.73
   8  -1   2   12.23    0.68
   8   1   2   14.37    0.70
   8   1   3    0.88    0.29
   8   1   3    0.18    0.35
   8  -1   3    0.92    0.36
  -8   1  -3    0.57    0.33
  -8  -1  -3    0.74    0.33
   8   1   3    0.71    0.36
  -8   1  -4   15.05    0.67
  -8  -1  -4   15.83    0.69
   8  -1   4   14.80    0.67
   8   1   4   14.74    0.67
  -8   1  -5    4.86    0.42
  -8  -1  -5    4.62    0.41
   8   1   5    3.50    0.45
   8  -1   5    4.81    0.39
  -8   1  -6    1.35    0.30
  -8  -1  -6    1.96    0.31
   8   1   6    0.93    0.30
  -8   1  -7    4.52    0.36
  -8  -1  -7    4.55    0.35
   8   1   7    4.24    0.37
  -8   1  -8   11.70    0.47
  -8  -1  -8   11.71    0.47
  -8  -1  -9    3.65    0.24
  -8   1  -9    3.35    0.24
  -8  -1  -9    3.17    0.28
   8  -2 -11    5.37    0.25
   8  -2 -10   11.80    0.45
   8   2 -10   12.04    0.48
   8  -2 -10   12.91    0.51
   8  -2  -9    4.47    0.32
   8   2  -9    4.80    0.36
   8   2  -9    4.36    0.31
   8  -2  -8   11.21    0.51
   8   2  -8   10.90    0.55
   8  -2  -7  286.65    6.23
   8  -2  -7  286.35    6.29
   8   2  -7  277.66    6.32
   8   2  -7  288.57    6.30
   8  -2  -7  291.37    6.30
   8  -2  -6   38.49    1.17
   8   2  -6   41.07    1.22
   8   2  -6   42.68    1.27
   8  -2  -6   40.24    1.22
   8   2  -6   41.97    1.31
   8   2  -6   40.36    1.25
   8  -2  -6   39.53    1.22
   8  -2  -5   71.56    1.88
   8   2  -5   73.78    1.90
   8   2  -5   74.15    1.96
   8  -2  -5   74.24    1.93
   8   2  -5   76.48    2.03
   8   2  -5   71.71    1.97
   8  -2  -5   69.92    1.90
   8  -2  -4    0.20    0.30
   8   2  -4    0.32    0.36
   8   2  -4    0.19    0.30
   8   2  -4    0.15    0.35
   8  -2  -4    0.27    0.34
   8  -2  -4    0.52    0.35
   8   2  -4   -0.03    0.41
   8  -2  -4   -0.06    0.28
   8   2  -3    8.71    0.58
   8   2  -3    8.88    0.52
   8   2  -3    8.82    0.58
   8   2  -3    7.86    0.46
   8  -2  -3    8.85    0.55
   8   2  -3    7.81    0.62
   8  -2  -3    9.41    0.56
   8  -2  -3    8.62    0.49
   8   2  -2    2.55    0.34
   8   2  -2    2.53    0.42
   8   2  -2    2.51    0.35
   8  -2  -2    2.62    0.37
   8   2  -2    2.32    0.48
   8   2  -1  480.52   10.16
   8   2  -1  457.57   10.13
   8  -2  -1  483.27   10.17
   8  -2  -1  465.66   10.11
   8   2   0   29.93    1.07
   8   2   0   29.28    1.02
   8   2   0   29.91    1.03
   8  -2   0   30.27    1.04
   8  -2   0   29.71    0.98
   8   2   0   31.47    1.09
   8   2   1   28.53    1.00
   8   2   1   25.75    0.98
   8  -2   1   30.50    1.00
  -8  -2  -1   26.06    0.91
   8   2   1   29.96    1.04
   8   2   2   11.21    0.61
  -8   2  -2   12.01    0.58
  -8  -2  -2   11.57    0.58
   8  -2   2   11.45    0.61
  -8  -2  -2   12.41    0.61
   8   2   3   10.57    0.57
  -8   2  -3   11.14    0.55
  -8  -2  -3   11.31    0.54
   8  -2   3   12.40    0.57
  -8  -2  -3   10.92    0.60
   8   2   3   11.42    0.61
  -8   2  -4    0.36    0.26
  -8  -2  -4    0.26    0.24
  -8  -2  -4    0.74    0.34
   8   2   4    0.07    0.32
  -8   2  -5    2.36    0.29
  -8  -2  -5    2.13    0.29
  -8  -2  -5    2.62    0.39
   8   2   5    2.70    0.35
  -8   2  -6   82.35    1.97
  -8  -2  -6   81.82    2.07
   8   2   6   86.09    2.02
  -8   2  -7  113.17    2.44
   8   2   7  107.38    2.53
  -8  -2  -7  111.97    2.54
   8   2   8    1.52    0.23
  -8   2  -8    1.87    0.17
   8  -2   9    0.68    0.16
   8  -3 -10    5.57    0.26
   8  -3  -9    1.36    0.21
   8   3  -9    1.42    0.23
   8  -3  -8   24.84    0.75
   8   3  -8   23.58    0.76
   8   3  -8   23.93    0.78
   8   3  -8   24.48    0.79
   8  -3  -7   99.64    2.33
   8   3  -7   98.97    2.36
   8   3  -7  102.35    2.39
   8   3  -7  101.03    2.40
   8   3  -7   99.80    2.40
   8  -3  -7   95.08    2.33
   8  -3  -6   35.62    1.04
   8   3  -6   35.72    1.07
   8   3  -6   36.47    1.08
   8   3  -6   37.38    1.14
   8   3  -6   34.48    1.11
   8  -3  -6   34.10    1.02
   8  -3  -5    4.20    0.38
   8   3  -5    4.92    0.42
   8   3  -5    4.76    0.49
   8   3  -5    3.29    0.44
   8   3  -4    0.69    0.32
   8   3  -4    0.70    0.30
   8   3  -4    0.77    0.36
   8  -3  -4    0.31    0.28
   8   3  -3    2.88    0.40
  -8  -3   3    2.70    0.32
   8   3  -3    3.50    0.38
   8   3  -3    3.31    0.45
   8  -3  -3    2.82    0.38
   8  -3  -3    2.81    0.34
   8   3  -2   75.84    1.91
  -8  -3   2   68.45    1.79
   8   3  -2   70.15    1.83
   8   3  -2   74.82    1.94
   8  -3  -2   69.88    1.86
   8   3  -1   36.35    1.13
  -8  -3   1   34.05    1.01
   8   3  -1   33.81    1.13
   8   3  -1   33.10    1.00
   8  -3  -1   34.28    1.07
  -8  -3   0  219.95    4.95
   8   3   0  219.30    4.99
   8  -3   0  228.21    5.03
   8   3   1    8.82    0.55
  -8  -3  -1    8.59    0.42
  -8  -3  -1    8.29    0.53
   8   3   1    8.33    0.48
  -8  -3  -1    7.69    0.45
   8  -3   1    9.08    0.47
   8   3   1    9.90    0.56
   8   3   2    0.16    0.30
  -8  -3  -2   -0.07    0.27
  -8  -3  -2    0.12    0.28
   8   3   2    0.22    0.34
   8   3   3   -0.21    0.28
  -8  -3  -3   -0.03    0.24
  -8  -3  -3    0.06    0.29
   8   3   3    0.09    0.31
   8   3   4    2.12    0.30
  -8  -3  -4    1.38    0.31
  -8  -3  -5    9.74    0.50
   8   3   5   11.91    0.52
  -8  -3  -6  213.79    4.74
  -8  -3  -6  208.62    4.74
  -8  -3  -7    8.02    0.33
   8   3   7    7.10    0.35
  -8  -3  -7    8.12    0.37
   8  -3   7    7.29    0.35
   8   4  -7   67.10    1.54
   8   4  -7   66.55    1.53
   8   4  -7   67.34    1.53
   8   4  -6   20.97    0.68
  -8  -4   6   20.30    0.64
   8   4  -6   22.05    0.68
   8   4  -6   22.74    0.69
   8   4  -6   21.57    0.68
   8   4  -6   21.29    0.66
   8   4  -5    6.65    0.39
  -8  -4   5    6.61    0.36
  -8  -4   5    7.00    0.37
   8   4  -5    6.99    0.39
   8   4  -5    6.69    0.40
   8   4  -5    7.14    0.42
   8   4  -5    7.22    0.38
  -8  -4   4    0.41    0.22
  -8  -4   4    0.79    0.26
   8   4  -4    0.54    0.26
   8   4  -4    0.70    0.28
   8   4  -4    0.64    0.29
   8   4  -4    0.33    0.23
   8   4  -3    9.44    0.45
  -8  -4   3    9.48    0.44
  -8  -4   3    9.53    0.48
   8   4  -3   10.13    0.48
   8   4  -3    9.48    0.53
   8   4  -2   13.08    0.56
  -8  -4   2   13.54    0.53
   8   4  -2   14.60    0.56
   8   4  -1   83.32    1.97
  -8  -4   1   77.38    1.90
  -8  -4   1   78.21    1.98
   8   4  -1   83.99    2.01
   8   4  -1   79.31    2.04
   8   4   0   42.35    1.18
  -8  -4   0   40.60    1.10
  -8  -4   0   41.06    1.18
   8   4   0   44.99    1.21
  -8  -4  -1    0.39    0.24
   8   4   1    0.60    0.28
  -8  -4  -1    0.48    0.25
   8   4   1    1.04    0.27
  -8  -4  -2   19.74    0.68
  -8  -4  -2   18.46    0.64
  -8  -4  -3    3.07    0.29
   8   4   3    3.14    0.29
  -8  -4  -3    3.03    0.23
   8   4   3    2.45    0.23
  -8  -4  -3    2.19    0.24
   8   4   3    3.36    0.29
   8   4   4   15.81    0.51
  -8  -4  -4   15.28    0.49
  -8  -4  -5    7.14    0.31
   8   4   5    7.15    0.32
  -8  -5   1   28.04    0.73
   9   0 -10    4.85    0.27
   9   0  -9    0.21    0.21
   9   0  -8   34.63    0.98
   9   0  -8   35.98    1.03
   9   0  -7    0.15    0.26
   9   0  -7    0.34    0.28
   9   0  -6  153.76    3.54
   9   0  -6  164.94    3.64
   9   0  -5   -0.06    0.25
   9   0  -5   -0.02    0.30
   9   0  -4    0.66    0.29
   9   0  -4    0.54    0.31
   9   0  -3    0.26    0.30
   9   0  -2    5.50    0.46
   9   0  -1    0.44    0.33
   9   0   0    7.24    0.53
   9   0   1   -0.10    0.33
  -9   0  -2   42.16    1.28
  -9   0  -3   -0.09    0.30
   9   0   3    0.02    0.28
  -9   0  -4   13.12    0.59
   9   0   4   12.39    0.57
  -9   0  -5    0.07    0.23
   9   0   5    0.07    0.23
  -9   0  -6   52.79    1.34
  -9   0  -7    0.05    0.17
   9  -1 -10    0.17    0.16
   9   1  -9    0.32    0.19
   9  -1  -9    0.11    0.20
   9   1  -8    2.83    0.23
   9  -1  -8    2.73    0.29
   9   1  -8    3.50    0.31
   9   1  -7    9.27    0.43
   9  -1  -7    8.48    0.46
   9  -1  -7    7.95    0.46
   9  -1  -6   18.78    0.68
   9   1  -6   17.98    0.68
   9  -1  -6   18.26    0.72
   9  -1  -6   19.35    0.72
   9  -1  -5   10.36    0.52
   9   1  -5   10.54    0.55
   9  -1  -5    9.82    0.54
   9  -1  -5   10.93    0.55
   9   1  -4    1.96    0.28
   9  -1  -4    2.01    0.34
   9  -1  -4    1.84    0.32
   9   1  -3   19.94    0.74
   9  -1  -3   20.64    0.79
   9  -1  -3   21.51    0.81
   9   1  -2    4.81    0.41
   9  -1  -2    5.11    0.46
   9  -1  -2    5.35    0.46
   9   1  -1   58.20    1.57
   9  -1  -1   57.81    1.60
   9  -1  -1   56.19    1.57
   9   1   0    0.04    0.30
   9  -1   0    4.67    0.39
  -9  -1  -1    0.76    0.27
   9   1   1    0.94    0.32
   9  -1   1    1.49    0.36
   9  -1   1    1.05    0.28
  -9   1  -2    9.41    0.52
  -9  -1  -2    9.60    0.52
   9   1   2    7.66    0.53
   9  -1   2    8.84    0.52
  -9   1  -3    3.24    0.35
  -9  -1  -3    3.64    0.36
   9  -1   3    2.92    0.35
   9   1   3    2.21    0.36
  -9   1  -4    0.73    0.26
  -9  -1  -4    0.73    0.25
  -9  -1  -4    1.25    0.31
   9  -1   4    0.28    0.24
  -9   1  -5   -0.01    0.22
  -9  -1  -5    0.05    0.22
  -9  -1  -5   -0.09    0.26
   9   1   5    0.24    0.24
  -9   1  -6   35.02    0.92
  -9  -1  -6   35.36    0.92
  -9  -1  -6   33.54    0.95
  -9  -1  -7   14.38    0.46
  -9   1  -7   14.27    0.46
  -9  -1  -7   14.51    0.49
   9   2  -8    1.61    0.21
   9  -2  -8    1.61    0.23
   9   2  -7    4.43    0.34
   9  -2  -7    4.32    0.32
   9   2  -6  218.93    4.94
   9  -2  -6  228.79    5.01
   9  -2  -5   23.55    0.80
   9   2  -5   23.17    0.75
   9  -2  -5   23.40    0.80
   9   2  -5   23.85    0.82
   9   2  -4  100.95    2.38
   9  -2  -4   98.63    2.40
   9  -2  -4   97.97    2.39
   9   2  -4  100.99    2.44
   9  -2  -3    1.57    0.32
   9  -2  -3    1.44    0.29
   9   2  -3    1.50    0.36
   9   2  -2   43.45    1.19
   9   2  -2   46.60    1.32
   9  -2  -2   43.59    1.24
   9   2  -1    3.80    0.40
   9   2  -1    3.22    0.33
   9  -2  -1    3.48    0.39
   9   2  -1    3.33    0.41
   9   2   0  528.93   10.99
  -9   2   0  535.03   10.97
  -9  -2   0  522.67   10.96
   9   2   0  488.87   10.96
   9  -2   0  513.61   10.99
   9   2   1   70.37    1.76
  -9   2  -1   71.46    1.74
  -9  -2  -1   70.30    1.74
   9   2   1   68.39    1.78
   9  -2   1   69.48    1.77
  -9   2  -2   32.75    0.91
   9   2   2   32.44    0.97
   9  -2   2   31.40    0.92
  -9   2  -3    2.76    0.27
  -9  -2  -3    2.08    0.24
   9   2   3    2.97    0.33
  -9  -2  -3    2.41    0.30
  -9   2  -4    1.37    0.22
  -9  -2  -4    1.77    0.27
   9   2   4    1.76    0.29
  -9   2  -5    0.55    0.15
  -9  -2  -5    0.78    0.23
   9   2   5    0.77    0.23
  -9  -2  -6    0.30    0.15
  -9  -2  -6    0.34    0.19
  -9  -3   5   39.29    1.08
   9   3  -5   40.79    1.08
   9   3  -5   40.45    1.10
  -9  -3   4   59.11    1.52
   9   3  -4   61.04    1.50
   9   3  -4   59.01    1.54
   9   3  -3   28.35    0.85
   9  -3  -3   27.14    0.84
   9   3  -3   28.67    0.91
   9   3  -2    0.48    0.27
  -9  -3   2    0.70    0.28
   9   3  -2    0.22    0.23
   9  -3  -2    0.14    0.23
   9   3  -2   -0.06    0.29
  -9  -3   1    5.08    0.39
   9  -3  -1    4.93    0.34
   9   3  -1    4.61    0.40
   9   3   0   11.42    0.49
  -9  -3   0   11.19    0.50
   9   3   0   10.55    0.52
   9   3   1   30.39    0.85
  -9  -3  -1   29.20    0.85
   9   3   1   28.99    0.89
   9   3   2    0.83    0.22
  -9  -3  -2    0.41    0.20
   9   3   2    0.56    0.19
   9   3   3    4.40    0.29
  -9  -3  -4   -0.02    0.18
   9   3   4   -0.04    0.16
  -9  -4   3    0.02    0.15
  -9  -4   2    0.15    0.17
  -9  -4   1   63.90    1.49
  -9  -4   0    0.83    0.15
  10   0  -7   -0.18    0.15
  10   0  -6  221.72    4.65
  10   0  -6  208.71    4.65
  10   0  -5    0.20    0.16
  10   0  -5    0.34    0.22
  10   0  -5    0.17    0.20
  10   0  -4   67.30    1.63
  10   0  -4   69.09    1.69
  10   0  -3   -0.04    0.22
  10   0  -2    7.11    0.40
  10   0  -1    0.05    0.24
  10   0  -1    0.20    0.24
 -10   0   0   39.89    1.09
  10   0   0   38.23    1.07
  10   0   0   36.86    1.05
 -10   0  -1    0.01    0.23
  10   0   1    0.05    0.23
  10   0   1   -0.11    0.20
 -10   0  -2   12.94    0.51
 -10   0  -3    0.16    0.19
  10   0   3    0.21    0.19
 -10   0  -4    0.99    0.18
  10   0   4    1.07    0.17
  10   1  -7    0.36    0.16
  10  -1  -7    0.15    0.15
  10   1  -6    5.70    0.28
  10  -1  -6    6.09    0.32
  10   1  -6    5.59    0.31
  10  -1  -6    5.48    0.30
  10  -1  -5   11.87    0.44
  10   1  -5   11.03    0.44
  10  -1  -5   12.37    0.48
  10  -1  -4    0.93    0.23
  10   1  -4    0.37    0.22
  10   1  -3    0.31    0.18
  10  -1  -3    0.37    0.22
  10   1  -3    0.15    0.22
  10  -1  -3    0.63    0.23
  10   1  -2    3.05    0.27
  10  -1  -2    3.51    0.30
  10  -1  -2    2.78    0.29
  10   1  -1    5.11    0.33
  10  -1  -1    4.76    0.34
  10  -1  -1    5.08    0.32
 -10   1   0  121.91    2.71
 -10  -1   0  122.46    2.71
 -10   1  -1  314.88    6.55
 -10  -1  -1  315.22    6.55
  10   1   1  295.31    6.54
  10  -1   1  301.34    6.54
 -10   1  -2  100.79    2.26
 -10  -1  -2  103.63    2.26
  10   1   2   95.50    2.26
  10  -1   2   95.65    2.25
 -10   1  -3   14.02    0.47
 -10  -1  -3   14.56    0.47
  10   1   3   13.56    0.48
 -10   1  -4    1.22    0.15
 -10  -1  -4    1.40    0.16
  10  -2  -4    6.49    0.32
  10   2  -4    5.97    0.29
  10  -2  -4    6.15    0.30
 -10   2   3   21.11    0.61
  10   2  -3   21.97    0.66
 -10   2   2    0.08    0.15
 -10   2   1   14.36    0.46
  10  -2  -1   15.95    0.53
 -10  -2   0    0.80    0.21
 -10   2   0    0.47    0.14
  10   2   0    0.69    0.16
  10  -2   0    0.57    0.19
 -10  -2  -1   69.68    1.59
  10   2   1   69.29    1.60
   0   0   0    0.00    0.00


TITL TX9545 in P2(1)/c
REM P2(1)/c (#14 in standard setting)
CELL 1.54184   8.676643   5.903864  13.360268  90.0000  96.1661  90.0000
ZERR   10.00   0.000127   0.000096   0.000173   0.0000   0.0013   0.0000
LATT  1
SYMM -x, y+1/2,-z+1/2
SFAC C H N O Fe
UNIT 10.00 10.00 10.00 10.00 10.00
TREF
HKLF 4
END
_computing_structure_solution     'SHELXT 2018/2 (Sheldrick, 2018)'
;
loop_
_space_group_symop_operation_xyz
'x, y, z'
'-x, y+1/2, -z+1/2'
'-x, -y, -z'
'x, -y-1/2, z-1/2'
loop_
_atom_site_label
_atom_site_type_symbol
_atom_site_fract_x
_atom_site_fract_y
_atom_site_fract_z
_atom_site_U_iso_or_equiv
_atom_site_adp_type
_atom_site_occupancy
_atom_site_site_symmetry_order
_atom_site_calc_flag
_atom_site_refinement_flags_posn
_atom_site_refinement_flags_adp
_atom_site_refinement_flags_occupancy
_atom_site_disorder_assembly
_atom_site_disorder_group
O1 O 0.30212(10) 0.90728(14) 0.59710(6) 0.0360(3) Uani 1 1 d . . . . .
H1 H 0.353891 0.839600 0.558820 0.054 Uiso 1 1 calc R U . . .
N1 N 0.45803(11) 0.56189(17) 0.53242(7) 0.0300(3) Uani 1 1 d . . . . .
C1 C 0.27845(13) 0.7713(2) 0.67565(8) 0.0279(3) Uani 1 1 d . . . . .
C2 C 0.34302(12) 0.55183(19) 0.68682(8) 0.0268(3) Uani 1 1 d . . . . .
C3 C 0.31559(13) 0.4268(2) 0.77212(9) 0.0297(3) Uani 1 1 d . . . . .
H3 H 0.358807 0.283174 0.781215 0.036 Uiso 1 1 calc R U . . .
C4 C 0.15906(13) 0.7263(2) 0.83028(9) 0.0316(3) Uani 1 1 d . . . . .
C5 C 0.18639(13) 0.8530(2) 0.74673(9) 0.0315(3) Uani 1 1 d . . . . .
H5 H 0.142139 0.996017 0.737928 0.038 Uiso 1 1 calc R U . . .
C6 C 0.05916(15) 0.8211(3) 0.90552(10) 0.0416(4) Uani 1 1 d . . . . .
H6A H 0.122887 0.901629 0.956921 0.062 Uiso 1 1 calc R U . . .
H6B H 0.006817 0.699536 0.935541 0.062 Uiso 1 1 calc R U . . .
H6C H -0.015986 0.922749 0.872127 0.062 Uiso 1 1 calc R U . . .
C7 C 0.43169(13) 0.4520(2) 0.61207(9) 0.0278(3) Uani 1 1 d . . . . .
H7 H 0.470294 0.305800 0.621841 0.033 Uiso 1 1 calc R U . . .
C8 C 0.22629(14) 0.5107(2) 0.84307(9) 0.0323(3) Uani 1 1 d . . . . .
H8 H 0.210639 0.424396 0.899337 0.039 Uiso 1 1 calc R U . . .
loop_
_atom_site_aniso_label
_atom_site_aniso_U_11
_atom_site_aniso_U_22
_atom_site_aniso_U_33
_atom_site_aniso_U_23
_atom_site_aniso_U_13
_atom_site_aniso_U_12
O1 0.0442(5) 0.0294(5) 0.0358(5) 0.0026(3) 0.0106(4) 0.0056(4)
N1 0.0301(5) 0.0300(6) 0.0309(5) -0.0049(4) 0.0075(4) 0.0021(4)
C1 0.0271(6) 0.0266(6) 0.0298(6) -0.0022(4) 0.0015(4) -0.0010(4)
C2 0.0237(5) 0.0270(6) 0.0297(6) -0.0041(4) 0.0031(4) -0.0010(4)
C3 0.0285(6) 0.0268(6) 0.0339(6) -0.0007(5) 0.0038(5) 0.0011(4)
C4 0.0250(6) 0.0378(7) 0.0321(6) -0.0084(5) 0.0035(4) 0.0002(5)
C5 0.0290(6) 0.0285(6) 0.0369(7) -0.0056(5) 0.0025(5) 0.0040(5)
C6 0.0369(7) 0.0526(8) 0.0365(7) -0.0092(6) 0.0089(5) 0.0075(6)
C7 0.0257(6) 0.0258(6) 0.0318(6) -0.0034(4) 0.0034(4) 0.0005(4)
C8 0.0313(6) 0.0359(7) 0.0303(6) 0.0001(5) 0.0067(5) -0.0013(5)
loop_
_atom_type_symbol
_atom_type_description
_atom_type_scat_dispersion_real
_atom_type_scat_dispersion_imag
_atom_type_scat_source
C C 0.0181 0.0091 'International Tables Vol C Tables 4.2.6.8 and 6.1.1.4'
H H 0.0000 0.0000 'International Tables Vol C Tables 4.2.6.8 and 6.1.1.4'
N N 0.0311 0.0180 'International Tables Vol C Tables 4.2.6.8 and 6.1.1.4'
O O 0.0492 0.0322 'International Tables Vol C Tables 4.2.6.8 and 6.1.1.4'
loop_
_geom_angle_atom_site_label_1
_geom_angle_atom_site_label_2
_geom_angle_atom_site_label_3
_geom_angle
_geom_angle_site_symmetry_1
_geom_angle_site_symmetry_3
C1 O1 H1 109.5 . .
C7 N1 N1 113.56(12) . 3_666
O1 C1 C2 122.27(10) . .
O1 C1 C5 118.00(10) . .
C5 C1 C2 119.73(11) . .
C1 C2 C7 122.26(10) . .
C3 C2 C1 117.99(10) . .
C3 C2 C7 119.73(10) . .
C2 C3 H3 119.1 . .
C8 C3 C2 121.85(11) . .
C8 C3 H3 119.1 . .
C5 C4 C6 119.91(12) . .
C5 C4 C8 118.89(10) . .
C8 C4 C6 121.21(12) . .
C1 C5 H5 119.2 . .
C4 C5 C1 121.58(11) . .
C4 C5 H5 119.2 . .
C4 C6 H6A 109.5 . .
C4 C6 H6B 109.5 . .
C4 C6 H6C 109.5 . .
H6A C6 H6B 109.5 . .
H6A C6 H6C 109.5 . .
H6B C6 H6C 109.5 . .
N1 C7 C2 121.26(11) . .
N1 C7 H7 119.4 . .
C2 C7 H7 119.4 . .
C3 C8 C4 119.92(11) . .
C3 C8 H8 120.0 . .
C4 C8 H8 120.0 . .
loop_
_geom_bond_atom_site_label_1
_geom_bond_atom_site_label_2
_geom_bond_distance
_geom_bond_site_symmetry_2
O1 H1 0.8200 .
O1 C1 1.3544(14) .
N1 N1 1.3965(18) 3_666
N1 C7 1.2876(16) .
C1 C2 1.4132(17) .
C1 C5 1.3910(16) .
C2 C3 1.3994(16) .
C2 C7 1.4497(15) .
C3 H3 0.9300 .
C3 C8 1.3791(16) .
C4 C5 1.3850(17) .
C4 C6 1.5041(16) .
C4 C8 1.4032(18) .
C5 H5 0.9300 .
C6 H6A 0.9600 .
C6 H6B 0.9600 .
C6 H6C 0.9600 .
C7 H7 0.9300 .
C8 H8 0.9300 .
loop_
_geom_hbond_atom_site_label_D
_geom_hbond_atom_site_label_H
_geom_hbond_atom_site_label_A
_geom_hbond_distance_DH
_geom_hbond_distance_HA
_geom_hbond_distance_DA
_geom_hbond_angle_DHA
_geom_hbond_site_symmetry_A
_geom_hbond_publ_flag
O1 H1 N1 0.82 1.92 2.6431(12) 146.1 . yes
loop_
_geom_torsion_atom_site_label_1
_geom_torsion_atom_site_label_2
_geom_torsion_atom_site_label_3
_geom_torsion_atom_site_label_4
_geom_torsion
_geom_torsion_site_symmetry_1
_geom_torsion_site_symmetry_2
_geom_torsion_site_symmetry_3
_geom_torsion_site_symmetry_4
O1 C1 C2 C3 178.17(10) . . . .
O1 C1 C2 C7 -3.60(17) . . . .
O1 C1 C5 C4 -178.71(10) . . . .
N1 N1 C7 C2 -178.55(10) 3_666 . . .
C1 C2 C3 C8 1.14(18) . . . .
C1 C2 C7 N1 1.30(18) . . . .
C2 C1 C5 C4 1.64(18) . . . .
C2 C3 C8 C4 0.51(19) . . . .
C3 C2 C7 N1 179.50(10) . . . .
C5 C1 C2 C3 -2.19(17) . . . .
C5 C1 C2 C7 176.03(10) . . . .
C5 C4 C8 C3 -1.12(18) . . . .
C6 C4 C5 C1 179.83(10) . . . .
C6 C4 C8 C3 179.09(11) . . . .
C7 C2 C3 C8 -177.13(10) . . . .
C8 C4 C5 C1 0.04(18) . . . .
