#------------------------------------------------------------------------------
#$Date: 2022-03-18 10:45:34 +0200 (Fri, 18 Mar 2022) $
#$Revision: 273793 $
#$URL: file:///home/coder/svn-repositories/cod/cif/8/10/47/8104793.cif $
#------------------------------------------------------------------------------
#
# This file is available in the Crystallography Open Database (COD),
# http://www.crystallography.net/
#
# All data on this site have been placed in the public domain by the
# contributors.
#
data_8104793
loop_
_publ_author_name
'Ha, Kwang'
_publ_section_title
;
 Crystal structure of catena-poly[di(\m 2-cyanido-\k2
 C:N)-dicyanido-tetrakis(dimethyl
 sulfoxide-\kO)-manganese(II)-platinum(II)], C12H24MnN4O4PtS4
;
_journal_issue                   3
_journal_name_full
'Zeitschrift f\"ur Kristallographie - New Crystal Structures'
_journal_page_first              657
_journal_page_last               658
_journal_paper_doi               10.1515/ncrs-2021-0029
_journal_volume                  236
_journal_year                    2021
_chemical_formula_moiety         'C12 H24 Mn N4 O4 Pt S4'
_chemical_formula_sum            'C12 H24 Mn N4 O4 Pt S4'
_chemical_formula_weight         666.62
_chemical_name_systematic
;
<i>catena</i>-[di(\m~2~-cyanido)-dicyanido-tetrakis(dimethyl 
sulfoxide-\k-<i>O</i>)-manganese(II)-platinum(II)]
;
_space_group_crystal_system      triclinic
_space_group_IT_number           2
_space_group_name_Hall           '-P 1'
_space_group_name_H-M_alt        'P -1'
_atom_sites_solution_hydrogens   geom
_atom_sites_solution_primary     direct
_atom_sites_solution_secondary   difmap
_cell_angle_alpha                68.9266(7)
_cell_angle_beta                 76.5614(8)
_cell_angle_gamma                85.8639(8)
_cell_formula_units_Z            1
_cell_length_a                   7.5234(2)
_cell_length_b                   9.2143(2)
_cell_length_c                   9.4188(2)
_cell_measurement_reflns_used    9986
_cell_measurement_temperature    223(2)
_cell_measurement_theta_max      28.33
_cell_measurement_theta_min      2.38
_cell_volume                     592.54(2)
_computing_cell_refinement       'Bruker SAINT [1]'
_computing_data_collection       'Bruker APEX2 [1]'
_computing_data_reduction        'Bruker SAINT [1]'
_computing_molecular_graphics    'ORTEP-III [3]'
_computing_publication_material  'SHELXL-2014/7 [2]'
_computing_structure_refinement  'SHELXL-2014/7 [2]'
_computing_structure_solution    'SHELXL-2014/7 [2]'
_diffrn_ambient_temperature      223(2)
_diffrn_measured_fraction_theta_full 0.940
_diffrn_measured_fraction_theta_max 0.946
_diffrn_measurement_device_type  'PHOTON 100 CMOS detector'
_diffrn_measurement_method       '\f and \w scans'
_diffrn_radiation_type           MoK\a
_diffrn_radiation_wavelength     0.71073
_diffrn_reflns_av_R_equivalents  0.0637
_diffrn_reflns_av_unetI/netI     0.0373
_diffrn_reflns_Laue_measured_fraction_full 0.940
_diffrn_reflns_Laue_measured_fraction_max 0.946
_diffrn_reflns_limit_h_max       10
_diffrn_reflns_limit_h_min       -10
_diffrn_reflns_limit_k_max       12
_diffrn_reflns_limit_k_min       -12
_diffrn_reflns_limit_l_max       12
_diffrn_reflns_limit_l_min       -12
_diffrn_reflns_number            16474
_diffrn_reflns_point_group_measured_fraction_full 0.940
_diffrn_reflns_point_group_measured_fraction_max 0.946
_diffrn_reflns_theta_full        25.242
_diffrn_reflns_theta_max         28.329
_diffrn_reflns_theta_min         3.634
_diffrn_source                   'sealed tube'
_exptl_absorpt_coefficient_mu    6.803
_exptl_absorpt_correction_T_max  0.7453
_exptl_absorpt_correction_T_min  0.3704
_exptl_absorpt_correction_type   multi-scan
_exptl_absorpt_process_details   'SADABS (Bruker, 2016) [1]'
_exptl_crystal_colour            Colorless
_exptl_crystal_density_diffrn    1.868
_exptl_crystal_description       Block
_exptl_crystal_F_000             323
_exptl_crystal_size_max          0.27
_exptl_crystal_size_mid          0.22
_exptl_crystal_size_min          0.10
_refine_diff_density_max         0.968
_refine_diff_density_min         -0.936
_refine_diff_density_rms         0.118
_refine_ls_extinction_coef       .
_refine_ls_extinction_method     none
_refine_ls_goodness_of_fit_ref   1.113
_refine_ls_hydrogen_treatment    constr
_refine_ls_matrix_type           full
_refine_ls_number_parameters     125
_refine_ls_number_reflns         2794
_refine_ls_number_restraints     0
_refine_ls_restrained_S_all      1.113
_refine_ls_R_factor_all          0.0175
_refine_ls_R_factor_gt           0.0175
_refine_ls_shift/su_max          0.000
_refine_ls_shift/su_mean         0.000
_refine_ls_structure_factor_coef Fsqd
_refine_ls_weighting_details
'w=1/[\s^2^(Fo^2^)+0.0391P] where P=(Fo^2^+2Fc^2^)/3'
_refine_ls_weighting_scheme      calc
_refine_ls_wR_factor_gt          0.0409
_refine_ls_wR_factor_ref         0.0409
_reflns_Friedel_coverage         0.000
_reflns_Friedel_fraction_full    .
_reflns_Friedel_fraction_max     .
_reflns_number_gt                2793
_reflns_number_total             2794
_reflns_threshold_expression     'I > 2\s(I)'
_cod_data_source_file            suppl_j_ncrs-2021-0029_suppl.cif
_cod_data_source_block           Mn(DMSO)4Pt(CN)4
_cod_depositor_comments
;
The following automatic conversions were performed:

data item '_exptl_absorpt_correction_type' value 'Multi-scan' was
changed to 'multi-scan' in accordance with the built-in table derived
from the CIF Core dictionary named 'cif_core.dic' version 2.4.5 last
updated on 2014-11-21.

Automatic conversion script
Id: cif_fix_values 8738 2021-04-28 16:35:53Z antanas 
;
_cod_database_code               8104793
_shelx_space_group_comment
;
The symmetry employed for this shelxl refinement is uniquely defined
by the following loop, which should always be used as a source of
symmetry information in preference to the above space-group names.
They are only intended as comments.
;
_shelx_res_file
;

    Mn(DMSO)4Pt(CN)4.res created by SHELXL-2014/7


TITL [Mn(DMSO)2Pt(CN)2]n
CELL 0.71073   7.52340   9.21430   9.41880  68.9266  76.5614  85.8639
ZERR    1.00   0.00020   0.00020   0.00020   0.0007   0.0008   0.0008
LATT  1
SFAC C  H  MN N O PT S
UNIT 12 24 1  4 4 1  4
MERG 2
L.S. 18
LIST 4
ACTA
BOND $H
CONF
OMIT 1   0   0
OMIT -2   0   1
OMIT 9   6   5
OMIT -7   4   6
OMIT 8  -3   7
OMIT 3   2  12
OMIT 9   3   7
FMAP 2
PLAN -10
TEMP -50
WGHT    0.000000    0.039100
FVAR       0.37549
PT1   6    0.500000    0.000000    0.500000    10.50000    0.02438    0.01456 =
         0.01616    0.00060   -0.00514   -0.00035
MN1   3    0.500000    0.500000    0.000000    10.50000    0.02014    0.01646 =
         0.01629   -0.00022   -0.00266   -0.00074
S1    7    0.166714    0.246497    0.082184    11.00000    0.02437    0.02645 =
         0.03609   -0.00841   -0.00616   -0.00188
S2    7    0.408961    0.633994    0.286723    11.00000    0.03287    0.05242 =
         0.03613   -0.02466   -0.01227    0.00833
O1    5    0.258265    0.401781   -0.021867    11.00000    0.02816    0.03757 =
         0.02979   -0.00559   -0.00567   -0.01059
O2    5    0.331886    0.569530    0.187249    11.00000    0.02989    0.04198 =
         0.03452   -0.02129   -0.00464    0.00200
N1    4    0.145534    0.148234    0.639642    11.00000    0.05170    0.06103 =
         0.04468   -0.01825   -0.00474    0.02051
N2    4    0.544947    0.280277    0.184751    11.00000    0.03266    0.02625 =
         0.02802    0.00255   -0.00551    0.00209
C1    1    0.274482    0.095336    0.587736    11.00000    0.03617    0.03010 =
         0.02406   -0.00341   -0.00442    0.00531
C2    1    0.530080    0.178299    0.299147    11.00000    0.02801    0.02100 =
         0.02133   -0.00019   -0.00517    0.00058
C3    1   -0.005904    0.226156   -0.009798    11.00000    0.03489    0.05558 =
         0.04451   -0.02548   -0.00643   -0.01217
AFIX 137
H3A   2    0.050234    0.207158   -0.105101    11.00000   -1.50000
H3B   2   -0.076420    0.320805   -0.034500    11.00000   -1.50000
H3C   2   -0.085910    0.139383    0.059911    11.00000   -1.50000
AFIX   0
C4    1    0.024284    0.281471    0.245576    11.00000    0.04761    0.05928 =
         0.03040   -0.01551    0.00399   -0.02160
AFIX 137
H4A   2   -0.052028    0.370561    0.209549    11.00000   -1.50000
H4B   2    0.099645    0.302238    0.307026    11.00000   -1.50000
H4C   2   -0.052474    0.190695    0.309298    11.00000   -1.50000
AFIX   0
C5    1    0.239239    0.592909    0.463078    11.00000    0.06330    0.10580 =
         0.03643   -0.03505   -0.00526    0.01989
AFIX 137
H5A   2    0.125378    0.641128    0.439947    11.00000   -1.50000
H5B   2    0.278856    0.633927    0.532321    11.00000   -1.50000
H5C   2    0.220936    0.481270    0.513127    11.00000   -1.50000
AFIX   0
C6    1    0.375433    0.837910    0.206511    11.00000    0.11871    0.04442 =
         0.09845   -0.03055   -0.04429   -0.01359
AFIX 137
H6A   2    0.413131    0.888440    0.269229    11.00000   -1.50000
H6B   2    0.247165    0.857884    0.206048    11.00000   -1.50000
H6C   2    0.447720    0.878602    0.100517    11.00000   -1.50000
AFIX   0
HKLF 4

REM  [Mn(DMSO)2Pt(CN)2]n
REM R1 =  0.0175 for    2793 Fo > 4sig(Fo)  and  0.0175 for all    2794 data
REM    125 parameters refined using      0 restraints

END

WGHT      0.0000      0.0391

REM Highest difference peak  0.968,  deepest hole -0.936,  1-sigma level  0.118
Q1    1   0.4056  0.0421  0.4259  11.00000  0.05    0.97
Q2    1   0.4537  0.0391  0.6029  11.00000  0.05    0.71
Q3    1   0.4262 -0.0987  0.4821  11.00000  0.05    0.64
Q4    1   0.1011  0.2744  0.1756  11.00000  0.05    0.54
Q5    1   0.4925 -0.1145  0.6130  11.00000  0.05    0.50
Q6    1   0.3948  0.5205 -0.0627  11.00000  0.05    0.49
Q7    1   0.4337  0.5417  0.1017  11.00000  0.05    0.46
Q8    1   0.4779  0.3848  0.0117  11.00000  0.05    0.45
Q9    1   0.3987  0.0783  0.5355  11.00000  0.05    0.44
Q10   1   0.3918  0.5433  0.2572  11.00000  0.05    0.43
;
_shelx_hkl_file
;
  -1   0   0    0.00    0.01
   4   0   0  612.05   46.25
  -5   0   0  252.24   17.84
  -5   0   0  235.56   18.60
  -5   0   0  214.06   18.35
   5   0   0  246.82   18.57
   5   0   0  256.36   18.54
   5   0   0  232.15   18.14
   5   0   0  234.04   17.88
   5   0   0  221.79   18.59
  -6   0   0  383.37   28.58
  -6   0   0  382.49   27.56
  -6   0   0  327.60   28.18
   6   0   0  408.66   28.36
   6   0   0  331.69   28.48
   6   0   0  339.74   27.60
   6   0   0  346.88   27.93
   6   0   0  415.78   30.13
  -7   0   0   71.37    7.04
  -7   0   0   87.37    6.33
  -7   0   0   84.31    8.11
   7   0   0   82.42    7.39
   7   0   0   77.24    6.81
   7   0   0   79.12    6.73
  -8   0   0  137.43   11.18
  -8   0   0  118.31   10.59
   8   0   0  105.54    9.65
   8   0   0  115.24   10.22
   8   0   0  142.65   11.18
  -9   0   0  144.09   12.24
   9   0   0  146.95   12.67
   9   0   0  121.60   10.61
   9   0   0  127.55   11.25
   9  -1   0   22.17    3.40
   9  -1   0   17.39    1.95
   9  -1   0   16.91    2.53
  -9   1   0   19.96    3.09
  -9   1   0   20.33    3.37
   8  -1   0   85.35    7.54
   8  -1   0   89.84    8.07
   8  -1   0  111.58    9.17
  -8   1   0  104.31    9.11
  -8   1   0   87.61    8.49
   7  -1   0   28.63    3.65
   7  -1   0   33.40    3.75
   7  -1   0   28.98    2.64
  -7   1   0   33.62    3.83
  -7   1   0   27.71    3.39
   6  -1   0  157.70   12.68
   6  -1   0  175.85   13.70
  -6   1   0  154.90   13.41
  -6   1   0  177.72   13.80
   5  -1   0  408.83   31.41
   5  -1   0  385.45   32.20
   5  -1   0  440.44   32.25
  -5   1   0  431.37   32.31
  -5   1   0  384.33   32.02
  -5   1   0  464.83   31.41
   4  -1   0  216.47   16.38
   4  -1   0  203.56   17.00
   4  -1   0  220.21   17.00
  -4   1   0  195.99   16.85
  -4   1   0  239.80   16.37
  -4   1   0  230.07   17.11
   1  -1   0   75.64    6.11
  -1   1   0   76.04    6.14
  -1   1   0   75.59    5.93
  -1   1   0   89.08    6.15
  -2  -1   0   12.67    1.24
  -2  -1   0   13.53    1.10
  -2  -1   0   13.18    1.17
  -2  -1   0   13.95    1.19
  -2  -1   0   15.17    1.47
   2   1   0   12.69    1.15
   2   1   0   14.90    1.24
   2   1   0   14.26    1.16
   2   1   0   13.78    1.10
  -3  -1   0   88.13    7.49
  -3  -1   0   95.95    7.66
  -3  -1   0   95.87    7.28
   3   1   0   91.16    7.30
   3   1   0   96.65    7.19
   3   1   0  101.40    7.37
   3   1   0   93.57    7.54
   3   1   0  103.26    7.45
  -4  -1   0  184.59   13.41
  -4  -1   0  177.01   13.89
  -4  -1   0  159.81   13.72
   4   1   0  191.53   13.56
   4   1   0  178.73   13.84
   4   1   0  172.92   13.45
   4   1   0  177.79   13.63
  -5  -1   0   68.87    5.15
  -5  -1   0   57.75    5.53
  -5  -1   0   70.82    5.85
   5   1   0   66.32    5.22
   5   1   0   60.45    5.40
   5   1   0   65.04    5.71
   5   1   0   69.82    5.32
  -6  -1   0  169.21   13.16
  -6  -1   0  167.54   12.25
  -6  -1   0  142.84   12.77
   6   1   0  154.62   12.64
   6   1   0  169.42   13.09
   6   1   0  149.35   12.31
   6   1   0  154.29   13.17
   6   1   0  176.09   12.41
  -7  -1   0  121.55    9.54
  -7  -1   0  123.41   10.32
  -7  -1   0  138.15   10.74
   7   1   0  115.18   10.01
   7   1   0  118.32    9.64
  -8  -1   0   16.02    2.63
  -8  -1   0   15.20    1.57
  -8  -1   0   16.84    2.37
   8   1   0   12.35    1.65
   8   1   0   16.75    2.62
   8   1   0   12.87    2.02
  -9  -1   0   38.16    4.74
  -9  -1   0   47.61    3.72
  -9  -1   0   49.86    5.24
   9   1   0   40.03    3.83
   9   1   0   38.90    4.35
   9  -2   0   95.32    8.62
   9  -2   0   71.09    6.63
   9  -2   0   78.11    7.26
  -9   2   0   92.80    8.58
  -9   2   0   79.45    7.93
   8  -2   0  200.09   17.42
   8  -2   0  259.35   19.24
  -8   2   0  249.37   19.19
  -8   2   0  209.86   18.52
   7  -2   0  363.06   26.38
   7  -2   0  300.61   24.92
   7  -2   0  303.92   26.17
  -7   2   0  379.49   26.54
  -7   2   0  308.16   25.92
   6  -2   0  140.61   11.22
   6  -2   0  164.36   12.41
   6  -2   0  136.45   12.26
  -6   2   0  162.16   12.47
  -6   2   0  132.87   12.02
   5  -2   0  619.12   46.29
  -5   2   0  593.51   46.08
   4  -2   0  441.11   34.39
  -4   2   0  496.64   34.53
  -4   2   0  412.37   34.22
   3  -2   0  193.45   13.82
   3  -2   0  177.28   14.36
   3  -2   0  179.24   13.81
  -3   2   0  186.65   14.46
   2  -2   0  256.42   20.16
   2  -2   0  271.59   20.15
   3   2   0  546.09   40.93
   4   2   0  712.61   53.43
  -5  -2   0  553.38   39.43
  -5  -2   0  561.53   38.81
  -5  -2   0  474.74   39.14
   5   2   0  534.54   39.31
   5   2   0  489.39   38.86
   5   2   0  503.33   39.08
   5   2   0  508.88   39.48
  -6  -2   0  145.52    9.93
  -6  -2   0  118.52   10.34
   6   2   0  121.82   10.26
   6   2   0  121.04   10.74
   6   2   0  140.05   10.63
   6   2   0  124.27   10.00
  -7  -2   0  258.74   19.56
  -7  -2   0  221.30   18.33
   7   2   0  227.40   17.87
   7   2   0  225.99   18.23
  -8  -2   0  117.38    9.94
  -8  -2   0  100.83    9.44
  -8  -2   0  118.76    8.77
   8   2   0  121.84   10.00
   8   2   0   98.70    9.27
  -9  -2   0   28.15    2.54
  -9  -2   0   28.97    3.75
  -9  -2   0   24.04    3.23
   9   2   0   26.37    3.16
   9  -3   0   17.99    3.18
   9  -3   0   12.61    1.54
  -9   3   0   15.59    3.08
  -9   3   0   14.23    2.67
   8  -3   0   13.95    1.35
   8  -3   0   10.80    2.42
   8  -3   0   13.07    2.65
  -8   3   0   10.25    2.21
  -8   3   0   12.42    2.63
   7  -3   0   72.37    6.20
   7  -3   0   74.16    7.50
   7  -3   0   88.68    7.69
  -7   3   0   74.75    7.31
  -7   3   0   86.90    7.78
   6  -3   0    7.24    1.69
   6  -3   0    6.07    0.75
   6  -3   0    6.08    1.56
  -6   3   0    4.60    1.35
  -6   3   0    6.20    1.64
   5  -3   0    4.94    1.32
   5  -3   0    6.69    0.67
   5  -3   0    5.25    0.64
   5  -3   0    4.87    1.33
  -5   3   0    5.43    1.27
  -5   3   0    5.27    1.40
   4  -3   0  245.16   18.67
   4  -3   0  278.25   18.73
   4  -3   0  260.49   19.53
   4  -3   0  224.54   19.45
  -4   3   0  224.87   19.35
  -4   3   0  260.36   19.61
   3  -3   0  326.62   22.01
   3  -3   0  282.69   22.61
   3  -3   0  286.92   21.92
   3  -3   0  282.42   22.55
  -3   3   0  272.88   22.49
  -3   3   0  307.36   22.69
   2  -3   0  242.42   18.90
   2  -3   0  252.96   18.88
  -2   3   0  257.69   18.93
  -2   3   0  229.63   18.81
   0  -3   0  252.89   17.85
   0   3   0  213.71   18.00
   0   3   0  250.69   17.86
   0   3   0  238.90   17.79
  -1  -3   0  162.64   11.60
  -1  -3   0  156.14   11.45
  -1  -3   0  162.74   11.58
  -1  -3   0  148.97   11.50
  -1  -3   0  149.46   11.53
  -1  -3   0  159.02   11.42
   1   3   0  144.02   11.44
   1   3   0  141.02   11.58
  -2  -3   0  417.57   28.74
   2   3   0  359.41   28.71
   2   3   0  371.63   28.67
  -3  -3   0   56.04    4.35
  -3  -3   0   57.14    4.25
  -3  -3   0   49.63    4.26
  -3  -3   0   54.77    4.31
  -3  -3   0   54.91    4.35
  -3  -3   0   54.95    4.22
  -3  -3   0   56.35    4.11
   3   3   0   49.28    4.33
   3   3   0   55.43    4.37
   3   3   0   51.21    4.26
   3   3   0   52.62    4.21
  -4  -3   0   72.22    5.71
  -4  -3   0   71.02    5.44
  -4  -3   0   62.67    5.56
  -4  -3   0   73.40    5.41
  -4  -3   0   68.32    5.45
  -4  -3   0   72.18    5.54
   4   3   0   69.18    5.62
   4   3   0   69.50    5.76
   4   3   0   68.07    5.64
  -5  -3   0  229.23   17.09
  -5  -3   0  201.89   16.87
  -5  -3   0  233.92   16.65
   5   3   0  219.62   17.17
   5   3   0  206.66   16.89
   5   3   0  225.39   17.00
  -6  -3   0   73.19    6.27
  -6  -3   0   74.17    5.68
   6   3   0   72.22    6.19
   6   3   0   64.69    5.99
  -7  -3   0   13.22    2.07
  -7  -3   0   13.14    1.83
  -7  -3   0   14.28    1.45
   7   3   0   11.05    1.77
   7   3   0   13.21    1.99
  -8  -3   0   67.30    6.45
  -8  -3   0   77.46    6.88
   8   3   0   67.72    6.41
   8   3   0   77.42    7.80
  -9  -3   0   43.27    4.58
  -9  -3   0   50.29    5.10
   9   3   0   37.34    4.78
   9  -4   0   71.91    7.18
   9  -4   0   56.22    5.04
  -9   4   0   60.02    6.51
   8  -4   0   47.95    4.18
   8  -4   0   50.48    5.78
   8  -4   0   55.93    5.93
  -8   4   0   56.38    5.99
  -8   4   0   47.28    5.43
   7  -4   0  150.75   12.02
   7  -4   0  120.72   11.75
   7  -4   0  119.60   10.31
  -7   4   0  146.97   12.19
  -7   4   0  138.79   13.34
   6  -4   0  577.58   39.83
   6  -4   0  483.82   38.31
   6  -4   0  474.20   39.63
  -6   4   0  475.96   39.39
  -6   4   0  550.24   39.89
   5  -4   0  324.13   25.56
   5  -4   0  309.87   24.46
   5  -4   0  376.82   24.58
   5  -4   0  295.94   25.54
  -5   4   0  298.79   25.40
  -5   4   0  353.29   25.82
   4  -4   0  575.65   46.22
   4  -4   0  649.43   46.28
  -4   4   0  545.55   46.05
  -4   4   0  656.88   46.40
  -2   4   0  558.21   41.68
   1  -4   0  264.84   19.78
   1  -4   0  239.75   19.76
   1  -4   0  263.77   19.48
  -1   4   0  261.40   19.77
  -1   4   0  256.69   19.37
  -1   4   0  275.44   19.26
  -1   4   0  247.92   19.48
  -1  -4   0  392.21   27.44
  -1  -4   0  383.15   27.20
  -1  -4   0  392.06   27.42
   1   4   0  353.53   27.24
   1   4   0  325.91   27.29
   1   4   0  344.55   27.40
   3   4   0  705.55   52.85
  -4  -4   0  321.33   23.86
  -4  -4   0  334.14   23.98
  -4  -4   0  298.69   23.89
  -4  -4   0  336.48   23.87
  -4  -4   0  329.10   23.68
  -4  -4   0  322.25   24.53
  -4  -4   0  315.77   23.97
   4   4   0  281.14   24.00
   4   4   0  322.21   23.97
   4   4   0  306.09   23.85
  -5  -4   0  238.75   19.81
  -5  -4   0  260.90   19.63
  -5  -4   0  272.93   19.69
  -5  -4   0  259.84   19.96
  -5  -4   0  276.96   19.48
  -5  -4   0  270.92   19.79
   5   4   0  240.68   19.91
   5   4   0  252.05   19.83
   5   4   0  265.57   20.03
  -6  -4   0  502.79   36.89
  -6  -4   0  449.51   36.64
   6   4   0  502.30   37.73
   6   4   0  484.63   36.74
  -7  -4   0  202.40   14.61
  -7  -4   0  214.04   14.42
  -7  -4   0  185.57   15.93
  -7  -4   0  171.61   14.92
   7   4   0  173.18   15.01
   7   4   0  194.86   15.17
  -8  -4   0   97.00    7.11
  -8  -4   0   81.33    7.72
  -8  -4   0   97.24    8.40
  -8  -4   0   94.13    7.32
   8   4   0   80.77    7.82
   8   4   0   97.66    8.12
  -9  -4   0   84.10    7.42
  -9  -4   0   77.96    7.10
   9   4   0   73.27    7.12
   8  -5   0   79.87    8.67
   8  -5   0  102.06    9.09
   8  -5   0   81.98    7.01
  -8   5   0   99.93    9.11
  -8   5   0   86.96    8.53
   7  -5   0   42.28    3.76
   7  -5   0   42.87    5.35
   7  -5   0   50.68    5.41
  -7   5   0   52.57    5.51
   6  -5   0   89.25    7.77
   6  -5   0   75.66    7.61
   6  -5   0   75.20    6.23
  -6   5   0   89.62    7.86
  -6   5   0   75.68    7.39
   5  -5   0   82.17    6.00
   5  -5   0   84.78    6.19
   5  -5   0   80.70    7.20
   5  -5   0   69.55    7.11
  -5   5   0   70.04    6.97
  -5   5   0   80.67    7.31
   4  -5   0   24.07    2.81
   4  -5   0   23.41    1.86
   4  -5   0   25.64    2.08
   4  -5   0   19.22    2.68
  -4   5   0   21.03    1.97
  -4   5   0   26.52    2.97
  -4   5   0   19.92    2.63
   3  -5   0   58.76    5.63
   3  -5   0   68.16    5.02
   3  -5   0   64.99    5.72
  -3   5   0   69.86    5.79
  -3   5   0   58.66    4.90
  -3   5   0   56.04    5.50
   2  -5   0  150.88   11.59
   2  -5   0  154.52   11.09
   2  -5   0  132.49   11.52
  -2   5   0  137.30   10.95
  -2   5   0  152.43   11.62
  -2   5   0  160.48   10.80
  -2   5   0  122.81   11.41
   1  -5   0  105.46    9.13
   1  -5   0  119.74    8.86
   1  -5   0  116.30    9.43
  -1   5   0  115.07    8.71
  -1   5   0  115.14    9.14
  -1   5   0  115.89    8.56
   0  -5   0  363.04   29.14
   0  -5   0  419.08   29.02
   0  -5   0  397.62   28.72
   0  -5   0  391.49   29.15
   0  -5   0  412.30   28.81
   0   5   0  369.48   29.00
   0   5   0  333.10   29.05
   0   5   0  390.42   28.72
   0   5   0  395.02   28.83
  -1  -5   0  480.17   34.13
  -1  -5   0  496.56   34.43
  -1  -5   0  485.42   34.41
  -1  -5   0  477.04   34.19
   1   5   0  427.07   34.39
   1   5   0  399.04   34.27
   1   5   0  443.06   34.19
  -2  -5   0  116.60    8.54
  -2  -5   0  110.18    8.34
  -2  -5   0  113.74    8.64
  -2  -5   0  108.56    8.37
  -2  -5   0  115.71    8.61
   2   5   0  100.99    8.58
  -3  -5   0  245.27   18.04
  -3  -5   0  238.60   17.85
  -3  -5   0  229.35   18.41
  -3  -5   0  252.73   18.17
  -3  -5   0  245.98   18.09
  -3  -5   0  244.76   17.84
   3   5   0  212.00   18.06
  -4  -5   0  304.87   21.60
  -4  -5   0  284.84   21.81
  -4  -5   0  293.49   21.92
  -4  -5   0  302.20   21.82
  -4  -5   0  289.61   21.59
   4   5   0  255.01   21.93
  -5  -5   0   50.69    4.24
  -5  -5   0   46.47    4.07
  -5  -5   0   49.68    4.14
  -5  -5   0   50.66    3.88
  -5  -5   0   51.16    4.12
  -5  -5   0   56.77    3.92
  -5  -5   0   50.45    4.11
  -5  -5   0   50.86    4.15
   5   5   0   41.94    4.30
  -6  -5   0   48.82    3.56
  -6  -5   0   44.29    3.94
  -6  -5   0   45.64    3.51
  -6  -5   0   46.12    3.91
   6   5   0   37.64    4.01
   6   5   0   43.70    3.81
  -7  -5   0   69.03    5.09
  -7  -5   0   60.68    4.68
  -7  -5   0   58.04    5.24
  -7  -5   0   61.63    4.64
  -7  -5   0   55.40    5.12
   7   5   0   59.89    5.17
   7   5   0   51.71    5.27
  -8  -5   0   10.06    1.62
  -8  -5   0   10.34    1.69
  -8  -5   0    9.83    1.06
   8   5   0   10.06    1.74
   8   5   0   10.50    1.72
   8  -6   0   50.77    4.39
   8  -6   0   63.59    6.53
   8  -6   0   51.50    6.23
  -8   6   0   61.54    6.65
  -8   6   0   52.28    4.50
  -8   6   0   50.56    5.92
   7  -6   0  111.00    9.48
   7  -6   0   88.99    7.49
   7  -6   0   89.15    9.18
  -7   6   0   89.91   11.11
  -7   6   0  110.43    9.61
  -7   6   0   94.41    7.64
   6  -6   0   77.62    7.90
   6  -6   0   77.38    6.37
   6  -6   0   90.67    8.03
  -6   6   0   93.72    8.20
  -6   6   0   79.73    6.53
  -6   6   0   78.38    7.67
   5  -6   0  271.47   21.06
   5  -6   0  293.82   19.93
   5  -6   0  243.54   19.62
  -5   6   0  238.58   20.79
  -5   6   0  285.40   21.27
  -5   6   0  236.36   19.77
   4  -6   0  282.11   24.40
   4  -6   0  336.57   24.54
   4  -6   0  355.72   23.58
  -4   6   0  275.01   23.54
  -4   6   0  281.49   24.25
  -4   6   0  330.67   24.62
   3  -6   0  493.14   33.89
   3  -6   0  405.40   34.53
   3  -6   0  462.23   34.61
  -3   6   0  499.59   33.53
  -3   6   0  397.00   33.70
  -3   6   0  397.53   34.41
  -3   6   0  492.51   34.78
   2  -6   0  623.14   48.86
  -2   6   0  700.79   48.16
  -2   6   0  609.02   48.73
   1  -6   0  577.40   46.37
  -1   6   0  678.23   45.67
  -1   6   0  655.48   45.86
  -1   6   0  543.69   46.25
   0  -6   0  241.46   18.41
   0  -6   0  233.21   18.94
   0  -6   0  252.12   18.95
   0  -6   0  264.69   18.79
   0  -6   0  257.97   18.53
   0   6   0  217.28   18.82
   0   6   0  258.89   18.91
   0   6   0  251.07   18.56
  -1  -6   0  674.64   45.84
  -1  -6   0  640.15   45.46
  -1  -6   0  680.87   45.85
  -1  -6   0  618.63   45.53
   1   6   0  528.07   45.64
   1   6   0  555.49   45.78
   1   6   0  577.14   45.54
  -2  -6   0  647.43   47.73
  -2  -6   0  663.35   48.10
  -2  -6   0  686.53   47.98
  -2  -6   0  641.18   47.78
  -2  -6   0  645.32   48.05
   2   6   0  560.45   47.77
  -3  -6   0  232.52   17.44
  -3  -6   0  231.94   17.81
  -3  -6   0  229.76   17.47
  -3  -6   0  228.98   18.26
  -3  -6   0  229.43   17.74
  -3  -6   0  244.67   17.70
  -4  -6   0  258.33   18.80
  -4  -6   0  235.72   18.53
  -4  -6   0  248.42   18.82
  -4  -6   0  253.76   18.93
  -4  -6   0  235.50   19.13
  -4  -6   0  251.68   18.55
  -5  -6   0  255.03   17.77
  -5  -6   0  244.11   18.16
  -5  -6   0  239.79   17.74
  -5  -6   0  243.33   18.01
  -5  -6   0  234.64   18.02
  -5  -6   0  223.41   18.15
   5   6   0  212.50   18.23
  -6  -6   0  125.51   10.01
  -6  -6   0  136.01    9.92
  -6  -6   0  135.00    9.64
  -6  -6   0  127.63    9.61
  -6  -6   0  125.84    9.87
   6   6   0  106.44   10.13
  -7  -6   0  194.89   14.52
  -7  -6   0  191.74   14.18
  -7  -6   0  202.55   14.24
   7   6   0  159.74   14.83
  -8  -6   0  102.27    8.85
  -8  -6   0  119.37    8.04
  -8  -6   0  100.28    8.34
   8   6   0   94.06    8.87
   7  -7   0   96.84    8.68
   7  -7   0   75.77    8.30
   7  -7   0   74.99    6.52
  -7   7   0   99.55    9.53
  -7   7   0   78.91    6.76
   6  -7   0  118.87    9.83
   6  -7   0   97.25    7.92
   6  -7   0   95.00    9.56
  -6   7   0  117.69    9.97
  -6   7   0   96.21    9.34
  -6   7   0   98.01    8.12
   5  -7   0   81.04    7.99
   5  -7   0   84.48    6.51
   5  -7   0   98.49    8.15
  -5   7   0   77.50    7.72
  -5   7   0   83.45    6.72
   4  -7   0  135.78   12.56
   4  -7   0  151.11   12.58
  -4   7   0  161.64   12.80
  -4   7   0  134.99   11.48
  -4   7   0  163.39   11.23
   3  -7   0   92.16    7.51
   3  -7   0   72.01    7.42
   3  -7   0   84.78    7.44
  -3   7   0   85.73    7.52
  -3   7   0   88.68    6.29
  -3   7   0   78.80    6.54
   2  -7   0   44.43    4.79
   2  -7   0   56.21    5.06
   2  -7   0   54.63    4.90
  -2   7   0   52.53    4.99
  -2   7   0   52.02    3.90
  -2   7   0   52.08    4.16
   1  -7   0  268.78   19.08
   1  -7   0  242.59   19.08
   1  -7   0  232.28   19.03
  -1   7   0  221.41   18.88
  -1   7   0  255.21   18.42
   0  -7   0  152.20   11.80
   0  -7   0  141.32   11.82
   0  -7   0  150.08   11.19
   0   7   0  166.36   11.80
   0   7   0  152.84   11.38
   0   7   0  135.14   11.72
  -1  -7   0   45.00    3.35
  -1  -7   0   39.17    3.04
  -1  -7   0   41.00    3.49
  -1  -7   0   41.12    3.14
  -1  -7   0   40.61    3.48
  -1  -7   0   37.03    3.43
   1   7   0   36.11    3.15
   1   7   0   36.13    3.26
   1   7   0   42.24    3.31
  -2  -7   0  186.80   14.08
  -2  -7   0  190.62   14.42
  -2  -7   0  196.76   14.47
  -2  -7   0  186.47   14.01
  -2  -7   0  196.34   14.30
   2   7   0  165.56   14.07
  -3  -7   0  147.10   11.03
  -3  -7   0  145.96   11.40
  -3  -7   0  143.66   12.04
  -3  -7   0  155.70   11.33
  -3  -7   0  140.10   11.06
  -3  -7   0  146.13   11.47
  -4  -7   0   76.67    6.19
  -4  -7   0   76.35    5.73
  -4  -7   0   73.72    6.09
  -4  -7   0   73.53    5.73
  -4  -7   0   68.68    6.46
  -4  -7   0   79.61    6.04
  -5  -7   0  138.93   11.54
  -5  -7   0  143.17   11.32
  -5  -7   0  142.73   10.96
  -5  -7   0  149.79   10.98
  -5  -7   0  149.50   11.27
  -5  -7   0  144.98   11.42
  -6  -7   0   56.13    4.45
  -6  -7   0   53.30    4.11
  -6  -7   0   51.56    4.07
  -6  -7   0   47.96    4.28
  -6  -7   0   52.52    4.58
  -6  -7   0   50.46    4.41
  -7  -7   0   25.45    2.12
  -7  -7   0   23.97    2.20
   7  -8   0   70.02    7.02
   7  -8   0   53.97    6.55
   7  -8   0   55.10    4.70
  -7   8   0   64.04    5.37
   6  -8   0  149.42   12.05
   6  -8   0  117.01   11.70
   6  -8   0  117.59    9.87
  -6   8   0  147.17   12.15
  -6   8   0  119.08   10.49
   5  -8   0   93.23    8.25
   5  -8   0   75.79    8.00
   5  -8   0   77.61    6.45
  -5   8   0   94.09    8.37
  -5   8   0   82.59    6.74
   4  -8   0  112.93   10.96
   4  -8   0  138.99   11.16
  -4   8   0  140.57   11.33
  -4   8   0  113.29    9.81
   3  -8   0  268.09   23.34
   3  -8   0  324.75   23.50
  -3   8   0  293.08   22.35
   2  -8   0  250.98   18.43
   2  -8   0  214.75   18.38
  -2   8   0  222.92   17.21
  -2   8   0  234.76   17.52
   1  -8   0  132.32   11.81
  -1   8   0  171.18   12.36
   0  -8   0  393.12   34.37
   0  -8   0  459.79   34.33
   0   8   0  501.18   34.31
   0   8   0  449.36   33.82
  -1  -8   0  216.55   16.64
  -1  -8   0  242.05   16.99
  -1  -8   0  224.38   17.15
  -1  -8   0  226.77   16.76
  -1  -8   0  201.44   17.09
  -1  -8   0  237.57   17.17
   1   8   0  211.45   16.80
  -2  -8   0  209.83   17.26
  -2  -8   0  207.82   15.83
  -2  -8   0  228.07   16.18
  -2  -8   0  215.57   16.32
  -2  -8   0  222.37   16.36
  -2  -8   0  207.83   15.91
   2   8   0  188.77   15.93
  -3  -8   0  346.07   26.26
  -3  -8   0  331.96   27.05
  -3  -8   0  359.79   26.14
  -3  -8   0  329.35   25.85
  -3  -8   0  358.51   26.34
  -4  -8   0  127.30   10.03
  -4  -8   0  123.99    9.60
  -4  -8   0  127.82    9.57
  -4  -8   0  131.42   10.11
  -4  -8   0  130.72    9.92
  -4  -8   0  117.05   10.53
  -5  -8   0  100.32    7.80
  -5  -8   0  105.33    7.81
  -5  -8   0   98.17    8.54
  -5  -8   0  102.40    8.33
  -5  -8   0  107.08    8.33
  -5  -8   0   98.93    8.21
  -6  -8   0  109.79    8.23
  -6  -8   0  110.46    8.20
  -6  -8   0   98.91    8.58
  -6  -8   0  112.67    9.01
  -6  -8   0  102.93    8.61
  -6  -8   0  110.06    8.79
   6  -9   0   32.62    4.59
   6  -9   0   31.70    2.82
   6  -9   0   42.59    4.97
  -6   9   0   37.26    3.63
   5  -9   0   83.10    7.18
   5  -9   0  101.15    9.08
  -5   9   0  106.47   10.51
  -5   9   0   89.44    7.52
   4  -9   0   37.40    3.26
   4  -9   0   33.33    4.06
   4  -9   0   28.03    3.99
  -4   9   0   28.50    2.94
  -4   9   0   39.78    4.43
   3  -9   0   51.18    5.93
   3  -9   0   64.43    6.06
   3  -9   0   66.17    5.28
  -3   9   0   68.59    6.25
  -3   9   0   55.19    4.97
   2  -9   0  109.60   10.67
   2  -9   0  130.89   11.45
   2  -9   0  140.04   10.15
  -2   9   0  138.74   10.83
  -2   9   0  112.15    9.77
   1  -9   0   36.00    3.69
   1  -9   0   39.67    3.41
   1  -9   0   31.46    3.71
  -1   9   0   30.27    3.01
  -1   9   0   41.00    3.77
   0  -9   0   67.17    5.21
   0  -9   0   53.96    5.32
   0  -9   0   60.22    5.33
   0   9   0   60.34    4.81
  -1  -9   0   79.25    6.19
  -1  -9   0   77.04    6.16
  -1  -9   0   66.92    6.04
  -1  -9   0   69.60    5.54
  -1  -9   0   73.02    6.06
  -1  -9   0   81.10    5.93
   1   9   0   68.39    5.73
  -2  -9   0   15.31    2.63
  -2  -9   0   14.13    1.33
  -2  -9   0   18.49    2.00
  -2  -9   0   16.08    1.91
  -2  -9   0   17.13    1.74
  -2  -9   0   16.87    1.47
  -3  -9   0   60.70    4.88
  -3  -9   0   59.89    5.11
  -3  -9   0   58.26    4.49
  -3  -9   0   53.99    5.89
  -3  -9   0   56.93    4.56
  -3  -9   0   59.44    5.06
  -4  -9   0   70.46    6.93
  -4  -9   0   74.24    5.79
  -4  -9   0   81.01    6.22
  -4  -9   0   75.74    5.84
  -4  -9   0   76.21    6.36
  -4  -9   0   74.40    6.38
  -5  -9   0   17.68    2.06
  -5  -9   0   14.92    1.40
  -5  -9   0   14.58    1.76
  -5  -9   0   13.64    2.13
  -5  -9   0   14.68    1.39
   4 -10   0  123.46   11.92
   4 -10   0  128.53    9.46
   4 -10   0  101.90   10.44
  -4  10   0  107.72    9.11
   3 -10   0   59.67    6.03
   3 -10   0   62.09    5.25
  -3  10   0   51.43    4.98
  -3  10   0   64.45    7.89
   2 -10   0  140.91   11.70
   2 -10   0  118.50   11.68
   2 -10   0  150.16   11.10
  -2  10   0  129.21   10.72
  -2  10   0  150.55   11.81
   1 -10   0  139.04   12.87
   1 -10   0  161.15   13.08
   1 -10   0  174.69   12.52
  -1  10   0  153.37   12.09
   0 -10   0  118.85    9.91
   0 -10   0  126.12    9.76
   0 -10   0  100.47    9.83
   0 -10   0  129.95    9.77
   0 -10   0  120.59    9.39
   0  10   0  114.62    9.32
   0  10   0  131.96    9.77
  -1 -10   0  234.24   16.75
  -1 -10   0  227.09   16.74
  -1 -10   0  190.35   16.45
  -1 -10   0  205.64   16.48
  -1 -10   0  230.25   16.41
   1  10   0  198.95   16.23
  -2 -10   0  194.19   14.70
  -2 -10   0  200.89   14.73
  -2 -10   0  198.47   14.41
  -2 -10   0  166.03   15.68
  -2 -10   0  174.46   13.98
  -3 -10   0  116.14   11.08
  -3 -10   0  125.81   10.19
  -3 -10   0  127.42    9.62
  -3 -10   0  131.63    9.98
  -3 -10   0  121.78    9.51
  -3 -10   0  132.35   10.25
  -4 -10   0  244.62   18.44
  -4 -10   0  263.07   18.90
  -4 -10   0  230.58   19.84
  -4 -10   0  244.10   18.50
  -4 -10   0  244.62   19.72
   2 -11   0   31.02    4.06
   2 -11   0   39.85    4.19
  -2  11   0   32.95    3.13
   1 -11   0  104.56    8.57
   1 -11   0  100.25    7.65
   1 -11   0   87.44    8.50
  -1  11   0   93.27    7.68
   0 -11   0   63.75    6.59
   0 -11   0   69.51    5.69
   0 -11   0   72.54    6.30
   0  11   0   76.89    5.94
   0  11   0   65.58    5.74
  -1 -11   0   70.07    5.26
  -1 -11   0   54.96    6.67
   1  11   0   63.77    5.11
  -2 -11   0  116.58    8.57
  -2 -11   0   94.46    9.64
  -2 -11   0   98.26    7.71
   0  11  -1  139.54   10.48
   0 -11   1  128.71   12.56
  -1  11  -1   75.52    6.24
   1 -11   1   70.10    8.20
   1 -11   1   85.99    7.02
   1 -11   1   84.10    6.14
   1 -11   1   67.21    6.91
  -3 -10   1   78.25    6.20
  -3 -10   1   76.38    5.89
  -3 -10   1   72.07    7.47
  -3 -10   1   73.01    5.76
  -2 -10   1   65.60    5.01
  -2 -10   1   55.76    6.53
  -2 -10   1   67.14    5.23
  -2 -10   1   68.94    5.60
  -2 -10   1   58.64    4.82
   1  10  -1   26.27    2.36
  -1 -10   1   27.59    2.45
  -1 -10   1   28.86    2.85
  -1 -10   1   21.01    3.60
  -1 -10   1   27.95    2.85
   0  10  -1   90.38    7.61
   0 -10   1  103.31    7.66
   0 -10   1   82.84    9.30
   0 -10   1  101.27    8.09
   0 -10   1  109.78    8.13
   0 -10   1  108.08    8.16
   0 -10   1   86.29    8.06
  -1  10  -1   86.73    7.28
  -1  10  -1   98.36    7.90
   1 -10   1   93.86    7.96
   1 -10   1   79.26    8.00
   1 -10   1   92.16    7.23
   1 -10   1  101.62    7.76
  -2  10  -1   49.28    4.69
  -2  10  -1   58.37    5.53
   2 -10   1   58.13    5.54
   2 -10   1   52.13    4.46
   2 -10   1   60.04    5.05
  -3  10  -1   77.54    6.55
   3 -10   1   70.47    7.70
   3 -10   1   90.67    6.97
   3 -10   1   85.21    6.33
  -4  10  -1   66.90    5.74
   4 -10   1   61.67    7.10
   4 -10   1   79.50    7.20
  -5  -9   1  164.79   12.26
  -5  -9   1  143.62   13.24
  -5  -9   1  176.37   12.48
  -5  -9   1  162.68   12.80
  -4  -9   1  147.75   10.81
  -4  -9   1  134.54   10.46
  -4  -9   1  134.96   10.95
  -4  -9   1  135.66   10.40
  -4  -9   1  131.13   11.79
  -4  -9   1  138.19   11.01
  -3  -9   1  140.24   10.82
  -3  -9   1  150.91   11.10
  -3  -9   1  128.57   12.18
  -3  -9   1  140.57   10.73
  -3  -9   1  152.49   12.19
  -2  -9   1  259.31   21.11
  -2  -9   1  281.69   21.24
  -2  -9   1  260.74   22.85
  -2  -9   1  301.68   21.79
  -2  -9   1  296.20   21.76
  -2  -9   1  294.70   21.47
   1   9  -1  223.06   18.25
  -1  -9   1  211.90   19.81
  -1  -9   1  247.43   18.23
  -1  -9   1  226.55   18.06
  -1  -9   1  266.93   18.75
  -1  -9   1  259.16   18.74
  -1  -9   1  256.47   18.39
   0   9  -1  206.07   17.03
   0   9  -1  241.71   17.61
   0  -9   1  240.04   17.46
   0  -9   1  233.31   17.09
   0  -9   1  215.08   17.43
   0  -9   1  245.88   17.48
   0  -9   1  191.66   17.51
  -1   9  -1  333.23   26.59
  -1   9  -1  376.57   27.24
   1  -9   1  352.52   27.81
   1  -9   1  387.14   27.00
   1  -9   1  365.26   26.55
   1  -9   1  300.57   27.31
  -2   9  -1  231.70   17.30
  -2   9  -1  191.60   16.26
   2  -9   1  234.33   16.65
   2  -9   1  183.54   17.22
   2  -9   1  217.03   16.17
   2  -9   1  220.92   17.17
  -3   9  -1  136.74   11.99
  -3   9  -1  167.59   13.32
   3  -9   1  134.11   13.13
   3  -9   1  163.54   13.14
   3  -9   1  175.65   12.39
  -4   9  -1  149.07   13.23
  -4   9  -1  189.79   14.92
   4  -9   1  179.40   14.62
   4  -9   1  149.62   14.59
   4  -9   1  191.61   13.62
  -5   9  -1   70.59    6.18
   5  -9   1   88.77    7.90
   5  -9   1   67.33    7.66
   5  -9   1   86.73    6.72
   5  -9   1   70.43    5.80
  -6  -8   1   19.60    2.40
  -6  -8   1   23.38    2.53
  -6  -8   1   20.82    1.87
  -6  -8   1   21.13    2.26
  -5  -8   1   44.23    4.66
  -5  -8   1   49.31    3.86
  -5  -8   1   48.53    4.28
  -5  -8   1   46.32    4.56
  -5  -8   1   53.19    4.23
  -5  -8   1   49.02    3.87
  -4  -8   1  129.28    9.76
  -4  -8   1  132.62   10.10
  -4  -8   1  135.05    9.83
  -4  -8   1  130.25   10.23
  -4  -8   1  115.29   10.78
  -4  -8   1  129.59   10.29
  -3  -8   1   92.01    7.03
  -3  -8   1   84.74    8.25
  -3  -8   1   95.52    7.11
  -3  -8   1   94.14    7.53
  -3  -8   1   93.24    7.57
  -3  -8   1   93.96    7.34
  -2  -8   1   65.05    5.31
  -2  -8   1   74.21    5.63
  -2  -8   1   70.27    5.84
  -2  -8   1   63.99    6.70
  -2  -8   1   70.91    5.42
  -2  -8   1   73.54    5.85
   1   8  -1  128.28   10.35
  -1  -8   1  133.18   10.31
  -1  -8   1  141.06   10.73
  -1  -8   1  145.47   10.49
  -1  -8   1  126.00   10.18
  -1  -8   1  140.28   10.73
   0   8  -1   43.50    3.68
   0   8  -1   41.00    3.39
   0  -8   1   41.26    3.74
   0  -8   1   43.75    3.44
   0  -8   1   39.52    3.31
   0  -8   1   38.47    3.86
  -1   8  -1   90.32    6.80
  -1   8  -1   87.13    7.04
   1  -8   1   93.15    7.63
   1  -8   1   81.60    7.73
   1  -8   1   98.34    7.04
  -2   8  -1   86.67    7.02
  -2   8  -1   93.45    6.75
  -2   8  -1   94.48    7.95
   2  -8   1   94.60    7.84
   2  -8   1   77.23    7.82
  -3   8  -1    7.54    0.69
  -3   8  -1    8.78    1.04
   3  -8   1    7.47    1.76
   3  -8   1    7.13    1.63
  -4   8  -1   13.63    2.38
  -4   8  -1   10.46    1.33
   4  -8   1   11.00    2.25
   4  -8   1   14.43    1.85
  -5   8  -1   84.88    7.29
  -5   8  -1  100.67    8.95
   5  -8   1  103.62    7.59
   5  -8   1   99.98    8.76
   5  -8   1   85.98    7.00
   5  -8   1   79.61    8.60
  -6   8  -1   32.91    2.97
  -6   8  -1   36.99    4.58
   6  -8   1   29.67    4.40
   6  -8   1   30.80    2.62
   6  -8   1   35.94    4.44
  -7  -7   1  108.92    8.40
  -6  -7   1  158.69   13.82
  -6  -7   1  183.33   13.42
  -6  -7   1  170.45   13.71
  -6  -7   1  184.58   13.73
  -6  -7   1  188.75   14.39
  -6  -7   1  178.55   13.41
  -5  -7   1   75.74    7.09
  -5  -7   1   84.01    6.40
  -5  -7   1   84.86    6.87
  -5  -7   1   84.77    6.43
  -5  -7   1   84.64    6.77
  -5  -7   1   84.88    6.70
  -4  -7   1  166.04   12.29
  -4  -7   1  144.76   12.87
  -4  -7   1  157.91   12.37
  -4  -7   1  170.17   12.49
  -4  -7   1  156.84   11.99
  -4  -7   1  158.31   12.03
  -3  -7   1  240.13   18.29
  -3  -7   1  253.07   18.71
  -3  -7   1  235.03   18.34
  -3  -7   1  252.56   18.76
  -3  -7   1  233.31   19.40
  -3  -7   1  249.71   18.56
  -2  -7   1  184.85   15.60
  -2  -7   1  188.73   14.39
  -2  -7   1  196.54   14.57
  -2  -7   1  193.40   14.75
  -2  -7   1  189.17   14.31
  -2  -7   1  191.93   14.73
   1   7  -1  282.10   22.57
  -1  -7   1  320.08   22.91
  -1  -7   1  302.28   22.45
  -1  -7   1  288.50   23.88
  -1  -7   1  289.98   22.74
  -1  -7   1  269.69   22.63
  -1  -7   1  327.27   22.93
  -1  -7   1  325.54   22.71
   0   7  -1  323.36   25.07
   0   7  -1  353.16   25.38
   0   7  -1  298.34   25.31
   0  -7   1  371.30   25.15
   0  -7   1  316.58   25.55
   0  -7   1  347.59   25.04
   0  -7   1  327.33   25.63
  -1   7  -1  126.23    9.54
  -1   7  -1  137.09   10.32
  -1   7  -1  125.72    9.74
   1  -7   1  132.73   10.00
   1  -7   1  128.78   10.29
   1  -7   1  112.22   10.34
  -2   7  -1  445.73   31.78
   2  -7   1  429.12   33.49
   2  -7   1  455.45   32.24
   2  -7   1  373.81   33.34
  -3   7  -1  457.19   37.86
  -3   7  -1  547.74   37.65
   3  -7   1  528.05   38.88
   3  -7   1  439.43   38.85
   3  -7   1  551.47   38.12
  -4   7  -1  240.21   18.82
  -4   7  -1  203.13   17.49
  -4   7  -1  251.12   17.28
   4  -7   1  241.28   17.70
   4  -7   1  199.41   18.63
   4  -7   1  247.77   18.74
  -5   7  -1  260.46   18.43
  -5   7  -1  265.21   20.27
  -5   7  -1  224.38   18.65
   5  -7   1  277.54   18.90
   5  -7   1  215.55   19.97
   5  -7   1  219.07   18.41
   5  -7   1  260.09   20.11
  -6   7  -1  268.03   20.30
  -6   7  -1  228.80   18.40
   6  -7   1  215.75   19.94
   6  -7   1  274.42   20.24
   6  -7   1  224.75   18.16
  -7   7  -1   62.66    5.13
  -7   7  -1   68.69    7.00
   7  -7   1   58.31    4.88
   7  -7   1   70.95    6.98
   7  -7   1   54.99    6.74
   7   6  -1    4.29    1.26
  -7  -6   1    3.90    0.70
  -7  -6   1    4.00    0.76
  -6  -6   1   51.01    4.72
  -6  -6   1   54.24    4.58
  -6  -6   1   55.47    4.69
  -6  -6   1   55.72    4.30
  -6  -6   1   54.74    4.29
  -5  -6   1   35.18    3.64
  -5  -6   1   42.42    3.42
  -5  -6   1   41.78    3.17
  -5  -6   1   40.98    3.15
  -5  -6   1   37.15    3.52
  -4  -6   1   60.64    4.89
  -4  -6   1   55.49    5.29
  -4  -6   1   59.99    4.58
  -4  -6   1   59.88    4.97
  -4  -6   1   59.07    4.81
  -4  -6   1   59.56    4.62
  -3  -6   1  200.77   16.53
  -3  -6   1  211.17   15.62
  -3  -6   1  206.28   15.94
  -3  -6   1  213.93   15.85
  -3  -6   1  214.18   16.05
  -3  -6   1  202.88   15.66
  -2  -6   1  272.85   20.15
  -2  -6   1  270.09   20.01
  -2  -6   1  277.13   20.19
  -2  -6   1  256.92   19.80
  -2  -6   1  259.12   19.86
  -2  -6   1  252.87   20.85
   1   6  -1   60.72    5.11
  -1  -6   1   67.83    5.11
  -1  -6   1   66.65    5.37
  -1  -6   1   70.82    5.24
  -1  -6   1   62.50    5.24
  -1  -6   1   70.36    5.40
  -1  -6   1   65.81    5.02
  -1  -6   1   66.01    6.16
   0   6  -1  386.10   33.81
   0   6  -1  439.35   33.20
   0   6  -1  439.94   33.33
   0   6  -1  463.80   33.61
   0  -6   1  511.01   33.42
   0  -6   1  406.83   33.71
   0  -6   1  436.45   33.19
   0  -6   1  457.47   33.30
   0  -6   1  476.08   33.58
   0  -6   1  439.47   33.63
  -1   6  -1  337.03   25.55
  -1   6  -1  340.38   24.91
  -1   6  -1  329.37   25.07
   1  -6   1  341.76   25.58
   1  -6   1  352.51   25.28
   1  -6   1  302.93   25.64
  -2   6  -1  143.13    9.93
  -2   6  -1  121.19   10.08
  -2   6  -1  135.12   10.82
   2  -6   1  118.47   10.81
   2  -6   1  140.03   10.29
   2  -6   1  135.21   10.76
  -3   6  -1  183.54   16.16
  -3   6  -1  224.58   15.31
  -3   6  -1  212.89   16.46
  -3   6  -1  196.47   15.48
   3  -6   1  210.67   16.35
   3  -6   1  222.46   15.68
   3  -6   1  180.65   16.36
  -4   6  -1   87.73    7.07
  -4   6  -1   83.01    7.97
  -4   6  -1  102.50    8.33
   4  -6   1  101.40    7.26
   4  -6   1   94.57    8.09
   4  -6   1   80.72    8.17
   4  -6   1   86.91    6.87
  -5   6  -1    9.58    1.13
  -5   6  -1   10.30    1.96
  -5   6  -1   12.17    2.24
   5  -6   1   11.55    2.10
   5  -6   1    9.48    0.93
   5  -6   1   10.25    2.12
   5  -6   1   10.97    1.27
  -6   6  -1   81.22    7.83
  -6   6  -1   98.80    8.40
  -6   6  -1   80.77    6.67
   6  -6   1   76.63    8.04
   6  -6   1   92.70    8.18
   6  -6   1   80.47    6.49
  -7   6  -1   46.08    5.12
  -7   6  -1   38.38    4.62
  -7   6  -1   38.79    3.38
   7  -6   1   44.42    5.06
   7  -6   1   36.59    3.21
   7  -6   1   37.94    4.95
  -8   6  -1   17.51    3.16
  -8   6  -1   17.09    1.75
  -8   6  -1   20.07    3.40
   8  -6   1   14.50    1.56
   8  -6   1   17.14    3.26
   8  -6   1   20.27    3.42
   8   5  -1   85.21    8.07
  -8  -5   1   93.95    8.11
  -8  -5   1   91.89    7.87
  -8  -5   1  105.73    7.35
   7   5  -1  120.64   11.21
  -7  -5   1  134.11   11.02
  -7  -5   1  151.57   10.66
  -7  -5   1  131.38   10.94
  -7  -5   1  152.68   10.65
  -7  -5   1  146.67   10.90
   6   5  -1  176.79   16.13
  -6  -5   1  221.31   15.68
  -6  -5   1  217.27   16.05
  -6  -5   1  188.45   15.88
  -6  -5   1  206.57   15.85
  -6  -5   1  222.04   15.93
  -6  -5   1  222.65   15.69
   5   5  -1  411.87   36.16
  -5  -5   1  452.73   36.23
  -5  -5   1  505.85   35.79
  -5  -5   1  488.64   36.12
  -5  -5   1  495.59   36.01
  -5  -5   1  503.88   35.80
  -5  -5   1  491.58   35.99
  -4  -5   1  326.55   24.70
  -4  -5   1  320.06   24.48
  -4  -5   1  307.14   25.05
  -4  -5   1  332.80   24.79
  -4  -5   1  348.91   24.69
  -3  -5   1  453.99   34.65
  -3  -5   1  468.87   34.61
  -3  -5   1  456.62   34.45
  -3  -5   1  474.46   34.74
  -3  -5   1  442.57   35.14
  -3  -5   1  470.70   34.42
   1   5  -1  514.75   43.28
  -1  -5   1  594.90   43.51
  -1  -5   1  609.22   43.39
  -1  -5   1  604.04   43.53
  -1  -5   1  578.64   43.29
   0   5  -1  190.46   14.54
   0   5  -1  197.89   14.78
   0   5  -1  167.62   14.71
   0   5  -1  192.70   14.44
   0  -5   1  195.00   14.44
   0  -5   1  193.43   14.52
   0  -5   1  199.18   14.73
   0  -5   1  192.37   14.79
   0  -5   1  184.80   14.88
   0  -5   1  220.26   14.61
  -1   5  -1  489.98   42.64
  -1   5  -1  599.03   42.34
  -1   5  -1  631.01   42.21
   1  -5   1  547.56   42.87
  -2   5  -1  253.31   18.82
  -2   5  -1  254.96   17.99
  -2   5  -1  229.43   18.12
   2  -5   1  219.61   18.79
   2  -5   1  241.28   18.71
   2  -5   1  246.22   18.27
  -3   5  -1  300.37   23.16
  -3   5  -1  330.50   24.09
  -3   5  -1  275.75   23.78
   3  -5   1  292.42   24.04
   3  -5   1  316.15   23.95
   3  -5   1  334.94   23.31
  -4   5  -1  549.31   39.16
  -4   5  -1  459.25   37.98
  -4   5  -1  464.80   38.79
   4  -5   1  506.46   37.86
   4  -5   1  564.92   38.14
   4  -5   1  530.05   39.01
   4  -5   1  478.36   39.06
  -5   5  -1  258.27   22.85
  -5   5  -1  328.16   23.69
   5  -5   1  275.00   21.81
   5  -5   1  326.16   22.09
   5  -5   1  263.81   23.15
   5  -5   1  298.93   23.14
  -6   5  -1  212.52   16.54
  -6   5  -1  243.64   18.18
  -6   5  -1  210.58   17.68
   6  -5   1  243.54   18.07
   6  -5   1  188.56   18.13
   6  -5   1  210.81   16.42
  -7   5  -1  299.72   23.88
  -7   5  -1  300.66   25.20
  -7   5  -1  362.24   25.90
   7  -5   1  296.60   25.58
   7  -5   1  359.37   25.78
   7  -5   1  283.88   23.77
  -8   5  -1   91.56    8.39
  -8   5  -1   80.86    6.34
  -8   5  -1   77.14    7.79
   8  -5   1   71.00    6.23
   8  -5   1   74.74    8.14
   8  -5   1   86.43    8.29
   8   4  -1   39.96    3.99
   8   4  -1   34.54    3.80
  -8  -4   1   35.66    3.71
  -8  -4   1   38.74    3.95
   7   4  -1  101.56    9.47
   7   4  -1  120.63    9.61
  -7  -4   1  125.62    9.15
  -7  -4   1  114.91    9.59
  -7  -4   1  107.86    9.39
  -7  -4   1  127.59    8.94
   6   4  -1   23.37    2.61
   6   4  -1   23.61    2.48
  -6  -4   1   23.89    2.44
  -6  -4   1   26.24    2.10
  -6  -4   1   26.36    2.20
  -6  -4   1   25.31    2.58
   5   4  -1  145.75   12.65
   5   4  -1  164.89   12.60
   5   4  -1  160.66   12.52
  -5  -4   1  157.52   12.59
  -5  -4   1  170.92   12.48
  -5  -4   1  164.86   12.55
  -5  -4   1  168.71   12.42
  -5  -4   1  146.37   12.49
  -5  -4   1  176.22   12.30
  -5  -4   1  154.15   12.63
  -5  -4   1  180.91   12.30
   4   4  -1  159.79   14.40
  -4  -4   1  193.17   14.41
  -4  -4   1  177.26   14.62
  -4  -4   1  199.38   14.14
  -4  -4   1  193.29   14.31
  -4  -4   1  197.12   14.31
  -4  -4   1  196.18   14.15
   3   4  -1   20.82    2.11
  -3  -4   1   23.66    2.13
  -3  -4   1   24.45    2.06
  -3  -4   1   22.46    2.01
  -3  -4   1   24.82    1.88
  -3  -4   1   23.07    2.38
  -3  -4   1   24.42    1.90
  -2  -4   1   29.03    2.29
  -2  -4   1   28.64    2.85
  -2  -4   1   29.70    2.51
  -2  -4   1   29.13    2.26
  -2  -4   1   27.41    2.39
  -2  -4   1   30.15    2.47
   1   4  -1  418.76   33.67
   1   4  -1  434.46   33.63
  -1  -4   1  479.02   33.77
  -1  -4   1  453.72   33.63
  -1  -4   1  453.66   33.68
  -1  -4   1  428.29   34.36
  -1  -4   1  470.76   33.87
  -1  -4   1  472.56   33.86
   0   4  -1   10.94    0.89
   0   4  -1   10.96    1.13
   0   4  -1   11.18    0.97
   0   4  -1   11.99    1.15
   0  -4   1   10.23    1.13
   0  -4   1   11.14    1.22
   0  -4   1   12.00    1.01
   0  -4   1   10.43    1.09
   0  -4   1   10.58    0.88
   0  -4   1   10.80    0.95
  -1   4  -1  274.96   19.27
  -1   4  -1  259.78   19.75
  -1   4  -1  244.50   19.35
   1  -4   1  269.65   19.50
   1  -4   1  241.88   19.81
   1  -4   1  258.81   19.34
  -2   4  -1  696.77   51.91
  -3   4  -1  367.78   26.42
  -3   4  -1  300.78   26.12
  -3   4  -1  320.52   25.56
   3  -4   1  364.07   26.32
   3  -4   1  327.59   26.38
   3  -4   1  366.56   25.68
  -4   4  -1  304.63   21.72
  -4   4  -1  247.33   21.33
  -4   4  -1  263.59   20.62
   4  -4   1  293.23   20.71
   4  -4   1  249.57   21.55
   4  -4   1  288.42   21.56
  -5   4  -1  191.23   14.75
  -5   4  -1  167.18   14.39
   5  -4   1  192.85   13.59
   5  -4   1  162.37   14.62
   5  -4   1  167.28   13.42
   5  -4   1  190.12   14.65
  -6   4  -1    8.41    1.80
  -6   4  -1   10.26    2.04
   6  -4   1    8.73    1.95
   6  -4   1   11.24    2.06
   6  -4   1    9.54    0.95
  -7   4  -1   51.78    5.47
  -7   4  -1   58.76    5.92
   7  -4   1   61.55    5.93
   7  -4   1   49.77    5.74
   7  -4   1   49.47    4.27
  -8   4  -1   50.12    5.57
  -8   4  -1   62.12    6.22
   8  -4   1   48.35    4.21
   8  -4   1   49.60    5.95
   8  -4   1   52.89    5.87
  -9   4  -1    4.72    1.73
  -9   4  -1    4.70    1.65
   9  -4   1    3.92    1.65
   9  -4   1    4.86    1.77
   9  -4   1    5.80    0.81
  -9  -3   1   58.72    5.79
  -9  -3   1   62.50    6.39
   8   3  -1   34.50    3.91
   8   3  -1   42.61    4.32
  -8  -3   1   35.07    3.90
  -8  -3   1   43.28    3.50
  -8  -3   1   41.14    3.27
  -8  -3   1   40.50    4.29
   7   3  -1  154.73   13.22
   7   3  -1  176.76   13.78
   7   3  -1  153.91   13.47
  -7  -3   1  155.43   13.48
  -7  -3   1  174.33   13.79
  -7  -3   1  197.13   13.30
  -7  -3   1  181.47   13.08
   6   3  -1  252.57   20.78
   6   3  -1  270.68   20.62
   6   3  -1  276.75   20.95
  -6  -3   1  292.43   21.06
  -6  -3   1  255.91   20.77
   5   3  -1   99.15    8.56
   5   3  -1  109.98    8.80
   5   3  -1  103.16    8.44
   5   3  -1  105.43    8.62
  -5  -3   1  103.54    8.49
  -5  -3   1  112.25    8.71
  -5  -3   1  113.96    8.26
  -5  -3   1  105.84    8.47
  -5  -3   1  123.42    8.31
  -5  -3   1  100.93    8.52
   4   3  -1  536.01   40.59
   4   3  -1  501.46   40.60
   4   3  -1  509.15   40.53
   4   3  -1  550.96   40.69
  -4  -3   1  483.93   40.52
  -4  -3   1  587.49   40.48
  -4  -3   1  565.76   40.55
  -4  -3   1  515.35   40.68
  -4  -3   1  582.03   40.32
  -4  -3   1  572.49   40.43
   3   3  -1  699.12   52.33
   2   3  -1  481.00   38.83
  -2  -3   1  556.86   38.86
  -3   3  -1  278.27   23.30
  -3   3  -1  324.94   23.54
  -3   3  -1  291.19   22.78
   3  -3   1  293.89   23.52
   3  -3   1  305.93   23.46
   3  -3   1  307.50   22.70
   3  -3   1  327.56   22.86
  -4   3  -1  214.26   16.10
  -4   3  -1  180.17   15.77
   4  -3   1  207.17   15.95
   4  -3   1  221.60   15.19
   4  -3   1  181.93   15.98
  -5   3  -1  426.32   31.36
  -5   3  -1  370.85   31.00
   5  -3   1  377.31   31.28
   5  -3   1  416.50   31.24
   5  -3   1  442.82   30.22
   5  -3   1  385.45   30.15
  -6   3  -1  301.19   21.73
  -6   3  -1  248.46   21.22
   6  -3   1  250.73   20.25
   6  -3   1  248.41   21.51
   6  -3   1  299.60   21.64
  -7   3  -1   93.39    8.10
  -7   3  -1   79.32    7.63
   7  -3   1   91.84    8.04
   7  -3   1   79.91    8.00
   7  -3   1   77.36    6.53
  -8   3  -1  172.50   15.26
  -8   3  -1  205.14   17.32
   8  -3   1  169.70   15.65
   8  -3   1  167.75   13.97
   8  -3   1  205.50   15.88
  -9   3  -1  111.95   10.58
  -9   3  -1  128.57   11.22
   9  -3   1  130.58   11.30
   9  -3   1  101.76    9.13
   9   2  -1   41.63    4.45
  -9  -2   1   42.24    4.58
  -9  -2   1   46.62    5.05
   8   2  -1   47.58    4.43
   8   2  -1   54.94    5.28
   8   2  -1   44.67    4.72
  -8  -2   1   47.14    4.87
  -8  -2   1   49.84    4.37
  -8  -2   1   51.83    5.26
  -8  -2   1   57.52    4.10
   7   2  -1   14.17    1.93
   7   2  -1   14.23    1.66
   7   2  -1   15.63    2.20
  -7  -2   1   14.81    1.51
  -7  -2   1   14.79    2.23
  -7  -2   1   15.45    1.38
  -7  -2   1   12.32    1.93
   6   2  -1  310.68   22.55
   6   2  -1  269.89   22.13
   6   2  -1  257.01   22.08
  -6  -2   1  318.58   21.84
  -6  -2   1  314.86   22.61
  -6  -2   1  258.35   22.57
   5   2  -1  210.68   15.67
   5   2  -1  192.42   15.55
   5   2  -1  209.75   15.94
   5   2  -1  199.42   15.72
   5   2  -1  201.56   16.06
  -5  -2   1  215.45   16.02
  -5  -2   1  208.93   15.47
  -5  -2   1  203.75   15.33
  -5  -2   1  193.09   15.79
   4   2  -1  184.46   14.03
   4   2  -1  181.03   14.11
   4   2  -1  187.24   13.97
   4   2  -1  175.48   13.89
  -4  -2   1  195.24   13.74
  -4  -2   1  168.06   13.92
  -4  -2   1  171.78   13.93
  -4  -2   1  186.09   14.06
   3   2  -1  291.09   22.30
   3   2  -1  289.35   22.27
   3   2  -1  304.56   22.44
   3   2  -1  285.01   22.20
   3   2  -1  289.82   22.35
  -3  -2   1  308.16   22.20
  -3  -2   1  299.38   22.16
  -3  -2   1  288.59   22.32
  -3  -2   1  312.74   22.23
  -3  -2   1  292.44   22.40
  -3  -2   1  310.44   22.06
  -3  -2   1  272.78   22.26
  -2  -2   1  370.90   27.78
   1   2  -1  107.39    8.54
   1   2  -1  109.12    8.62
  -1  -2   1  116.17    8.54
  -1  -2   1  119.99    8.66
  -1  -2   1  117.43    8.61
  -1  -2   1  114.05    8.56
  -1  -2   1  115.23    8.93
  -1   2  -1   84.53    6.02
  -1   2  -1   79.85    6.32
   1  -2   1   81.67    6.01
   1  -2   1   76.04    6.25
   1  -2   1   77.02    6.35
  -2   2  -1   79.89    6.36
  -2   2  -1   80.56    5.88
  -2   2  -1   71.38    6.22
   2  -2   1   82.10    5.82
   2  -2   1   74.17    6.25
  -4   2  -1  263.74   19.43
  -4   2  -1  219.97   19.13
   4  -2   1  239.34   19.43
   4  -2   1  254.30   19.31
   4  -2   1  256.59   18.55
   4  -2   1  251.20   18.57
  -5   2  -1   44.34    4.52
  -5   2  -1   51.48    4.83
   5  -2   1   51.77    3.82
   5  -2   1   47.15    4.79
   5  -2   1   50.40    4.73
   5  -2   1   49.60    3.86
  -6   2  -1  201.85   15.18
  -6   2  -1  167.00   14.72
   6  -2   1  192.55   13.77
   6  -2   1  174.19   13.88
   6  -2   1  194.67   15.08
   6  -2   1  170.34   15.04
  -7   2  -1   92.24    7.88
  -7   2  -1   74.55    7.58
   7  -2   1   76.10    7.72
   7  -2   1   76.62    6.41
   7  -2   1   91.71    7.84
  -8   2  -1   25.20    3.43
  -8   2  -1   29.39    3.84
   8  -2   1   25.22    3.76
   8  -2   1   30.92    3.89
  -9   2  -1   33.97    4.42
  -9   2  -1   31.55    3.99
   9  -2   1   28.20    2.77
   9  -2   1   31.45    3.44
   9   1  -1   78.17    7.04
   9   1  -1   82.50    7.58
  -9  -1   1   79.78    7.74
  -9  -1   1  100.07    8.55
   8   1  -1  208.23   17.61
   8   1  -1  199.24   17.13
  -8  -1   1  244.77   18.50
  -8  -1   1  242.95   17.06
  -8  -1   1  218.74   17.91
   7   1  -1  129.86   10.47
   7   1  -1  134.67   10.85
  -7  -1   1  148.99   11.53
  -7  -1   1  122.87   10.99
   6   1  -1  143.99   12.37
   6   1  -1  152.31   12.15
  -6  -1   1  169.27   12.07
  -6  -1   1  170.92   12.97
  -6  -1   1  150.80   12.63
   5   1  -1  562.21   39.53
   5   1  -1  510.08   39.17
   5   1  -1  531.44   39.71
   5   1  -1  500.08   39.35
  -5  -1   1  544.16   39.79
  -5  -1   1  456.93   39.50
  -5  -1   1  549.82   39.11
   4   1  -1  217.59   16.54
   4   1  -1  214.30   16.17
   4   1  -1  202.96   16.55
   4   1  -1  212.30   16.29
   4   1  -1  233.66   16.50
  -4  -1   1  202.13   16.43
  -4  -1   1  224.14   16.12
  -4  -1   1  222.45   15.98
  -4  -1   1  192.98   16.30
   3   1  -1  362.66   26.72
   3   1  -1  340.61   26.89
   3   1  -1  390.10   26.96
  -3  -1   1  365.41   26.61
  -3  -1   1  353.16   26.52
  -3  -1   1  320.76   26.83
  -5   1  -1  400.18   28.85
  -5   1  -1  418.32   27.89
  -5   1  -1  323.36   28.47
   5  -1   1  346.96   27.88
   5  -1   1  393.92   27.76
   5  -1   1  349.41   28.81
   5  -1   1  373.01   28.70
  -6   1  -1  172.14   11.86
  -6   1  -1  166.26   13.00
  -6   1  -1  138.64   12.57
   6  -1   1  144.04   12.95
   6  -1   1  166.28   12.92
   6  -1   1  148.57   11.87
  -7   1  -1  213.01   16.10
  -7   1  -1  185.40   17.06
   7  -1   1  206.99   16.02
   7  -1   1  183.52   16.01
   7  -1   1  177.93   14.71
  -8   1  -1   99.31    8.70
  -8   1  -1   85.50    8.18
   8  -1   1   81.96    7.15
   8  -1   1   84.01    7.68
   8  -1   1  103.35    8.76
  -9   1  -1   81.96    7.65
  -9   1  -1   66.51    6.99
   9  -1   1   64.12    5.88
   9  -1   1   73.53    6.60
   9  -1   1   79.77    7.65
   9   0  -1    6.27    1.54
   9   0  -1    5.24    1.11
  -9   0   1    4.03    1.56
  -9   0   1    2.99    1.20
   8   0  -1   14.73    1.66
   8   0  -1   16.04    2.15
   8   0  -1   15.07    2.64
  -8   0   1   13.97    2.29
  -8   0   1   14.14    2.63
   7   0  -1   65.80    5.59
   7   0  -1   67.77    6.09
  -7   0   1   66.63    6.30
  -7   0   1   76.21    6.75
   6   0  -1    4.45    1.28
   6   0  -1    2.55    0.79
   6   0  -1    5.53    1.33
   6   0  -1    3.98    0.72
  -6   0   1    4.08    1.12
  -6   0   1    4.70    1.34
   5   0  -1   90.94    7.40
   5   0  -1   88.50    7.18
   5   0  -1   82.99    7.74
   5   0  -1  102.80    7.89
   5   0  -1   95.75    7.84
  -5   0   1   80.54    7.61
  -5   0   1   95.28    7.90
  -5   0   1  102.71    7.15
   4   0  -1  208.81   15.62
   4   0  -1  198.65   15.10
   4   0  -1  200.48   15.25
   4   0  -1  186.81   15.56
  -4   0   1  216.54   15.08
  -4   0   1  179.37   15.45
  -4   0   1  207.92   15.68
   3   0  -1  412.60   30.82
   3   0  -1  398.27   30.43
   2   0  -1   -0.01    0.03
  -2   0  -1   54.02    3.91
  -2   0  -1   48.17    4.16
   2   0   1   51.43    3.91
   2   0   1   52.22    4.20
  -3   0  -1   82.60    6.10
  -3   0  -1   82.60    6.60
  -3   0  -1   70.63    6.40
   3   0   1   82.69    6.11
   3   0   1   81.23    6.65
   3   0   1   82.07    6.51
  -4   0  -1  168.13   11.44
  -4   0  -1  136.80   11.85
  -4   0  -1  157.07   12.09
   4   0   1  151.21   11.99
   4   0   1  148.48   11.45
   4   0   1  146.88   12.15
  -5   0  -1  368.63   25.92
  -5   0  -1  306.90   26.44
  -5   0  -1  380.93   26.85
   5   0   1  341.83   26.84
   5   0   1  329.90   25.95
   5   0   1  346.11   26.65
  -6   0  -1  110.88    9.00
  -6   0  -1  114.39    7.97
  -6   0  -1   97.94    8.66
   6   0   1  109.04    8.92
   6   0   1   94.97    7.99
   6   0   1   98.00    8.37
   6   0   1   98.28    9.00
  -7   0  -1  131.35    9.28
  -7   0  -1  125.58   10.33
  -7   0  -1  105.67    9.86
   7   0   1  106.68    9.13
   7   0   1  124.77   10.29
   7   0   1  118.83    9.63
   7   0   1  113.83   10.37
  -8   0  -1  121.99   11.45
  -8   0  -1  149.82   12.05
   8   0   1  128.24   11.17
   8   0   1  125.33   10.62
   8   0   1  158.32   12.15
  -9   0  -1   50.46    5.55
  -9   0  -1   42.84    4.99
   9   0   1   53.19    5.62
   9   0   1   43.55    4.65
   9  -1  -1   82.03    7.20
   9  -1  -1   86.60    7.84
  -9   1   1  102.02    9.07
  -9   1   1   86.77    8.30
   8  -1  -1   81.63    7.71
   8  -1  -1   84.21    7.24
   8  -1  -1  104.70    8.79
  -8   1   1   82.68    8.14
  -8   1   1  101.41    8.85
   7  -1  -1  221.59   18.30
   7  -1  -1  260.61   19.19
   7  -1  -1  217.51   17.89
  -7   1   1  255.89   19.27
  -7   1   1  220.17   18.74
   6  -1  -1  481.08   33.40
   6  -1  -1  443.28   33.07
   6  -1  -1  407.86   32.06
   6  -1  -1  379.12   32.89
  -6   1   1  385.39   32.75
  -6   1   1  463.91   33.22
   5  -1  -1  588.18   40.59
   5  -1  -1  520.85   39.40
   5  -1  -1  554.86   40.22
   5  -1  -1  479.31   40.08
  -5   1   1  460.41   39.94
  -5   1   1  554.08   40.31
   4   1   1  755.66   56.62
   5   1   1  705.80   53.49
   5   1   1  717.64   54.05
  -6  -1  -1  580.41   39.87
  -6  -1  -1  477.94   40.43
  -6  -1  -1  565.68   40.81
   6   1   1  527.54   40.98
   6   1   1  517.81   39.94
   6   1   1  491.06   40.25
   6   1   1  564.67   40.86
  -7  -1  -1  148.50   13.08
  -7  -1  -1  178.67   13.59
  -7  -1  -1  176.18   12.38
   7   1   1  157.19   12.90
   7   1   1  158.95   13.41
   7   1   1  151.34   12.45
  -8  -1  -1  143.68   13.16
  -8  -1  -1  169.47   13.68
  -8  -1  -1  162.67   12.60
   8   1   1  176.73   13.75
   8   1   1  148.64   12.93
  -9  -1  -1   93.95    8.60
  -9  -1  -1   91.65    7.21
  -9  -1  -1   79.81    8.00
   9   1   1   80.88    7.74
   9   1   1   95.36    8.64
   9  -2  -1   38.96    3.50
   9  -2  -1   39.72    4.09
  -9   2   1   40.27    4.71
   8  -2  -1   90.79    8.02
   8  -2  -1   76.63    6.87
   8  -2  -1   68.01    6.34
  -8   2   1   88.80    8.09
  -8   2   1   75.38    7.45
   7  -2  -1   65.96    6.17
   7  -2  -1   57.86    4.92
   7  -2  -1   55.00    5.97
  -7   2   1   58.71    5.84
  -7   2   1   67.62    6.33
   6  -2  -1  130.89   11.41
   6  -2  -1  131.92   10.43
   6  -2  -1  132.73   12.38
  -6   2   1  152.22   11.70
  -6   2   1  131.96   11.29
   5  -2  -1   19.53    1.78
   5  -2  -1   21.79    2.56
   5  -2  -1   19.44    2.48
  -5   2   1   22.30    2.66
  -5   2   1   19.19    2.40
   4  -2  -1   75.68    6.54
   4  -2  -1   73.37    6.57
   4  -2  -1   76.43    5.86
  -4   2   1   69.83    6.43
  -4   2   1   85.39    6.71
   1  -2  -1   57.30    4.74
   1  -2  -1   63.59    4.53
  -1   2   1   55.30    4.74
  -1   2   1   59.37    4.51
  -2  -2  -1  177.12   13.03
  -2  -2  -1  158.64   13.12
  -2  -2  -1  191.14   13.02
  -2  -2  -1  178.07   13.24
  -2  -2  -1  175.83   13.06
   2   2   1  167.95   13.14
   2   2   1  164.85   13.23
   2   2   1  167.65   13.08
   2   2   1  175.75   13.03
  -3  -2  -1  143.94   12.38
  -3  -2  -1  167.57   12.20
  -3  -2  -1  178.69   12.30
   3   2   1  154.43   12.42
   3   2   1  164.16   12.36
   3   2   1  161.86   12.19
  -4  -2  -1  146.38   11.77
  -4  -2  -1  154.29   11.12
  -4  -2  -1  130.92   11.38
   4   2   1  143.27   11.48
   4   2   1  154.40   11.36
   4   2   1  150.51   11.07
  -5  -2  -1   35.10    3.56
  -5  -2  -1   40.60    3.83
  -5  -2  -1   41.83    3.23
   5   2   1   43.16    3.12
   5   2   1   36.06    3.49
   5   2   1   40.34    3.74
  -6  -2  -1   87.91    8.18
  -6  -2  -1  104.97    8.54
  -6  -2  -1  105.58    7.73
   6   2   1  106.78    8.49
   6   2   1   92.33    8.09
  -7  -2  -1   10.25    1.88
  -7  -2  -1    8.93    1.60
  -7  -2  -1    8.22    1.08
   7   2   1    8.49    1.50
  -8  -2  -1    2.47    1.08
  -8  -2  -1    2.57    0.69
  -8  -2  -1    2.34    0.91
   8   2   1    2.89    1.11
   8   2   1    2.49    0.95
  -9  -2  -1   56.10    5.93
  -9  -2  -1   57.48    4.66
   9   2   1   63.66    7.17
   9   2   1   45.86    5.25
   9  -3  -1   43.90    4.16
  -9   3   1   49.14    6.08
  -9   3   1   57.72    6.56
   8  -3  -1  132.56   11.15
   8  -3  -1  103.56    9.37
  -8   3   1  116.11   10.66
  -8   3   1  132.45   11.30
   7  -3  -1   96.70    9.42
   7  -3  -1  111.29   10.06
   7  -3  -1  115.73    9.66
  -7   3   1   91.26    9.17
  -7   3   1  113.40    9.75
   6  -3  -1  196.21   16.59
   6  -3  -1  181.77   14.39
   6  -3  -1  185.84   15.55
  -6   3   1  210.31   15.81
  -6   3   1  175.01   15.33
   5  -3  -1  623.96   50.47
   5  -3  -1  717.25   50.64
  -5   3   1  601.84   50.34
  -5   3   1  709.81   50.72
   4  -3  -1  635.66   43.06
   4  -3  -1  529.23   42.88
  -4   3   1  526.82   42.82
   0  -3  -1   85.96    6.99
   0  -3  -1   89.14    6.83
   0  -3  -1   89.23    6.65
   0  -3  -1   89.14    6.98
   0   3   1   97.21    6.73
   0   3   1   90.40    6.98
   0   3   1   83.95    6.83
  -3  -3  -1  418.98   30.65
  -3  -3  -1  433.85   30.59
  -3  -3  -1  423.24   30.60
   3   3   1  394.30   30.86
   3   3   1  384.57   30.70
   3   3   1  394.49   30.58
  -4  -3  -1  560.57   39.69
  -4  -3  -1  554.36   39.59
   4   3   1  519.31   39.55
   4   3   1  501.82   39.77
   4   3   1  508.45   40.03
  -5  -3  -1  148.07   11.47
  -5  -3  -1  149.35   10.94
  -5  -3  -1  130.95   11.24
   5   3   1  139.73   11.57
   5   3   1  146.07   10.86
   5   3   1  143.39   11.24
   5   3   1  143.47   11.37
  -6  -3  -1  265.01   18.92
  -6  -3  -1  230.86   19.34
  -6  -3  -1  261.04   19.63
   6   3   1  264.05   19.57
   6   3   1  225.81   19.25
  -7  -3  -1  384.00   31.01
  -7  -3  -1  462.84   31.50
   7   3   1  363.25   30.88
  -8  -3  -1  135.77   12.28
  -8  -3  -1  156.51   12.83
  -8  -3  -1  164.04   11.67
   8   3   1  161.47   12.76
   8   3   1  133.43   12.19
  -9  -3  -1   64.47    6.48
  -9  -3  -1   57.10    5.77
  -9  -3  -1   66.43    5.02
   9   3   1   49.93    5.64
   8  -4  -1   36.48    3.49
   8  -4  -1   49.32    5.34
   8  -4  -1   38.65    4.97
  -8   4   1   40.79    4.81
  -8   4   1   46.02    5.29
   7  -4  -1  158.53   14.63
   7  -4  -1  189.09   14.89
  -7   4   1  156.81   14.43
  -7   4   1  192.31   15.10
   6  -4  -1   49.85    5.36
   6  -4  -1   55.45    5.52
   6  -4  -1   51.70    4.22
  -6   4   1   48.72    5.21
  -6   4   1   59.47    5.68
   5  -4  -1   71.09    6.09
   5  -4  -1   54.23    5.82
   5  -4  -1   63.42    4.93
  -5   4   1   59.27    5.81
  -5   4   1   68.70    6.15
   4  -4  -1  110.49    8.63
   4  -4  -1  103.64    9.46
   4  -4  -1  127.47    8.75
   4  -4  -1  116.17    9.56
  -4   4   1  118.02    9.65
  -4   4   1  105.90    9.42
   3  -4  -1    9.87    1.50
   3  -4  -1    9.23    1.46
   3  -4  -1   11.46    1.04
  -3   4   1    9.97    1.55
  -3   4   1    9.16    1.44
  -3   4   1    9.57    0.96
   2  -4  -1   12.41    1.55
   2  -4  -1   13.11    1.18
   2  -4  -1   11.83    1.52
  -2   4   1   11.46    1.13
  -2   4   1   11.87    1.54
  -2   4   1   12.59    1.55
   1  -4  -1  225.87   17.10
   1  -4  -1  248.66   16.79
   1  -4  -1  204.99   17.02
  -1   4   1  215.21   16.75
  -1   4   1  204.48   17.04
  -1   4   1  227.10   16.66
  -1   4   1  228.05   17.10
   0  -4  -1  113.44    8.48
   0  -4  -1  110.16    8.87
   0  -4  -1  120.59    8.73
   0   4   1  102.08    8.70
   0   4   1  118.48    8.58
   0   4   1  118.22    8.90
  -3  -4  -1   57.12    4.96
  -3  -4  -1   64.95    4.96
  -3  -4  -1   66.83    5.03
  -3  -4  -1   69.74    4.95
  -3  -4  -1   64.21    4.74
  -3  -4  -1   65.53    5.10
   3   4   1   59.42    4.94
   3   4   1   62.23    5.10
   3   4   1   56.87    5.02
   3   4   1   59.82    4.97
  -4  -4  -1  279.75   19.79
  -4  -4  -1  263.08   19.57
  -4  -4  -1  263.79   19.78
  -4  -4  -1  255.38   19.69
  -4  -4  -1  269.74   20.05
  -4  -4  -1  267.83   19.88
   4   4   1  265.43   20.12
   4   4   1  241.50   19.95
   4   4   1  260.68   19.79
   4   4   1  251.65   19.92
  -5  -4  -1  404.64   28.54
  -5  -4  -1  387.74   28.18
  -5  -4  -1  339.04   28.61
  -5  -4  -1  391.01   28.84
  -5  -4  -1  390.94   28.41
   5   4   1  382.62   28.95
   5   4   1  372.94   28.37
   5   4   1  362.72   28.69
   5   4   1  365.85   28.68
  -6  -4  -1   42.15    4.52
  -6  -4  -1   52.98    4.08
  -6  -4  -1   51.21    4.58
   6   4   1   51.86    4.54
   6   4   1   47.30    5.41
  -7  -4  -1   50.41    4.75
  -7  -4  -1   44.38    4.48
  -7  -4  -1   52.35    4.08
   7   4   1   52.03    4.73
   7   4   1   42.60    4.48
  -8  -4  -1   56.03    5.34
  -8  -4  -1   48.46    5.02
  -8  -4  -1   56.68    4.68
   8   4   1   48.50    5.03
   8   4   1   59.02    6.30
  -9  -4  -1    4.53    1.46
  -9  -4  -1    4.17    1.35
   9   4   1    2.39    1.09
   8  -5  -1   29.74    2.88
   8  -5  -1   38.86    4.70
   8  -5  -1   30.18    4.37
  -8   5   1   39.68    4.85
  -8   5   1   32.14    4.22
   7  -5  -1   96.64    9.59
   7  -5  -1  118.72    9.91
   7  -5  -1   91.60    8.51
  -7   5   1   97.00    9.41
  -7   5   1  119.37   10.04
   6  -5  -1  162.14   12.60
   6  -5  -1  143.22   11.04
   6  -5  -1  134.54   12.34
  -6   5   1  139.71   12.26
   5  -5  -1   52.48    4.33
   5  -5  -1   64.55    4.54
   5  -5  -1   59.36    5.52
   5  -5  -1   49.94    5.37
  -5   5   1   48.42    5.24
  -5   5   1   57.33    5.63
   4  -5  -1  283.04   24.76
   4  -5  -1  322.57   24.87
   4  -5  -1  366.74   24.05
  -4   5   1  282.14   24.68
  -4   5   1  336.46   25.06
   3  -5  -1  653.60   48.54
  -3   5   1  623.06   48.53
  -2   5   1  555.41   40.35
  -2   5   1  524.21   40.93
  -1  -5  -1  418.52   30.66
  -1  -5  -1  407.79   30.82
  -1  -5  -1  428.95   30.37
  -1  -5  -1  426.92   30.43
  -1  -5  -1  380.91   30.70
  -1  -5  -1  451.03   30.68
   1   5   1  377.19   30.65
   1   5   1  415.00   30.45
   1   5   1  365.36   30.68
  -3  -5  -1  741.26   51.78
  -3  -5  -1  719.10   51.71
  -3  -5  -1  762.10   51.69
   3   5   1  613.38   51.75
   3   5   1  617.33   51.68
  -4  -5  -1   95.26    7.10
  -4  -5  -1   91.06    6.73
  -4  -5  -1   93.79    7.08
  -4  -5  -1   81.05    6.98
  -4  -5  -1   90.83    7.00
  -4  -5  -1  101.36    7.01
   4   5   1   84.35    6.98
   4   5   1   84.78    6.95
   4   5   1   88.55    7.10
   4   5   1   79.61    7.11
  -5  -5  -1  281.50   20.60
  -5  -5  -1  282.35   19.96
  -5  -5  -1  258.05   20.35
  -5  -5  -1  247.35   20.33
  -5  -5  -1  278.64   20.35
   5   5   1  262.52   20.33
   5   5   1  266.58   20.22
   5   5   1  244.48   20.46
   5   5   1  276.70   20.57
  -6  -5  -1  190.37   13.96
  -6  -5  -1  200.41   14.42
  -6  -5  -1  196.60   14.67
   6   5   1  162.58   14.55
   6   5   1  177.36   14.49
  -7  -5  -1   97.09    7.96
  -7  -5  -1   97.09    7.12
  -7  -5  -1   85.25    7.70
  -7  -5  -1  103.59    7.46
   7   5   1   80.79    7.79
   7   5   1   94.45    7.87
  -8  -5  -1  125.15    9.15
  -8  -5  -1  104.66    9.50
  -8  -5  -1  120.06    8.78
  -8  -5  -1  117.12    9.79
   8   5   1  123.86    9.81
   8   5   1   99.06    9.60
  -9  -5  -1   89.35    8.13
  -9  -5  -1   96.69    8.42
  -9  -5  -1  102.44    7.26
   9   5   1   87.03    8.29
   8  -6  -1   14.37    3.05
   8  -6  -1   17.01    3.21
   8  -6  -1   13.82    1.48
  -8   6   1   12.91    2.73
  -8   6   1   15.81    3.10
   7  -6  -1   12.75    2.63
   7  -6  -1   10.57    1.23
   7  -6  -1   12.62    2.61
  -7   6   1   15.00    2.84
  -7   6   1   11.02    2.35
   6  -6  -1  157.06   14.83
   6  -6  -1  202.78   15.23
   6  -6  -1  163.59   13.42
  -6   6   1  169.95   14.78
  -6   6   1  193.85   15.26
   5  -6  -1  168.91   13.43
   5  -6  -1  162.76   14.67
   5  -6  -1  194.11   14.90
   5  -6  -1  184.89   13.67
  -5   6   1  186.84   14.96
  -5   6   1  168.94   14.61
   4  -6  -1  110.89    7.65
   4  -6  -1   98.66    8.52
   4  -6  -1   82.63    8.31
  -4   6   1  102.62    9.53
  -4   6   1   88.36    8.32
   3  -6  -1  232.62   20.80
   3  -6  -1  279.84   21.01
   3  -6  -1  301.58   20.24
  -3   6   1  245.09   20.82
  -3   6   1  292.31   19.83
  -3   6   1  270.61   21.01
  -3   6   1  239.43   20.06
   2  -6  -1  143.65   10.95
   2  -6  -1  121.20   10.79
   2  -6  -1  147.00   10.35
  -2   6   1  128.30   10.28
  -2   6   1  122.11   10.78
  -2   6   1  144.02   10.97
  -2   6   1  127.74   10.17
   1  -6  -1   95.40    7.65
   1  -6  -1   84.28    7.56
   1  -6  -1  100.18    7.26
  -1   6   1   86.17    7.20
  -1   6   1   93.29    7.61
  -1   6   1   92.28    7.06
   0  -6  -1  264.41   19.82
   0  -6  -1  292.99   20.22
   0  -6  -1  251.70   20.39
   0  -6  -1  274.07   20.48
   0   6   1  246.11   20.17
   0   6   1  274.44   19.98
   0   6   1  285.93   20.44
   0   6   1  240.20   20.35
  -1  -6  -1   39.44    3.46
  -1  -6  -1   40.32    3.02
  -1  -6  -1   40.78    3.29
  -1  -6  -1   37.75    2.94
  -1  -6  -1   40.91    3.29
  -1  -6  -1   35.17    3.32
   1   6   1   34.36    3.26
   1   6   1   38.90    3.04
   1   6   1   42.73    3.37
   1   6   1   36.88    3.32
  -2  -6  -1   12.77    1.07
  -2  -6  -1   12.87    1.39
  -2  -6  -1   12.10    1.30
  -2  -6  -1   13.22    1.46
  -2  -6  -1   12.68    1.36
  -2  -6  -1   13.66    1.04
   2   6   1   12.30    1.08
   2   6   1   10.84    1.33
   2   6   1   12.98    1.25
   2   6   1   11.83    1.24
  -3  -6  -1  230.69   18.56
  -3  -6  -1  258.15   18.77
  -3  -6  -1  262.06   18.39
  -3  -6  -1  238.61   18.39
  -3  -6  -1  243.91   18.63
  -3  -6  -1  271.18   18.67
  -3  -6  -1  247.26   18.70
   3   6   1  215.69   18.68
  -4  -6  -1   99.45    7.64
  -4  -6  -1   95.70    7.30
  -4  -6  -1  105.58    7.62
  -4  -6  -1   95.74    7.81
  -4  -6  -1  104.98    7.34
  -4  -6  -1  102.53    7.73
  -4  -6  -1   89.45    7.48
  -4  -6  -1   97.44    7.56
   4   6   1   87.59    7.61
   4   6   1   87.32    7.74
  -5  -6  -1   50.34    4.48
  -5  -6  -1   54.78    4.56
  -5  -6  -1   54.42    4.50
  -5  -6  -1   59.45    4.25
  -5  -6  -1   55.46    4.57
  -5  -6  -1   58.69    4.71
  -5  -6  -1   62.29    4.30
   5   6   1   48.08    4.73
   5   6   1   51.98    4.56
  -6  -6  -1  148.91   12.61
  -6  -6  -1  173.91   12.75
  -6  -6  -1  167.73   12.26
  -6  -6  -1  161.31   12.72
  -6  -6  -1  179.14   12.33
   6   6   1  145.72   12.88
  -7  -6  -1   90.94    6.66
  -7  -6  -1   78.62    7.11
  -7  -6  -1   95.77    7.06
  -7  -6  -1   88.81    6.74
  -7  -6  -1   86.41    7.26
   7   6   1   90.71    7.14
   7   6   1   77.54    7.42
  -8  -6  -1   27.37    3.06
  -8  -6  -1   26.80    2.95
  -8  -6  -1   30.73    2.40
   8   6   1   25.74    4.19
   8   6   1   33.27    3.09
   7  -7  -1   86.15    7.28
   7  -7  -1  104.68    9.37
   7  -7  -1   82.98    8.98
  -7   7   1   93.11    7.48
  -7   7   1   88.58    8.86
  -7   7   1  111.06    9.74
   6  -7  -1  103.14   10.18
   6  -7  -1  103.05    8.60
   6  -7  -1  130.45   10.55
  -6   7   1  111.03    8.80
  -6   7   1  106.66   10.06
  -6   7   1  121.80   10.56
   5  -7  -1  194.63   15.26
   5  -7  -1  181.50   16.61
   5  -7  -1  224.89   16.91
  -5   7   1  193.75   15.44
  -5   7   1  191.38   16.57
  -5   7   1  227.89   17.10
   4  -7  -1  100.91    8.42
   4  -7  -1   86.11    8.25
  -4   7   1  106.42    8.65
  -4   7   1   82.45    8.10
  -4   7   1   86.33    7.23
   3  -7  -1  204.41   15.57
   3  -7  -1  175.44   15.33
   3  -7  -1  213.69   14.65
  -3   7   1  169.27   14.87
  -3   7   1  166.01   15.18
  -3   7   1  206.31   15.57
   2  -7  -1  508.53   36.86
   2  -7  -1  537.62   36.22
   2  -7  -1  435.85   36.70
  -2   7   1  419.87   36.63
  -2   7   1  515.89   36.89
  -2   7   1  477.62   36.16
  -2   7   1  465.61   35.99
   1  -7  -1  215.82   16.27
   1  -7  -1  218.62   15.72
   1  -7  -1  185.43   16.05
  -1   7   1  206.81   15.49
  -1   7   1  216.99   16.17
  -1   7   1  185.12   15.65
   0  -7  -1  317.24   25.76
   0  -7  -1  346.58   25.85
   0  -7  -1  360.02   25.55
   0   7   1  300.48   25.70
   0   7   1  364.40   25.82
   0   7   1  320.01   25.52
   0   7   1  350.53   25.29
  -1  -7  -1  656.88   43.67
  -1  -7  -1  516.83   43.65
  -1  -7  -1  641.04   43.66
  -1  -7  -1  607.21   43.84
  -1  -7  -1  589.29   43.20
   1   7   1  510.12   43.59
   1   7   1  580.86   43.33
   1   7   1  492.43   43.59
   1   7   1  629.61   43.69
  -2  -7  -1  354.66   26.18
  -2  -7  -1  380.26   26.26
  -2  -7  -1  320.42   26.63
  -2  -7  -1  379.63   25.78
  -2  -7  -1  323.40   26.06
  -2  -7  -1  362.95   25.83
   2   7   1  309.76   26.16
   2   7   1  329.60   25.84
  -3  -7  -1  366.94   29.13
  -3  -7  -1  401.86   29.57
  -3  -7  -1  389.92   29.12
  -3  -7  -1  413.71   29.43
  -3  -7  -1  378.08   29.72
  -4  -7  -1  614.46   44.31
  -4  -7  -1  585.33   45.02
  -4  -7  -1  615.43   44.76
  -4  -7  -1  585.75   44.29
  -4  -7  -1  597.83   44.67
  -4  -7  -1  652.38   44.64
   4   7   1  505.89   44.64
  -5  -7  -1  191.97   14.24
  -5  -7  -1  180.16   14.26
  -5  -7  -1  178.04   13.88
  -5  -7  -1  175.24   14.34
  -5  -7  -1  192.69   13.93
  -5  -7  -1  190.60   14.38
  -6  -7  -1  159.28   11.65
  -6  -7  -1  153.50   11.80
  -6  -7  -1  149.64   11.25
  -6  -7  -1  153.70   11.32
   6   7   1  127.41   11.91
  -7  -7  -1  107.18    8.31
  -7  -7  -1  104.52    8.23
  -7  -7  -1  113.96    8.67
  -7  -7  -1  107.23    8.80
  -8  -7  -1   47.77    3.57
   8   7   1   40.04    4.47
   7  -8  -1   17.35    4.50
   7  -8  -1   16.38    1.65
   7  -8  -1   20.13    3.43
  -7   8   1   21.06    4.76
  -7   8   1   18.03    2.02
   6  -8  -1   12.15    2.63
   6  -8  -1    8.87    1.04
   6  -8  -1    9.79    2.38
  -6   8   1   11.52    2.69
   5  -8  -1   84.56    6.89
   5  -8  -1   99.81    8.63
   5  -8  -1   80.79    8.36
  -5   8   1   79.15    7.09
  -5   8   1  103.88    8.89
   4  -8  -1  126.75   12.45
   4  -8  -1  166.66   11.68
   4  -8  -1  155.94   12.70
  -4   8   1  160.31   12.89
  -4   8   1  130.02   11.40
   3  -8  -1   45.98    4.60
   3  -8  -1   45.58    3.81
   3  -8  -1   37.66    4.41
  -3   8   1   40.05    3.59
  -3   8   1   45.28    4.64
   2  -8  -1  202.57   15.65
   2  -8  -1  170.82   15.48
   2  -8  -1  210.26   14.96
  -2   8   1  189.00   14.71
   1  -8  -1  240.16   20.73
   1  -8  -1  287.43   20.37
   1  -8  -1  274.42   20.88
  -1   8   1  283.40   20.85
  -1   8   1  254.26   20.07
  -1   8   1  255.36   20.66
   0  -8  -1   84.39    7.81
   0  -8  -1   87.41    7.49
   0   8   1   89.71    6.92
   0   8   1   97.94    7.52
   0   8   1   85.81    7.34
  -1  -8  -1  118.67   10.00
  -1  -8  -1  127.83    9.43
   1   8   1  138.56    9.98
   1   8   1  115.87    9.93
   1   8   1  127.30    9.60
  -2  -8  -1  168.16   14.03
  -2  -8  -1  186.93   14.20
  -2  -8  -1  176.56   14.09
  -2  -8  -1  187.78   13.78
  -2  -8  -1  193.90   14.21
  -2  -8  -1  182.45   13.69
  -2  -8  -1  204.18   14.08
   2   8   1  165.28   14.18
   2   8   1  182.42   13.80
  -3  -8  -1   49.51    3.96
  -3  -8  -1   49.45    3.64
  -3  -8  -1   47.71    4.11
  -3  -8  -1   46.68    4.06
  -3  -8  -1   46.68    3.59
   3   8   1   38.09    4.01
  -4  -8  -1   73.07    5.56
  -4  -8  -1   72.48    6.06
  -4  -8  -1   70.41    5.99
  -4  -8  -1   71.34    5.56
  -4  -8  -1   77.71    5.93
  -4  -8  -1   69.89    6.44
  -5  -8  -1   43.68    3.61
  -5  -8  -1   44.75    4.05
  -5  -8  -1   46.51    4.15
  -5  -8  -1   50.26    4.02
  -5  -8  -1   44.56    4.22
  -6  -8  -1   13.49    1.29
  -6  -8  -1   13.46    1.23
  -6  -8  -1   14.15    1.66
  -6  -8  -1   12.47    1.79
  -7  -8  -1   40.61    3.24
   6  -9  -1  111.75    9.01
   6  -9  -1  130.60   12.04
   6  -9  -1  108.94   10.84
  -6   9   1  115.02    9.20
   5  -9  -1  125.59   10.60
   5  -9  -1  103.39    8.63
   5  -9  -1   98.75   10.22
  -5   9   1  126.89   10.81
   4  -9  -1  263.86   18.67
   4  -9  -1  206.32   19.54
   4  -9  -1  247.56   19.78
  -4   9   1  280.28   21.43
  -4   9   1  208.61   18.36
   3  -9  -1  207.69   16.37
   3  -9  -1  217.40   15.45
   3  -9  -1  172.15   16.14
  -3   9   1  213.57   16.47
  -3   9   1  177.71   15.13
   2  -9  -1   80.47    8.00
   2  -9  -1  103.51    7.50
   2  -9  -1   93.01    8.14
  -2   9   1   87.46    7.17
   1  -9  -1  258.81   20.12
   1  -9  -1  225.37   20.00
   1  -9  -1  277.73   19.62
  -1   9   1  266.22   20.10
  -1   9   1  244.62   19.28
   0  -9  -1  178.71   15.75
   0  -9  -1  214.15   15.95
   0   9   1  207.75   15.21
  -1  -9  -1  118.22    8.91
  -1  -9  -1  113.08    9.57
  -1  -9  -1  125.19    9.70
   1   9   1  118.59    9.26
  -2  -9  -1  182.92   13.76
  -2  -9  -1  164.96   13.54
  -2  -9  -1  190.12   13.79
  -2  -9  -1  169.70   13.15
  -2  -9  -1  191.18   13.58
   2   9   1  156.30   13.37
  -3  -9  -1  196.27   14.84
  -3  -9  -1  196.56   14.91
  -3  -9  -1  194.66   15.39
  -3  -9  -1  184.73   16.14
  -3  -9  -1  210.84   15.26
  -3  -9  -1  204.66   15.46
  -4  -9  -1  114.56    8.61
  -4  -9  -1  108.36    9.68
  -4  -9  -1  122.00    9.41
  -4  -9  -1  106.52    8.62
  -4  -9  -1  111.94    9.14
  -4  -9  -1  118.57    9.02
  -5  -9  -1  234.36   16.60
  -5  -9  -1  216.73   16.14
  -5  -9  -1  206.81   16.65
  -5  -9  -1  223.49   16.78
  -5  -9  -1  204.88   16.12
  -5  -9  -1  201.23   16.93
  -6  -9  -1   80.71    5.97
  -6  -9  -1   79.68    5.92
  -6  -9  -1   75.00    6.35
  -6  -9  -1   72.07    6.32
   5 -10  -1   18.30    3.21
   5 -10  -1   13.89    2.87
  -5  10   1   16.68    2.47
   4 -10  -1   17.37    2.32
   4 -10  -1   17.32    2.93
   4 -10  -1   11.57    2.53
  -4  10   1   13.18    1.68
   3 -10  -1   56.82    5.69
   3 -10  -1   57.06    5.64
   3 -10  -1   44.41    5.38
  -3  10   1   45.50    4.38
  -3  10   1   59.40    5.77
   2 -10  -1   19.34    2.97
   2 -10  -1   27.31    2.77
  -2  10   1   21.48    2.22
  -2  10   1   27.62    3.23
   1 -10  -1   25.63    3.34
   1 -10  -1   30.39    3.47
   1 -10  -1   32.86    3.11
  -1  10   1   32.86    3.51
  -1  10   1   28.18    2.65
   0 -10  -1   99.22    9.06
   0 -10  -1  110.03    8.97
   0 -10  -1  117.22    8.99
   0  10   1   97.37    8.37
   0  10   1  116.45    9.07
  -1 -10  -1   76.48    6.61
  -1 -10  -1   65.95    6.47
  -1 -10  -1   95.43    7.45
  -1 -10  -1   75.80    6.23
   1  10   1   73.96    6.08
   1  10   1   83.76    6.36
  -2 -10  -1   55.51    4.64
  -2 -10  -1   47.96    3.91
  -2 -10  -1   53.56    4.64
  -2 -10  -1   52.76    4.35
   2  10   1   47.41    4.09
  -3 -10  -1   96.71    7.62
  -3 -10  -1  105.73    8.34
  -3 -10  -1   91.26    9.02
  -3 -10  -1  113.12    8.13
  -3 -10  -1   98.11    8.27
  -4 -10  -1   26.04    2.77
  -4 -10  -1   26.22    2.60
  -4 -10  -1   27.10    2.16
  -4 -10  -1   25.02    2.19
  -5 -10  -1   14.53    1.37
  -5 -10  -1   13.87    2.17
  -5 -10  -1   13.25    1.29
  -5 -10  -1   15.16    1.99
   3 -11  -1   75.67    8.00
   3 -11  -1   92.09    8.16
  -3  11   1   78.88    6.72
   2 -11  -1  133.98   12.59
   2 -11  -1  162.90   12.79
  -2  11   1  145.83   11.57
   1 -11  -1   95.36    9.65
   1 -11  -1  116.31    9.72
  -1  11   1  105.25    8.71
  -1  11   1  126.66   10.66
   0 -11  -1  161.99   13.33
   0  11   1  151.48   12.51
   0  11   1  173.35   13.14
  -1 -11  -1  169.94   12.08
  -1 -11  -1  165.57   12.43
  -1 -11  -1  131.71   12.22
   1  11   1  153.05   11.87
  -2 -11  -1   70.30    5.34
  -3 -11  -1   62.42    6.83
  -3 -11  -1   75.91    5.82
  -3 -11  -1   70.36    5.31
  -2 -10   2   67.74    5.42
  -2 -10   2   67.41    5.10
  -2 -10   2   62.78    7.06
  -1 -10   2  183.23   14.06
  -1 -10   2  212.43   14.59
  -1 -10   2  160.93   15.87
   0  10  -2  134.40   10.86
   0 -10   2  128.14   12.67
   0 -10   2  123.09   10.68
   0 -10   2  143.97   10.45
   0 -10   2  134.68   10.81
   0 -10   2  151.87   11.42
  -1  10  -2  133.11   10.22
  -1  10  -2  122.20    9.79
   1 -10   2  125.73   10.34
   1 -10   2  126.29    9.62
   1 -10   2  117.16   11.04
  -2  10  -2  183.98   14.09
   2 -10   2  165.99   15.14
   2 -10   2  201.54   15.04
   2 -10   2  164.29   16.19
   2 -10   2  194.26   13.82
  -3  10  -2  114.67    9.34
   3 -10   2  112.93   11.61
   3 -10   2  122.93    8.97
   3 -10   2  129.30   10.53
   3 -10   2  110.01   10.71
  -4  -9   2   50.95    4.58
  -4  -9   2   52.17    4.36
  -4  -9   2   45.67    5.34
  -4  -9   2   49.66    4.01
  -4  -9   2   52.75    4.12
  -4  -9   2   52.86    4.64
  -3  -9   2  137.30   10.20
  -3  -9   2  134.47   10.50
  -3  -9   2  123.68    9.85
  -3  -9   2  113.51   11.39
  -3  -9   2  134.73   10.51
  -3  -9   2  136.61    9.99
  -2  -9   2   74.13    5.94
  -2  -9   2   77.08    6.57
  -2  -9   2   90.91    7.55
  -2  -9   2   90.61    6.55
  -2  -9   2   67.07    7.55
  -2  -9   2   75.78    6.22
  -1  -9   2   73.70    5.97
  -1  -9   2   58.99    7.05
  -1  -9   2   68.43    5.48
  -1  -9   2   73.53    6.00
  -1  -9   2   73.35    5.59
   0   9  -2  168.34   13.68
   0  -9   2  192.75   14.14
   0  -9   2  188.09   13.67
   0  -9   2  162.83   14.05
   0  -9   2  162.91   15.49
   0  -9   2  195.49   14.14
   0  -9   2  188.60   13.64
   0  -9   2  175.39   13.95
  -1   9  -2   86.87    6.81
  -1   9  -2   76.64    6.27
   1  -9   2   79.75    6.82
   1  -9   2   83.25    6.16
   1  -9   2   68.08    7.92
   1  -9   2   69.40    6.98
   1  -9   2   85.80    6.72
  -2   9  -2   99.86    8.53
  -2   9  -2  122.17    9.59
   2  -9   2  123.22    8.98
   2  -9   2  108.45    8.34
   2  -9   2  111.58    9.36
   2  -9   2   99.60    9.62
   2  -9   2   97.74   10.40
  -3   9  -2   78.36    6.99
  -3   9  -2   95.27    8.28
   3  -9   2   96.27    9.15
   3  -9   2   87.37    6.72
   3  -9   2   96.64    7.39
   3  -9   2   75.66    8.16
  -4   9  -2   17.07    1.86
   4  -9   2   21.76    2.24
   4  -9   2   15.58    2.91
   4  -9   2   18.27    2.86
  -5   9  -2   36.27    3.43
   5  -9   2   33.59    4.81
   5  -9   2   44.84    3.83
   5  -9   2   42.61    4.89
  -5  -8   2  200.28   14.79
  -5  -8   2  207.37   14.88
  -5  -8   2  208.84   15.14
  -5  -8   2  197.66   15.31
  -5  -8   2  174.14   15.79
  -5  -8   2  185.24   15.34
  -4  -8   2  132.73   10.56
  -4  -8   2  121.96   11.89
  -4  -8   2  136.78   10.54
  -4  -8   2  137.36   10.34
  -4  -8   2  130.07   10.09
  -4  -8   2  131.11   10.02
  -3  -8   2  256.11   19.17
  -3  -8   2  252.76   19.07
  -3  -8   2  257.06   19.61
  -3  -8   2  259.51   19.60
  -3  -8   2  234.93   20.52
  -3  -8   2  263.92   19.37
  -2  -8   2  341.46   29.52
  -2  -8   2  378.67   28.06
  -2  -8   2  389.33   28.21
  -2  -8   2  388.42   28.49
  -2  -8   2  383.60   28.49
  -2  -8   2  361.42   27.94
   1   8  -2  164.85   13.68
  -1  -8   2  172.77   15.32
  -1  -8   2  188.79   14.10
  -1  -8   2  191.13   13.77
  -1  -8   2  181.71   13.65
  -1  -8   2  173.25   13.58
  -1  -8   2  187.65   14.08
   0   8  -2  278.10   20.39
   0   8  -2  246.27   20.23
   0  -8   2  248.59   20.68
   0  -8   2  234.49   21.79
   0  -8   2  270.99   20.56
   0  -8   2  276.75   20.21
   0  -8   2  282.54   20.25
   0  -8   2  307.56   20.69
  -1   8  -2  248.19   18.14
  -1   8  -2  249.85   19.29
  -1   8  -2  230.34   18.34
   1  -8   2  257.11   18.28
   1  -8   2  234.21   19.16
   1  -8   2  229.88   20.13
   1  -8   2  268.70   18.74
   1  -8   2  218.72   19.10
  -2   8  -2  125.25   10.74
  -2   8  -2  143.52   10.53
  -2   8  -2  142.76   11.59
   2  -8   2  133.25   11.47
   2  -8   2  142.63   10.61
   2  -8   2  150.24   11.11
  -3   8  -2  236.73   20.06
  -3   8  -2  274.63   19.83
  -3   8  -2  285.29   21.32
   3  -8   2  234.15   21.26
   3  -8   2  272.86   21.13
   3  -8   2  285.15   20.41
   3  -8   2  263.60   19.85
  -4   8  -2  221.10   17.15
  -4   8  -2  204.37   17.40
  -4   8  -2  235.90   21.00
   4  -8   2  205.01   18.82
   4  -8   2  250.46   18.81
   4  -8   2  255.83   17.76
  -5   8  -2  126.89   10.56
  -5   8  -2   96.00    8.77
   5  -8   2  122.09   10.39
   5  -8   2   96.49   10.28
   5  -8   2  121.46    9.12
  -6  -7   2    9.39    1.60
  -6  -7   2    9.46    1.37
  -6  -7   2    9.80    1.51
  -5  -7   2   95.76    6.82
  -5  -7   2   84.88    7.02
  -5  -7   2   88.56    6.72
  -5  -7   2   89.15    7.14
  -5  -7   2   75.94    7.50
  -4  -7   2   64.61    5.40
  -4  -7   2   65.32    5.47
  -4  -7   2   66.39    5.01
  -4  -7   2   67.39    5.28
  -4  -7   2   65.05    5.06
  -4  -7   2   58.00    5.98
  -3  -7   2   58.07    4.51
  -3  -7   2   59.80    4.94
  -3  -7   2   60.09    4.98
  -3  -7   2   59.16    4.59
  -3  -7   2   61.29    4.78
  -3  -7   2   51.74    5.61
  -2  -7   2  114.85   10.47
  -2  -7   2  118.71    9.12
  -2  -7   2  122.95    9.58
  -2  -7   2  120.76    9.57
  -2  -7   2  124.16    9.50
  -2  -7   2  123.05    9.22
   1   7  -2   82.63    7.01
  -1  -7   2   86.69    8.38
  -1  -7   2   94.02    7.35
  -1  -7   2   89.38    6.89
  -1  -7   2   95.45    7.35
  -1  -7   2   93.39    7.01
  -1  -7   2   95.15    7.10
   0   7  -2   29.37    2.64
   0   7  -2   30.48    2.50
   0   7  -2   33.70    2.86
   0  -7   2   35.45    2.64
   0  -7   2   32.39    4.01
   0  -7   2   30.24    3.08
   0  -7   2   33.14    2.66
   0  -7   2   30.76    2.90
  -1   7  -2  229.41   18.38
  -1   7  -2  260.95   18.95
  -1   7  -2  244.19   18.22
   1  -7   2  247.87   18.34
   1  -7   2  244.88   18.92
   1  -7   2  230.71   19.94
   1  -7   2  261.06   18.34
   1  -7   2  226.74   19.15
  -2   7  -2  132.01    9.53
  -2   7  -2  119.10    9.72
   2  -7   2  131.29    9.59
   2  -7   2  117.06   10.65
   2  -7   2  131.76   10.47
  -3   7  -2   82.34    5.65
  -3   7  -2   66.08    5.81
   3  -7   2   64.60    6.84
   3  -7   2   75.82    6.74
   3  -7   2   79.29    5.71
  -4   7  -2   89.20    7.80
  -4   7  -2  115.76    9.24
  -4   7  -2  109.15    7.64
   4  -7   2   92.27    9.10
   4  -7   2   91.99    7.54
   4  -7   2  105.72    9.00
  -5   7  -2   30.38    2.92
  -5   7  -2   39.15    4.37
  -5   7  -2   35.03    2.73
   5  -7   2   30.58    4.20
   5  -7   2   35.94    4.17
  -6   7  -2    9.80    2.34
  -6   7  -2    7.68    1.15
  -6   7  -2    8.98    0.91
   6  -7   2    7.86    2.23
   6  -7   2   10.09    2.32
  -7   7  -2   35.07    3.21
  -7   7  -2   41.17    5.52
   7  -7   2   32.10    5.05
   7  -7   2   39.80    4.96
  -7  -6   2  138.91   10.40
  -7  -6   2  129.25   10.46
  -6  -6   2   98.68    9.14
  -6  -6   2  115.14    8.63
  -6  -6   2  112.17    8.97
  -6  -6   2  121.49    8.62
  -6  -6   2  116.93    8.88
  -6  -6   2  109.86    8.85
  -5  -6   2  141.58   11.25
  -5  -6   2  154.21   10.98
  -5  -6   2  146.32   11.21
  -5  -6   2  145.38   11.00
  -5  -6   2  130.48   11.69
  -5  -6   2  149.36   11.37
  -4  -6   2  261.70   19.60
  -4  -6   2  257.96   19.32
  -4  -6   2  264.02   19.51
  -4  -6   2  235.13   20.17
  -4  -6   2  265.82   19.67
  -4  -6   2  255.65   19.27
  -3  -6   2  231.26   19.50
  -3  -6   2  251.87   18.83
  -3  -6   2  251.15   18.54
  -3  -6   2  254.79   18.86
  -3  -6   2  244.71   18.67
  -3  -6   2  243.71   18.46
  -2  -6   2  359.34   26.01
  -2  -6   2  338.27   27.03
  -2  -6   2  305.97   25.96
  -2  -6   2  360.07   26.21
  -2  -6   2  349.11   25.82
  -2  -6   2  359.27   26.19
   1   6  -2  562.09   45.60
  -1  -6   2  596.82   45.51
  -1  -6   2  653.63   45.69
  -1  -6   2  634.39   45.89
  -1  -6   2  595.81   46.88
  -1  -6   2  607.82   46.56
  -1  -6   2  623.74   45.60
   0   6  -2  235.39   17.29
   0   6  -2  221.35   17.06
   0   6  -2  224.79   16.94
   0   6  -2  217.92   17.28
   0  -6   2  217.93   17.49
   0  -6   2  233.82   17.07
   0  -6   2  234.76   17.04
   0  -6   2  244.20   18.09
   0  -6   2  231.53   18.01
   0  -6   2  208.08   18.27
   0  -6   2  222.22   16.92
  -1   6  -2  243.15   19.81
  -1   6  -2  266.46   19.69
  -1   6  -2  267.34   20.33
   1  -6   2  288.86   19.94
   1  -6   2  261.16   20.30
   1  -6   2  235.74   20.45
   1  -6   2  281.62   19.78
  -2   6  -2  475.18   34.88
  -2   6  -2  488.62   35.83
  -2   6  -2  450.73   35.04
   2  -6   2  500.99   34.93
   2  -6   2  421.81   35.88
  -3   6  -2  157.76   14.86
  -3   6  -2  203.03   14.09
  -3   6  -2  194.15   14.45
   3  -6   2  204.70   15.19
   3  -6   2  179.80   15.87
  -4   6  -2  160.01   12.65
  -4   6  -2  133.80   11.40
  -4   6  -2  159.04   11.27
   4  -6   2  156.92   12.53
   4  -6   2  138.61   12.66
   4  -6   2  137.51   11.18
   4  -6   2  161.92   11.85
  -5   6  -2  254.90   20.96
  -5   6  -2  303.40   22.51
   5  -6   2  301.66   22.39
   5  -6   2  303.67   21.19
   5  -6   2  247.48   22.37
   5  -6   2  256.41   20.74
  -6   6  -2  207.63   15.58
  -6   6  -2  150.90   14.81
  -6   6  -2  174.93   13.75
   6  -6   2  201.98   15.47
   6  -6   2  167.17   15.37
  -7   6  -2  171.73   13.60
  -7   6  -2  136.35   12.79
  -7   6  -2  144.14   11.48
   7  -6   2  135.90   13.29
   7  -6   2  168.49   13.45
   7  -6   2  141.73   11.27
  -8   6  -2  132.82   12.44
  -8   6  -2  156.10   13.09
  -8   6  -2  135.51   10.87
   8  -6   2  118.92   12.74
   8  -6   2  161.98   13.21
   7   5  -2   23.05    2.75
  -7  -5   2   26.97    2.27
  -7  -5   2   24.81    2.36
  -7  -5   2   26.30    2.60
  -7  -5   2   29.92    2.36
   6   5  -2  102.31    9.02
  -6  -5   2  113.27    8.73
  -6  -5   2  102.67    9.05
  -6  -5   2  117.32    8.79
  -6  -5   2  114.11    8.57
  -6  -5   2  120.35    8.57
  -5  -5   2   39.11    2.94
  -5  -5   2   37.58    3.26
  -5  -5   2   36.51    3.14
  -5  -5   2   38.44    2.97
  -5  -5   2   35.18    3.13
  -5  -5   2   31.99    3.50
  -4  -5   2  154.68   11.92
  -4  -5   2  157.71   11.69
  -4  -5   2  156.10   11.73
  -4  -5   2  145.84   12.46
  -4  -5   2  156.26   12.00
  -4  -5   2  158.04   11.88
  -3  -5   2  134.50   10.02
  -3  -5   2  130.56   10.07
  -3  -5   2  142.85   10.36
  -3  -5   2  135.11   10.29
  -3  -5   2  129.54   10.19
  -3  -5   2  124.43   10.88
  -2  -5   2   45.70    3.72
  -2  -5   2   47.20    3.86
  -2  -5   2   46.19    3.57
  -2  -5   2   45.50    3.62
  -2  -5   2   48.13    3.88
  -2  -5   2   44.91    4.50
   1   5  -2   98.86    8.27
   1   5  -2  100.12    8.21
  -1  -5   2  116.83    8.55
  -1  -5   2  114.58    8.35
  -1  -5   2  109.30    8.21
  -1  -5   2  108.76    9.30
  -1  -5   2  111.82    8.28
  -1  -5   2  112.28    8.51
   0   5  -2  258.77   20.67
   0   5  -2  273.07   20.59
   0   5  -2  278.10   20.89
   0   5  -2  267.13   21.11
   0  -5   2  266.49   21.06
   0  -5   2  287.61   20.67
   0  -5   2  271.32   20.57
   0  -5   2  282.85   20.90
   0  -5   2  277.63   20.93
   0  -5   2  269.06   21.76
   0  -5   2  299.18   20.69
  -1   5  -2   48.82    4.18
  -1   5  -2   45.93    3.71
  -1   5  -2   49.48    3.61
  -1   5  -2   40.26    4.03
   1  -5   2   49.32    3.69
   1  -5   2   49.89    3.66
   1  -5   2   47.36    4.11
   1  -5   2   44.44    4.27
   1  -5   2   48.78    3.92
  -2   5  -2  251.21   17.92
  -2   5  -2  253.83   18.77
  -2   5  -2  220.42   18.02
   2  -5   2  235.41   18.62
   2  -5   2  224.24   18.83
   2  -5   2  251.79   18.24
  -3   5  -2  421.41   33.58
  -3   5  -2  480.71   34.55
  -3   5  -2  466.77   33.47
  -3   5  -2  393.11   34.21
   3  -5   2  479.08   33.78
   3  -5   2  424.92   34.61
   3  -5   2  473.73   34.43
  -4   5  -2  273.64   21.18
  -4   5  -2  234.88   19.36
  -4   5  -2  244.77   20.21
   4  -5   2  286.07   19.58
   4  -5   2  244.89   20.58
   4  -5   2  268.00   20.40
   4  -5   2  247.90   19.18
  -5   5  -2  146.42   11.31
  -5   5  -2  120.83   10.84
  -5   5  -2  122.05    9.87
   5  -5   2  117.95   11.19
   5  -5   2  138.24   10.04
   5  -5   2  136.32   11.13
   5  -5   2  122.64    9.70
  -6   5  -2  108.48    8.84
  -6   5  -2  114.97   10.07
  -6   5  -2  127.72   10.47
   6  -5   2  106.49   10.35
   6  -5   2  126.07   10.39
   6  -5   2  106.98    8.69
  -7   5  -2   36.92    4.44
  -7   5  -2   36.15    3.22
  -7   5  -2   43.65    4.87
   7  -5   2   45.75    4.94
   7  -5   2   37.08    3.09
   7  -5   2   34.51    4.73
  -8   5  -2   38.82    3.29
  -8   5  -2   36.74    4.63
  -8   5  -2   43.16    5.14
   8  -5   2   37.71    3.19
   8  -5   2   44.11    5.18
   8  -5   2   35.96    5.00
   8   4  -2   99.31    7.96
   8   4  -2   80.48    7.70
  -8  -4   2   90.67    7.78
  -8  -4   2   88.83    7.62
   7   4  -2   60.38    5.84
   7   4  -2   69.61    5.92
  -7  -4   2   71.54    5.56
  -7  -4   2   67.43    5.89
  -7  -4   2   62.90    5.72
  -7  -4   2   74.66    5.34
   6   4  -2  222.91   19.38
  -6  -4   2  252.26   19.39
  -6  -4   2  275.86   18.98
  -6  -4   2  266.61   19.08
  -6  -4   2  257.30   19.16
  -6  -4   2  228.96   19.23
  -6  -4   2  277.33   19.00
  -6  -4   2  234.82   19.44
   5   4  -2  217.56   18.80
   5   4  -2  229.18   18.78
  -5  -4   2  234.45   19.08
  -5  -4   2  261.31   18.68
  -5  -4   2  258.81   18.76
  -5  -4   2  261.29   18.51
  -5  -4   2  266.83   18.49
  -5  -4   2  222.28   18.62
  -5  -4   2  260.61   18.64
  -5  -4   2  246.84   18.73
   4   4  -2  161.22   13.68
   4   4  -2  165.05   13.66
  -4  -4   2  171.63   14.06
  -4  -4   2  190.96   13.70
  -4  -4   2  185.37   13.45
  -4  -4   2  191.35   13.62
  -4  -4   2  180.72   13.42
  -3  -4   2  450.61   33.35
  -3  -4   2  456.78   33.40
  -3  -4   2  432.75   34.10
  -3  -4   2  438.36   33.55
  -3  -4   2  446.39   33.50
  -3  -4   2  456.02   33.60
  -2  -4   2  802.50   60.02
   1   4  -2  537.14   43.33
  -1  -4   2  608.38   43.44
  -1  -4   2  599.27   43.56
  -2   4  -2  663.93   46.43
  -2   4  -2  603.63   46.51
   2  -4   2  601.55   47.26
  -3   4  -2  419.32   35.78
  -3   4  -2  519.39   36.10
  -3   4  -2  460.38   35.19
   3  -4   2  482.12   35.93
   3  -4   2  468.89   36.18
   3  -4   2  473.93   35.04
  -4   4  -2  282.92   24.56
  -4   4  -2  348.74   24.87
  -4   4  -2  291.90   23.74
   4  -4   2  297.32   24.87
   4  -4   2  315.67   23.62
   4  -4   2  343.38   23.91
   4  -4   2  336.28   24.72
  -5   4  -2  115.33    9.64
  -5   4  -2  117.88   10.55
  -5   4  -2  141.50   10.97
   5  -4   2  121.99    9.54
   5  -4   2  131.72   10.79
   5  -4   2  141.02    9.81
   5  -4   2  117.64   10.90
  -6   4  -2  181.43   14.75
  -6   4  -2  218.42   16.32
  -6   4  -2  184.79   15.85
   6  -4   2  209.71   16.22
   6  -4   2  185.99   16.26
   6  -4   2  190.79   14.68
  -7   4  -2  147.03   11.78
  -7   4  -2  169.61   13.52
  -7   4  -2  141.07   12.98
   7  -4   2  143.88   11.72
   7  -4   2  173.14   13.56
  -8   4  -2   54.07    5.84
  -8   4  -2   54.93    4.51
  -8   4  -2   62.01    6.33
   8  -4   2   49.16    6.14
   8  -4   2   53.53    4.48
   8  -4   2   64.75    6.43
  -9   4  -2   92.56    8.60
  -9   4  -2   77.41    6.43
  -9   4  -2   77.26    7.97
   9  -4   2   74.52    7.60
   9  -4   2   73.76    8.49
   9  -4   2   95.68    8.81
   8   3  -2   35.03    3.55
   8   3  -2   39.79    4.17
   8   3  -2   35.25    3.76
  -8  -3   2   37.95    4.05
   7   3  -2   41.20    4.36
   7   3  -2   49.20    4.72
   7   3  -2   47.15    4.30
  -7  -3   2   49.57    4.77
  -7  -3   2   44.04    4.41
  -7  -3   2   56.82    3.93
  -7  -3   2   52.51    4.13
   6   3  -2   30.79    3.02
   6   3  -2   32.42    2.94
  -6  -3   2   30.18    2.97
  -6  -3   2   33.40    2.61
  -6  -3   2   29.94    3.01
   5   3  -2  266.34   20.64
   5   3  -2  268.85   20.77
   5   3  -2  255.76   20.60
  -5  -3   2  246.38   20.55
  -5  -3   2  262.49   20.82
  -5  -3   2  293.38   20.43
  -5  -3   2  295.47   20.35
   4   3  -2  149.75   12.42
   4   3  -2  167.69   12.52
   4   3  -2  162.41   12.51
   4   3  -2  155.84   12.48
  -4  -3   2  150.01   12.41
  -4  -3   2  166.88   12.21
  -4  -3   2  171.68   12.37
  -4  -3   2  171.42   12.34
  -4  -3   2  157.73   12.80
  -4  -3   2  167.74   12.42
   3   3  -2  147.93   12.20
   3   3  -2  144.41   12.21
  -3  -3   2  154.64   12.65
  -3  -3   2  167.12   12.04
  -3  -3   2  148.17   12.12
  -3  -3   2  172.01   12.25
  -3  -3   2  162.71   12.21
  -3  -3   2  170.13   12.20
  -3  -3   2  167.74   12.08
  -3  -3   2  167.70   12.17
   2   3  -2  375.76   30.44
  -2  -3   2  400.39   30.34
  -2  -3   2  430.34   30.50
  -2  -3   2  414.24   30.48
  -2  -3   2  420.58   30.42
  -2  -3   2  398.38   30.99
  -2  -3   2  404.51   30.31
   1   3  -2  536.51   41.39
  -1  -3   2  572.25   41.47
   0   3  -2   78.87    5.87
   0   3  -2   82.51    6.16
   0   3  -2   74.13    5.91
   0   3  -2   77.03    6.10
   0  -3   2   72.45    6.08
   0  -3   2   77.06    6.22
   0  -3   2   76.21    6.61
   0  -3   2   82.88    5.91
   0  -3   2   80.44    5.87
   0  -3   2   77.83    5.91
  -1   3  -2   60.12    4.94
  -1   3  -2   63.14    4.48
  -1   3  -2   59.06    4.53
   1  -3   2   57.40    5.25
   1  -3   2   56.63    4.52
   1  -3   2   56.98    5.01
   1  -3   2   60.63    4.47
  -2   3  -2   23.22    2.49
  -2   3  -2   27.94    2.68
  -2   3  -2   27.29    2.14
   2  -3   2   28.19    2.13
   2  -3   2   26.30    2.74
   2  -3   2   27.72    2.60
  -3   3  -2   62.01    5.06
  -3   3  -2   55.31    4.26
  -3   3  -2   48.41    4.77
   3  -3   2   56.86    4.14
   3  -3   2   51.67    5.05
   3  -3   2   56.43    4.90
  -4   3  -2  277.47   22.11
  -4   3  -2  266.96   22.80
  -4   3  -2  327.55   23.19
   4  -3   2  326.99   22.25
   4  -3   2  298.19   22.98
   4  -3   2  292.21   22.03
   4  -3   2  276.46   23.15
  -5   3  -2  182.52   14.03
  -5   3  -2  158.37   13.71
  -5   3  -2  158.64   12.86
   5  -3   2  185.77   12.97
   5  -3   2  178.90   13.95
   5  -3   2  164.44   12.81
   5  -3   2  164.00   14.10
  -6   3  -2   52.78    5.11
  -6   3  -2   51.70    4.86
  -6   3  -2   45.09    3.76
   6  -3   2   50.82    4.99
   6  -3   2   41.62    4.95
   6  -3   2   44.87    3.80
   6  -3   2   46.31    3.74
  -7   3  -2  153.66   13.51
  -7   3  -2  155.85   12.34
  -7   3  -2  185.85   14.07
   7  -3   2  154.17   13.97
   7  -3   2  149.76   12.34
   7  -3   2  178.40   14.02
  -8   3  -2  115.25    9.96
  -8   3  -2  104.19    8.09
  -8   3  -2   94.20    9.34
   8  -3   2   95.61    8.12
   8  -3   2  101.04    9.94
   8  -3   2  121.85   10.11
  -9   3  -2   19.26    1.87
  -9   3  -2   19.91    3.22
  -9   3  -2   22.25    3.60
   9  -3   2   19.03    3.60
   9  -3   2   24.46    3.74
   8   2  -2  111.53    9.56
   8   2  -2   98.31    8.64
   8   2  -2   98.24    8.94
  -8  -2   2  108.07    9.50
  -8  -2   2  112.94    8.47
  -8  -2   2   97.91    9.08
  -8  -2   2  122.35    8.31
   7   2  -2  237.03   20.49
   7   2  -2  281.22   21.30
   7   2  -2  244.92   20.74
  -7  -2   2  291.87   20.40
  -7  -2   2  245.65   20.87
  -7  -2   2  276.22   21.28
  -7  -2   2  299.24   20.22
   6   2  -2  161.79   12.90
   6   2  -2  163.58   13.07
  -6  -2   2  179.52   13.50
  -6  -2   2  170.93   12.54
  -6  -2   2  155.96   13.17
   5   2  -2  302.30   23.94
   5   2  -2  342.10   24.39
   5   2  -2  297.05   23.53
   5   2  -2  296.45   23.63
   5   2  -2  323.56   23.92
  -5  -2   2  276.59   23.77
  -5  -2   2  308.51   23.91
  -5  -2   2  289.84   23.74
  -5  -2   2  318.00   23.29
  -5  -2   2  324.88   23.43
  -5  -2   2  339.46   23.29
   4   2  -2  644.64   51.02
   4   2  -2  659.99   50.85
   4   2  -2  640.42   50.78
   4   2  -2  691.97   51.22
  -4  -2   2  717.10   50.65
  -4  -2   2  715.46   50.72
   3   2  -2  384.21   29.04
   3   2  -2  402.34   29.39
   3   2  -2  363.38   28.93
   3   2  -2  367.22   28.91
   3   2  -2  382.74   29.07
  -3  -2   2  371.86   29.30
  -3  -2   2  406.26   28.92
  -3  -2   2  389.99   28.75
  -3  -2   2  405.20   28.86
  -3  -2   2  386.02   29.05
  -3  -2   2  361.35   28.98
  -3  -2   2  402.42   28.87
   2   2  -2  127.48   10.14
   2   2  -2  121.90   10.22
   2   2  -2  132.19   10.15
   2   2  -2  134.68   10.23
   2   2  -2  140.78   10.65
  -2  -2   2  130.03   10.17
  -2  -2   2  140.81   10.15
  -2  -2   2  140.06   10.12
  -2  -2   2  139.28   10.02
  -2  -2   2  137.36   10.21
  -2  -2   2  124.49   10.82
  -4   2  -2  588.78   40.80
  -4   2  -2  480.18   40.45
  -4   2  -2  527.98   39.81
   4  -2   2  537.51   40.86
   5  -2   2  731.41   55.80
  -6   2  -2  249.44   18.88
  -6   2  -2  211.35   18.49
   6  -2   2  219.03   18.93
   6  -2   2  220.30   17.61
   6  -2   2  251.78   18.87
   6  -2   2  251.02   17.61
  -7   2  -2  113.52    9.42
  -7   2  -2   92.78    8.87
   7  -2   2  112.13    9.36
   7  -2   2   98.16    7.91
   7  -2   2   96.62    9.35
  -8   2  -2  149.01   13.20
  -8   2  -2  172.66   13.75
   8  -2   2  148.85   13.76
   8  -2   2  179.50   13.88
   8  -2   2  143.08   12.00
   8  -2   2  149.96   12.78
   9   1  -2   29.85    3.16
   9   1  -2   33.20    3.68
  -9  -1   2   34.04    4.15
  -9  -1   2   34.36    4.35
   8   1  -2   15.60    2.50
   8   1  -2   12.53    1.99
   8   1  -2   11.38    1.65
  -8  -1   2   17.84    1.46
  -8  -1   2   15.02    2.53
  -8  -1   2   13.19    2.18
   7   1  -2   27.06    2.96
   7   1  -2   24.98    2.63
   7   1  -2   29.25    3.46
  -7  -1   2   30.15    2.55
  -7  -1   2   32.35    2.40
  -7  -1   2   28.62    3.94
  -7  -1   2   26.23    3.12
   6   1  -2  127.17   10.57
   6   1  -2  129.76   10.37
  -6  -1   2  127.01   10.83
  -6  -1   2  152.44   10.13
  -6  -1   2  130.07   10.25
   5   1  -2   14.66    1.92
   5   1  -2   16.55    2.00
   5   1  -2   14.69    1.53
   5   1  -2   13.76    1.90
   5   1  -2   14.30    1.66
  -5  -1   2   15.74    1.45
  -5  -1   2   15.74    2.03
  -5  -1   2   13.30    1.78
  -5  -1   2   14.90    1.23
  -5  -1   2   18.30    1.33
   4   1  -2   68.88    5.76
   4   1  -2   74.03    6.07
   4   1  -2   67.78    6.00
   4   1  -2   78.78    6.25
  -4  -1   2   65.53    5.93
  -4  -1   2   67.26    6.08
  -4  -1   2   76.34    5.64
  -4  -1   2   78.54    5.52
  -4  -1   2   73.53    5.51
  -4  -1   2   72.76    6.08
   3   1  -2  448.43   33.45
   3   1  -2  464.35   33.49
  -3  -1   2  426.86   33.84
  -1   1  -2  145.57   11.89
  -1   1  -2  157.89   11.62
   1  -1   2  153.38   12.07
   1  -1   2  156.92   11.93
   1  -1   2  156.36   12.04
   1  -1   2  162.27   11.62
  -2   1  -2  109.36    8.15
  -2   1  -2  118.80    8.10
   2  -1   2  103.16    8.62
   2  -1   2  102.44    8.55
  -3   1  -2  284.89   21.63
  -3   1  -2  310.92   21.61
  -3   1  -2  296.54   22.31
   3  -1   2  285.41   22.21
   3  -1   2  269.27   22.75
  -4   1  -2    6.73    1.25
  -4   1  -2    8.04    0.66
  -4   1  -2    5.98    1.08
   4  -1   2    6.58    0.66
   4  -1   2    6.44    1.28
   4  -1   2    6.36    1.16
  -5   1  -2   81.29    5.70
  -5   1  -2   79.56    6.69
  -5   1  -2   65.84    6.33
   5  -1   2   78.19    6.60
   5  -1   2   70.60    5.71
   5  -1   2   69.47    6.70
  -6   1  -2  148.32   11.43
  -6   1  -2  147.17   10.18
  -6   1  -2  118.74   10.92
   6  -1   2  126.23   11.39
   6  -1   2  127.03   10.20
   6  -1   2  135.01   11.25
  -7   1  -2    8.44    1.66
  -7   1  -2    7.24    1.80
   7  -1   2    6.48    0.89
   7  -1   2    7.92    1.79
   7  -1   2    6.94    1.89
   7  -1   2    7.05    1.31
  -8   1  -2   20.78    3.01
  -8   1  -2   24.88    3.40
   8  -1   2   21.37    3.46
   8  -1   2   26.83    3.53
   9   0  -2   68.23    6.44
   9   0  -2   63.03    5.85
  -9   0   2   81.25    7.55
  -9   0   2   67.70    6.76
   8   0  -2  181.08   14.28
   8   0  -2  147.34   13.33
   8   0  -2  146.75   12.92
  -8   0   2  180.82   14.42
  -8   0   2  151.57   13.72
  -8   0   2  191.82   12.76
   7   0  -2   68.33    6.26
  -7   0   2   72.31    6.94
  -7   0   2   81.95    7.37
  -7   0   2   93.94    6.31
   6   0  -2  288.57   22.14
   6   0  -2  265.77   21.54
  -6   0   2  312.81   21.09
  -6   0   2  254.69   21.86
  -6   0   2  282.86   22.18
   5   0  -2  655.30   54.16
   5   0  -2  804.12   54.54
   5   0  -2  682.14   53.78
   5   0  -2  704.28   53.62
  -5   0   2  640.09   54.06
  -5   0   2  777.82   53.43
  -5   0   2  699.43   54.29
  -5   0   2  769.49   53.57
   4   0  -2  741.22   55.51
   1   0  -2   37.75    2.82
   1   0  -2   37.30    3.62
   1   0  -2   36.59    2.87
   1   0  -2   38.99    3.31
  -1   0   2   35.80    3.06
  -1   0   2   35.51    3.09
  -1   0   2   37.14    3.27
  -2   0  -2   57.98    4.94
  -2   0  -2   60.42    4.45
  -2   0  -2   60.41    4.47
   2   0   2   55.46    4.96
   2   0   2   61.44    4.83
  -5   0  -2  223.12   19.59
  -5   0  -2  284.42   19.03
  -5   0  -2  265.80   19.95
   5   0   2  249.85   19.39
   5   0   2  244.88   20.08
   5   0   2  241.52   19.06
   5   0   2  262.81   19.86
  -6   0  -2  502.23   34.79
  -6   0  -2  410.12   35.47
  -6   0  -2  496.83   35.91
   6   0   2  440.19   34.83
   6   0   2  443.76   36.05
   6   0   2  500.13   35.88
   6   0   2  458.98   35.43
  -7   0  -2  406.50   27.84
  -7   0  -2  388.14   29.11
   7   0   2  384.66   29.09
   7   0   2  351.39   29.29
   7   0   2  335.72   28.32
   7   0   2  353.26   29.08
  -8   0  -2  133.73   12.71
  -8   0  -2  156.65   13.22
  -8   0  -2  164.01   11.78
   8   0   2  174.87   13.44
   8   0   2  138.58   12.36
  -9   0  -2  153.56   12.84
  -9   0  -2  133.47   12.26
   9   0   2  164.67   13.10
   9   0   2  122.69   11.77
 -10   0  -2   59.05    6.14
  10   0   2   52.92    5.76
   9  -1  -2   10.57    1.97
   9  -1  -2   10.06    1.41
  -9   1   2   11.49    1.78
  -9   1   2   11.20    2.75
  -9   1   2   10.11    2.22
   8  -1  -2   77.25    6.97
   8  -1  -2   70.02    6.47
   8  -1  -2   83.11    7.83
  -8   1   2   89.98    6.27
  -8   1   2   89.51    8.07
  -8   1   2   72.88    7.39
   7  -1  -2  109.34    9.33
   7  -1  -2  113.74    9.67
   7  -1  -2  101.01    8.51
  -7   1   2   98.37    9.29
  -7   1   2  119.95    9.86
   6  -1  -2   25.78    2.77
   6  -1  -2   31.77    3.62
   6  -1  -2   28.23    3.32
   6  -1  -2   29.65    3.32
   6  -1  -2   27.51    2.53
  -6   1   2   25.99    4.00
  -6   1   2   30.92    3.45
   5  -1  -2   91.97    8.19
   5  -1  -2   95.21    7.56
   5  -1  -2  104.38    8.37
  -5   1   2  105.02    8.43
  -5   1   2   90.46    8.14
   4  -1  -2   10.05    1.48
   4  -1  -2    8.66    1.38
   4  -1  -2   10.23    1.00
   4  -1  -2    9.74    1.69
  -4   1   2    8.92    1.37
  -4   1   2    8.93    1.44
   3  -1  -2   17.44    1.87
   3  -1  -2   16.37    1.89
   3  -1  -2   18.18    1.50
  -3   1   2   18.45    1.95
  -3   1   2   17.23    1.37
  -3   1   2   16.27    1.86
   2  -1  -2  317.46   23.10
  -2   1   2  280.87   22.73
   1  -1  -2   42.99    3.64
   1  -1  -2   46.18    3.87
   1  -1  -2   42.28    3.26
  -1   1   2   40.10    3.80
  -1   1   2   44.45    3.26
  -1   1   2   40.12    3.61
  -1   1   2   47.10    3.64
   0  -1  -2   37.28    3.15
   0  -1  -2   34.45    2.96
   0  -1  -2   36.45    2.70
   0  -1  -2   35.66    2.69
   0   1   2   35.19    3.15
   0   1   2   35.36    2.97
  -3  -1  -2   50.47    4.55
  -3  -1  -2   58.48    4.22
  -3  -1  -2   59.03    4.76
   3   1   2   53.20    4.61
   3   1   2   55.88    4.39
   3   1   2   49.39    4.74
   3   1   2   56.89    4.39
   4   1   2  535.66   40.83
   4   1   2  554.20   40.16
   4   1   2  516.67   40.25
  -5  -1  -2  259.58   18.85
  -5  -1  -2  256.65   17.99
  -5  -1  -2  211.47   18.48
   5   1   2  240.95   18.70
   5   1   2  228.92   18.30
   5   1   2  240.21   18.09
   5   1   2  233.53   18.95
  -6  -1  -2  103.34    9.84
  -6  -1  -2  128.43    9.27
  -6  -1  -2  125.66   10.22
   6   1   2  111.76    9.67
   6   1   2  127.73   10.21
   6   1   2  135.75    9.21
   6   1   2  112.62   10.36
  -7  -1  -2   77.01    7.44
  -7  -1  -2   93.84    7.95
   7   1   2   81.30    8.03
   7   1   2   96.99    7.92
   7   1   2   80.23    7.24
  -8  -1  -2   17.60    2.73
  -8  -1  -2   14.30    2.32
   8   1   2   16.54    2.23
   8   1   2   18.45    2.81
  -9  -1  -2    7.17    1.87
  -9  -1  -2    8.15    2.17
  -9  -1  -2    7.30    1.04
   9   1   2    6.09    1.60
   9   1   2    8.18    2.19
 -10  -1  -2   58.31    7.51
 -10  -1  -2   65.45    5.03
  10   1   2   57.30    5.99
   9  -2  -2   35.21    3.66
   9  -2  -2   36.65    4.13
  -9   2   2   39.68    4.77
  -9   2   2   49.38    3.42
  -9   2   2   44.71    5.44
   8  -2  -2   41.19    4.27
   8  -2  -2   42.20    3.85
   8  -2  -2   47.32    5.24
  -8   2   2   40.99    4.77
  -8   2   2   50.40    3.64
  -8   2   2   48.14    5.39
   7  -2  -2  182.67   14.58
   7  -2  -2  160.51   13.22
  -7   2   2  191.21   14.77
  -7   2   2  155.48   14.14
   6  -2  -2   67.95    6.72
   6  -2  -2   80.47    6.97
   6  -2  -2   72.81    5.87
  -6   2   2   78.76    7.02
  -6   2   2   70.60    6.68
   5  -2  -2  190.85   14.73
   5  -2  -2  173.07   15.01
   5  -2  -2  179.66   13.79
  -5   2   2  167.26   14.48
  -5   2   2  196.66   14.83
   3   2   2  571.69   42.74
  -4  -2  -2  427.41   31.27
  -4  -2  -2  371.55   31.03
   4   2   2  427.96   30.77
   4   2   2  402.01   31.37
   4   2   2  406.24   30.90
   4   2   2  422.06   31.17
  -5  -2  -2  511.37   35.48
  -5  -2  -2  496.94   36.23
  -5  -2  -2  419.62   35.92
   5   2   2  490.10   36.14
   5   2   2  503.78   35.50
   5   2   2  438.89   35.76
   5   2   2  453.88   36.34
  -6  -2  -2  163.65   11.76
  -6  -2  -2  159.40   12.64
  -6  -2  -2  138.24   12.31
   6   2   2  166.64   11.69
   6   2   2  149.29   12.83
   6   2   2  145.69   12.14
  -7  -2  -2  260.76   19.76
  -7  -2  -2  270.41   18.67
  -7  -2  -2  228.98   19.37
   7   2   2  223.31   19.13
  -8  -2  -2  265.12   22.96
  -8  -2  -2  301.64   23.38
  -8  -2  -2  299.35   22.32
   8   2   2  266.34   22.75
   8   2   2  327.36   23.58
  -9  -2  -2  103.79    8.16
  -9  -2  -2  107.30    9.57
  -9  -2  -2   89.92    9.03
   9   2   2   98.12    8.92
   9   2   2  116.90    9.80
   9  -3  -2   25.76    3.64
  -9   3   2   26.95    3.84
  -9   3   2   32.90    4.57
  -9   3   2   26.19    2.36
   8  -3  -2   22.15    3.60
   8  -3  -2   17.69    1.97
  -8   3   2   21.05    3.46
  -8   3   2   18.40    2.94
  -8   3   2   22.93    1.80
   7  -3  -2  110.12   10.52
   7  -3  -2  132.56   10.87
   7  -3  -2  114.55    9.35
  -7   3   2  134.63   11.01
  -7   3   2  111.47   10.41
   6  -3  -2  263.02   22.82
   6  -3  -2  280.26   21.82
   6  -3  -2  320.04   23.16
  -6   3   2  260.90   22.73
  -6   3   2  321.82   23.28
   5  -3  -2  125.96    9.83
   5  -3  -2  140.70   10.92
   5  -3  -2  119.64   10.67
  -5   3   2  116.56   10.61
  -5   3   2  139.93   10.98
   4  -3  -2  299.00   25.19
   4  -3  -2  357.48   25.45
   4  -3  -2  331.14   24.52
  -4   3   2  292.72   25.19
  -4   3   2  340.06   25.44
  -4   3   2  339.66   24.42
   3  -3  -2  407.28   33.79
   3  -3  -2  499.61   34.37
  -3   3   2  452.75   33.96
  -3   3   2  411.72   33.84
  -3   3   2  451.06   33.20
   2  -3  -2   11.36    1.46
  -2   3   2   12.51    1.50
  -2   3   2   10.93    1.03
  -2   3   2   11.22    0.87
  -2   3   2    9.81    1.38
  -1  -3  -2  173.08   13.71
  -1  -3  -2  187.69   13.41
  -1  -3  -2  174.08   13.71
   1   3   2  189.41   13.26
   1   3   2  170.54   13.40
   1   3   2  170.84   13.57
  -2  -3  -2  196.88   13.88
  -2  -3  -2  184.62   14.03
  -2  -3  -2  168.78   13.98
  -2  -3  -2  193.21   13.65
   2   3   2  181.45   13.89
   2   3   2  180.36   13.93
   2   3   2  177.40   14.01
  -3  -3  -2  279.32   21.61
  -3  -3  -2  293.34   21.42
  -3  -3  -2  307.58   21.70
   3   3   2  280.71   21.89
   3   3   2  279.36   21.75
   3   3   2  285.71   21.71
  -4  -3  -2   17.25    1.67
  -4  -3  -2   15.40    1.82
  -4  -3  -2   19.44    1.62
   4   3   2   17.49    1.92
   4   3   2   18.81    1.82
   4   3   2   18.85    1.66
   4   3   2   18.86    2.43
  -5  -3  -2  336.40   23.80
  -5  -3  -2  318.44   24.42
  -5  -3  -2  292.19   24.18
   5   3   2  329.97   23.81
   5   3   2  323.68   24.35
   5   3   2  294.03   24.05
  -6  -3  -2  228.80   17.78
  -6  -3  -2  203.41   17.48
  -6  -3  -2  249.28   17.18
   6   3   2  230.18   16.94
   6   3   2  233.40   17.75
   6   3   2  199.12   17.34
  -7  -3  -2   45.15    4.55
  -7  -3  -2   54.32    4.93
   7   3   2   45.67    4.44
   7   3   2   46.32    3.80
  -8  -3  -2   28.16    3.44
  -8  -3  -2   29.33    2.51
  -8  -3  -2   24.46    3.12
   8   3   2   28.52    3.49
   8   3   2   26.15    3.05
  -9  -3  -2   38.18    3.26
  -9  -3  -2   33.04    4.76
  -9  -3  -2   40.22    4.49
   9   3   2   35.34    4.00
   8  -4  -2  154.87   12.84
   8  -4  -2  123.51   10.41
  -8   4   2  126.43   11.79
   7  -4  -2   95.23    8.02
   7  -4  -2  114.18    9.67
   7  -4  -2   95.60    9.33
  -7   4   2   96.72    9.22
  -7   4   2  113.98    9.79
   6  -4  -2  294.42   22.18
   6  -4  -2  263.37   21.95
   6  -4  -2  258.26   20.76
  -6   4   2  252.74   21.82
  -6   4   2  307.32   22.38
   5  -4  -2  140.28   12.41
   5  -4  -2  166.59   12.68
   5  -4  -2  145.94   11.46
  -5   4   2  136.41   12.36
  -5   4   2  164.64   12.77
   4  -4  -2   44.35    3.59
   4  -4  -2   47.10    4.49
   4  -4  -2   43.64    4.37
  -4   4   2   47.49    4.54
  -4   4   2   42.79    4.35
  -4   4   2   46.18    3.57
   3  -4  -2  540.45   41.92
  -3   4   2  562.49   41.98
   2   4   2  551.19   41.34
  -4  -4  -2  400.68   32.21
  -4  -4  -2  438.82   32.41
  -4  -4  -2  448.73   32.08
  -4  -4  -2  458.09   31.98
   4   4   2  430.20   32.28
   4   4   2  422.21   32.49
   4   4   2  411.20   32.01
   4   4   2  396.73   32.15
  -5  -4  -2  115.98    8.41
  -5  -4  -2  112.33    8.52
  -5  -4  -2  111.17    8.94
  -5  -4  -2   98.94    8.72
  -5  -4  -2  104.08    8.14
   5   4   2  111.85    8.86
   5   4   2  104.04    9.05
   5   4   2  109.25    8.42
  -6  -4  -2  275.22   20.42
  -6  -4  -2  276.16   21.11
   6   4   2  245.94   21.79
   6   4   2  277.80   21.06
   6   4   2  267.64   20.39
  -7  -4  -2  145.98   11.14
  -7  -4  -2  119.62   10.70
   7   4   2  139.64   11.06
   7   4   2  136.28   10.12
   7   4   2  115.04   10.64
  -8  -4  -2   44.03    3.70
  -8  -4  -2   38.11    4.21
  -8  -4  -2   43.84    4.58
   8   4   2   41.07    4.26
   8   4   2   50.26    6.21
  -9  -4  -2   78.10    7.14
  -9  -4  -2   79.83    6.12
  -9  -4  -2   66.93    6.62
   9   4   2   64.65    6.62
   8  -5  -2   26.49    3.85
   8  -5  -2   21.11    2.14
   8  -5  -2   21.86    3.58
  -8   5   2   20.63    3.38
  -8   5   2   26.76    4.02
   7  -5  -2    6.48    1.99
   7  -5  -2    6.64    1.99
   7  -5  -2    4.99    0.85
  -7   5   2    6.20    1.83
  -7   5   2    5.12    1.71
   6  -5  -2   21.56    3.40
   6  -5  -2   18.97    2.85
   6  -5  -2   14.99    1.60
   6  -5  -2   15.09    2.61
  -6   5   2   20.22    3.01
  -6   5   2   15.75    2.56
   5  -5  -2  172.37   15.28
   5  -5  -2  198.80   15.50
   5  -5  -2  185.30   14.21
  -5   5   2  202.93   15.65
  -5   5   2  178.69   15.28
   4  -5  -2  184.51   14.33
   4  -5  -2  164.76   14.17
  -4   5   2  174.73   13.27
  -4   5   2  196.56   14.53
  -4   5   2  155.14   14.08
   3  -5  -2   97.56    8.13
   3  -5  -2   90.98    8.04
   3  -5  -2  110.25    7.47
  -3   5   2   84.42    7.98
  -3   5   2   89.24    7.33
  -3   5   2   97.19    8.17
   2  -5  -2  295.58   24.86
   2  -5  -2  347.77   24.43
   2  -5  -2  365.35   25.19
  -2   5   2  312.55   24.36
  -2   5   2  284.21   24.86
  -2   5   2  336.71   25.02
   1  -5  -2  124.52    9.67
   1  -5  -2  132.33    9.25
   1  -5  -2  111.18    9.54
  -1   5   2  111.82    9.18
  -1   5   2  109.69    9.57
  -1   5   2  126.03    9.64
   0  -5  -2  199.04   13.97
   0  -5  -2  167.75   14.15
   0  -5  -2  184.02   14.28
   0   5   2  185.28   13.74
   0   5   2  189.94   14.23
   0   5   2  171.20   13.94
  -1  -5  -2  122.01    8.77
  -1  -5  -2  118.01    9.10
  -1  -5  -2  108.69    8.94
  -1  -5  -2  121.84    8.81
   1   5   2   99.13    8.94
   1   5   2  116.45    8.95
   1   5   2  104.97    8.79
   1   5   2  117.15    8.55
  -2  -5  -2   67.79    5.62
  -2  -5  -2   72.95    5.42
  -2  -5  -2   69.42    5.11
  -2  -5  -2   72.66    5.41
  -2  -5  -2   64.02    5.48
   2   5   2   66.79    5.46
   2   5   2   63.44    5.41
   2   5   2   64.71    5.57
  -3  -5  -2   25.89    2.33
  -3  -5  -2   24.62    2.39
  -3  -5  -2   28.15    2.57
  -3  -5  -2   26.87    2.03
   3   5   2   25.41    2.36
   3   5   2   26.27    2.59
   3   5   2   23.03    2.34
   3   5   2   28.01    2.46
  -4  -5  -2  280.53   19.09
  -4  -5  -2  264.49   19.43
  -4  -5  -2  269.27   19.18
  -4  -5  -2  256.77   18.79
  -4  -5  -2  229.15   19.22
  -4  -5  -2  241.11   19.09
   4   5   2  238.54   19.12
   4   5   2  254.62   19.29
   4   5   2  251.05   19.49
   4   5   2  231.67   19.22
  -5  -5  -2   42.34    3.88
  -5  -5  -2   41.76    3.16
  -5  -5  -2   44.69    3.49
  -5  -5  -2   36.82    3.66
  -5  -5  -2   43.95    3.60
   5   5   2   40.78    3.99
   5   5   2   36.55    3.68
   5   5   2   39.30    3.48
   5   5   2   44.80    4.10
  -6  -5  -2   61.79    5.26
  -6  -5  -2   59.54    4.37
   6   5   2   61.78    4.71
   6   5   2   53.81    5.03
   6   5   2   48.33    4.99
  -7  -5  -2  155.87   11.04
  -7  -5  -2  123.11   11.34
  -7  -5  -2  142.18   10.66
  -7  -5  -2  150.80   11.76
   7   5   2  151.10   11.69
   7   5   2  124.00   11.41
   7   5   2  142.88   10.94
  -8  -5  -2  109.21    8.17
  -8  -5  -2   90.23    8.60
  -8  -5  -2  102.40    7.78
  -8  -5  -2  110.38    9.04
   8   5   2  110.71    9.05
   8   5   2   90.59    8.68
  -9  -5  -2   11.60    2.03
  -9  -5  -2   14.62    1.34
  -9  -5  -2   12.69    2.57
   9   5   2   13.73    2.54
   8  -6  -2   60.88    7.09
   8  -6  -2   59.91    5.34
   8  -6  -2   70.47    7.34
  -8   6   2   65.88    6.97
  -8   6   2   76.52    7.59
   7  -6  -2  221.23   17.13
   7  -6  -2  180.87   16.75
   7  -6  -2  179.72   15.15
  -7   6   2  184.81   16.63
  -7   6   2  232.13   17.48
   6  -6  -2  189.19   15.34
  -6   6   2  196.57   15.60
  -6   6   2  156.58   14.91
   5  -6  -2  180.68   16.05
   5  -6  -2  218.20   16.34
   5  -6  -2  193.30   14.85
  -5   6   2  179.30   15.97
  -5   6   2  210.02   16.45
   4  -6  -2  288.62   22.27
   4  -6  -2  322.15   21.36
   4  -6  -2  257.84   22.12
  -4   6   2  277.76   21.19
  -4   6   2  245.97   22.04
  -4   6   2  290.58   22.39
   3  -6  -2  200.12   15.07
   3  -6  -2  172.01   14.85
  -3   6   2  197.28   15.10
  -3   6   2  180.57   14.14
  -3   6   2  177.12   14.89
   2  -6  -2  387.58   28.73
   2  -6  -2  342.40   28.56
   2  -6  -2  406.18   28.09
  -2   6   2  397.50   28.77
  -2   6   2  354.22   28.01
  -2   6   2  342.93   28.59
   1  -6  -2  445.30   35.57
   1  -6  -2  526.61   35.23
   1  -6  -2  470.26   35.67
  -1   6   2  477.46   35.00
  -1   6   2  448.58   35.15
  -1   6   2  497.66   35.68
  -1   6   2  408.25   35.54
   0  -6  -2  234.80   16.99
   0  -6  -2  223.34   17.34
   0  -6  -2  206.91   17.22
   0   6   2  207.05   16.96
   0   6   2  228.96   16.75
   0   6   2  235.05   17.31
  -1  -6  -2  410.85   27.90
  -1  -6  -2  370.80   27.54
  -1  -6  -2  381.17   27.91
  -1  -6  -2  352.95   28.08
  -1  -6  -2  379.03   28.24
   1   6   2  380.36   27.63
   1   6   2  340.15   27.90
   1   6   2  395.38   28.11
   1   6   2  316.60   28.03
  -2  -6  -2  728.36   49.90
   2   6   2  682.47   49.55
   2   6   2  613.13   49.96
   2   6   2  635.94   49.89
  -3  -6  -2  500.23   35.12
  -3  -6  -2  430.59   35.12
  -3  -6  -2  511.61   35.15
  -3  -6  -2  476.45   35.28
  -3  -6  -2  469.95   34.74
   3   6   2  496.05   35.16
   3   6   2  423.70   35.20
   3   6   2  420.09   35.09
  -4  -6  -2  386.20   28.24
  -4  -6  -2  387.81   28.90
  -4  -6  -2  355.66   28.66
  -4  -6  -2  393.46   28.61
  -4  -6  -2  400.90   28.84
  -4  -6  -2  419.92   28.78
   4   6   2  390.06   28.68
   4   6   2  362.29   28.80
   4   6   2  341.86   28.69
   4   6   2  348.02   28.61
  -5  -6  -2  608.03   41.69
  -5  -6  -2  554.72   41.36
  -5  -6  -2  563.90   41.18
  -5  -6  -2  510.12   41.65
  -5  -6  -2  530.85   41.37
  -5  -6  -2  595.22   41.95
   5   6   2  575.21   41.71
   5   6   2  507.26   41.76
   5   6   2  526.58   41.58
  -6  -6  -2  153.02   13.12
  -6  -6  -2  175.78   12.58
  -6  -6  -2  176.99   13.36
  -6  -6  -2  174.37   13.08
   6   6   2  158.55   13.29
   6   6   2  164.97   12.97
  -7  -6  -2  101.96    8.39
  -7  -6  -2  106.24    7.85
  -7  -6  -2   90.88    8.11
  -7  -6  -2   97.89    7.43
   7   6   2   98.28    7.81
   7   6   2  107.99    8.31
   7   6   2   80.15    8.16
  -8  -6  -2   92.92    7.17
  -8  -6  -2   82.36    7.90
  -8  -6  -2   93.79    8.17
  -8  -6  -2  107.55    8.14
   8   6   2  100.41    8.23
   7  -7  -2   19.09    3.28
   7  -7  -2   15.60    3.02
   7  -7  -2   16.19    1.66
  -7   7   2   15.79    2.94
  -7   7   2   21.57    3.50
   6  -7  -2   31.76    4.02
   6  -7  -2   26.91    2.48
   6  -7  -2   27.05    3.82
  -6   7   2   28.02    3.77
  -6   7   2   33.88    4.27
   5  -7  -2   24.91    3.52
   5  -7  -2   31.44    3.79
   5  -7  -2   28.87    2.43
  -5   7   2   27.36    3.56
  -5   7   2   31.88    3.94
   4  -7  -2   73.22    6.70
   4  -7  -2   61.61    7.31
   4  -7  -2   80.06    5.79
  -4   7   2   61.10    6.45
  -4   7   2   72.07    6.77
   3  -7  -2  123.97   10.85
   3  -7  -2  141.00   11.07
  -3   7   2  143.97   11.16
  -3   7   2  115.76    9.99
  -3   7   2  123.14   10.87
  -3   7   2  129.41   10.07
   2  -7  -2   54.26    4.86
   2  -7  -2   57.52    4.22
   2  -7  -2   43.67    4.62
  -2   7   2   46.28    4.66
  -2   7   2   45.03    3.94
  -2   7   2   47.65    4.10
   1  -7  -2  214.10   18.48
   1  -7  -2  254.99   18.71
   1  -7  -2  263.34   18.15
  -1   7   2  217.82   18.06
  -1   7   2  254.92   18.65
  -1   7   2  215.80   18.52
  -1   7   2  237.90   17.88
   0  -7  -2  294.49   20.82
   0  -7  -2  259.23   21.08
   0   7   2  281.87   20.53
   0   7   2  242.39   21.06
   0   7   2  257.98   20.79
   0   7   2  302.73   21.21
  -1  -7  -2  126.47   10.86
  -1  -7  -2  138.02   10.27
  -1  -7  -2  147.74   10.74
  -1  -7  -2  149.29   10.71
  -1  -7  -2  143.15   11.07
   1   7   2  124.01   10.71
   1   7   2  123.09   10.86
   1   7   2  141.04   10.41
   1   7   2  144.88   10.91
  -2  -7  -2  145.96   11.99
  -2  -7  -2  162.27   11.51
  -2  -7  -2  167.05   11.95
  -2  -7  -2  160.04   11.94
  -2  -7  -2  156.29   12.14
   2   7   2  141.48   11.94
   2   7   2  147.04   11.56
   2   7   2  144.29   12.03
   2   7   2  158.35   11.96
  -3  -7  -2  339.88   24.01
  -3  -7  -2  324.02   24.00
  -3  -7  -2  347.48   24.46
  -3  -7  -2  325.87   24.52
  -3  -7  -2  337.82   24.47
  -3  -7  -2  302.41   24.41
   3   7   2  277.68   24.40
   3   7   2  346.29   24.40
   3   7   2  290.68   24.35
  -4  -7  -2   23.91    1.80
  -4  -7  -2   21.58    2.22
  -4  -7  -2   22.33    1.76
  -4  -7  -2   19.85    2.11
  -4  -7  -2   23.90    2.15
  -4  -7  -2   23.65    2.29
   4   7   2   19.53    2.17
   4   7   2   24.11    2.39
   4   7   2   19.37    2.06
  -5  -7  -2   38.72    3.37
  -5  -7  -2   38.95    3.43
  -5  -7  -2   35.67    3.30
  -5  -7  -2   37.39    2.91
  -5  -7  -2   39.63    3.46
  -5  -7  -2   33.70    3.29
  -5  -7  -2   42.45    3.00
   5   7   2   34.83    3.53
   5   7   2   35.09    3.37
   5   7   2   37.43    3.20
  -6  -7  -2   33.20    2.53
  -6  -7  -2   37.01    3.02
  -6  -7  -2   32.36    3.08
  -6  -7  -2   28.79    2.95
  -6  -7  -2   34.03    3.13
   6   7   2   32.10    3.00
   6   7   2   28.38    3.21
  -7  -7  -2   27.84    2.44
  -7  -7  -2   20.78    2.41
  -7  -7  -2   23.92    1.92
  -7  -7  -2   25.83    2.56
  -7  -7  -2   24.12    2.57
   7   7   2   21.10    2.73
  -8  -7  -2   27.84    3.28
  -8  -7  -2   34.18    2.49
  -8  -7  -2   32.67    3.24
   8   7   2   27.35    3.43
   7  -8  -2   52.09    5.68
   7  -8  -2   38.84    5.21
   7  -8  -2   40.10    3.58
  -7   8   2   49.74    5.83
  -7   8   2   39.60    5.14
   6  -8  -2  119.88   11.24
   6  -8  -2  121.42    9.52
   6  -8  -2  146.35   11.66
  -6   8   2  109.75    9.99
  -6   8   2  119.07   11.12
   5  -8  -2  222.72   16.96
   5  -8  -2  189.95   16.66
  -5   8   2  185.52   15.31
   4  -8  -2  183.42   14.93
   4  -8  -2  202.70   13.90
   4  -8  -2  151.71   14.63
  -4   8   2  191.79   15.14
  -4   8   2  157.41   13.60
   3  -8  -2  308.33   23.03
   3  -8  -2  262.17   22.75
   3  -8  -2  319.11   22.06
  -3   8   2  274.81   21.91
  -3   8   2  258.69   21.78
  -3   8   2  303.49   23.01
   2  -8  -2  259.26   21.53
   2  -8  -2  313.75   21.85
  -2   8   2  269.15   20.88
  -2   8   2  249.29   21.06
   1  -8  -2  195.49   16.61
   1  -8  -2  228.38   15.68
   1  -8  -2  206.01   16.21
  -1   8   2  177.45   15.55
  -1   8   2  204.59   15.36
   0  -8  -2  382.23   32.05
   0  -8  -2  464.07   31.80
   0  -8  -2  429.37   32.24
   0   8   2  380.31   31.73
   0   8   2  451.21   32.17
   0   8   2  409.17   31.44
  -1  -8  -2  322.16   23.95
  -1  -8  -2  329.79   24.84
  -1  -8  -2  301.17   24.64
   1   8   2  287.88   24.78
   1   8   2  330.42   24.13
   1   8   2  355.09   24.73
  -2  -8  -2  110.72    7.78
  -2  -8  -2   97.11    8.30
  -2  -8  -2  108.49    8.30
   2   8   2   88.68    8.33
   2   8   2  109.10    8.28
   2   8   2  105.00    7.88
  -3  -8  -2  218.49   16.44
  -3  -8  -2  231.24   16.42
  -3  -8  -2  218.11   16.92
  -3  -8  -2  246.81   16.83
  -3  -8  -2  226.91   16.92
  -3  -8  -2  201.98   16.81
   3   8   2  192.51   16.91
  -4  -8  -2  266.54   21.17
  -4  -8  -2  251.06   21.49
  -4  -8  -2  282.81   21.25
  -4  -8  -2  308.51   20.91
  -4  -8  -2  288.43   21.36
  -4  -8  -2  310.95   21.28
  -4  -8  -2  279.67   20.86
   4   8   2  241.27   21.34
  -5  -8  -2  137.60   10.71
  -5  -8  -2  136.09   11.29
  -5  -8  -2  158.45   11.18
  -5  -8  -2  139.31   11.30
  -5  -8  -2  153.44   10.78
  -5  -8  -2  151.49   11.32
   5   8   2  121.76   11.20
  -6  -8  -2  228.17   16.65
  -6  -8  -2  213.82   16.56
  -6  -8  -2  223.25   17.19
  -6  -8  -2  238.57   17.05
   6   8   2  201.06   17.10
  -7  -8  -2  112.34    8.63
  -7  -8  -2  112.52    8.52
   6  -9  -2   24.45    3.76
   6  -9  -2   20.28    1.89
   6  -9  -2   20.22    3.72
  -6   9   2   18.55    2.10
   5  -9  -2   50.05    6.05
   5  -9  -2   61.92    6.40
  -5   9   2   55.47    5.59
  -5   9   2   65.41    6.66
   4  -9  -2   53.93    5.49
   4  -9  -2   43.61    5.15
  -4   9   2   40.79    4.03
  -4   9   2   53.66    5.84
   3  -9  -2   17.68    2.81
   3  -9  -2   23.30    3.07
  -3   9   2   23.44    3.13
  -3   9   2   16.85    1.95
   2  -9  -2  115.04   10.13
   2  -9  -2  126.62   10.29
  -2   9   2  115.28    9.39
  -2   9   2  113.08    9.16
   1  -9  -2   55.07    5.42
   1  -9  -2   63.16    5.67
  -1   9   2   56.87    4.96
  -1   9   2   56.56    4.67
   0  -9  -2   59.18    5.36
   0  -9  -2   53.75    5.19
   0   9   2   54.90    4.89
   0   9   2   59.14    4.60
  -1  -9  -2  169.80   12.92
  -1  -9  -2  153.49   12.72
  -1  -9  -2  157.61   11.92
   1   9   2  171.76   12.16
   1   9   2  145.32   12.54
  -2  -9  -2  140.07   11.27
  -2  -9  -2  148.30   10.56
  -2  -9  -2  134.49   11.14
  -2  -9  -2  154.51   11.20
   2   9   2  142.66   10.70
   2   9   2  124.78   11.15
  -3  -9  -2   52.73    4.89
  -3  -9  -2   59.75    5.02
  -3  -9  -2   62.07    4.56
  -3  -9  -2   69.11    5.04
  -3  -9  -2   62.56    5.26
  -3  -9  -2   62.73    5.16
   3   9   2   51.20    5.12
  -4  -9  -2  158.39   12.55
  -4  -9  -2  162.11   12.00
  -4  -9  -2  152.24   13.02
  -4  -9  -2  163.19   12.58
  -4  -9  -2  167.25   12.42
  -4  -9  -2  152.94   12.00
  -5  -9  -2   33.92    2.72
  -5  -9  -2   32.89    3.42
  -5  -9  -2   34.56    2.76
  -5  -9  -2   39.00    3.23
  -5  -9  -2   32.41    3.42
  -5  -9  -2   36.71    3.41
   5   9   2   31.94    3.35
  -6  -9  -2   20.92    1.94
  -6  -9  -2   21.30    2.16
  -6  -9  -2   22.87    1.84
   5 -10  -2   59.36    6.79
   5 -10  -2   74.34    7.22
  -5  10   2   58.42    5.38
   4 -10  -2  194.93   14.52
   4 -10  -2  189.93   15.76
  -4  10   2  163.79   14.26
   3 -10  -2   95.61    9.95
   3 -10  -2  129.09    9.31
  -3  10   2  123.34   10.38
  -3  10   2  105.77    8.94
   2 -10  -2  140.65   11.46
   2 -10  -2  140.38   10.57
   2 -10  -2  117.67   11.19
  -2  10   2  121.92   10.21
  -2  10   2  135.71   11.91
   1 -10  -2  266.99   23.93
   1 -10  -2  319.59   24.21
   1 -10  -2  329.68   23.52
  -1  10   2  288.57   23.10
  -1  10   2  284.78   23.45
  -1  10   2  342.62   24.25
   0 -10  -2  230.94   16.22
   0 -10  -2  220.48   16.24
   0 -10  -2  180.62   16.49
   0 -10  -2  210.49   16.75
   0  10   2  183.23   16.18
   0  10   2  230.71   16.71
   0  10   2  198.76   15.79
  -1 -10  -2  174.80   13.41
  -1 -10  -2  154.87   13.54
  -1 -10  -2  185.86   13.41
  -1 -10  -2  173.22   13.73
   1  10   2  186.66   13.59
   1  10   2  164.79   12.94
   1  10   2  148.77   13.39
  -2 -10  -2  175.83   13.27
  -2 -10  -2  163.05   12.51
  -2 -10  -2  190.89   13.46
  -2 -10  -2  163.03   13.22
  -2 -10  -2  146.85   13.09
   2  10   2  142.24   13.19
   2  10   2  164.11   12.69
   2  10   2  192.75   13.05
  -3 -10  -2   66.23    5.27
  -3 -10  -2   57.68    4.52
  -3 -10  -2   61.53    5.64
  -3 -10  -2   61.31    4.99
   3  10   2   50.04    5.18
  -4 -10  -2   77.89    5.70
  -4 -10  -2   77.16    6.36
  -4 -10  -2   69.78    6.83
  -4 -10  -2   78.09    6.17
  -4 -10  -2   75.81    6.36
   4  10   2   66.39    6.38
  -5 -10  -2  120.57   10.26
  -5 -10  -2  118.99   10.22
  -5 -10  -2  129.18    9.35
   3 -11  -2   82.39    7.57
   3 -11  -2   68.92    7.26
   3 -11  -2   77.43    6.48
  -3  11   2   64.64    6.02
   2 -11  -2   18.25    2.12
   2 -11  -2   14.02    2.57
   2 -11  -2   17.95    2.82
  -2  11   2   17.11    1.80
   1 -11  -2   37.03    3.62
   1 -11  -2   31.12    3.26
   1 -11  -2   32.14    3.87
  -1  11   2   35.14    3.84
  -1  11   2   27.09    2.84
   0 -11  -2   26.17    3.41
   0 -11  -2   34.18    3.22
   0 -11  -2   33.38    3.26
   0  11   2   36.31    3.60
   0  11   2   30.61    2.80
  -1 -11  -2   13.75    1.75
  -1 -11  -2    9.05    1.68
  -1 -11  -2   10.69    1.83
  -1 -11  -2   12.23    1.73
   1  11   2   12.03    1.67
   1  11   2   10.67    1.22
  -2 -11  -2   26.47    2.92
  -2 -11  -2   36.50    3.78
  -2 -11  -2   32.74    2.38
  -2 -11  -2   31.01    3.06
   2  11   2   30.90    2.62
  -3 -11  -2   52.84    4.61
  -3 -11  -2   54.43    4.23
  -4 -11  -2   13.19    1.22
  -4 -11  -2   13.91    2.37
   0 -12  -2  126.61    9.99
   0 -12  -2   99.85    9.63
   0 -10   3   34.81    5.23
   0 -10   3   44.45    3.35
  -1  10  -3   87.71    7.00
   1 -10   3   92.59    7.48
   1 -10   3   83.04    9.23
   1 -10   3   80.74    7.56
   1 -10   3   90.35    6.72
  -3  -9   3   89.85    6.98
  -3  -9   3  101.87    7.87
  -3  -9   3   93.02    7.61
  -3  -9   3   81.47    8.69
  -2  -9   3  171.97   12.72
  -2  -9   3  154.82   12.01
  -2  -9   3  165.71   12.20
  -2  -9   3  157.21   12.25
  -2  -9   3  146.18   13.97
  -1  -9   3  223.58   16.76
  -1  -9   3  186.11   17.97
  -1  -9   3  217.36   16.08
  -1  -9   3  222.51   16.59
  -1  -9   3  209.13   16.09
   0   9  -3   90.38    7.56
   0  -9   3  104.86    8.08
   0  -9   3   84.64    9.36
   0  -9   3   96.13    7.45
   0  -9   3  100.75    7.52
   0  -9   3  100.85    7.98
  -1   9  -3  140.22   11.60
  -1   9  -3  156.95   11.47
   1  -9   3  144.15   13.79
   1  -9   3  146.86   11.40
   1  -9   3  161.05   12.16
   1  -9   3  136.68   12.32
   1  -9   3  166.89   12.12
  -2   9  -3  167.19   12.76
  -2   9  -3  155.33   11.86
  -2   9  -3  172.65   13.05
   2  -9   3  153.54   11.81
   2  -9   3  137.34   13.17
   2  -9   3  172.35   12.61
   2  -9   3  142.91   15.66
  -3   9  -3   94.79    7.54
   3  -9   3   89.60    8.94
   3  -9   3   85.41    9.53
   3  -9   3  102.29    8.05
   3  -9   3  101.82    8.63
  -4   9  -3  116.60    9.26
   4  -9   3  134.02   10.73
   4  -9   3  111.24   11.43
   4  -9   3  107.50   10.83
  -4  -8   3   73.59    5.99
  -4  -8   3   72.51    6.22
  -4  -8   3   76.45    5.82
  -4  -8   3   64.45    7.02
  -4  -8   3   74.10    5.71
  -4  -8   3   84.32    7.28
  -3  -8   3   77.95    6.00
  -3  -8   3   67.87    7.44
  -3  -8   3   79.33    6.13
  -3  -8   3   81.93    6.86
  -3  -8   3   80.52    6.25
  -3  -8   3   79.22    6.52
  -2  -8   3   47.37    3.62
  -2  -8   3   45.42    4.03
  -2  -8   3   38.04    4.96
  -2  -8   3   47.18    4.22
  -2  -8   3   40.81    3.45
  -2  -8   3   46.02    3.69
  -1  -8   3   77.49    8.27
  -1  -8   3   91.24    7.11
  -1  -8   3   86.22    7.02
  -1  -8   3   89.43    6.64
  -1  -8   3   81.07    6.48
   0   8  -3   90.36    6.82
   0   8  -3   84.53    6.98
   0  -8   3   92.73    6.92
   0  -8   3   96.56    7.41
   0  -8   3   97.96    7.39
   0  -8   3   95.18    6.96
   0  -8   3   88.34    7.18
   0  -8   3   81.54    7.30
   0  -8   3   77.59    8.57
  -1   8  -3   89.24    7.14
  -1   8  -3   74.40    6.62
  -1   8  -3   84.33    6.45
   1  -8   3   91.70    7.07
   1  -8   3   89.52    6.60
   1  -8   3   77.75    7.39
   1  -8   3   84.90    7.15
   1  -8   3   83.06    8.56
   1  -8   3   84.50    6.48
  -2   8  -3  212.51   15.53
  -2   8  -3  222.77   16.66
  -2   8  -3  193.36   15.73
   2  -8   3  191.27   16.86
   2  -8   3  189.92   17.62
   2  -8   3  201.68   15.48
   2  -8   3  226.30   16.17
   2  -8   3  213.81   16.57
  -3   8  -3  160.78   11.48
  -3   8  -3  165.11   13.79
  -3   8  -3  142.81   11.69
   3  -8   3  138.56   13.02
   3  -8   3  167.41   12.11
   3  -8   3  136.68   13.59
  -4   8  -3   69.34    6.23
  -4   8  -3   81.25    6.03
  -4   8  -3   89.88    7.76
   4  -8   3   85.63    7.56
   4  -8   3   71.19    7.72
   4  -8   3   68.11    8.01
   4  -8   3   82.33    6.68
  -5   8  -3  102.15    7.76
  -5   8  -3   99.01    8.02
   5  -8   3   98.00   10.17
   5  -8   3  119.09    9.72
   5  -8   3   89.47    9.68
  -6   8  -3   54.02    4.32
   6  -8   3   47.33    6.09
   6  -8   3   43.58    5.93
   6  -8   3   59.95    6.14
  -5  -7   3  130.50   10.24
  -5  -7   3  131.81    9.86
  -5  -7   3  131.49    9.79
  -5  -7   3  130.51   10.06
  -5  -7   3  129.72   10.19
  -5  -7   3  114.16   10.82
  -4  -7   3  147.48   11.60
  -4  -7   3  151.19   11.43
  -4  -7   3  146.42   11.17
  -4  -7   3  150.62   11.63
  -4  -7   3  135.00   12.52
  -4  -7   3  152.55   11.27
  -3  -7   3  294.61   22.27
  -3  -7   3  306.55   22.74
  -3  -7   3  306.67   22.37
  -3  -7   3  310.53   22.74
  -3  -7   3  308.78   22.50
  -3  -7   3  252.71   24.58
  -2  -7   3  340.76   26.33
  -2  -7   3  363.93   26.45
  -2  -7   3  352.68   26.53
  -2  -7   3  365.93   26.81
  -2  -7   3  329.29   27.89
  -2  -7   3  359.54   26.82
  -1  -7   3  334.70   25.61
  -1  -7   3  358.00   26.13
  -1  -7   3  350.41   25.77
  -1  -7   3  352.51   26.08
  -1  -7   3  353.34   25.74
  -1  -7   3  306.15   27.20
   0   7  -3  479.17   35.99
   0   7  -3  450.35   36.12
   0   7  -3  517.81   36.27
   0  -7   3  516.13   36.11
   0  -7   3  479.73   36.38
   0  -7   3  470.60   36.57
   0  -7   3  434.61   37.70
   0  -7   3  505.29   36.08
  -1   7  -3  301.63   22.42
  -1   7  -3  290.93   22.58
   1  -7   3  315.06   22.45
   1  -7   3  291.93   23.40
   1  -7   3  319.54   23.14
   1  -7   3  275.41   24.25
  -2   7  -3  290.36   21.86
  -2   7  -3  253.27   20.40
  -2   7  -3  281.10   20.24
   2  -7   3  274.02   21.17
   2  -7   3  315.60   21.31
   2  -7   3  245.51   22.10
   2  -7   3  265.76   20.24
   2  -7   3  238.38   21.41
  -3   7  -3  314.22   25.19
  -3   7  -3  360.06   25.03
   3  -7   3  371.51   25.58
   3  -7   3  301.84   26.46
   3  -7   3  344.95   26.20
   3  -7   3  312.16   27.01
  -4   7  -3  130.82   10.72
  -4   7  -3  126.69    9.17
  -4   7  -3  111.00    9.33
   4  -7   3  110.97   10.81
   4  -7   3  129.86    9.66
   4  -7   3  126.56   10.56
   4  -7   3  107.89   11.02
  -5   7  -3   65.89    7.00
  -5   7  -3   56.22    4.85
  -5   7  -3   60.23    4.68
   5  -7   3   62.77    6.23
   5  -7   3   54.94    6.50
   5  -7   3   55.22    6.43
   5  -7   3   65.74    5.19
  -6   7  -3  166.69   13.33
  -6   7  -3  153.17   11.20
  -6   7  -3  133.15   11.34
   6  -7   3  137.41   13.22
   6  -7   3  135.83   13.28
   6  -7   3  157.96   13.16
  -7   7  -3   82.37    6.23
  -7   7  -3   76.68    6.40
   7  -7   3   93.86   10.88
   7  -7   3   76.49    8.23
   7  -7   3   76.28    8.49
  -6  -6   3   41.56    4.63
  -6  -6   3   50.51    4.32
  -6  -6   3   50.23    4.59
  -6  -6   3   49.20    4.18
  -6  -6   3   53.91    3.99
  -5  -6   3  142.46   10.54
  -5  -6   3  143.84   10.69
  -5  -6   3  138.44   10.85
  -5  -6   3  135.43   10.69
  -5  -6   3  139.85   10.79
  -5  -6   3  125.93   11.42
  -4  -6   3   69.15    5.19
  -4  -6   3   67.66    5.41
  -4  -6   3   66.07    5.53
  -4  -6   3   69.46    5.27
  -4  -6   3   60.91    6.23
  -4  -6   3   67.93    5.57
  -3  -6   3   97.22    9.17
  -3  -6   3  105.00    7.97
  -3  -6   3  110.44    8.07
  -3  -6   3  103.11    8.33
  -3  -6   3  105.00    8.17
  -3  -6   3  107.88    8.36
  -2  -6   3  177.82   13.32
  -2  -6   3  163.68   14.61
  -2  -6   3  183.71   13.42
  -2  -6   3  176.42   13.48
  -2  -6   3  183.89   13.73
   1   6  -3   55.96    4.82
  -1  -6   3   63.60    4.95
  -1  -6   3   65.85    5.22
  -1  -6   3   61.17    4.82
  -1  -6   3   67.33    5.27
  -1  -6   3   62.74    6.22
  -1  -6   3   65.00    4.93
   0   6  -3   51.44    4.25
   0   6  -3   53.01    4.12
   0   6  -3   53.06    4.42
   0   6  -3   59.19    4.47
   0  -6   3   51.68    4.66
   0  -6   3   51.32    5.51
   0  -6   3   53.91    4.49
   0  -6   3   44.50    4.67
   0  -6   3   55.81    4.20
   0  -6   3   58.20    4.23
  -1   6  -3  115.78    8.58
  -1   6  -3  115.94    8.84
  -1   6  -3  105.12    8.14
   1  -6   3  104.41    8.73
   1  -6   3  109.52    8.15
   1  -6   3  102.26    9.00
   1  -6   3  101.47    9.67
  -2   6  -3   20.09    2.36
  -2   6  -3   16.86    1.65
  -2   6  -3   19.06    1.53
   2  -6   3   17.00    2.51
   2  -6   3   17.49    1.45
   2  -6   3   18.48    1.91
   2  -6   3   17.48    2.85
   2  -6   3   19.76    2.27
  -3   6  -3   66.78    4.92
  -3   6  -3   60.39    5.04
   3  -6   3   64.04    5.89
   3  -6   3   69.93    5.35
   3  -6   3   61.37    6.52
   3  -6   3   60.44    6.20
  -4   6  -3  176.82   14.81
  -4   6  -3  200.58   14.70
  -4   6  -3  218.60   16.19
   4  -6   3  212.56   16.06
   4  -6   3  205.59   15.12
   4  -6   3  175.67   16.20
   4  -6   3  176.29   16.36
  -5   6  -3   46.36    3.53
  -5   6  -3   41.00    3.63
  -5   6  -3   46.74    4.95
   5  -6   3   48.01    3.92
   5  -6   3   42.75    5.13
   5  -6   3   46.29    4.91
   5  -6   3   39.83    5.03
  -6   6  -3   41.30    3.71
  -6   6  -3   51.07    5.34
   6  -6   3   42.79    5.33
   6  -6   3   50.18    5.29
   6  -6   3   41.31    5.18
  -7   6  -3   85.73    7.88
  -7   6  -3   69.85    5.90
   7  -6   3   71.35    7.56
   7  -6   3   70.94    7.87
  -7  -5   3  129.61    9.58
  -7  -5   3  114.93   10.01
  -7  -5   3  128.44    9.69
  -6  -5   3   83.83    6.13
  -6  -5   3   69.71    6.79
  -6  -5   3   79.91    6.31
  -6  -5   3   79.20    6.07
  -5  -5   3  177.04   14.02
  -5  -5   3  184.25   13.95
  -5  -5   3  197.07   13.75
  -5  -5   3  160.03   14.56
  -5  -5   3  187.46   14.20
  -5  -5   3  185.46   13.80
  -4  -5   3  190.63   14.63
  -4  -5   3  178.24   15.41
  -4  -5   3  195.59   14.45
  -4  -5   3  202.60   14.52
  -3  -5   3   97.88    8.91
  -3  -5   3  106.36    8.17
  -3  -5   3  102.83    7.85
  -3  -5   3  107.01    8.17
  -3  -5   3  102.90    7.92
  -2  -5   3  281.39   20.41
  -2  -5   3  253.51   20.13
  -2  -5   3  277.55   20.37
  -2  -5   3  273.24   20.05
  -2  -5   3  244.96   21.14
  -2  -5   3  276.09   20.20
   1   5  -3  427.95   34.04
  -1  -5   3  470.23   34.15
  -1  -5   3  438.50   34.03
  -1  -5   3  420.61   35.24
  -1  -5   3  467.99   34.12
  -1  -5   3  494.74   34.42
  -1  -5   3  473.42   34.35
   0   5  -3  268.82   19.42
   0   5  -3  245.76   19.35
   0   5  -3  246.14   19.13
   0   5  -3  254.30   19.06
   0  -5   3  252.68   19.04
   0  -5   3  267.17   19.11
   0  -5   3  270.04   19.13
   0  -5   3  270.61   19.42
   0  -5   3  245.78   19.58
   0  -5   3  234.34   20.27
   0  -5   3  244.87   19.38
  -1   5  -3  520.99   41.68
  -1   5  -3  502.77   42.11
  -1   5  -3  582.53   41.61
  -1   5  -3  608.11   42.29
   1  -5   3  565.20   42.17
   1  -5   3  524.09   42.39
   1  -5   3  511.18   42.93
   1  -5   3  576.68   41.68
   1  -5   3  588.40   41.60
   1  -5   3  597.86   41.97
  -2   5  -3  736.03   51.78
  -2   5  -3  688.00   50.99
  -2   5  -3  719.64   50.88
  -2   5  -3  603.17   51.59
   2  -5   3  710.36   50.96
   2  -5   3  651.71   51.92
   2  -5   3  668.90   52.37
  -3   5  -3  301.19   21.25
  -3   5  -3  298.75   22.31
  -3   5  -3  245.17   21.99
  -3   5  -3  279.67   21.35
   3  -5   3  308.33   21.60
   3  -5   3  269.11   22.73
   3  -5   3  272.78   22.53
   3  -5   3  294.90   22.20
  -4   5  -3  397.13   29.26
  -4   5  -3  329.81   28.85
  -4   5  -3  381.32   27.95
  -4   5  -3  357.46   28.14
   4  -5   3  380.86   29.11
   4  -5   3  371.29   29.90
   4  -5   3  360.46   30.53
   4  -5   3  410.48   28.31
  -5   5  -3  251.88   21.20
  -5   5  -3  247.27   22.16
  -5   5  -3  326.07   22.79
   5  -5   3  309.87   21.52
   5  -5   3  263.95   22.75
   5  -5   3  291.63   22.52
  -6   5  -3   82.09    8.05
  -6   5  -3   99.32    8.55
  -6   5  -3   87.49    6.93
   6  -5   3  101.30    8.54
   6  -5   3   80.70    8.50
   6  -5   3   84.08    8.34
  -7   5  -3  139.10   12.45
  -7   5  -3  144.98   11.08
  -7   5  -3  168.05   13.08
   7  -5   3  133.71   13.00
   7  -5   3  137.31   12.59
  -8   5  -3  100.97    9.77
  -8   5  -3  101.47    8.23
  -8   5  -3  119.78   11.24
   8  -5   3   94.65   10.26
   8  -5   3  122.87   10.51
   8  -5   3   98.78    9.72
   7   4  -3   18.07    2.36
  -7  -4   3   23.05    2.03
  -7  -4   3   22.62    2.34
  -7  -4   3   26.71    2.94
  -7  -4   3   22.38    2.39
   6   4  -3   33.83    3.33
   6   4  -3   31.94    3.33
  -6  -4   3   35.99    3.28
  -6  -4   3   33.68    3.17
  -6  -4   3   36.72    3.07
  -6  -4   3   38.22    3.00
  -6  -4   3   37.31    3.18
  -6  -4   3   42.92    3.01
  -6  -4   3   34.88    3.67
   5   4  -3   22.69    2.51
  -5  -4   3   30.71    2.30
  -5  -4   3   26.52    2.21
  -5  -4   3   24.92    2.95
  -5  -4   3   27.98    2.40
   4   4  -3  145.61   12.44
  -4  -4   3  165.09   12.38
  -4  -4   3  146.21   12.98
  -4  -4   3  165.20   12.33
  -4  -4   3  166.25   12.22
  -4  -4   3  167.98   12.16
  -4  -4   3  170.91   12.43
   3   4  -3  121.15    9.93
  -3  -4   3  131.92    9.85
  -3  -4   3  133.48    9.96
  -3  -4   3  133.82    9.96
  -3  -4   3  137.35    9.78
  -3  -4   3  120.43   10.62
  -3  -4   3  119.49    9.89
  -2  -4   3  154.23   11.24
  -2  -4   3  147.72   11.10
  -2  -4   3  148.01   11.04
  -2  -4   3  145.72   10.98
  -2  -4   3  136.86   11.95
  -2  -4   3  143.37   11.24
   1   4  -3  641.22   49.87
  -1  -4   3  612.99   50.87
  -1  -4   3  701.91   50.16
  -1  -4   3  699.55   50.11
  -1  -4   3  690.32   49.95
   0   4  -3  357.36   26.66
   0   4  -3  326.93   26.92
   0   4  -3  387.38   27.06
   0   4  -3  331.76   26.70
   0  -4   3  350.40   27.16
   0  -4   3  370.78   26.71
   0  -4   3  399.80   26.99
   0  -4   3  332.51   27.67
   0  -4   3  376.27   26.69
   0  -4   3  337.47   26.96
   0  -4   3  356.63   26.64
  -1   4  -3   26.07    2.13
  -1   4  -3   26.67    2.60
  -1   4  -3   27.24    2.07
  -1   4  -3   25.73    2.53
   1  -4   3   27.33    2.12
   1  -4   3   24.32    2.49
   1  -4   3   26.05    2.03
   1  -4   3   25.98    3.09
   1  -4   3   26.11    2.74
  -2   4  -3  173.81   12.69
  -2   4  -3  183.30   13.52
  -2   4  -3  165.81   12.76
   2  -4   3  167.96   13.35
   2  -4   3  168.74   12.74
   2  -4   3  167.12   13.64
   2  -4   3  155.49   13.81
  -3   4  -3  152.30   11.02
  -3   4  -3  144.02   11.09
  -3   4  -3  162.04   12.04
  -3   4  -3  130.81   11.71
   3  -4   3  145.75   11.85
   3  -4   3  143.91   12.19
  -4   4  -3   41.86    4.41
  -4   4  -3   43.53    3.68
  -4   4  -3   50.18    4.74
   4  -4   3   48.20    4.60
   4  -4   3   43.79    4.81
   4  -4   3   51.21    3.92
   4  -4   3   47.23    4.86
  -5   4  -3  177.01   15.74
  -5   4  -3  182.77   14.83
  -5   4  -3  214.43   16.18
   5  -4   3  192.71   16.34
   5  -4   3  200.37   16.03
   5  -4   3  211.32   15.04
  -6   4  -3   63.17    5.31
  -6   4  -3   78.16    6.84
  -6   4  -3   60.94    6.31
   6  -4   3   62.59    6.58
   6  -4   3   72.96    6.71
   6  -4   3   69.61    5.48
   6  -4   3   69.78    8.66
  -7   4  -3   39.69    4.65
  -7   4  -3   42.61    3.48
  -7   4  -3   47.62    5.09
   7  -4   3   42.28    5.23
   7  -4   3   40.97    4.68
   7  -4   3   45.09    6.04
  -8   4  -3  103.76    8.38
  -8   4  -3  103.59    9.84
  -8   4  -3  122.94   10.45
   8  -4   3  100.95    9.69
   8  -4   3  125.86   10.58
   8  -4   3   96.10   10.31
  -9   4  -3   54.40    7.24
  -9   4  -3   46.39    4.12
  -9   4  -3   46.48    5.61
   9  -4   3   47.15    5.35
   9  -4   3   59.70    6.73
   9  -4   3   47.49    6.14
   8   3  -3   72.19    6.48
   8   3  -3   68.08    6.31
  -8  -3   3   79.88    6.84
  -8  -3   3   73.26    6.51
   7   3  -3  107.61    8.86
   7   3  -3   91.38    8.18
   7   3  -3   88.99    8.21
  -7  -3   3  100.92    7.72
  -7  -3   3  100.84    8.56
  -7  -3   3  111.91    7.79
  -7  -3   3   94.20    8.31
  -7  -3   3  107.95    8.00
   6   3  -3  287.04   22.74
   6   3  -3  315.15   23.25
   6   3  -3  278.40   22.76
  -6  -3   3  277.20   23.08
  -6  -3   3  305.71   23.05
  -6  -3   3  269.74   22.78
  -6  -3   3  303.96   22.59
  -6  -3   3  324.94   22.59
  -6  -3   3  317.14   22.44
   5   3  -3  265.65   19.66
   5   3  -3  244.94   19.41
   5   3  -3  228.96   19.37
  -5  -3   3  237.82   19.86
  -5  -3   3  281.59   19.30
  -5  -3   3  233.84   19.46
  -5  -3   3  263.03   19.61
  -5  -3   3  276.38   19.23
   4   3  -3  404.96   32.47
   4   3  -3  451.48   33.21
   4   3  -3  401.11   32.43
   4   3  -3  434.80   32.50
   4   3  -3  444.35   32.58
  -4  -3   3  403.18   33.00
  -4  -3   3  440.47   32.58
  -4  -3   3  397.88   32.44
  -4  -3   3  452.77   32.43
  -4  -3   3  454.10   32.23
  -4  -3   3  457.98   32.39
  -4  -3   3  429.58   32.51
   3   3  -3  844.09   66.18
  -3  -3   3  926.55   66.16
   2   3  -3  268.51   21.03
   2   3  -3  289.59   21.83
   2   3  -3  258.92   20.87
  -2  -3   3  293.07   20.99
  -2  -3   3  299.59   21.11
  -2  -3   3  289.65   20.88
  -2  -3   3  257.42   21.19
  -2  -3   3  301.14   21.07
  -2  -3   3  281.55   20.93
  -2  -3   3  272.23   21.76
  -2  -3   3  261.36   21.01
   1   3  -3  203.95   15.85
   1   3  -3  220.23   16.11
   1   3  -3  219.23   16.07
   1   3  -3  204.86   15.94
  -1  -3   3  208.45   16.15
  -1  -3   3  194.72   16.03
  -1  -3   3  220.11   15.92
  -1  -3   3  220.28   16.02
  -1  -3   3  210.76   16.75
  -1  -3   3  216.41   15.90
  -1  -3   3  210.48   15.84
  -1   3  -3  540.01   38.22
  -1   3  -3  486.60   38.25
   1  -3   3  511.01   39.20
  -2   3  -3  402.09   29.95
  -2   3  -3  405.44   29.89
  -2   3  -3  360.72   30.43
  -2   3  -3  440.94   30.69
   2  -3   3  407.15   30.53
   2  -3   3  373.00   30.85
   2  -3   3  418.67   29.94
   2  -3   3  396.94   30.78
  -4   3  -3  459.19   34.85
  -4   3  -3  525.28   35.98
  -4   3  -3  419.04   35.58
   4  -3   3  487.66   35.82
   4  -3   3  465.84   35.97
   4  -3   3  441.14   36.06
  -5   3  -3  432.64   34.43
  -5   3  -3  408.77   35.28
  -5   3  -3  511.61   35.76
   5  -3   3  445.05   35.88
   5  -3   3  458.60   35.59
   5  -3   3  506.99   35.70
  -6   3  -3  475.63   33.49
  -6   3  -3  394.24   31.91
  -6   3  -3  365.04   32.87
   6  -3   3  458.29   32.07
   6  -3   3  461.72   33.39
   6  -3   3  411.13   33.08
   6  -3   3  419.61   33.63
  -7   3  -3  127.18   10.19
  -7   3  -3  149.49   11.89
  -7   3  -3  123.33   11.37
   7  -3   3  145.75   11.87
   7  -3   3  131.82   12.06
   7  -3   3  126.77   11.33
  -8   3  -3  111.37    9.67
  -8   3  -3  100.88    7.74
  -8   3  -3   95.89    9.12
   8  -3   3   97.70    9.76
   8  -3   3   96.53    8.99
  -9   3  -3  134.79   11.43
  -9   3  -3  115.52    9.17
  -9   3  -3  114.70   10.80
   9  -3   3  110.47   10.34
   9  -3   3  107.69   11.33
   9  -3   3  138.65   13.06
   8   2  -3   59.47    5.41
   8   2  -3   58.52    5.18
  -8  -2   3   62.45    5.96
  -8  -2   3   56.46    5.52
   7   2  -3   19.79    2.65
   7   2  -3   17.74    2.04
   7   2  -3   17.45    2.17
  -7  -2   3   17.09    2.29
  -7  -2   3   19.54    2.04
  -7  -2   3   19.54    2.57
   6   2  -3   71.96    7.47
   6   2  -3   65.56    5.68
   6   2  -3   61.92    5.58
  -6  -2   3   63.26    5.85
  -6  -2   3   69.40    5.24
  -6  -2   3   73.62    5.28
  -6  -2   3   71.73    6.13
  -6  -2   3   64.51    5.94
   5   2  -3  159.27   12.81
   5   2  -3  159.32   12.82
   5   2  -3  173.96   13.27
   5   2  -3  171.47   13.44
  -5  -2   3  156.46   12.64
  -5  -2   3  161.94   13.30
  -5  -2   3  171.43   13.19
  -5  -2   3  156.51   13.30
  -5  -2   3  178.10   12.56
   4   2  -3    7.92    1.05
   4   2  -3    8.84    1.52
   4   2  -3    8.61    1.26
   4   2  -3    9.08    1.33
   4   2  -3    7.87    1.04
  -4  -2   3    9.65    0.95
  -4  -2   3    9.49    1.30
  -4  -2   3    9.35    0.85
  -4  -2   3    9.70    1.00
  -4  -2   3    8.31    1.45
  -4  -2   3    7.83    1.17
   3   2  -3   47.56    4.10
   3   2  -3   51.44    4.40
   3   2  -3   49.19    4.25
   3   2  -3   48.86    4.16
   3   2  -3   54.88    4.83
  -3  -2   3   50.50    4.71
  -3  -2   3   55.03    3.99
  -3  -2   3   54.03    4.12
  -3  -2   3   54.80    4.11
  -3  -2   3   51.81    4.34
  -3  -2   3   49.14    4.27
  -3  -2   3   54.34    4.13
   2   2  -3  363.83   27.07
   2   2  -3  330.50   26.72
   2   2  -3  382.10   27.62
   2   2  -3  357.40   26.88
   2   2  -3  354.65   26.94
  -2  -2   3  331.26   26.97
  -2  -2   3  376.68   26.85
  -2  -2   3  383.53   26.83
  -2  -2   3  367.42   26.73
  -2  -2   3  348.95   27.00
  -2  -2   3  343.78   27.50
   1   2  -3  184.43   14.13
   1   2  -3  196.29   14.47
   1   2  -3  183.81   14.35
   1   2  -3  184.97   14.22
   1   2  -3  200.31   14.99
  -1  -2   3  198.20   14.19
  -1  -2   3  188.95   14.17
  -1  -2   3  195.36   14.24
  -1  -2   3  179.31   14.48
  -1  -2   3  177.12   14.87
  -1  -2   3  188.57   14.13
   0   2  -3  491.45   36.66
  -1   2  -3  480.06   34.88
   1  -2   3  456.34   35.51
  -2   2  -3  173.03   13.01
  -2   2  -3  171.43   12.35
  -2   2  -3  152.71   12.82
   2  -2   3  168.49   12.34
   2  -2   3  160.15   13.14
   2  -2   3  160.16   13.08
   2  -2   3  164.60   12.88
  -3   2  -3  231.66   20.27
  -3   2  -3  285.33   20.59
  -3   2  -3  268.56   19.73
   3  -2   3  260.91   20.57
   3  -2   3  261.12   20.69
   3  -2   3  274.23   20.46
  -4   2  -3  317.29   22.92
  -4   2  -3  259.89   22.53
  -4   2  -3  288.81   21.87
   4  -2   3  280.99   23.02
   4  -2   3  289.34   22.78
   4  -2   3  317.31   22.84
  -5   2  -3   17.37    1.47
  -5   2  -3   18.35    2.44
  -5   2  -3   15.72    2.17
   5  -2   3   18.08    2.39
   5  -2   3   17.67    2.26
   5  -2   3   17.07    2.57
  -6   2  -3  104.40    8.66
  -6   2  -3   94.24    7.30
  -6   2  -3   88.51    8.26
   6  -2   3   92.85    8.80
   6  -2   3   99.46    8.57
   6  -2   3   94.38    8.25
  -7   2  -3   55.39    4.61
  -7   2  -3   68.59    6.24
  -7   2  -3   54.53    5.69
   7  -2   3   54.96    6.20
   7  -2   3   55.58    5.51
   7  -2   3   67.77    6.21
  -8   2  -3    6.45    1.88
  -8   2  -3    7.48    0.87
   8  -2   3    7.45    1.64
   8  -2   3    9.70    2.27
   8  -2   3    8.17    2.26
  -9   2  -3   20.41    1.87
  -9   2  -3   24.75    3.60
  -9   2  -3   19.49    3.11
   9  -2   3   21.10    3.76
   8   1  -3   93.48    8.48
   8   1  -3  100.60    8.57
  -8  -1   3   99.32    8.99
  -8  -1   3  112.65    9.43
   7   1  -3  138.66   11.49
   7   1  -3  130.23   10.94
   7   1  -3  120.65   10.54
  -7  -1   3  152.60   10.26
  -7  -1   3  122.91   11.05
  -7  -1   3  139.49   11.48
   6   1  -3   57.10    4.94
   6   1  -3   60.59    5.09
  -6  -1   3   55.58    5.34
  -6  -1   3   64.59    5.67
   5   1  -3  435.61   30.58
   5   1  -3  382.53   29.72
   5   1  -3  378.42   29.66
   5   1  -3  396.04   30.25
  -5  -1   3  357.29   30.16
  -5  -1   3  412.90   29.40
  -5  -1   3  411.34   29.42
  -5  -1   3  399.38   30.22
  -5  -1   3  364.26   30.01
   4   1  -3  815.70   60.08
   4   1  -3  790.41   60.08
   3   1  -3  561.78   43.55
   3   1  -3  603.29   43.61
  -3   1  -3  214.11   15.47
  -3   1  -3  183.18   16.01
  -3   1  -3  213.35   16.26
  -3   1  -3  220.24   15.42
   3  -1   3  204.28   16.16
   3  -1   3  204.60   16.13
  -5   1  -3  552.95   36.41
  -5   1  -3  427.94   37.13
  -5   1  -3  455.11   36.38
  -5   1  -3  537.86   37.60
   5  -1   3  488.03   37.20
   5  -1   3  450.64   37.63
   5  -1   3  500.18   37.45
  -6   1  -3  227.09   15.05
  -6   1  -3  172.72   15.84
  -6   1  -3  193.43   14.99
  -6   1  -3  212.16   16.31
   6  -1   3  190.57   15.80
   6  -1   3  218.36   16.32
   6  -1   3  182.30   16.41
  -7   1  -3  234.37   21.55
  -7   1  -3  297.29   20.62
  -7   1  -3  293.80   22.12
   7  -1   3  268.56   21.40
   7  -1   3  255.84   22.24
   7  -1   3  294.28   22.15
  -8   1  -3  240.04   20.56
  -8   1  -3  283.92   21.12
   8  -1   3  245.97   21.29
   8  -1   3  297.32   21.30
   8  -1   3  219.77   20.02
  -9   1  -3  113.56    9.88
  -9   1  -3   92.40    7.83
  -9   1  -3   90.21    9.18
   9  -1   3  119.00   10.18
   9  -1   3   98.85    8.91
   8   0  -3   24.03    3.39
   8   0  -3   21.90    2.38
   8   0  -3   20.81    2.63
  -8   0   3   23.11    3.42
  -8   0   3   25.95    2.09
   7   0  -3  180.25   14.43
   7   0  -3  159.53   13.32
   7   0  -3  156.36   13.86
  -7   0   3  190.52   13.05
  -7   0   3  159.24   13.99
  -7   0   3  183.99   14.51
   6   0  -3  119.60    9.48
   6   0  -3  112.46    9.27
  -6   0   3  114.88    9.87
  -6   0   3  112.23    8.99
  -6   0   3  132.26   10.26
   5   0  -3   74.56    6.17
   5   0  -3   73.62    6.27
   5   0  -3   88.93    7.24
   5   0  -3   76.59    6.82
  -5   0   3   81.65    5.95
  -5   0   3   70.14    6.63
  -5   0   3   77.54    5.87
  -5   0   3   79.15    6.87
   4   0  -3  252.64   19.16
   4   0  -3  243.56   19.10
   4   0  -3  255.34   19.68
   4   0  -3  282.09   20.11
  -4   0   3  255.36   19.66
  -4   0   3  233.62   19.52
  -4   0   3  266.91   18.91
  -4   0   3  231.74   19.72
   3   0  -3   78.15    6.14
   3   0  -3   88.75    7.00
   3   0  -3   80.17    6.15
   3   0  -3   78.90    6.60
  -3   0   3   73.22    6.74
  -3   0   3   78.35    6.55
  -3   0   3   73.52    6.48
  -3   0   3   81.94    5.98
   2   0  -3    8.13    0.74
   2   0  -3    9.91    1.46
   2   0  -3    8.89    1.21
   2   0  -3    9.10    0.81
   2   0  -3    8.51    0.86
  -2   0   3    8.45    1.13
  -2   0   3    9.55    1.41
  -2   0   3    8.56    1.13
  -2   0   3    8.77    0.75
   1   0  -3  300.74   22.48
   1   0  -3  320.58   22.77
   1   0  -3  300.61   22.06
  -1   0   3  270.50   22.41
  -1   0   3  281.16   22.65
   0   0  -3  132.16   10.13
   0   0  -3  119.25    9.97
   0   0  -3  144.10   10.37
   0   0   3  134.67    9.66
   0   0   3  116.03    9.97
  -3   0  -3  288.51   20.62
  -3   0  -3  267.82   20.59
  -3   0  -3  276.16   22.17
   3   0   3  271.45   21.25
  -4   0  -3   54.62    4.21
  -4   0  -3   49.90    4.82
  -4   0  -3   56.57    5.08
  -4   0  -3   58.29    4.26
   4   0   3   58.86    5.03
   4   0   3   52.92    5.18
   4   0   3   56.57    4.81
  -5   0  -3  409.89   28.02
  -5   0  -3  388.43   29.03
  -5   0  -3  317.15   28.63
   5   0   3  363.59   29.23
   5   0   3  371.33   28.58
   5   0   3  395.90   29.00
  -6   0  -3  154.12   10.48
  -6   0  -3  119.50   11.19
  -6   0  -3  142.78   11.62
   6   0   3  134.61   11.03
   6   0   3  144.71   11.60
   6   0   3  131.53   11.83
  -7   0  -3   42.36    3.14
  -7   0  -3   41.20    4.38
  -7   0  -3   33.66    3.94
   7   0   3   40.34    4.33
   7   0   3   37.68    3.64
   7   0   3   36.14    4.51
   7   0   3   35.69    3.63
  -8   0  -3   24.07    1.93
  -8   0  -3   22.29    3.23
  -8   0  -3   18.32    2.77
   8   0   3   17.69    3.18
   8   0   3   21.07    2.54
   8   0   3   22.45    3.23
  -9   0  -3   11.64    2.51
  -9   0  -3    8.76    2.11
   9   0   3   10.25    2.43
   9   0   3    8.23    1.77
 -10   0  -3    2.13    1.17
   8  -1  -3   72.70    6.28
   8  -1  -3   58.74    5.76
   8  -1  -3   77.86    7.29
  -8   1   3   78.76    7.51
  -8   1   3   65.36    6.73
   7  -1  -3   90.10    8.66
   7  -1  -3  104.04    9.09
   7  -1  -3   87.77    7.85
  -7   1   3   88.03    8.62
  -7   1   3  115.19    7.64
  -7   1   3  108.67    9.22
   6  -1  -3  164.01   15.64
   6  -1  -3  187.83   15.06
   6  -1  -3  183.75   14.82
   6  -1  -3  222.32   16.38
  -6   1   3  171.42   15.47
  -6   1   3  223.33   14.61
  -6   1   3  204.57   15.93
   5  -1  -3  113.66   10.05
   5  -1  -3  119.63   11.04
   5  -1  -3  113.90    9.42
   5  -1  -3  142.66   10.87
   5  -1  -3  118.41    9.58
  -5   1   3  130.04    9.23
  -5   1   3  111.01   10.01
  -5   1   3  127.87   10.30
   4  -1  -3  218.96   16.45
   4  -1  -3  228.75   16.93
   4  -1  -3  206.47   15.79
   4  -1  -3  202.50   15.71
   4  -1  -3  190.13   16.20
  -4   1   3  208.77   16.40
  -4   1   3  193.24   16.25
  -4   1   3  210.32   15.53
  -4  -1  -3  209.73   15.96
  -4  -1  -3  214.22   15.06
  -4  -1  -3  181.82   15.56
  -4  -1  -3  200.99   14.94
   4   1   3  196.57   15.43
   4   1   3  203.66   15.73
   4   1   3  193.54   15.95
  -5  -1  -3  153.80   13.61
  -5  -1  -3  184.99   13.99
  -5  -1  -3  187.73   13.03
   5   1   3  161.63   14.07
   5   1   3  162.68   13.35
   5   1   3  174.06   13.37
   5   1   3  180.15   13.88
  -6  -1  -3  194.09   17.53
  -6  -1  -3  235.58   17.94
  -6  -1  -3  239.53   16.85
   6   1   3  241.36   17.94
   6   1   3  226.39   17.16
   6   1   3  213.23   17.28
   6   1   3  210.74   18.77
  -7  -1  -3  120.34   11.24
  -7  -1  -3  146.49   10.39
  -7  -1  -3  141.63   11.60
   7   1   3  123.11   10.89
   7   1   3  150.56   11.72
   7   1   3  129.79   11.88
  -8  -1  -3  104.11    7.90
  -8  -1  -3  110.24    9.39
  -8  -1  -3   92.14    8.87
   8   1   3   90.93    8.52
   8   1   3  109.68    9.39
  -9  -1  -3  198.19   16.36
  -9  -1  -3  170.70   15.86
  -9  -1  -3  201.90   14.76
   9   1   3  219.84   16.74
   9   1   3  174.03   15.52
 -10  -1  -3   67.01    7.14
 -10  -1  -3   77.79    7.71
  10   1   3   75.61    7.76
   8  -2  -3   23.20    2.87
   8  -2  -3   26.53    3.75
   8  -2  -3   24.67    2.54
  -8   2   3   31.61    4.13
  -8   2   3   24.07    3.42
  -8   2   3   30.00    2.30
   7  -2  -3   18.61    2.85
   7  -2  -3   16.57    2.13
   7  -2  -3   17.26    1.80
  -7   2   3   16.23    2.54
  -7   2   3   18.20    2.95
   6  -2  -3  100.95    8.71
   6  -2  -3   87.01    7.94
   6  -2  -3   79.28    6.88
  -6   2   3   87.92    8.05
  -6   2   3   75.38    7.64
  -6   2   3   95.55    6.69
   5  -2  -3  136.01   12.26
   5  -2  -3  138.89   11.54
   5  -2  -3  172.31   13.28
   5  -2  -3  157.77   12.62
  -5   2   3  162.53   11.37
  -5   2   3  157.28   12.57
  -5   2   3  133.49   12.22
   4  -2  -3  159.83   14.00
   4  -2  -3  201.61   14.92
   4  -2  -3  183.03   14.24
  -4   2   3  166.33   14.08
  -4   2   3  186.78   13.26
  -4   2   3  173.33   13.28
  -4   2   3  167.39   15.56
   3  -2  -3  336.50   24.93
   3  -2  -3  364.89   26.18
   3  -2  -3  307.80   25.43
   3  -2  -3  334.53   25.60
  -3   2   3  339.45   25.61
  -3   2   3  293.12   25.44
  -3   2   3  349.78   24.78
   2  -2  -3  266.27   20.26
   2  -2  -3  246.34   20.12
   2  -2  -3  293.04   20.76
  -2   2   3  235.99   20.43
  -2   2   3  270.72   20.23
  -2   2   3  279.16   19.56
  -2   2   3  244.69   20.19
   1  -2  -3   26.92    2.60
   1  -2  -3   27.70    2.12
   1  -2  -3   29.54    2.96
   1  -2  -3   27.89    2.70
  -1   2   3   30.70    2.13
  -1   2   3   25.08    2.65
  -1   2   3   25.29    2.88
  -1   2   3   30.38    2.67
   0  -2  -3  264.38   18.10
   0   2   3  220.89   17.86
   0   2   3  209.41   18.38
  -1  -2  -3  224.11   18.27
   1   2   3  252.96   18.55
   1   2   3  242.93   18.60
  -2  -2  -3   78.75    7.12
  -2  -2  -3   99.09    7.14
  -2  -2  -3   96.95    6.85
  -2  -2  -3   91.12    7.29
   2   2   3   86.15    7.13
   2   2   3   87.22    7.34
   2   2   3   84.26    7.22
   2   2   3   89.34    6.87
  -3  -2  -3   11.27    1.38
  -3  -2  -3   11.73    1.19
  -3  -2  -3   11.05    1.50
   3   2   3   10.44    1.55
   3   2   3   11.44    1.35
   3   2   3   10.81    1.17
  -4  -2  -3  313.24   23.24
  -4  -2  -3  320.46   22.50
  -4  -2  -3  277.73   22.95
   4   2   3  294.77   22.74
   4   2   3  275.38   23.27
   4   2   3  304.71   22.77
   4   2   3  311.05   23.13
  -5  -2  -3  119.22   10.34
  -5  -2  -3  133.99   10.65
  -5  -2  -3  134.93    9.81
   5   2   3  126.26   10.15
   5   2   3  122.97   10.79
   5   2   3  133.92   10.58
  -6  -2  -3  337.95   24.87
  -6  -2  -3  277.20   24.44
  -6  -2  -3  326.16   23.82
   6   2   3  354.27   25.43
   6   2   3  296.55   25.02
   6   2   3  333.03   23.98
   6   2   3  290.82   24.23
  -7  -2  -3  225.37   20.11
  -7  -2  -3  267.27   19.38
  -7  -2  -3  256.96   20.61
   7   2   3  291.54   19.41
   7   2   3  268.67   20.54
   7   2   3  224.53   19.85
  -8  -2  -3   82.83    7.53
  -8  -2  -3   74.02    7.15
   8   2   3   88.24    7.68
   8   2   3   69.28    6.83
  -9  -2  -3   46.88    5.17
  -9  -2  -3   41.21    4.81
  -9  -2  -3   46.69    3.84
   9   2   3   41.75    4.59
   9   2   3   51.53    5.47
   8  -3  -3  118.14   10.95
   8  -3  -3  152.15   12.46
   8  -3  -3  119.03   10.56
  -8   3   3  152.43   10.35
  -8   3   3  148.13   12.55
  -8   3   3  123.28   11.76
   7  -3  -3  165.28   13.85
   7  -3  -3  192.56   15.40
  -7   3   3  200.97   15.63
  -7   3   3  164.49   14.92
   6  -3  -3  185.40   15.37
   6  -3  -3  180.67   16.34
   6  -3  -3  209.45   16.66
  -6   3   3  232.19   15.20
  -6   3   3  217.66   16.84
  -6   3   3  186.96   16.35
   5  -3  -3  244.21   21.00
   5  -3  -3  277.20   21.27
   5  -3  -3  260.16   20.18
  -5   3   3  286.47   21.40
  -5   3   3  267.35   19.95
  -5   3   3  297.68   20.00
  -5   3   3  237.21   20.97
   4  -3  -3  220.87   18.80
   4  -3  -3  249.56   19.03
   4  -3  -3  241.69   18.11
  -4   3   3  221.61   18.85
  -4   3   3  242.37   18.00
  -4   3   3  256.91   17.94
  -4   3   3  246.18   19.05
   3  -3  -3  128.69   10.16
   3  -3  -3  115.42    9.96
  -3   3   3  125.14    9.37
  -3   3   3  111.92    9.99
  -3   3   3  127.51   10.15
  -3   3   3  128.95    9.21
   1   3   3  416.23   31.83
   3   3   3  741.21   55.58
   4   3   3 1000.00   74.85
  -5  -3  -3  499.46   42.50
  -5  -3  -3  615.52   42.07
  -5  -3  -3  586.49   42.86
   5   3   3  533.36   42.97
   5   3   3  584.66   42.75
   5   3   3  531.74   42.36
   5   3   3  580.27   42.24
  -6  -3  -3  223.79   19.58
  -6  -3  -3  261.24   19.96
  -6  -3  -3  268.35   19.05
   6   3   3  235.37   20.13
   6   3   3  273.00   19.16
   6   3   3  265.39   19.93
   6   3   3  232.82   19.43
  -7  -3  -3  233.50   18.03
  -7  -3  -3  201.35   17.63
  -7  -3  -3  228.87   16.95
   7   3   3  201.56   17.45
   7   3   3  247.41   16.96
  -8  -3  -3  113.39    9.71
  -8  -3  -3  112.79    8.52
  -8  -3  -3   98.99    9.32
   8   3   3   96.21    9.09
   8   3   3  121.32    9.88
  -9  -3  -3   16.44    2.75
  -9  -3  -3   15.45    2.18
   9   3   3   19.04    3.07
   9   3   3   10.48    2.37
   8  -4  -3    4.93    1.66
   8  -4  -3    5.83    1.08
  -8   4   3    4.21    1.46
  -8   4   3    7.36    2.35
   7  -4  -3   44.90    4.94
   7  -4  -3   38.21    3.46
   7  -4  -3   36.67    4.60
  -7   4   3   47.54    5.20
  -7   4   3   38.10    4.55
   6  -4  -3   28.48    3.67
   6  -4  -3   28.01    2.64
   6  -4  -3   31.09    3.85
  -6   4   3   35.11    4.09
  -6   4   3   33.86    2.46
  -6   4   3   27.73    3.60
   5  -4  -3   57.67    5.79
   5  -4  -3   46.60    4.90
   5  -4  -3   45.67    4.80
   5  -4  -3   46.47    3.89
  -5   4   3   50.66    3.71
  -5   4   3   50.70    5.08
  -5   4   3   42.54    4.73
  -5   4   3   47.36    3.74
   4  -4  -3  333.48   23.60
   4  -4  -3  279.80   21.86
   4  -4  -3  257.82   22.63
   4  -4  -3  304.94   22.91
  -4   4   3  302.90   21.69
  -4   4   3  262.46   22.69
  -4   4   3  301.13   22.94
  -4   4   3  283.81   21.81
   3  -4  -3  405.37   34.19
   3  -4  -3  499.04   34.97
   3  -4  -3  451.40   34.41
  -3   4   3  457.80   34.43
  -3   4   3  470.83   33.36
  -3   4   3  448.51   33.56
  -3   4   3  403.74   34.26
   2  -4  -3  179.02   14.14
   2  -4  -3  158.80   13.97
   2  -4  -3  199.32   14.60
  -2   4   3  166.51   13.49
  -2   4   3  185.85   13.25
   0  -4  -3  386.46   28.41
   0  -4  -3  379.19   28.56
   0   4   3  348.40   27.98
  -1  -4  -3  287.31   19.66
  -1  -4  -3  261.88   20.14
  -1  -4  -3  246.71   19.95
  -1  -4  -3  268.91   20.21
   1   4   3  239.51   20.10
   1   4   3  244.44   19.80
   1   4   3  277.17   20.02
  -2  -4  -3  314.99   23.09
  -2  -4  -3  327.00   22.62
  -2  -4  -3  273.31   22.83
  -2  -4  -3  303.82   22.99
   2   4   3  283.14   22.76
   2   4   3  306.94   22.89
   2   4   3  308.32   22.35
   2   4   3  282.92   22.61
  -3  -4  -3  213.83   16.02
  -3  -4  -3  185.00   15.76
  -3  -4  -3  195.18   15.68
  -3  -4  -3  215.68   15.56
   3   4   3  199.13   15.69
   3   4   3  198.02   15.61
   3   4   3  225.58   15.90
  -4  -4  -3    7.59    1.22
  -4  -4  -3    8.49    0.94
  -4  -4  -3   10.21    0.71
  -4  -4  -3    9.32    1.00
  -4  -4  -3    8.62    1.08
  -4  -4  -3    8.77    1.40
   4   4   3    9.56    1.16
   4   4   3    8.00    1.15
   4   4   3    9.07    1.33
  -5  -4  -3  123.99    9.66
  -5  -4  -3  138.09    9.96
  -5  -4  -3  128.85   10.61
   5   4   3  129.88   10.51
   5   4   3  125.82   10.09
  -6  -4  -3   11.74    1.93
  -6  -4  -3   13.43    1.36
   6   4   3   14.99    3.17
   6   4   3   12.58    1.41
  -7  -4  -3   22.69    2.73
  -7  -4  -3   23.28    2.94
   7   4   3   22.60    2.64
   7   4   3   24.31    2.18
  -8  -4  -3  111.60    8.22
  -8  -4  -3   91.48    8.85
  -8  -4  -3  109.71    9.31
   8   4   3   92.89    8.77
   8   4   3  113.90    9.71
  -9  -4  -3   42.58    4.71
  -9  -4  -3   48.72    3.97
  -9  -4  -3   49.88    5.16
   9   4   3   42.68    4.69
   8  -5  -3   59.09    6.37
   8  -5  -3   45.63    4.47
  -8   5   3   60.51    6.59
  -8   5   3   52.90    5.96
   7  -5  -3  128.64   10.93
   7  -5  -3  132.12   12.35
   7  -5  -3  157.87   12.80
  -7   5   3  157.85   12.97
  -7   5   3  133.73   12.28
   6  -5  -3  312.64   28.11
   6  -5  -3  330.69   27.43
   6  -5  -3  389.96   27.82
   6  -5  -3  336.78   26.13
  -6   5   3  327.17   27.38
  -6   5   3  383.21   27.95
   5  -5  -3  312.60   26.51
   5  -5  -3  362.48   26.81
   5  -5  -3  330.52   25.43
  -5   5   3  310.67   26.48
  -5   5   3  364.16   26.92
  -5   5   3  359.79   25.37
  -5   5   3  325.27   25.22
   4  -5  -3  231.41   17.62
   4  -5  -3  195.07   17.33
  -4   5   3  199.60   17.38
  -4   5   3  227.08   17.65
  -4   5   3  230.96   16.26
  -4   5   3  222.19   16.47
   3  -5  -3  612.17   44.21
   3  -5  -3  646.20   44.70
   3  -5  -3  508.69   43.91
  -3   5   3  595.18   44.19
  -3   5   3  606.43   42.98
  -3   5   3  497.23   43.94
   2  -5  -3  272.51   22.16
   2  -5  -3  310.44   22.70
   2  -5  -3  295.09   22.32
  -2   5   3  260.43   22.19
  -2   5   3  304.77   22.34
  -2   5   3  273.42   21.60
   1  -5  -3  362.80   25.86
   1  -5  -3  340.88   25.54
   1  -5  -3  318.79   25.39
  -1   5   3  296.31   25.41
  -1   5   3  317.70   24.97
  -1   5   3  349.05   25.48
   0  -5  -3  455.60   32.43
   0  -5  -3  448.83   32.24
   0  -5  -3  409.62   32.05
   0   5   3  406.35   31.75
   0   5   3  387.35   32.09
  -1  -5  -3  222.50   16.82
  -1  -5  -3  194.10   16.51
  -1  -5  -3  213.81   16.71
  -1  -5  -3  231.91   16.24
   1   5   3  222.18   16.58
   1   5   3  194.56   16.33
   1   5   3  219.56   16.19
  -2  -5  -3  201.49   15.01
  -2  -5  -3  204.69   14.56
  -2  -5  -3  175.07   14.77
   2   5   3  196.23   16.06
   2   5   3  176.22   14.66
   2   5   3  192.72   14.27
   2   5   3  190.79   14.80
  -3  -5  -3  718.89   51.42
   3   5   3  681.97   51.26
   3   5   3  670.80   51.63
   3   5   3  656.65   51.15
  -4  -5  -3  246.66   17.20
  -4  -5  -3  227.87   16.77
  -4  -5  -3  237.26   17.64
  -4  -5  -3  215.68   17.14
  -4  -5  -3  205.18   17.36
   4   5   3  223.62   17.75
   4   5   3  237.01   17.51
   4   5   3  212.25   17.26
   4   5   3  219.02   17.25
  -5  -5  -3  372.35   24.90
  -5  -5  -3  331.97   24.76
  -5  -5  -3  292.36   24.97
  -5  -5  -3  346.57   25.30
  -5  -5  -3  322.16   24.31
   5   5   3  303.51   24.91
   5   5   3  321.33   24.79
   5   5   3  314.55   25.43
   5   5   3  334.45   25.58
  -6  -5  -3  439.03   32.37
  -6  -5  -3  407.23   33.17
  -6  -5  -3  470.85   33.52
  -6  -5  -3  435.21   32.71
   6   5   3  406.08   33.11
   6   5   3  446.86   32.84
  -7  -5  -3  147.66   11.73
  -7  -5  -3  160.37   12.95
  -7  -5  -3  164.78   12.12
   7   5   3  158.55   12.14
   7   5   3  134.63   12.53
   7   5   3  171.66   13.02
  -8  -5  -3   66.54    5.20
  -8  -5  -3   72.77    6.34
  -8  -5  -3   67.81    6.48
   8   5   3   78.94    6.73
   8   5   3   54.50    6.06
  -9  -5  -3   98.45    8.62
  -9  -5  -3   95.73    7.04
   9   5   3   80.63    8.17
   7  -6  -3    7.38    0.98
   7  -6  -3    9.59    2.81
   7  -6  -3    4.92    1.66
   7  -6  -3    7.24    2.17
  -7   6   3    8.48    2.51
  -7   6   3    6.84    2.04
   6  -6  -3   24.81    3.58
   6  -6  -3   26.73    2.40
   6  -6  -3   28.38    3.76
  -6   6   3   31.84    4.04
  -6   6   3   25.65    3.60
   5  -6  -3   64.19    6.66
   5  -6  -3   76.15    6.95
   5  -6  -3   65.29    5.52
  -5   6   3   68.41    6.74
  -5   6   3   78.42    7.39
   4  -6  -3    6.10    1.54
   4  -6  -3    8.97    2.13
   4  -6  -3    7.72    1.75
  -4   6   3    6.91    0.88
  -4   6   3    7.75    1.78
  -4   6   3    5.30    1.50
   3  -6  -3   19.02    2.94
   3  -6  -3   18.33    2.45
   3  -6  -3   15.67    2.26
  -3   6   3   17.53    2.39
  -3   6   3   17.69    1.65
  -3   6   3   15.41    2.29
   2  -6  -3  152.46   12.73
   2  -6  -3  163.62   12.90
  -2   6   3  154.80   13.30
  -2   6   3  151.00   12.11
  -2   6   3  166.43   12.88
   1  -6  -3   33.55    3.36
   1  -6  -3   31.76    3.24
  -1   6   3   34.64    3.32
  -1   6   3   28.73    3.23
  -1   6   3   31.30    2.81
   0  -6  -3  220.58   15.58
   0  -6  -3  192.92   15.89
   0  -6  -3  212.50   16.07
   0   6   3  214.26   15.96
   0   6   3  183.94   15.92
   0   6   3  212.99   15.29
   0   6   3  184.42   15.53
  -1  -6  -3  340.26   23.63
  -1  -6  -3  312.61   24.11
  -1  -6  -3  286.31   23.93
  -1  -6  -3  324.47   23.70
   1   6   3  278.99   23.70
   1   6   3  323.82   23.38
   1   6   3  321.12   23.97
  -2  -6  -3  156.06   12.05
  -2  -6  -3  169.37   11.65
  -2  -6  -3  158.95   12.12
  -2  -6  -3  144.20   11.85
   2   6   3  136.48   11.94
   2   6   3  153.69   11.85
   2   6   3  149.25   11.29
   2   6   3  136.57   11.70
  -3  -6  -3  295.87   21.78
  -3  -6  -3  288.76   21.72
  -3  -6  -3  261.15   21.54
  -3  -6  -3  299.33   21.39
   3   6   3  267.22   21.47
   3   6   3  258.39   21.74
   3   6   3  298.58   21.60
  -4  -6  -3  320.71   24.29
  -4  -6  -3  345.40   24.59
  -4  -6  -3  295.49   24.32
  -4  -6  -3  324.56   23.72
   4   6   3  287.13   24.20
   4   6   3  350.09   24.47
   4   6   3  303.72   24.23
   4   6   3  316.12   24.67
  -5  -6  -3    6.78    1.32
  -5  -6  -3    5.22    1.43
  -5  -6  -3    6.28    0.79
  -5  -6  -3    5.37    0.55
   5   6   3    7.08    1.10
   5   6   3    7.20    1.19
   5   6   3    5.72    1.20
  -6  -6  -3   34.22    3.39
  -6  -6  -3   34.48    2.61
  -6  -6  -3   37.31    3.32
  -6  -6  -3   36.94    3.61
   6   6   3   32.24    3.09
   6   6   3   26.85    3.23
  -7  -6  -3   55.04    5.20
  -7  -6  -3   55.16    4.54
  -7  -6  -3   52.81    4.11
  -7  -6  -3   50.14    4.96
   7   6   3   49.87    4.97
   7   6   3   53.09    4.59
   7   6   3   60.49    5.26
  -8  -6  -3   16.89    1.44
  -8  -6  -3   18.06    2.60
  -8  -6  -3   16.28    2.32
  -8  -6  -3   19.41    1.96
   8   6   3   14.33    2.36
   8   6   3   20.55    2.68
   7  -7  -3   60.02    6.40
   7  -7  -3   48.18    4.41
   7  -7  -3   49.41    5.97
  -7   7   3   51.80    5.95
  -7   7   3   64.07    6.69
   6  -7  -3   43.23    3.70
   6  -7  -3   54.85    6.02
   6  -7  -3   37.82    4.91
   6  -7  -3   47.80    5.32
  -6   7   3   49.18    5.54
  -6   7   3   39.85    5.06
   5  -7  -3  189.48   14.91
   5  -7  -3  156.25   14.49
   5  -7  -3  165.95   13.24
  -5   7   3  164.31   14.56
  -5   7   3  194.88   15.10
   4  -7  -3  295.74   25.92
   4  -7  -3  357.05   25.90
  -4   7   3  313.36   24.49
  -4   7   3  290.08   25.49
  -4   7   3  364.98   25.99
   3  -7  -3  147.26   13.23
   3  -7  -3  180.40   13.58
  -3   7   3  155.98   12.44
  -3   7   3  176.27   13.57
  -3   7   3  148.38   13.28
   2  -7  -3  448.16   38.07
   2  -7  -3  534.40   38.39
   2  -7  -3  555.03   37.58
  -2   7   3  537.77   38.91
  -2   7   3  474.02   37.45
  -2   7   3  438.31   38.11
   1  -7  -3  526.73   37.33
   1  -7  -3  528.50   36.64
   1  -7  -3  455.99   37.07
  -1   7   3  471.02   36.35
  -1   7   3  436.32   37.09
  -1   7   3  453.24   36.56
  -1   7   3  525.53   37.24
   0  -7  -3  423.54   32.42
   0  -7  -3  459.43   31.92
   0  -7  -3  390.80   32.23
   0   7   3  425.42   31.58
   0   7   3  452.15   32.35
   0   7   3  379.67   31.86
  -1  -7  -3  618.57   45.87
  -1  -7  -3  675.96   45.83
  -1  -7  -3  639.01   47.63
  -1  -7  -3  551.89   46.12
  -1  -7  -3  624.63   45.39
   1   7   3  623.12   45.53
   1   7   3  509.06   45.85
   1   7   3  638.57   46.20
  -2  -7  -3  320.39   22.21
  -2  -7  -3  293.11   22.62
  -2  -7  -3  279.99   22.43
  -2  -7  -3  310.15   22.25
   2   7   3  295.32   21.84
   2   7   3  260.64   22.47
   2   7   3  268.23   22.28
   2   7   3  307.83   22.45
  -3  -7  -3   45.43    4.23
  -3  -7  -3   48.62    4.40
  -3  -7  -3   49.33    4.46
  -3  -7  -3   51.70    4.10
   3   7   3   45.76    4.17
   3   7   3   48.73    4.44
   3   7   3   44.89    4.33
  -4  -7  -3  269.08   21.03
  -4  -7  -3  256.40   20.95
  -4  -7  -3  281.61   21.14
   4   7   3  302.20   21.05
   4   7   3  251.52   20.89
  -5  -7  -3  238.87   16.85
  -5  -7  -3  222.35   16.38
  -5  -7  -3  226.40   16.89
  -5  -7  -3  212.54   17.05
   5   7   3  200.20   17.03
   5   7   3  211.46   16.96
  -6  -7  -3  100.97    9.00
  -6  -7  -3  106.20    8.33
  -6  -7  -3  122.67    8.91
  -6  -7  -3  116.94    8.94
  -6  -7  -3  117.36    9.27
   6   7   3   94.62    9.05
   6   7   3  108.73    8.94
   6   7   3  119.03    9.18
  -7  -7  -3  179.59   12.54
  -7  -7  -3  143.27   12.76
  -7  -7  -3  154.94   12.00
  -7  -7  -3  163.64   13.01
   7   7   3  168.50   13.04
   7   7   3  172.93   13.00
   7   7   3  138.68   12.89
  -8  -7  -3  115.59    8.00
  -8  -7  -3  104.09    8.93
  -8  -7  -3  114.59    9.13
   8   7   3   94.13    8.48
   8   7   3   98.40    9.10
   6  -8  -3   45.59    5.26
   6  -8  -3   39.26    3.39
   6  -8  -3   34.69    4.73
  -6   8   3   45.12    5.71
  -6   8   3   39.81    4.93
   5  -8  -3   38.97    4.90
   5  -8  -3   50.40    5.33
  -5   8   3   41.06    4.94
  -5   8   3   48.02    5.33
   4  -8  -3  110.93   11.04
   4  -8  -3  146.92   12.03
   4  -8  -3  135.34   11.40
  -4   8   3  118.92   11.13
  -4   8   3  137.52   11.51
  -4   8   3  125.17   10.06
   3  -8  -3   49.56    5.32
   3  -8  -3   60.08    5.65
  -3   8   3   61.96    5.70
  -3   8   3   50.31    4.44
  -3   8   3   49.92    5.37
  -3   8   3   54.41    4.57
   2  -8  -3   30.40    3.57
   2  -8  -3   36.45    3.93
   2  -8  -3   37.85    3.14
  -2   8   3   31.70    2.99
  -2   8   3   36.82    3.82
  -2   8   3   29.72    2.94
  -2   8   3   28.86    3.59
   1  -8  -3  198.99   14.70
   1  -8  -3  195.16   13.95
  -1   8   3  179.39   13.62
  -1   8   3  172.03   13.88
  -1   8   3  149.91   14.34
   0  -8  -3   32.65    2.91
   0  -8  -3   34.32    2.85
   0  -8  -3   28.15    3.17
   0  -8  -3   30.75    3.35
   0   8   3   27.96    2.85
   0   8   3   30.54    2.55
  -1  -8  -3   18.92    2.39
  -1  -8  -3   18.57    1.49
  -1  -8  -3   19.13    2.31
  -1  -8  -3   21.32    2.01
   1   8   3   20.84    2.33
   1   8   3   17.50    2.06
   1   8   3   20.56    1.69
  -2  -8  -3  164.12   12.27
  -2  -8  -3  153.27   12.66
  -2  -8  -3  158.54   11.79
  -2  -8  -3  159.02   12.32
  -2  -8  -3  151.86   12.60
   2   8   3  164.58   12.52
   2   8   3  151.49   11.88
  -3  -8  -3  116.58    9.99
  -3  -8  -3  134.85    9.36
  -3  -8  -3  125.49   10.13
   3   8   3  131.91    9.97
   3   8   3  110.87    9.90
  -4  -8  -3   67.90    6.05
  -4  -8  -3   73.86    5.27
  -4  -8  -3   63.87    5.79
  -4  -8  -3   70.59    5.95
  -4  -8  -3   73.74    5.66
   4   8   3   62.72    5.83
  -5  -8  -3  144.56   12.50
  -5  -8  -3  155.43   12.86
  -5  -8  -3  166.45   12.59
  -5  -8  -3  165.35   12.70
  -5  -8  -3  158.17   12.58
  -5  -8  -3  172.79   12.42
  -5  -8  -3  162.17   11.95
   5   8   3  148.70   12.59
  -6  -8  -3   56.18    4.44
  -6  -8  -3   51.79    4.58
  -6  -8  -3   43.74    4.43
  -6  -8  -3   49.78    3.88
  -6  -8  -3   49.98    4.64
   6   8   3   56.52    4.50
   6   8   3   48.68    4.54
  -7  -8  -3   25.28    2.67
  -7  -8  -3   24.99    1.92
  -7  -8  -3   23.01    2.58
   7   8   3   23.23    2.91
   7   8   3   23.07    2.54
   6  -9  -3   82.05    7.99
   6  -9  -3   68.85    5.86
  -6   9   3   71.52    6.13
   5  -9  -3   62.29    6.79
   5  -9  -3   44.66    5.67
   5  -9  -3   54.44    6.05
  -5   9   3   59.17    6.33
   4  -9  -3  114.12    9.79
   4  -9  -3   90.36    9.31
  -4   9   3  117.24    9.92
  -4   9   3   94.38    8.21
   3  -9  -3  247.34   18.39
   3  -9  -3  192.88   17.88
  -3   9   3  245.89   18.37
  -3   9   3  215.34   17.03
  -3   9   3  204.03   16.88
   2  -9  -3   75.73    7.44
   2  -9  -3   89.48    7.76
  -2   9   3   77.50    6.74
  -2   9   3   78.29    6.53
  -2   9   3   90.32    7.69
   1  -9  -3  191.73   16.36
   1  -9  -3  221.51   16.67
  -1   9   3  205.91   15.51
  -1   9   3  195.46   15.80
   0  -9  -3  396.61   31.57
   0   9   3  396.43   31.16
   0   9   3  436.17   30.77
  -1  -9  -3  250.87   20.26
  -1  -9  -3  249.42   19.29
  -1  -9  -3  276.51   20.49
   1   9   3  247.48   20.01
   1   9   3  270.93   19.52
  -2  -9  -3  201.72   14.76
  -2  -9  -3  187.99   15.55
  -2  -9  -3  202.31   15.38
  -2  -9  -3  209.28   15.77
   2   9   3  179.66   15.44
   2   9   3  202.90   14.90
  -3  -9  -3  285.61   19.63
  -3  -9  -3  245.87   20.25
  -3  -9  -3  269.04   20.43
  -3  -9  -3  276.79   20.24
   3   9   3  233.51   20.28
  -4  -9  -3  118.83   10.04
  -4  -9  -3  112.07    9.58
  -4  -9  -3  119.65    9.70
  -4  -9  -3  130.87    9.53
  -4  -9  -3  131.67    9.16
  -4  -9  -3  126.01    9.65
   4   9   3  102.12    9.67
  -5  -9  -3  134.65   10.29
  -5  -9  -3  146.41   10.23
  -5  -9  -3  122.80   10.39
  -5  -9  -3  110.90   10.04
  -5  -9  -3  126.12   10.39
  -5  -9  -3  128.59   10.19
  -5  -9  -3  141.62    9.70
   5   9   3  114.85   10.32
  -6  -9  -3  120.11    9.38
  -6  -9  -3  108.66    9.27
  -6  -9  -3  128.58    8.99
   6   9   3  114.12    9.64
  -7  -9  -3   43.78    3.58
  -7  -9  -3   43.99    3.45
   7   9   3   46.69    4.29
   5 -10  -3   37.40    4.98
   5 -10  -3   47.29    5.47
  -5  10   3   43.53    3.80
   4 -10  -3   34.64    4.38
   4 -10  -3   28.54    4.86
  -4  10   3   26.75    3.24
  -4  10   3   34.99    4.93
   3 -10  -3  112.58    9.58
   3 -10  -3   89.38    9.12
  -3  10   3   92.75    8.04
  -3  10   3  112.85    9.60
  -3  10   3   98.55    8.24
   2 -10  -3  139.04   11.39
   2 -10  -3  113.93   10.99
   2 -10  -3  145.39   10.43
  -2  10   3  123.83   10.03
  -2  10   3  121.66   10.26
   1 -10  -3   40.77    3.58
   1 -10  -3   33.10    3.96
   1 -10  -3   39.47    4.27
  -1  10   3   33.25    3.13
  -1  10   3   34.11    3.47
  -1  10   3   40.63    4.18
   0 -10  -3   73.63    6.13
   0 -10  -3   80.24    6.08
   0 -10  -3   71.60    6.71
   0 -10  -3   63.55    6.46
   0  10   3   64.58    6.10
   0  10   3   78.21    6.66
   0  10   3   72.00    5.70
  -1 -10  -3   76.85    6.40
  -1 -10  -3   76.70    6.87
  -1 -10  -3   67.00    6.61
  -1 -10  -3   83.09    6.38
   1  10   3   65.70    6.39
   1  10   3   85.57    6.81
   1  10   3   74.62    5.99
  -2 -10  -3   27.33    2.60
  -2 -10  -3   26.92    2.55
  -2 -10  -3   22.11    1.83
  -2 -10  -3   22.51    2.73
  -2 -10  -3   21.28    2.59
   2  10   3   24.13    2.04
   2  10   3   20.64    2.55
   2  10   3   25.96    2.65
  -3 -10  -3   52.67    4.79
  -3 -10  -3   55.48    4.98
  -3 -10  -3   52.24    4.03
  -3 -10  -3   47.52    4.62
   3  10   3   45.63    4.76
   3  10   3   60.78    4.67
  -4 -10  -3   74.32    5.97
  -4 -10  -3   76.60    5.80
  -4 -10  -3   68.70    5.82
  -4 -10  -3   78.48    5.31
  -4 -10  -3   60.62    5.68
   4  10   3   57.56    5.97
  -5 -10  -3   25.89    2.97
  -5 -10  -3   26.49    3.02
  -5 -10  -3   28.29    2.18
   5  10   3   23.38    2.87
  -6 -10  -3   44.91    3.99
  -6 -10  -3   48.19    3.65
  -6 -10  -3   44.28    4.00
   6  10   3   42.86    4.44
   3 -11  -3   49.58    5.85
   3 -11  -3   65.61    6.38
  -3  11   3   51.62    4.72
   2 -11  -3  112.37    9.78
   2 -11  -3  114.64    8.76
   2 -11  -3   90.41    9.36
  -2  11   3  104.62    8.36
   1 -11  -3   90.06    7.28
   1 -11  -3   95.50    7.26
   1 -11  -3   78.87    8.47
  -1  11   3   94.33    8.09
  -1  11   3   78.45    6.82
  -1  11   3   77.66    7.21
   0 -11  -3   61.58    6.48
   0 -11  -3   76.37    6.20
   0 -11  -3   76.78    6.85
   0 -11  -3   72.57    6.07
   0  11   3   67.83    5.67
   0  11   3   79.18    6.74
   0  11   3   62.99    6.12
  -1 -11  -3  141.53   13.36
  -1 -11  -3  175.04   13.26
  -1 -11  -3  184.18   13.23
  -1 -11  -3  168.61   13.73
   1  11   3  166.23   12.69
   1  11   3  183.91   13.59
   1  11   3  144.73   13.23
  -2 -11  -3  153.24   12.25
  -2 -11  -3  168.78   12.05
  -2 -11  -3  141.37   11.19
  -2 -11  -3  135.26   12.02
  -2 -11  -3  161.30   12.07
   2  11   3  139.59   12.30
   2  11   3  151.44   11.43
  -3 -11  -3   95.28    6.75
  -3 -11  -3   85.79    6.15
  -3 -11  -3   70.97    6.67
  -3 -11  -3   82.16    6.85
   3  11   3   73.50    7.14
  -4 -11  -3  126.15   10.60
  -4 -11  -3  126.49    9.16
   4  11   3  108.68   10.06
   1 -12  -3   59.36    6.02
  -1  12   3   52.59    4.83
   0 -12  -3   29.48    3.62
   0  12   3   31.14    2.73
  -1 -12  -3   23.78    3.10
  -1 -12  -3   32.28    3.49
   1  12   3   26.59    3.16
   1  12   3   27.37    2.46
  -2 -12  -3   42.86    4.67
  -2 -12  -3   51.56    4.91
   2  12   3   58.68    4.84
   2  12   3   54.93    4.22
  -1  -9   4   18.14    1.76
  -1  -9   4   20.83    2.31
   0  -9   4   47.19    6.14
   0  -9   4   48.30    3.93
   0  -9   4   53.73    4.58
  -1   9  -4   52.32    4.32
  -1   9  -4   59.09    4.77
  -1   9  -4   52.55    4.56
   1  -9   4   52.05    6.58
   1  -9   4   59.27    5.03
   1  -9   4   54.00    4.26
   1  -9   4   52.66    6.29
  -2   9  -4   31.70    2.97
  -2   9  -4   36.37    2.74
   2  -9   4   30.56    4.84
   2  -9   4   34.79    3.68
   2  -9   4   32.05    3.96
  -3   9  -4   68.68    6.09
  -3   9  -4   79.84    5.82
   3  -9   4   71.23    8.43
   3  -9   4   68.36    7.46
   3  -9   4   84.68    7.26
  -3  -8   4   74.16    5.97
  -3  -8   4   74.04    6.36
  -3  -8   4   70.28    7.49
  -3  -8   4   76.13    5.76
  -3  -8   4   75.54    6.36
  -2  -8   4  186.54   17.92
  -2  -8   4  217.97   16.67
  -2  -8   4  227.05   16.65
  -2  -8   4  209.05   16.21
  -2  -8   4  229.95   16.22
  -2  -8   4  208.71   16.05
  -1  -8   4  173.03   13.04
  -1  -8   4  176.09   13.45
  -1  -8   4  165.70   12.99
  -1  -8   4  181.84   13.56
  -1  -8   4  157.53   14.94
   0   8  -4  143.24   11.36
   0  -8   4  136.54   13.46
   0  -8   4  163.91   11.94
   0  -8   4  161.53   11.51
   0  -8   4  149.02   11.38
   0  -8   4  137.15   11.74
   0  -8   4  161.53   12.02
   0  -8   4  149.91   11.66
  -1   8  -4  264.86   21.31
  -1   8  -4  281.64   21.13
  -1   8  -4  304.41   21.80
   1  -8   4  293.81   21.87
   1  -8   4  271.09   21.07
   1  -8   4  257.58   22.07
   1  -8   4  305.36   21.79
   1  -8   4  252.96   23.31
   1  -8   4  300.62   21.28
  -2   8  -4  190.44   15.86
  -2   8  -4  203.39   15.68
  -2   8  -4  234.80   16.87
   2  -8   4  232.36   16.37
   2  -8   4  193.32   17.05
   2  -8   4  193.22   18.00
   2  -8   4  207.90   16.69
  -3   8  -4  160.42   12.01
  -3   8  -4  176.91   13.51
  -3   8  -4  149.76   12.22
   3  -8   4  143.58   13.65
   3  -8   4  170.81   12.67
   3  -8   4  167.29   13.32
   3  -8   4  139.84   14.34
  -4   8  -4  175.57   14.51
  -4   8  -4  197.42   14.32
   4  -8   4  172.38   16.75
   4  -8   4  205.91   15.96
   4  -8   4  168.50   16.19
   4  -8   4  216.05   15.04
  -5   8  -4   73.23    5.44
  -5   8  -4   59.98    5.60
   5  -8   4   82.06    7.66
   5  -8   4   65.18    7.75
   5  -8   4   74.67    6.09
   5  -8   4   62.35    7.40
  -5  -7   4   32.17    3.52
  -5  -7   4   32.78    3.09
  -5  -7   4   29.37    3.82
  -4  -7   4  101.86    7.50
  -4  -7   4  108.30    7.63
  -4  -7   4   95.67    8.29
  -4  -7   4   92.67    7.88
  -4  -7   4   88.12    8.88
  -3  -7   4   46.77    3.76
  -3  -7   4   47.96    3.95
  -3  -7   4   47.61    4.24
  -3  -7   4   50.23    3.90
  -3  -7   4   50.34    4.23
  -3  -7   4   42.18    5.19
  -2  -7   4  106.33    7.95
  -2  -7   4  102.11    7.97
  -2  -7   4   87.74    9.37
  -2  -7   4  103.96    7.82
  -2  -7   4  110.18    8.33
  -2  -7   4  105.21    8.34
   1   7  -4  192.17   15.27
  -1  -7   4  213.32   15.81
  -1  -7   4  207.39   15.71
  -1  -7   4  200.58   15.24
  -1  -7   4  185.92   17.04
  -1  -7   4  203.69   15.35
  -1  -7   4  216.04   15.39
   0   7  -4   73.95    5.77
   0  -7   4   81.32    6.33
   0  -7   4   83.55    6.26
   0  -7   4   69.09    7.52
   0  -7   4   69.15    6.25
   0  -7   4   77.92    5.88
   0  -7   4   73.59    6.13
   0  -7   4   73.07    5.78
  -1   7  -4   78.27    6.27
  -1   7  -4   87.13    6.82
  -1   7  -4   79.61    6.20
   1  -7   4   73.49    7.92
   1  -7   4   80.23    6.77
   1  -7   4   91.52    7.13
   1  -7   4   75.71    6.05
   1  -7   4   81.25    6.23
   1  -7   4   71.55    6.99
  -2   7  -4  114.10    9.61
  -2   7  -4  135.94   10.55
  -2   7  -4  127.55    9.48
   2  -7   4  109.10   10.67
   2  -7   4  126.01   10.40
   2  -7   4  136.39   10.06
   2  -7   4  133.68    9.60
   2  -7   4  114.96   11.46
  -3   7  -4   48.41    3.73
  -3   7  -4   42.15    3.86
  -3   7  -4   52.14    4.98
   3  -7   4   44.94    5.66
   3  -7   4   42.95    5.12
   3  -7   4   52.17    4.31
  -4   7  -4   90.76    7.87
  -4   7  -4  106.01    7.85
  -4   7  -4  112.39    9.37
   4  -7   4   89.49    9.71
   4  -7   4  109.22    8.30
   4  -7   4  107.08    9.18
   4  -7   4   91.18    9.45
  -5   7  -4  105.58    9.12
  -5   7  -4  128.02   10.78
  -5   7  -4  121.87    9.01
   5  -7   4  127.90    9.55
   5  -7   4  103.89   11.01
   5  -7   4  130.34   10.78
   5  -7   4  105.95   10.95
  -6   7  -4   42.80    3.15
  -6   7  -4   35.45    3.26
   6  -7   4   37.26    3.92
   6  -7   4   43.15    4.97
   6  -7   4   35.87    5.05
   6  -7   4   34.65    4.95
  -5  -6   4  113.20    9.22
  -5  -6   4  110.73    9.12
  -5  -6   4  121.71    8.99
  -5  -6   4  122.01    9.00
  -5  -6   4  112.44    9.21
  -4  -6   4  227.13   16.47
  -4  -6   4  224.55   16.70
  -4  -6   4  219.54   16.72
  -4  -6   4  197.18   18.31
  -4  -6   4  216.54   16.73
  -4  -6   4  216.81   16.57
  -3  -6   4  304.22   22.70
  -3  -6   4  305.11   22.65
  -3  -6   4  305.77   22.39
  -3  -6   4  272.59   23.81
  -3  -6   4  295.33   22.45
  -3  -6   4  298.54   22.28
  -2  -6   4  165.25   14.39
  -2  -6   4  196.63   14.56
  -2  -6   4  172.50   15.60
  -2  -6   4  202.64   14.51
  -2  -6   4  191.93   14.20
  -2  -6   4  193.01   14.09
   1   6  -4  326.31   26.76
  -1  -6   4  381.95   27.22
  -1  -6   4  357.31   27.26
  -1  -6   4  338.58   28.38
  -1  -6   4  362.12   26.73
  -1  -6   4  364.46   26.83
  -1  -6   4  370.80   26.84
   0   6  -4  314.52   23.40
   0   6  -4  335.33   23.75
   0  -6   4  320.68   23.41
   0  -6   4  291.58   25.08
   0  -6   4  295.87   23.97
   0  -6   4  314.57   23.80
  -1   6  -4  249.94   18.11
  -1   6  -4  237.22   18.22
   1  -6   4  242.04   18.05
   1  -6   4  231.20   19.84
   1  -6   4  236.94   19.08
   1  -6   4  248.99   18.76
  -2   6  -4  484.59   33.72
  -2   6  -4  437.58   33.83
   2  -6   4  467.39   34.61
   2  -6   4  445.48   35.03
   2  -6   4  418.99   35.55
  -3   6  -4  462.98   32.21
  -3   6  -4  414.19   32.32
   3  -6   4  415.80   34.20
   3  -6   4  400.98   33.69
   3  -6   4  457.93   33.35
  -4   6  -4  199.62   15.18
  -4   6  -4  187.49   13.67
  -4   6  -4  168.60   13.77
   4  -6   4  169.62   15.37
   4  -6   4  166.28   15.52
   4  -6   4  193.38   15.03
  -5   6  -4  262.90   19.63
  -5   6  -4  276.49   21.20
  -5   6  -4  236.37   19.61
   5  -6   4  233.89   21.38
   5  -6   4  271.20   21.12
   5  -6   4  245.80   21.47
   5  -6   4  288.71   20.00
  -6   6  -4  166.70   13.66
  -6   6  -4  135.61   11.84
  -6   6  -4  158.26   11.78
   6  -6   4  173.78   12.26
   6  -6   4  141.05   13.63
   6  -6   4  171.72   13.72
   6  -6   4  137.15   13.75
  -7   6  -4   75.15    8.57
   7  -6   4   69.60    9.97
   7  -6   4   75.59    7.61
   7  -6   4   64.96    7.39
  -6  -5   4   54.35    5.74
  -6  -5   4   64.64    4.90
  -6  -5   4   63.65    5.05
  -5  -5   4   76.15    6.26
  -5  -5   4   80.60    6.21
  -5  -5   4   65.01    6.93
  -5  -5   4   79.43    6.06
  -5  -5   4   79.87    6.27
  -5  -5   4   81.30    5.99
  -4  -5   4   39.39    3.41
  -4  -5   4   33.87    4.11
  -4  -5   4   40.78    3.20
  -4  -5   4   40.59    3.31
  -4  -5   4   39.27    3.41
  -4  -5   4   38.42    3.11
  -3  -5   4  136.93   10.51
  -3  -5   4  131.09   10.14
  -3  -5   4  140.35   10.25
  -3  -5   4  135.40   10.45
  -3  -5   4  125.48   11.43
  -3  -5   4  134.55   10.31
  -2  -5   4  104.91    8.02
  -2  -5   4  107.35    8.09
  -2  -5   4  101.08    7.70
  -2  -5   4  100.15    7.81
  -2  -5   4  103.41    7.80
  -2  -5   4   91.09    8.95
   1   5  -4  166.49   13.31
  -1  -5   4  193.24   13.63
  -1  -5   4  185.05   13.69
  -1  -5   4  186.63   13.39
  -1  -5   4  184.17   13.30
  -1  -5   4  169.35   13.47
  -1  -5   4  162.40   14.63
  -1  -5   4  166.66   13.58
  -1  -5   4  178.99   13.37
   0   5  -4  358.25   26.60
   0   5  -4  343.75   26.93
   0   5  -4  371.22   27.02
   0  -5   4  331.84   27.17
   0  -5   4  390.35   27.01
   0  -5   4  334.23   28.05
   0  -5   4  359.96   26.60
  -1   5  -4  111.90    8.53
  -1   5  -4  105.11    7.78
  -1   5  -4  101.52    7.87
   1  -5   4  102.02    7.72
   1  -5   4  105.19    8.22
   1  -5   4   98.95    8.34
   1  -5   4  100.30    8.67
   1  -5   4  102.88    7.85
   1  -5   4   93.82    9.15
  -2   5  -4   23.40    2.65
  -2   5  -4   22.67    1.93
  -2   5  -4   22.60    1.83
   2  -5   4   24.27    1.91
   2  -5   4   20.38    2.89
   2  -5   4   23.85    2.24
   2  -5   4   19.70    3.08
   2  -5   4   21.12    2.81
  -3   5  -4  140.23   10.20
  -3   5  -4  118.07   10.35
   3  -5   4  154.75   10.66
   3  -5   4  129.05   11.55
   3  -5   4  125.33   11.78
   3  -5   4  139.76   11.21
  -4   5  -4   66.92    5.69
  -4   5  -4   73.75    5.62
  -4   5  -4   78.74    6.90
   4  -5   4   68.09    7.16
   4  -5   4   69.59    7.13
   4  -5   4   73.03    6.84
   4  -5   4   79.76    6.02
  -5   5  -4   13.77    1.38
  -5   5  -4   16.47    2.51
   5  -5   4   15.03    2.44
   5  -5   4   12.38    2.54
   5  -5   4   16.28    1.69
   5  -5   4   12.32    2.55
  -6   5  -4   33.80    3.05
  -6   5  -4   38.16    4.51
   6  -5   4   36.53    4.74
   6  -5   4   39.64    4.53
   6  -5   4   33.51    4.44
   6  -5   4   40.52    3.38
  -7   5  -4   24.30    2.25
  -7   5  -4   29.88    4.84
   7  -5   4   24.78    3.98
   7  -5   4   28.08    3.95
   7  -5   4   23.09    3.60
  -8   5  -4   22.20    3.46
  -8   5  -4   16.01    1.82
  -8   5  -4   15.20    2.90
   8  -5   4   20.72    3.54
   8  -5   4   16.39    3.02
   8  -5   4   16.79    3.46
   7   4  -4   60.80    5.50
  -7  -4   4   60.00    5.74
  -7  -4   4   67.63    5.04
  -7  -4   4   59.27    5.17
   6   4  -4   90.77    8.19
  -6  -4   4  106.90    7.94
  -6  -4   4  106.53    8.01
  -6  -4   4   89.75    8.71
  -6  -4   4  109.09    7.79
   5   4  -4  237.03   19.27
  -5  -4   4  254.56   19.08
  -5  -4   4  255.73   19.09
  -5  -4   4  227.89   19.92
  -5  -4   4  264.54   18.96
  -5  -4   4  265.01   18.89
   4   4  -4  222.27   18.99
  -4  -4   4  255.96   18.70
  -4  -4   4  230.70   19.78
  -4  -4   4  253.30   18.96
  -4  -4   4  267.14   18.79
  -4  -4   4  252.87   18.94
  -4  -4   4  259.10   18.89
   3   4  -4  279.17   22.78
  -3  -4   4  282.40   23.68
  -3  -4   4  324.38   22.80
  -3  -4   4  273.92   22.97
  -3  -4   4  312.09   22.55
  -3  -4   4  315.74   22.63
  -3  -4   4  316.60   22.84
   2   4  -4  481.61   38.11
   2   4  -4  491.12   37.92
  -2  -4   4  535.14   38.17
  -2  -4   4  467.77   39.10
  -2  -4   4  505.25   37.93
  -2  -4   4  528.93   38.00
  -2  -4   4  526.01   38.23
  -2  -4   4  528.32   38.04
   1   4  -4  150.29   11.09
   1   4  -4  153.30   11.15
   1   4  -4  139.20   10.89
  -1  -4   4  137.03   11.13
  -1  -4   4  149.40   10.89
  -1  -4   4  147.31   10.96
  -1  -4   4  145.76   10.95
  -1  -4   4  136.94   11.26
  -1  -4   4  150.52   11.13
  -1  -4   4  135.78   12.08
   0   4  -4  230.30   16.73
   0   4  -4  219.43   16.23
   0  -4   4  207.84   16.81
   0  -4   4  206.11   17.46
   0  -4   4  214.26   16.20
   0  -4   4  221.88   16.28
   0  -4   4  219.89   16.23
   0  -4   4  210.16   16.62
  -1   4  -4  397.70   28.35
  -1   4  -4  383.17   27.65
  -1   4  -4  354.13   27.69
   1  -4   4  349.47   28.93
   1  -4   4  361.75   28.49
   1  -4   4  359.89   28.20
   1  -4   4  382.41   27.69
  -2   4  -4  276.87   21.41
  -2   4  -4  299.61   22.24
  -2   4  -4  293.07   21.36
   2  -4   4  267.85   22.66
   2  -4   4  293.96   21.41
   2  -4   4  287.88   22.12
   2  -4   4  277.08   22.43
  -3   4  -4  204.15   15.91
  -3   4  -4  224.26   15.86
  -3   4  -4  194.94   16.65
   3  -4   4  208.83   17.32
   3  -4   4  198.85   17.10
   3  -4   4  221.29   16.82
   3  -4   4  225.17   15.91
  -4   4  -4  452.78   35.59
  -4   4  -4  427.43   36.45
  -4   4  -4  527.19   36.89
   4  -4   4  460.57   37.10
   4  -4   4  515.45   36.75
   4  -4   4  470.71   37.10
  -5   4  -4  257.35   21.53
  -5   4  -4  312.56   22.67
  -5   4  -4  247.67   22.16
   5  -4   4  283.33   23.36
   5  -4   4  307.37   22.62
  -6   4  -4  220.18   19.51
  -6   4  -4  229.47   18.38
  -6   4  -4  276.77   20.12
   6  -4   4  234.19   19.89
   6  -4   4  238.57   20.30
   6  -4   4  264.67   20.05
  -7   4  -4  204.27   15.78
  -7   4  -4  240.00   17.72
  -7   4  -4  192.63   17.09
   7  -4   4  200.26   17.87
   7  -4   4  205.91   17.38
  -8   4  -4  130.20   12.00
  -8   4  -4  149.17   12.54
  -8   4  -4  129.32   10.45
   8  -4   4  129.43   11.97
   8  -4   4  160.01   12.80
   8  -4   4  122.78   12.62
   7   3  -4   46.18    4.29
   7   3  -4   38.59    3.76
   7   3  -4   42.21    3.88
  -7  -3   4   42.70    3.35
  -7  -3   4   36.79    3.83
  -7  -3   4   38.98    4.08
  -7  -3   4   41.77    4.09
   6   3  -4   28.33    3.00
   6   3  -4   25.76    2.74
   6   3  -4   24.40    2.61
  -6  -3   4   29.24    2.48
  -6  -3   4   26.36    3.27
  -6  -3   4   29.86    2.44
  -6  -3   4   29.30    2.99
  -6  -3   4   24.93    2.72
  -6  -3   4   33.82    2.96
   5   3  -4   59.10    5.31
  -5  -3   4   70.11    5.19
  -5  -3   4   67.22    5.50
  -5  -3   4   61.43    5.33
  -5  -3   4   68.20    5.14
  -5  -3   4   56.72    5.87
   4   3  -4   90.58    8.36
   4   3  -4  113.42    8.56
   4   3  -4  112.48    9.39
   4   3  -4   97.08    8.87
  -4  -3   4  109.24    8.32
  -4  -3   4   98.66    8.41
  -4  -3   4  113.54    8.22
  -4  -3   4  120.89    8.34
  -4  -3   4  113.81    8.35
  -4  -3   4   99.25    9.11
  -4  -3   4  107.49    8.52
   3   3  -4    6.93    1.53
   3   3  -4    5.37    0.82
   3   3  -4    6.43    0.94
   3   3  -4    6.62    0.90
  -3  -3   4    6.52    0.66
  -3  -3   4    5.98    0.88
  -3  -3   4    5.61    0.88
  -3  -3   4    6.51    0.79
  -3  -3   4    5.79    0.72
  -3  -3   4    5.67    0.85
  -3  -3   4    6.91    0.85
  -3  -3   4    6.08    1.39
   2   3  -4   59.91    5.49
   2   3  -4   58.83    4.66
   2   3  -4   52.66    4.51
   2   3  -4   52.69    4.34
   2   3  -4   57.78    4.54
  -2  -3   4   53.49    4.62
  -2  -3   4   50.80    4.83
  -2  -3   4   59.58    4.52
  -2  -3   4   58.85    4.45
  -2  -3   4   59.75    4.35
  -2  -3   4   58.33    4.41
  -2  -3   4   56.44    5.41
   1   3  -4  228.38   17.07
   1   3  -4  205.72   15.97
   1   3  -4  223.47   16.28
   1   3  -4  227.41   16.46
   1   3  -4  199.19   15.86
  -1  -3   4  209.80   15.85
  -1  -3   4  198.73   16.30
  -1  -3   4  193.09   16.89
  -1  -3   4  214.94   15.91
  -1  -3   4  216.87   15.92
  -1  -3   4  197.51   16.17
  -1  -3   4  224.18   16.03
   0   3  -4  228.03   16.69
   0   3  -4  207.30   17.03
   0   3  -4  235.88   17.23
   0   3  -4  224.66   16.73
   0  -3   4  220.53   16.73
   0  -3   4  211.47   17.76
   0  -3   4  212.97   17.27
   0  -3   4  216.31   17.11
   0  -3   4  236.56   16.70
   0  -3   4  233.80   16.67
  -1   3  -4  317.60   23.05
  -1   3  -4  288.66   22.39
  -1   3  -4  314.96   22.37
   1  -3   4  296.43   23.17
   1  -3   4  283.69   22.88
   1  -3   4  308.21   22.40
   1  -3   4  283.47   23.47
  -2   3  -4  408.96   30.04
  -2   3  -4  404.30   30.00
  -2   3  -4  346.20   30.56
  -2   3  -4  443.50   30.91
   2  -3   4  401.01   30.71
   2  -3   4  392.81   31.00
   2  -3   4  426.41   30.04
   2  -3   4  391.05   31.16
  -3   3  -4  232.73   17.28
  -3   3  -4  256.71   18.31
  -3   3  -4  212.48   17.97
   3  -3   4  237.68   18.14
   3  -3   4  223.32   18.44
   3  -3   4  211.57   18.36
   3  -3   4  234.73   17.27
  -4   3  -4  261.60   19.29
  -4   3  -4  229.32   18.10
   4  -3   4  229.64   19.32
   4  -3   4  251.63   19.17
   4  -3   4  232.45   19.48
  -5   3  -4  259.55   19.49
  -5   3  -4  230.72   17.80
  -5   3  -4  222.38   18.78
   5  -3   4  261.49   19.15
   5  -3   4  221.11   19.35
   5  -3   4  225.66   19.08
  -6   3  -4   53.46    5.30
  -6   3  -4   45.34    4.88
  -6   3  -4   47.50    3.87
   6  -3   4   47.00    5.47
   6  -3   4   53.90    5.30
   6  -3   4   47.71    5.09
  -7   3  -4   50.84    5.21
  -7   3  -4   39.46    4.62
  -7   3  -4   42.78    3.48
   7  -3   4   48.61    5.88
   7  -3   4   40.43    5.20
   7  -3   4   39.59    5.08
  -8   3  -4   53.75    5.60
  -8   3  -4   44.21    5.11
  -8   3  -4   45.00    3.76
   8  -3   4   45.01    5.74
   8  -3   4   51.71    5.65
   8  -3   4   43.53    4.95
  -9   3  -4    8.31    2.50
  -9   3  -4    4.21    1.56
  -9   3  -4    6.97    0.91
   9  -3   4    5.17    2.02
   9  -3   4    5.32    1.68
   8   2  -4   42.20    4.03
  -8  -2   4   41.38    4.46
   7   2  -4  120.75    9.84
   7   2  -4   99.49    8.93
   7   2  -4  102.61    8.91
  -7  -2   4  125.36    8.52
  -7  -2   4  102.72    9.19
   6   2  -4  102.35    8.58
   6   2  -4   93.15    7.82
   6   2  -4   89.21    7.84
  -6  -2   4  100.46    7.51
  -6  -2   4   99.89    8.38
  -6  -2   4   93.36    8.47
  -6  -2   4   89.69    8.09
  -6  -2   4  111.57    7.53
   5   2  -4  122.83   10.06
   5   2  -4  118.43   10.81
   5   2  -4  122.93    9.98
  -5  -2   4  139.97    9.85
  -5  -2   4  121.77   10.28
  -5  -2   4  120.96   10.75
  -5  -2   4  140.84   10.56
  -5  -2   4  137.11    9.93
   4   2  -4  404.41   31.72
   4   2  -4  410.84   31.84
   4   2  -4  369.25   31.97
   4   2  -4  458.81   32.88
   4   2  -4  433.97   32.29
  -4  -2   4  453.92   31.74
  -4  -2   4  440.86   31.71
  -4  -2   4  396.44   32.01
  -4  -2   4  454.41   32.24
  -4  -2   4  400.84   32.59
   3   2  -4  818.47   59.23
   3   2  -4  761.51   58.24
   3   2  -4  770.49   58.60
  -3  -2   4  793.61   58.14
  -3  -2   4  713.50   58.98
  -3  -2   4  812.91   58.15
   2   2  -4  450.97   33.97
   2   2  -4  445.90   33.80
   2   2  -4  433.10   33.63
   2   2  -4  476.07   34.78
   2   2  -4  450.17   34.13
  -2  -2   4  463.70   33.73
  -2  -2   4  476.37   33.73
  -2  -2   4  477.15   33.70
  -2  -2   4  425.25   34.03
  -2  -2   4  464.04   33.63
  -2  -2   4  429.22   34.60
  -2  -2   4  416.86   33.98
  -2   2  -4  500.24   35.02
  -2   2  -4  470.96   34.16
  -2   2  -4  466.61   34.14
  -2   2  -4  413.05   34.70
   2  -2   4  451.35   35.17
   2  -2   4  443.49   35.07
  -3   2  -4  533.91   40.99
   3  -2   4  544.05   41.42
   3  -2   4  540.90   41.32
  -4   2  -4  162.14   14.48
  -4   2  -4  197.11   14.86
  -4   2  -4  187.60   13.74
   4  -2   4  181.33   15.04
   4  -2   4  175.37   14.75
   4  -2   4  192.54   14.76
  -5   2  -4  348.90   26.25
  -5   2  -4  327.48   27.18
  -5   2  -4  384.64   27.59
   5  -2   4  337.98   27.77
   5  -2   4  325.50   27.29
   5  -2   4  380.29   27.53
  -6   2  -4  192.27   16.67
  -6   2  -4  233.15   17.18
  -6   2  -4  203.25   15.63
   6  -2   4  197.75   17.35
   6  -2   4  196.17   16.72
   6  -2   4  224.17   17.11
  -7   2  -4   99.59    9.85
  -7   2  -4   88.03    8.34
  -7   2  -4   92.90    7.15
   7  -2   4  103.99    8.87
   7  -2   4   88.79    8.23
   7  -2   4   88.08    8.98
  -8   2  -4  179.57   14.30
  -8   2  -4  147.28   13.69
  -8   2  -4  158.29   12.35
   8  -2   4  187.06   14.47
   8  -2   4  155.45   14.66
   8  -2   4  152.18   13.50
  -9   2  -4  203.38   16.08
  -9   2  -4  175.02   15.45
  -9   2  -4  184.36   13.80
   9  -2   4  165.92   16.12
   8   1  -4   15.77    2.28
   8   1  -4   17.94    2.14
  -8  -1   4   18.73    2.63
  -8  -1   4   20.47    3.03
   7   1  -4   39.96    3.90
   7   1  -4   46.20    4.84
  -7  -1   4   39.36    4.33
  -7  -1   4   44.75    4.71
  -7  -1   4   49.66    3.58
   6   1  -4  170.48   13.55
   6   1  -4  159.17   12.69
   6   1  -4  153.01   12.69
  -6  -1   4  149.53   13.07
  -6  -1   4  148.13   13.25
  -6  -1   4  185.74   12.37
  -6  -1   4  170.96   13.45
  -6  -1   4  166.65   12.28
   5   1  -4  164.55   13.03
   5   1  -4  161.72   12.96
   5   1  -4  188.24   14.15
  -5  -1   4  157.66   13.37
  -5  -1   4  171.87   13.60
  -5  -1   4  156.92   13.76
  -5  -1   4  178.37   12.77
   4   1  -4   93.72    7.54
   4   1  -4   78.92    6.45
   4   1  -4   76.74    6.35
   4   1  -4   76.78    6.75
  -4  -1   4   78.47    7.20
  -4  -1   4   85.91    6.94
  -4  -1   4   78.59    6.79
   3   1  -4  312.88   24.47
   3   1  -4  333.72   25.00
   3   1  -4  365.40   25.56
   3   1  -4  309.85   24.34
   3   1  -4  314.65   24.75
  -3  -1   4  333.81   24.90
  -3  -1   4  297.28   25.20
  -3  -1   4  311.31   24.79
  -3  -1   4  343.63   24.27
   2   1  -4  148.02   11.79
   2   1  -4  162.15   12.31
   2   1  -4  144.74   11.59
   2   1  -4  152.02   11.34
   2   1  -4  141.43   11.17
  -2  -1   4  143.10   12.09
  -2  -1   4  154.97   11.22
  -2  -1   4  140.42   11.67
  -2  -1   4  147.45   11.65
  -2  -1   4  153.68   11.17
   1   1  -4    8.49    1.16
   1   1  -4    8.35    0.84
   1   1  -4    9.40    1.31
   1   1  -4   10.71    0.97
   1   1  -4   12.56    1.73
  -1  -1   4    9.99    0.88
  -1  -1   4   12.22    1.68
  -1  -1   4    8.72    1.30
  -1  -1   4   10.96    1.26
   0   1  -4  124.19    8.90
   0   1  -4  132.06    9.82
   0   1  -4  120.88    8.84
   0   1  -4  118.34    9.41
   0  -1   4  105.37    9.25
   0  -1   4  110.70    9.44
   0  -1   4  114.05    9.69
   0  -1   4  115.04    8.85
  -1   1  -4  343.77   26.17
  -1   1  -4  295.27   25.92
  -1   1  -4  380.59   25.51
  -1   1  -4  340.47   25.51
  -1   1  -4  373.92   26.43
   1  -1   4  339.13   26.41
   1  -1   4  319.97   26.00
   1  -1   4  343.63   26.28
   1  -1   4  339.09   25.52
  -2   1  -4  103.87    8.80
  -2   1  -4  106.11    8.23
  -2   1  -4  123.60    9.09
   2  -1   4  112.20    8.23
   2  -1   4  109.50    9.11
   2  -1   4   98.65    9.00
   2  -1   4  110.89    8.87
  -3   1  -4  180.51   15.41
  -3   1  -4  203.21   14.70
  -3   1  -4  195.61   14.77
  -3   1  -4  211.57   15.72
   3  -1   4  189.36   15.64
   3  -1   4  185.54   15.77
   3  -1   4  202.24   15.57
   3  -1   4  208.45   14.79
  -4   1  -4  144.51    9.93
  -4   1  -4  142.12   11.06
  -4   1  -4  129.48    9.97
  -4   1  -4  120.48   10.70
   4  -1   4  123.98   11.13
   4  -1   4  126.62   10.87
   4  -1   4  139.29   10.94
  -5   1  -4  105.76    8.27
  -5   1  -4  120.86    9.53
  -5   1  -4  101.08    9.13
   5  -1   4  105.59    9.21
   5  -1   4  118.87    9.48
   5  -1   4  104.87    9.66
  -6   1  -4  347.95   26.85
  -6   1  -4  310.95   27.80
  -6   1  -4  403.79   26.87
  -6   1  -4  387.51   28.33
   6  -1   4  385.62   28.29
   6  -1   4  345.89   27.85
   6  -1   4  331.32   28.46
  -7   1  -4  137.70   10.63
  -7   1  -4  128.89   11.78
  -7   1  -4  152.84   12.25
   7  -1   4  140.16   11.69
   7  -1   4  152.27   12.28
   7  -1   4  132.33   12.45
  -8   1  -4   19.10    2.95
  -8   1  -4   22.12    1.79
  -8   1  -4   21.66    3.30
   8  -1   4   19.65    2.67
   8  -1   4   23.42    3.42
   8  -1   4   20.21    3.48
  -9   1  -4   41.84    4.97
  -9   1  -4   49.98    5.45
  -9   1  -4   45.16    3.53
   9  -1   4   37.11    5.38
   9  -1   4   38.26    4.33
   9  -1   4   53.70    6.28
   8   0  -4  171.28   13.27
   8   0  -4  153.77   12.95
  -8   0   4  155.87   13.74
  -8   0   4  179.30   14.38
   7   0  -4  103.49    8.61
   7   0  -4  110.73    9.59
   7   0  -4   97.15    8.43
  -7   0   4  117.50    8.12
  -7   0   4  109.12    9.52
  -7   0   4   94.71    9.05
   6   0  -4  100.95    8.45
   6   0  -4  106.31    8.54
  -6   0   4  103.31    9.06
  -6   0   4  115.13    9.40
   5   0  -4  219.06   16.62
   5   0  -4  215.36   16.62
   5   0  -4  248.36   17.96
  -5   0   4  228.45   16.34
  -5   0   4  197.60   17.36
  -5   0   4  194.23   17.07
  -5   0   4  212.05   17.30
  -5   0   4  224.43   16.33
   4   0  -4  253.23   19.46
   4   0  -4  280.07   20.03
   4   0  -4  251.14   18.72
   4   0  -4  240.36   18.76
  -4   0   4  256.58   18.53
  -4   0   4  247.56   19.36
  -4   0   4  225.80   19.19
  -4   0   4  224.14   19.59
   3   0  -4  141.77   11.12
   3   0  -4  136.20   10.49
   3   0  -4  135.49   10.39
   3   0  -4  156.15   11.63
  -3   0   4  120.87   11.22
  -3   0   4  135.12   10.97
  -3   0   4  144.40   10.30
  -3   0   4  126.46   10.89
   3   0   4  525.93   40.44
   3   0   4  531.21   40.22
  -5   0  -4  276.96   19.14
  -5   0  -4  271.31   20.34
  -5   0  -4  226.22   19.89
  -5   0  -4  255.35   19.09
   5   0   4  250.73   19.93
   5   0   4  268.31   20.24
   5   0   4  237.46   20.44
  -6   0  -4  171.59   13.22
  -6   0  -4  165.74   11.86
  -6   0  -4  134.60   12.68
  -6   0  -4  153.45   11.78
   6   0   4  170.17   13.17
   6   0   4  153.41   13.42
   6   0   4  149.31   12.62
  -7   0  -4  190.11   16.66
  -7   0  -4  224.22   17.17
  -7   0  -4  194.45   15.53
  -7   0  -4  221.82   15.64
   7   0   4  222.61   17.16
   7   0   4  192.35   17.35
   7   0   4  203.73   16.42
  -8   0  -4   68.98    5.43
  -8   0  -4   77.62    7.19
  -8   0  -4   64.96    6.66
   8   0   4   65.17    6.19
   8   0   4   68.94    7.45
   8   0   4   78.30    7.25
   8  -1  -4   10.81    1.49
   8  -1  -4    9.89    1.72
  -8   1   4   11.59    2.60
  -8   1   4    9.37    2.08
  -8   1   4   11.76    1.15
   7  -1  -4   43.73    4.04
   7  -1  -4   45.84    6.69
   7  -1  -4   46.25    4.28
  -7   1   4   41.88    4.76
  -7   1   4   50.21    5.29
  -7   1   4   52.95    3.76
   6  -1  -4   24.06    2.51
   6  -1  -4   25.83    3.57
   6  -1  -4   26.07    2.43
  -6   1   4   22.00    2.96
  -6   1   4   29.65    3.42
   5  -1  -4   67.37    6.12
   5  -1  -4   48.56    5.15
   5  -1  -4   54.03    4.83
   5  -1  -4   59.75    4.76
  -5   1   4   61.88    4.51
  -5   1   4   48.63    5.83
  -5   1   4   61.00    5.54
   4  -1  -4  355.74   26.53
   4  -1  -4  339.57   25.70
   4  -1  -4  314.22   26.21
   4  -1  -4  365.03   25.73
  -4   1   4  308.95   26.26
  -4   1   4  354.56   26.47
  -4   1   4  314.53   26.58
  -4   1   4  375.67   25.49
   3  -1  -4  277.09   22.67
   3  -1  -4  319.51   22.17
   3  -1  -4  309.50   22.94
   3  -1  -4  295.64   22.21
  -3   1   4  276.94   23.16
  -3   1   4  266.16   22.71
  -3   1   4  304.11   22.84
  -3   1   4  310.13   22.03
   2  -1  -4  515.61   36.40
   2  -1  -4  495.54   36.52
   2  -1  -4  547.54   37.66
   2  -1  -4  500.57   37.18
  -2   1   4  445.36   37.36
  -2   1   4  424.10   36.99
  -1   1   4  386.79   30.37
  -1   1   4  401.61   30.13
   0  -1  -4   15.19    1.88
   0  -1  -4   14.05    1.73
   0  -1  -4   13.34    1.57
   0   1   4   14.72    1.90
   0   1   4   13.60    1.59
   0   1   4   15.53    1.82
  -1  -1  -4  256.16   21.69
  -1  -1  -4  290.25   21.94
  -1  -1  -4  305.83   22.03
   1   1   4  277.89   22.05
   1   1   4  288.06   22.03
   1   1   4  275.66   21.75
   1   1   4  299.05   21.30
  -3  -1  -4   15.45    1.64
  -3  -1  -4   14.30    1.86
  -3  -1  -4   13.92    1.09
  -3  -1  -4   12.01    1.63
   3   1   4   13.59    1.73
   3   1   4   14.99    1.77
   3   1   4   12.60    1.88
  -4  -1  -4   12.64    1.76
  -4  -1  -4   15.43    1.29
  -4  -1  -4   16.88    2.09
  -4  -1  -4   14.65    1.18
   4   1   4   15.11    1.83
   4   1   4   14.10    1.91
   4   1   4   14.69    1.55
   4   1   4   16.28    2.21
  -5  -1  -4  184.62   14.03
  -5  -1  -4  186.25   12.94
  -5  -1  -4  170.11   12.83
  -5  -1  -4  161.00   13.66
   5   1   4  173.60   13.87
   5   1   4  165.82   13.52
   5   1   4  164.61   13.29
   5   1   4  163.23   14.16
  -6  -1  -4   56.88    4.22
  -6  -1  -4   47.44    4.95
  -6  -1  -4   51.31    4.07
  -6  -1  -4   58.10    5.41
   6   1   4   54.36    4.79
   6   1   4   53.32    5.59
   6   1   4   49.16    4.64
   6   1   4   56.51    5.32
  -7  -1  -4  104.62    7.57
  -7  -1  -4   84.95    8.64
  -7  -1  -4  104.04    8.91
  -7  -1  -4   95.56    7.41
   7   1   4   95.87    9.24
   7   1   4   95.13    8.14
   7   1   4  105.38    8.92
  -8  -1  -4  116.45    9.09
  -8  -1  -4  108.81   10.31
  -8  -1  -4  127.08    9.27
  -8  -1  -4  126.53   10.78
   8   1   4  109.32    9.92
   8   1   4  133.04   10.96
  -9  -1  -4   25.36    3.44
  -9  -1  -4   28.39    3.86
  -9  -1  -4   24.26    2.12
   9   1   4   29.50    3.94
   9   1   4   23.98    3.08
 -10  -1  -4   30.29    2.45
 -10  -1  -4   30.09    4.01
   8  -2  -4   45.90    4.33
   8  -2  -4   46.22    4.65
  -8   2   4   55.59    4.03
  -8   2   4   48.07    5.36
  -8   2   4   54.67    6.02
   7  -2  -4  222.60   18.94
  -7   2   4  277.03   18.69
  -7   2   4  226.75   19.90
  -7   2   4  266.21   20.54
   6  -2  -4  313.19   25.41
   6  -2  -4  321.02   25.62
   6  -2  -4  353.05   26.69
  -6   2   4  369.83   25.18
  -6   2   4  353.04   26.73
  -6   2   4  305.13   26.28
   5  -2  -4  258.49   19.33
   5  -2  -4  244.29   18.36
   5  -2  -4  216.48   18.90
  -5   2   4  242.28   17.97
  -5   2   4  215.64   19.04
  -5   2   4  255.69   17.99
  -5   2   4  246.43   19.29
   4  -2  -4  294.60   24.65
   4  -2  -4  355.69   25.69
   4  -2  -4  305.75   24.02
   4  -2  -4  323.09   24.93
  -4   2   4  338.64   23.83
  -4   2   4  283.53   24.69
  -4   2   4  331.92   24.93
   3  -2  -4  572.68   38.56
   3  -2  -4  487.19   37.05
   3  -2  -4  461.13   37.60
   3  -2  -4  513.47   37.86
  -3   2   4  443.96   37.99
  -3   2   4  471.02   37.71
  -3   2   4  514.82   37.81
   2  -2  -4   84.40    7.30
   2  -2  -4   89.75    7.47
   2  -2  -4   95.62    7.92
   2  -2  -4   85.53    6.63
  -2   2   4   92.05    7.41
  -2   2   4   95.79    6.64
  -2   2   4   83.51    7.72
  -2   2   4   79.38    7.33
   0  -2  -4  409.74   29.74
   0  -2  -4  392.97   28.79
   0   2   4  355.57   29.51
  -1  -2  -4  110.75    8.91
  -1  -2  -4  120.31    8.28
  -1  -2  -4  109.66    8.91
   1   2   4  107.35    9.07
   1   2   4   99.51    8.91
   1   2   4  107.14    8.26
   2   2   4  486.20   36.94
   2   2   4  482.75   36.97
  -4  -2  -4  302.92   25.49
  -4  -2  -4  367.44   25.28
  -4  -2  -4  330.50   24.74
   4   2   4  343.53   25.67
   4   2   4  335.77   25.50
   4   2   4  324.08   25.17
   4   2   4  321.29   25.93
  -5  -2  -4  736.73   51.17
  -5  -2  -4  624.23   50.72
   5   2   4  699.96   50.59
   5   2   4  647.84   50.42
   5   2   4  642.14   51.27
  -6  -2  -4  360.91   30.68
  -6  -2  -4  434.95   29.98
  -6  -2  -4  427.33   31.16
   6   2   4  422.72   30.34
   6   2   4  373.67   30.39
   6   2   4  374.72   31.34
  -7  -2  -4  141.79   12.98
  -7  -2  -4  162.34   13.39
  -7  -2  -4  167.11   12.15
   7   2   4  176.68   12.45
   7   2   4  147.43   12.68
   7   2   4  146.91   13.83
   7   2   4  170.42   13.46
  -8  -2  -4  139.19   10.41
  -8  -2  -4  123.96   11.41
  -8  -2  -4  138.00   11.81
   8   2   4  147.62   11.97
   8   2   4  126.54   11.07
  -9  -2  -4   54.21    5.95
  -9  -2  -4   57.49    4.60
  -9  -2  -4   64.36    4.88
  -9  -2  -4   62.84    6.39
   9   2   4   69.90    6.66
   9   2   4   49.55    5.57
   8  -3  -4   18.87    2.12
   8  -3  -4   21.54    2.54
  -8   3   4   22.64    1.93
  -8   3   4   19.98    3.18
   7  -3  -4    5.40    1.05
   7  -3  -4    5.68    1.25
   7  -3  -4    5.01    1.66
  -7   3   4    3.59    1.30
  -7   3   4    4.94    1.66
   6  -3  -4   39.24    4.43
   6  -3  -4   34.39    3.23
  -6   3   4   40.82    3.01
  -6   3   4   33.27    4.09
  -6   3   4   41.69    4.54
   5  -3  -4   25.81    3.58
   5  -3  -4   17.43    2.56
   5  -3  -4   21.42    2.85
  -5   3   4   20.61    2.84
  -5   3   4   22.20    1.68
  -5   3   4   16.92    2.57
  -5   3   4   20.73    1.68
   4  -3  -4    6.11    0.82
   4  -3  -4    6.15    1.37
   4  -3  -4    7.86    1.94
   4  -3  -4    6.84    1.53
  -4   3   4    4.68    1.31
  -4   3   4    8.88    1.65
  -4   3   4    6.91    0.63
  -4   3   4    6.16    0.76
   3  -3  -4  226.08   17.73
   3  -3  -4  254.32   18.46
   3  -3  -4  206.22   17.50
  -3   3   4  229.61   17.71
  -3   3   4  209.80   16.90
  -3   3   4  198.51   17.57
  -3   3   4  240.94   16.70
   2  -3  -4  130.66    9.93
   2  -3  -4  108.36    9.53
   2  -3  -4  108.87    9.30
  -2   3   4  113.31    9.27
  -2   3   4  118.45    8.43
  -2   3   4   95.51    9.47
   1  -3  -4   42.74    3.33
   1  -3  -4   44.96    4.15
  -1   3   4   49.78    3.34
  -1   3   4   45.58    4.07
  -1   3   4   41.03    4.10
  -1   3   4   39.81    4.38
  -1  -3  -4  268.91   22.05
  -1  -3  -4  286.04   22.29
  -1  -3  -4  310.50   22.35
  -1  -3  -4  314.99   21.71
   1   3   4  280.83   22.34
   1   3   4  289.80   22.10
   1   3   4  266.43   22.51
  -2  -3  -4  219.41   19.01
  -2  -3  -4  251.07   19.30
  -2  -3  -4  259.77   19.17
  -2  -3  -4  273.33   18.69
   2   3   4  231.62   19.40
   2   3   4  251.62   18.70
   3   3   4  633.60   46.76
   3   3   4  594.21   46.57
  -4  -3  -4  124.17    9.45
  -4  -3  -4  127.37   10.07
   4   3   4  123.16    9.89
   4   3   4  118.01    9.81
   4   3   4  116.44    9.48
   4   3   4  116.69   10.19
  -5  -3  -4   22.68    2.66
  -5  -3  -4   19.32    2.39
  -5  -3  -4   22.85    1.91
   5   3   4   21.84    2.19
   5   3   4   22.73    2.60
   5   3   4   19.32    2.16
   5   3   4   20.03    2.77
  -6  -3  -4   88.83    6.49
  -6  -3  -4   86.93    7.48
  -6  -3  -4   73.57    7.09
   6   3   4   75.45    6.86
   6   3   4   79.79    7.70
   6   3   4   87.36    7.44
   6   3   4   86.86    6.82
  -7  -3  -4   34.94    2.89
  -7  -3  -4   33.04    3.85
  -7  -3  -4   29.34    3.53
   7   3   4   37.30    3.13
   7   3   4   32.31    3.40
   7   3   4   35.90    3.96
  -8  -3  -4   35.02    4.38
  -8  -3  -4   28.10    3.51
   8   3   4   26.42    3.29
   8   3   4   35.87    4.05
  -9  -3  -4  107.34    7.92
  -9  -3  -4   86.16    9.23
  -9  -3  -4  100.27    9.31
   9   3   4   92.35   10.04
   9   3   4  111.72    9.65
   7  -4  -4   48.89    5.65
   7  -4  -4   42.10    3.82
  -7   4   4   40.57    4.90
  -7   4   4   49.23    5.49
   6  -4  -4  206.16   16.07
   6  -4  -4  175.60   14.52
   6  -4  -4  177.63   15.65
  -6   4   4  210.42   16.21
  -6   4   4  171.06   15.61
  -6   4   4  199.58   14.29
   5  -4  -4  425.62   30.70
   5  -4  -4  355.44   30.26
   5  -4  -4  362.97   29.32
  -5   4   4  344.90   30.28
  -5   4   4  396.37   30.62
  -5   4   4  420.30   29.25
  -5   4   4  420.95   29.10
   4  -4  -4  236.99   20.53
   4  -4  -4  269.19   20.84
   4  -4  -4  260.26   19.74
  -4   4   4  233.18   20.61
  -4   4   4  284.60   19.53
  -4   4   4  262.34   19.69
  -4   4   4  282.65   20.94
   3  -4  -4  342.59   29.34
   3  -4  -4  434.24   30.35
   3  -4  -4  387.21   29.61
  -3   4   4  362.15   28.69
  -3   4   4  334.16   29.41
  -3   4   4  435.84   28.46
  -3   4   4  376.81   29.55
   1  -4  -4  412.34   30.66
   1  -4  -4  442.79   31.09
  -1   4   4  352.10   30.51
  -1   4   4  364.83   30.04
  -1   4   4  421.63   30.58
  -2  -4  -4  438.18   32.32
  -2  -4  -4  387.11   32.02
  -2  -4  -4  429.57   32.17
   2   4   4  393.10   32.31
   2   4   4  470.93   31.41
   2   4   4  411.23   31.66
  -3  -4  -4  332.65   24.35
  -3  -4  -4  315.52   23.99
  -3  -4  -4  292.71   24.04
  -3  -4  -4  346.99   23.71
   3   4   4  283.92   23.92
   3   4   4  310.77   23.75
   3   4   4  308.31   24.44
   3   4   4  320.94   24.12
  -4  -4  -4  527.45   43.33
  -4  -4  -4  633.77   43.00
  -4  -4  -4  613.21   43.07
  -4  -4  -4  612.00   43.68
   4   4   4  557.11   43.78
   4   4   4  565.77   43.09
   4   4   4  497.73   43.16
  -5  -4  -4  263.99   20.32
  -5  -4  -4  226.20   19.96
  -5  -4  -4  288.29   19.52
  -5  -4  -4  264.21   19.39
   5   4   4  243.00   19.78
   5   4   4  249.46   19.78
   5   4   4  248.47   20.53
   5   4   4  275.85   20.25
  -6  -4  -4  416.20   31.18
  -6  -4  -4  433.80   30.22
   6   4   4  351.75   31.06
   6   4   4  398.43   30.47
  -7  -4  -4  438.00   32.73
  -7  -4  -4  378.27   32.27
   7   4   4  465.48   31.84
   7   4   4  395.61   32.11
  -8  -4  -4  119.37   11.11
  -8  -4  -4  141.78   10.33
  -8  -4  -4  137.98   11.54
   8   4   4  147.11   12.30
   8   4   4  116.62   10.90
  -9  -4  -4   75.95    7.22
  -9  -4  -4   76.69    5.90
  -9  -4  -4   69.79    6.86
   9   4   4   65.86    6.64
   7  -5  -4   85.47    8.60
   7  -5  -4   66.40    7.23
   7  -5  -4   69.59    5.99
  -7   5   4   69.79    7.29
  -7   5   4   83.76    8.34
   6  -5  -4   28.71    2.56
   6  -5  -4   27.46    3.63
   6  -5  -4   30.93    3.92
  -6   5   4   26.47    3.63
  -6   5   4   29.24    3.95
   5  -5  -4  130.35   10.75
   5  -5  -4  119.26    9.34
   5  -5  -4  109.40   10.32
  -5   5   4  108.59   10.39
  -5   5   4  125.92    9.25
  -5   5   4  131.58   10.82
   4  -5  -4  158.96   14.19
   4  -5  -4  187.43   14.54
  -4   5   4  183.26   13.07
  -4   5   4  189.05   14.60
  -4   5   4  159.34   14.28
  -4   5   4  170.09   13.29
   3  -5  -4   12.42    1.92
   3  -5  -4   12.42    2.02
  -3   5   4   13.57    2.07
  -3   5   4   13.21    0.99
  -3   5   4   10.63    1.89
  -3   5   4   11.75    1.28
   2  -5  -4  142.24   11.23
   2  -5  -4  132.19   11.03
   2  -5  -4  147.90   11.68
  -2   5   4  140.89   11.16
  -2   5   4  121.99   11.05
  -2   5   4  123.98   10.39
   1  -5  -4  337.44   24.39
   1  -5  -4  308.03   23.85
   1  -5  -4  311.31   23.99
  -1   5   4  279.66   24.33
  -1   5   4  321.58   23.92
  -1   5   4  290.34   23.35
   0  -5  -4  111.87    7.83
   0  -5  -4  102.19    8.54
   0  -5  -4   97.24    7.57
   0  -5  -4  109.67    8.80
   0  -5  -4   96.21    8.34
   0   5   4  107.93    8.46
   0   5   4   90.23    8.01
   0   5   4   96.75    8.51
  -1  -5  -4  189.76   14.27
  -1  -5  -4  157.81   13.81
  -1  -5  -4  187.43   14.13
  -1  -5  -4  195.60   13.43
   1   5   4  187.93   13.95
   1   5   4  162.24   14.04
   1   5   4  153.63   13.62
  -2  -5  -4  247.23   21.41
  -2  -5  -4  298.13   21.09
  -2  -5  -4  294.11   21.69
  -2  -5  -4  292.21   21.73
   2   5   4  290.20   21.52
   2   5   4  258.02   21.72
   2   5   4  302.60   20.81
   2   5   4  247.88   21.30
  -3  -5  -4  217.40   17.24
  -3  -5  -4  245.66   16.95
  -3  -5  -4  204.62   17.23
  -3  -5  -4  236.66   17.56
   3   5   4  197.06   17.12
   3   5   4  213.04   16.96
   3   5   4  241.22   17.38
  -4  -5  -4  334.18   27.84
  -4  -5  -4  397.68   27.54
  -4  -5  -4  361.83   27.63
  -4  -5  -4  376.83   28.14
   4   5   4  389.36   28.03
   4   5   4  344.09   27.60
   4   5   4  344.26   27.74
  -5  -5  -4  153.94   13.27
  -5  -5  -4  171.76   12.90
  -5  -5  -4  179.49   13.62
  -5  -5  -4  167.43   12.68
   5   5   4  176.22   13.47
   5   5   4  155.20   13.06
   5   5   4  162.75   13.08
  -6  -5  -4   10.17    1.19
  -6  -5  -4    9.70    1.78
  -6  -5  -4    7.94    1.53
   6   5   4    7.85    1.42
   6   5   4    9.44    1.36
  -7  -5  -4   29.48    3.42
  -7  -5  -4   34.46    3.79
  -7  -5  -4   34.86    2.91
   7   5   4   27.95    3.29
   7   5   4   34.81    3.07
  -8  -5  -4   57.51    4.54
  -8  -5  -4   52.62    4.16
  -8  -5  -4   58.20    5.61
   8   5   4   50.87    5.13
   8   5   4   44.45    4.50
   8   5   4   61.40    5.75
  -9  -5  -4    2.75    0.36
  -9  -5  -4    4.79    1.30
  -9  -5  -4    2.54    1.50
   9   5   4    2.30    1.17
   7  -6  -4   84.47    8.33
   7  -6  -4   85.32    6.81
  -7   6   4   85.21    8.32
   6  -6  -4   80.85    8.52
   6  -6  -4   88.48    7.32
   6  -6  -4   98.86    8.97
  -6   6   4   91.83    8.74
  -6   6   4  106.59    9.26
   5  -6  -4  103.54    8.88
   5  -6  -4   93.60    7.34
   5  -6  -4   83.56    8.39
  -5   6   4  102.06   10.17
  -5   6   4   87.66    8.52
  -5   6   4   94.70    7.30
   4  -6  -4  242.11   20.35
   4  -6  -4  270.95   20.66
  -4   6   4  231.83   20.40
  -4   6   4  254.13   19.34
  -4   6   4  277.77   20.75
   3  -6  -4  344.18   26.97
   3  -6  -4  312.60   26.70
   3  -6  -4  385.36   27.62
  -3   6   4  335.14   25.93
  -3   6   4  363.99   25.56
  -3   6   4  307.50   26.79
  -3   6   4  355.34   26.98
   2  -6  -4  227.27   20.12
   2  -6  -4  269.64   20.45
   2  -6  -4  291.95   20.95
  -2   6   4  239.28   20.30
  -2   6   4  246.95   19.55
  -2   6   4  268.82   20.37
   1  -6  -4  690.22   48.27
   1  -6  -4  697.31   47.97
   1  -6  -4  580.50   47.61
  -1   6   4  571.01   47.74
  -1   6   4  599.66   47.15
   0  -6  -4  550.07   42.90
   0  -6  -4  614.19   43.19
   0  -6  -4  623.03   43.42
   0   6   4  518.81   42.50
   0   6   4  517.50   42.99
  -1  -6  -4  428.49   35.92
  -1  -6  -4  529.40   35.53
  -1  -6  -4  484.98   36.33
  -1  -6  -4  487.40   36.22
   1   6   4  503.98   36.05
   1   6   4  417.93   36.08
   1   6   4  421.73   35.68
   1   6   4  506.57   35.28
  -2  -6  -4  402.50   34.64
  -2  -6  -4  500.60   34.34
  -2  -6  -4  469.83   34.98
  -2  -6  -4  455.59   34.94
   2   6   4  404.03   34.50
   2   6   4  475.87   34.01
   2   6   4  484.29   34.78
  -3  -6  -4  190.54   13.94
  -3  -6  -4  169.98   14.27
  -3  -6  -4  185.03   14.38
  -3  -6  -4  187.71   14.62
   3   6   4  164.45   14.13
   3   6   4  196.59   14.39
   3   6   4  174.97   13.99
  -4  -6  -4   56.91    4.97
  -4  -6  -4   58.77    4.56
  -4  -6  -4   47.02    4.60
  -4  -6  -4   52.18    4.51
   4   6   4   45.73    4.38
   4   6   4   50.52    4.56
   4   6   4   50.82    5.03
  -5  -6  -4  237.23   16.29
  -5  -6  -4  207.06   16.20
  -5  -6  -4  218.13   16.36
  -5  -6  -4  219.58   16.96
  -5  -6  -4  195.39   16.74
   5   6   4  202.65   16.52
   5   6   4  230.65   16.89
   5   6   4  189.36   16.50
  -6  -6  -4  152.53   13.06
  -6  -6  -4  180.04   13.46
   6   6   4  154.39   12.95
   6   6   4  162.79   12.82
  -7  -6  -4   58.47    5.61
  -7  -6  -4   51.80    5.29
  -7  -6  -4   59.94    4.78
   7   6   4   51.50    5.19
   7   6   4   56.09    4.94
   7   6   4   64.41    5.73
  -8  -6  -4  129.43    9.79
  -8  -6  -4  130.03   10.79
  -8  -6  -4  110.39   10.37
   8   6   4  142.15   11.04
   8   6   4  126.26    9.89
   8   6   4  103.78   10.32
   7  -7  -4   12.34    2.83
   7  -7  -4   13.46    1.58
   7  -7  -4   16.74    4.00
   7  -7  -4   20.48    3.96
  -7   7   4   15.91    3.28
  -7   7   4   14.97    2.94
   6  -7  -4   66.00    6.76
   6  -7  -4   56.57    6.39
   6  -7  -4   58.53    5.05
  -6   7   4   59.98    6.50
  -6   7   4   72.44    7.07
   5  -7  -4   57.81    4.83
   5  -7  -4   51.29    5.94
   5  -7  -4   65.26    6.39
  -5   7   4   72.97    6.69
  -5   7   4   58.78    4.86
  -5   7   4   56.98    6.11
   4  -7  -4   56.28    6.10
   4  -7  -4   69.15    6.41
  -4   7   4   55.92    6.08
  -4   7   4   62.79    5.07
  -4   7   4   67.82    6.42
   3  -7  -4  153.38   12.14
   3  -7  -4  124.65   11.73
  -3   7   4  154.34   12.12
  -3   7   4  141.55   10.97
  -3   7   4  132.30   11.90
   2  -7  -4   71.11    6.33
   2  -7  -4   65.65    6.11
   2  -7  -4   63.19    6.88
  -2   7   4   71.35    7.10
  -2   7   4   64.91    5.41
  -2   7   4   59.61    6.08
   1  -7  -4   77.25    6.85
   1  -7  -4   67.18    6.22
   1  -7  -4   72.13    6.42
  -1   7   4   62.15    6.25
  -1   7   4   72.53    6.34
  -1   7   4   63.90    5.65
   0  -7  -4  109.77    9.09
   0  -7  -4  117.86    8.31
   0  -7  -4  115.17    9.37
   0  -7  -4   99.01    8.84
   0   7   4  105.29    8.10
   0   7   4   95.49    8.43
   0   7   4  110.21    8.96
   0   7   4   94.51    8.92
  -1  -7  -4    8.37    1.66
  -1  -7  -4    7.37    1.38
  -1  -7  -4    8.38    1.07
  -1  -7  -4    7.31    1.49
   1   7   4    7.53    1.18
   1   7   4    7.52    1.38
   1   7   4    8.80    0.80
  -2  -7  -4    5.66    1.33
  -2  -7  -4    6.65    0.99
  -2  -7  -4    7.07    1.47
  -2  -7  -4    4.97    1.15
   2   7   4    6.35    0.62
   2   7   4    6.23    1.10
   2   7   4    7.01    1.94
   2   7   4    6.16    1.23
  -3  -7  -4  163.79   12.84
  -3  -7  -4  164.45   12.48
  -3  -7  -4  166.82   12.83
  -3  -7  -4  143.44   12.54
   3   7   4  143.43   12.45
   3   7   4  180.62   12.75
   3   7   4  155.46   11.85
   3   7   4  146.40   12.81
  -4  -7  -4  134.64   10.68
  -4  -7  -4  118.64   11.33
  -4  -7  -4  138.61   10.16
  -4  -7  -4  126.02   10.38
   4   7   4  144.68   10.59
   4   7   4  118.31   10.49
   4   7   4  117.78   10.30
  -5  -7  -4   74.82    6.19
  -5  -7  -4   62.77    5.87
  -5  -7  -4   69.38    5.59
   5   7   4   67.69    5.83
   5   7   4   61.20    5.72
  -6  -7  -4  142.08   11.50
  -6  -7  -4  147.16   10.83
  -6  -7  -4  142.04   11.62
  -6  -7  -4  120.52   11.17
   6   7   4  156.81   11.56
   6   7   4  120.69   11.12
  -7  -7  -4   60.62    5.84
  -7  -7  -4   69.52    5.37
  -7  -7  -4   67.24    6.08
   7   7   4   56.58    5.74
   7   7   4   65.35    5.55
  -8  -7  -4   17.03    2.40
   8   7   4   18.88    2.09
   8   7   4   15.44    2.40
   6  -8  -4   59.24    6.29
   6  -8  -4   51.80    5.94
   6  -8  -4   51.71    4.39
  -6   8   4   51.33    5.95
   5  -8  -4  131.60   11.15
   5  -8  -4  110.12   10.73
  -5   8   4  113.57   10.82
  -5   8   4  129.02   11.22
  -5   8   4  118.64    9.42
   4  -8  -4   88.45    9.20
   4  -8  -4  122.50   10.40
   4  -8  -4  110.64    9.68
  -4   8   4   92.11    9.33
  -4   8   4  101.54    8.26
  -4   8   4  114.77    9.78
   3  -8  -4   98.55    9.53
   3  -8  -4  119.52    9.95
  -3   8   4  109.80    8.72
  -3   8   4  101.78    9.67
  -3   8   4  120.06    9.92
   2  -8  -4  190.92   14.78
   2  -8  -4  161.19   14.38
  -2   8   4  171.93   13.69
  -2   8   4  191.39   14.68
  -2   8   4  167.12   14.54
   1  -8  -4  104.85   11.17
   1  -8  -4  127.59   10.38
   1  -8  -4  121.44   10.02
  -1   8   4  107.45    9.14
  -1   8   4  112.63    8.87
  -1   8   4  105.53    9.79
  -1   8   4  124.09    9.93
   0  -8  -4  241.76   19.83
   0  -8  -4  272.73   19.92
   0  -8  -4  279.11   20.22
   0   8   4  267.76   18.75
   0   8   4  230.97   20.81
   0   8   4  214.89   19.59
   0   8   4  232.22   19.12
  -1  -8  -4  597.91   40.15
  -1  -8  -4  547.42   40.85
  -1  -8  -4  483.53   40.93
  -1  -8  -4  555.98   41.10
  -1  -8  -4  530.54   39.62
   1   8   4  455.84   40.47
   1   8   4  555.25   39.81
  -2  -8  -4  327.89   24.71
  -2  -8  -4  303.49   24.46
  -2  -8  -4  289.09   24.74
  -2  -8  -4  324.75   23.40
  -2  -8  -4  338.06   23.89
   2   8   4  331.71   24.35
   2   8   4  282.17   24.23
   2   8   4  310.83   23.48
  -3  -8  -4  272.35   20.35
  -3  -8  -4  243.12   20.07
  -3  -8  -4  231.63   19.69
  -3  -8  -4  281.83   20.47
   3   8   4  239.00   19.98
   3   8   4  267.32   19.31
   3   8   4  269.24   20.16
  -4  -8  -4  359.03   26.61
  -4  -8  -4  323.76   26.41
  -4  -8  -4  368.92   26.69
   4   8   4  320.97   26.36
  -5  -8  -4  148.63   12.37
  -5  -8  -4  160.05   12.77
  -5  -8  -4  142.76   12.54
  -5  -8  -4  163.10   12.38
   5   8   4  147.32   12.52
   5   8   4  180.05   12.78
  -6  -8  -4   93.89    7.15
  -6  -8  -4   81.27    7.12
  -6  -8  -4   87.28    7.37
  -6  -8  -4   69.39    6.86
   6   8   4   69.06    6.86
   6   8   4   92.16    7.17
   6   8   4   74.87    6.82
  -7  -8  -4  112.15    9.54
  -7  -8  -4  132.13   10.34
  -7  -8  -4  122.66    9.48
  -7  -8  -4   98.61    9.32
   7   8   4   90.59    9.76
   7   8   4  127.03    9.66
   7   8   4  109.87    9.27
  -8  -8  -4   29.06    3.43
  -8  -8  -4   33.96    3.69
   8   8   4   36.02    3.33
   5  -9  -4   25.68    5.77
   5  -9  -4   19.38    3.34
   5  -9  -4   22.81    3.61
  -5   9   4   26.97    3.91
   4  -9  -4   55.75    6.47
   4  -9  -4   76.31    7.62
   4  -9  -4   68.38    6.95
  -4   9   4   70.42    7.01
  -4   9   4   63.64    5.50
   3  -9  -4   55.93    5.68
   3  -9  -4   58.82    6.16
   3  -9  -4   44.69    5.25
  -3   9   4   47.20    4.27
  -3   9   4   48.13    4.41
  -3   9   4   53.51    5.57
   2  -9  -4  130.58   10.79
   2  -9  -4  109.26   10.38
   2  -9  -4  137.10   11.27
  -2   9   4  109.34    9.40
  -2   9   4  128.27   10.66
  -2   9   4  113.24    9.65
   1  -9  -4  175.05   14.12
   1  -9  -4  171.85   13.75
   1  -9  -4  147.78   13.38
  -1   9   4  149.76   12.78
  -1   9   4  170.97   13.60
   0  -9  -4   54.62    5.62
   0  -9  -4   66.44    6.29
   0  -9  -4   61.77    5.91
   0   9   4   65.52    4.85
   0   9   4   56.27    5.23
  -1  -9  -4   88.74    8.13
  -1  -9  -4  100.82    8.67
   1   9   4   86.49    7.80
   1   9   4  101.98    7.29
  -2  -9  -4  117.83    8.43
  -2  -9  -4  121.36    9.91
  -2  -9  -4  103.75    9.35
  -2  -9  -4  114.29    9.59
   2   9   4  117.87    8.57
   2   9   4   98.33    9.14
  -3  -9  -4   13.12    1.93
  -3  -9  -4   15.81    2.31
  -3  -9  -4   14.26    1.19
  -3  -9  -4   14.58    1.73
  -3  -9  -4   12.63    2.01
   3   9   4   12.55    1.85
   3   9   4   15.83    2.01
   3   9   4   13.93    1.23
  -4  -9  -4   41.50    4.29
  -4  -9  -4   42.62    3.26
  -4  -9  -4   41.54    4.25
  -4  -9  -4   44.18    3.83
  -4  -9  -4   39.50    3.99
   4   9   4   36.63    3.96
   4   9   4   45.95    4.10
  -5  -9  -4   64.55    6.00
  -5  -9  -4   61.24    5.96
  -5  -9  -4   70.32    6.19
  -5  -9  -4   75.38    6.28
  -5  -9  -4   74.74    6.08
   5   9   4   61.41    6.05
   5   9   4   80.00    6.19
  -6  -9  -4   18.14    2.42
  -6  -9  -4   23.42    2.64
  -6  -9  -4   23.35    2.36
  -6  -9  -4   23.65    2.54
   6   9   4   21.08    2.58
   6   9   4   25.42    2.98
  -7  -9  -4   27.17    2.96
  -7  -9  -4   24.63    2.78
   7   9   4   27.16    2.95
   5 -10  -4   55.78    6.56
   5 -10  -4   71.11    7.15
  -5  10   4   57.13    5.35
   4 -10  -4  124.34   12.96
   4 -10  -4  158.51   13.22
  -4  10   4  145.50   11.51
  -4  10   4  165.66   13.76
  -4  10   4  132.72   11.47
   3 -10  -4  156.83   12.86
   3 -10  -4  125.49   12.27
   3 -10  -4  163.13   13.43
  -3  10   4  127.29   11.14
  -3  10   4  161.39   12.87
  -3  10   4  127.83   11.31
   2 -10  -4   56.16    6.06
   2 -10  -4   66.89    8.74
   2 -10  -4   65.91    6.44
  -2  10   4   60.04    5.32
  -2  10   4   60.78    5.05
   1 -10  -4  144.51   10.10
   1 -10  -4  109.62   10.66
   1 -10  -4  132.55   11.09
   1 -10  -4  134.20   11.51
  -1  10   4  133.12   10.98
  -1  10   4  108.42   10.05
  -1  10   4  118.00    9.73
   0 -10  -4  149.03   12.38
   0 -10  -4  156.16   12.83
   0 -10  -4  157.65   11.50
   0 -10  -4  127.51   12.02
   0  10   4  135.03   11.63
   0  10   4  137.62   11.12
   0  10   4  154.29   12.29
  -1 -10  -4   84.88    7.73
  -1 -10  -4   94.37    7.03
  -1 -10  -4   87.16    8.06
  -1 -10  -4   74.98    7.40
   1  10   4   73.39    7.11
   1  10   4   90.86    7.58
   1  10   4   86.73    6.58
  -2 -10  -4  210.09   16.68
  -2 -10  -4  218.96   17.89
  -2 -10  -4  203.28   17.68
  -2 -10  -4  233.23   18.35
  -2 -10  -4  249.53   17.40
   2  10   4  248.96   17.88
   2  10   4  225.38   16.86
   2  10   4  200.64   17.54
  -3 -10  -4  193.64   15.64
  -3 -10  -4  185.07   15.21
  -3 -10  -4  212.36   15.04
  -3 -10  -4  191.13   14.16
  -3 -10  -4  168.00   14.98
   3  10   4  164.19   14.99
   3  10   4  211.89   15.15
   3  10   4  186.94   14.24
  -4 -10  -4  115.86    8.91
  -4 -10  -4  100.26    9.14
  -4 -10  -4  112.19    8.49
  -4 -10  -4  109.29    9.31
  -4 -10  -4  115.15    9.07
   4  10   4   96.72    9.26
   4  10   4  129.08    9.28
  -5 -10  -4  133.44   10.85
  -5 -10  -4  142.39    9.93
  -5 -10  -4  147.86   10.86
  -5 -10  -4  133.43   10.68
  -5 -10  -4  114.99   10.48
   5  10   4  116.61   10.74
  -6 -10  -4   94.58    7.99
  -6 -10  -4   92.85    7.80
  -6 -10  -4  102.75    7.41
  -6 -10  -4   98.33    7.82
   6  10   4   94.07    8.32
   3 -11  -4   48.20    5.53
   3 -11  -4   43.94    5.23
  -3  11   4   44.40    3.97
  -3  11   4   43.87    4.16
   2 -11  -4   29.98    3.92
  -2  11   4   34.42    2.96
  -2  11   4   31.32    3.19
   1 -11  -4   28.78    3.87
   1 -11  -4   26.15    3.99
   1 -11  -4   32.87    3.07
   1 -11  -4   32.90    4.38
  -1  11   4   32.70    3.89
  -1  11   4   28.91    3.13
  -1  11   4   30.89    2.74
   0 -11  -4  102.25    9.94
   0 -11  -4  121.19   12.16
   0 -11  -4  128.86    9.43
   0  11   4  125.32   10.19
   0  11   4  114.16    8.99
   0  11   4  104.46    9.51
  -1 -11  -4   97.17    8.57
  -1 -11  -4   82.29    8.23
  -1 -11  -4   97.59    9.03
  -1 -11  -4  104.57    7.88
   1  11   4   80.93    7.95
   1  11   4  104.06    8.49
   1  11   4   97.02    7.38
  -2 -11  -4   55.04    5.63
  -2 -11  -4   58.03    4.67
  -2 -11  -4   51.40    5.27
  -2 -11  -4   45.53    4.84
  -2 -11  -4   46.78    3.82
   2  11   4   50.98    4.07
   2  11   4   44.58    4.75
   2  11   4   56.73    5.01
  -3 -11  -4   64.64    6.13
  -3 -11  -4   69.11    5.25
  -3 -11  -4   74.74    6.96
  -3 -11  -4   69.33    6.31
  -4 -11  -4   17.39    2.21
  -4 -11  -4   18.45    2.76
  -4 -11  -4   20.23    1.56
  -4 -11  -4   19.25    2.35
   4  11   4   17.22    2.45
   5  11   4   15.70    2.36
   1 -12  -4   77.72    8.78
   1 -12  -4   88.13    8.12
  -1  12   4   81.71    6.61
  -1  12   4   78.66    7.08
   0 -12  -4   55.56    5.98
   0 -12  -4   67.03    6.35
   0  12   4   65.64    5.03
   0  12   4   57.35    5.60
  -1 -12  -4   85.59    8.45
  -1 -12  -4  110.25    9.58
   1  12   4  103.15    7.58
   1  12   4   89.02    8.28
  -2 -12  -4   36.69    4.05
  -2 -12  -4   44.10    5.04
  -2 -12  -4   40.66    4.30
   2  12   4   40.43    3.30
   2  12   4   37.41    4.21
  -2  -8   5   40.26    4.42
  -2  -8   5   36.11    4.96
  -2  -8   5   39.33    3.25
  -2  -8   5   38.96    3.24
  -1  -8   5   83.64    6.49
  -1  -8   5   68.14    8.02
  -1  -8   5   76.82    5.97
   0   8  -5  100.85    7.68
   0  -8   5   93.22   10.73
   0  -8   5   98.03    7.63
   0  -8   5  106.91    8.23
  -1   8  -5   51.86    4.21
  -1   8  -5   44.43    3.62
   1  -8   5   36.69    6.19
   1  -8   5   41.84    4.45
   1  -8   5   47.23    4.31
  -2   8  -5   35.74    2.95
  -2   8  -5   34.56    3.13
  -2   8  -5   40.14    4.02
   2  -8   5   37.16    3.87
   2  -8   5   32.86    4.25
   2  -8   5   34.70    5.13
  -3   8  -5   60.39    4.48
  -3   8  -5   52.48    4.62
   3  -8   5   60.85    5.74
   3  -8   5   55.88    6.15
   3  -8   5   51.02    6.67
  -4   8  -5   21.17    2.10
  -4   8  -5   22.04    1.91
   4  -8   5   23.76    3.26
   4  -8   5   20.54    3.98
   4  -8   5   18.84    3.90
  -3  -7   5  127.88   12.76
  -3  -7   5  145.04   11.15
  -3  -7   5  153.76   11.56
  -3  -7   5  145.63   11.40
  -3  -7   5  148.62   10.98
  -2  -7   5  220.25   15.67
  -2  -7   5  213.41   15.99
  -2  -7   5  206.07   15.64
  -2  -7   5  210.04   16.09
  -2  -7   5  184.81   17.41
  -2  -7   5  199.60   15.52
   1   7  -5  107.74    8.70
  -1  -7   5  117.13    8.82
  -1  -7   5  112.93    8.86
  -1  -7   5  100.50   10.58
  -1  -7   5  120.76    9.31
  -1  -7   5  124.55    9.18
   0   7  -5  141.90   10.97
   0  -7   5  145.67   11.34
   0  -7   5  153.74   11.42
   0  -7   5  143.22   10.93
   0  -7   5  127.56   12.92
   0  -7   5  132.91   11.46
   0  -7   5  160.28   11.61
   0  -7   5  151.46   11.08
  -1   7  -5  145.99   11.51
  -1   7  -5  167.69   12.26
  -1   7  -5  141.01   11.64
   1  -7   5  139.91   12.47
   1  -7   5  162.00   11.63
   1  -7   5  157.74   12.25
   1  -7   5  133.56   13.55
   1  -7   5  164.41   12.14
  -2   7  -5  142.06   10.89
  -2   7  -5  138.47   11.03
   2  -7   5  128.32   13.03
   2  -7   5  133.75   12.23
   2  -7   5  159.47   11.55
   2  -7   5  146.33   11.87
   2  -7   5  155.33   11.02
  -3   7  -5  217.65   17.93
  -3   7  -5  240.09   17.81
  -3   7  -5  258.52   19.24
   3  -7   5  267.89   18.48
   3  -7   5  246.97   19.08
   3  -7   5  211.48   19.44
   3  -7   5  210.13   19.99
  -4   7  -5  238.73   17.76
  -4   7  -5  212.79   17.86
  -4   7  -5  256.01   19.47
   4  -7   5  228.36   22.13
   4  -7   5  200.84   20.28
   4  -7   5  261.27   18.41
   4  -7   5  246.79   19.30
  -5   7  -5   99.58    8.42
  -5   7  -5  113.28    8.33
   5  -7   5  126.03    9.01
   5  -7   5   94.77   10.43
   5  -7   5  117.19   10.13
   5  -7   5   97.31   10.39
  -5  -6   5   40.40    4.85
  -5  -6   5   43.62    3.99
  -5  -6   5   46.64    3.89
  -4  -6   5   58.34    4.50
  -4  -6   5   55.79    4.77
  -4  -6   5   59.28    4.59
  -4  -6   5   53.40    5.19
  -4  -6   5   51.26    5.86
  -4  -6   5   57.26    4.86
  -3  -6   5   12.20    1.64
  -3  -6   5   14.09    1.41
  -3  -6   5   12.00    1.31
  -3  -6   5   13.55    1.61
  -3  -6   5   12.99    1.37
  -3  -6   5   13.15    2.53
  -2  -6   5   84.80    8.76
  -2  -6   5   94.40    7.60
  -2  -6   5   96.69    7.24
  -2  -6   5   92.76    7.22
  -2  -6   5   94.37    7.49
  -2  -6   5   93.75    7.11
   1   6  -5  105.13    8.50
  -1  -6   5  108.53    8.53
  -1  -6   5  117.80    8.89
  -1  -6   5  110.58    8.47
  -1  -6   5  114.53    9.00
  -1  -6   5  118.97    8.61
  -1  -6   5  104.96   10.26
   0   6  -5  134.85   10.20
   0  -6   5  132.13   10.61
   0  -6   5  126.38   12.00
   0  -6   5  132.76   10.16
   0  -6   5  127.32   10.83
   0  -6   5  142.36   10.57
   0  -6   5  145.16   10.73
  -1   6  -5  177.14   14.34
  -1   6  -5  214.11   15.10
  -1   6  -5  185.33   14.25
   1  -6   5  174.30   16.13
   1  -6   5  185.64   15.30
   1  -6   5  194.18   15.48
  -2   6  -5  154.87   11.82
  -2   6  -5  169.64   12.89
  -2   6  -5  146.20   11.92
   2  -6   5  144.66   13.09
   2  -6   5  171.14   12.38
   2  -6   5  143.18   13.75
   2  -6   5  159.91   11.90
   2  -6   5  158.43   12.75
  -3   6  -5   84.82    7.35
  -3   6  -5   80.80    6.13
  -3   6  -5   73.80    6.22
   3  -6   5   80.20    7.24
   3  -6   5   71.52    7.94
   3  -6   5   73.79    7.64
   3  -6   5   90.40    6.71
  -4   6  -5  213.12   16.44
  -4   6  -5  196.38   14.71
  -4   6  -5  182.11   14.79
   4  -6   5  204.76   16.13
   4  -6   5  172.81   16.48
   4  -6   5  217.76   15.28
   4  -6   5  174.51   16.65
  -5   6  -5   96.99    8.74
  -5   6  -5   92.54    7.09
  -5   6  -5   82.74    7.15
   5  -6   5  105.47    7.67
   5  -6   5   79.95    8.91
   5  -6   5   85.73    9.06
   5  -6   5   98.18    8.68
  -6   6  -5   24.36    2.12
  -6   6  -5   27.85    4.53
  -6   6  -5   21.32    2.16
   6  -6   5   27.46    2.62
   6  -6   5   22.15    3.76
   6  -6   5   20.59    5.46
   6  -6   5   25.60    3.71
  -7   6  -5   41.09    3.62
  -7   6  -5   43.86    3.57
   7  -6   5   42.92    5.79
   7  -6   5   37.56    5.25
   7  -6   5   52.75    5.75
  -5  -5   5  113.11    8.85
  -5  -5   5  117.10    8.65
  -5  -5   5  100.15    9.83
  -5  -5   5  114.33    8.77
  -4  -5   5  299.30   21.77
  -4  -5   5  255.84   23.15
  -4  -5   5  300.99   22.02
  -4  -5   5  288.54   22.11
  -4  -5   5  297.34   22.05
  -4  -5   5  295.94   21.96
  -3  -5   5  318.03   23.56
  -3  -5   5  274.32   24.98
  -3  -5   5  336.25   23.68
  -3  -5   5  313.59   23.70
  -3  -5   5  324.40   23.85
  -3  -5   5  317.60   23.94
   2   5  -5  286.19   23.38
  -2  -5   5  329.22   23.49
  -2  -5   5  321.96   23.80
  -2  -5   5  322.10   23.68
  -2  -5   5  292.41   24.94
  -2  -5   5  318.74   23.37
   1   5  -5  487.25   37.62
  -1  -5   5  488.48   37.88
  -1  -5   5  520.50   37.60
  -1  -5   5  540.10   38.07
  -1  -5   5  459.25   38.23
  -1  -5   5  460.71   39.23
  -1  -5   5  559.70   37.95
  -1  -5   5  512.90   37.66
   0   5  -5  337.49   24.01
   0  -5   5  306.63   23.95
   0  -5   5  352.13   23.97
   0  -5   5  279.35   25.00
   0  -5   5  289.99   24.14
  -1   5  -5  260.35   18.55
  -1   5  -5  217.47   19.19
  -1   5  -5  246.87   18.63
   1  -5   5  256.53   19.26
   1  -5   5  256.76   19.65
   1  -5   5  243.86   20.32
  -2   5  -5  352.32   27.43
  -2   5  -5  381.37   27.36
   2  -5   5  352.65   29.19
   2  -5   5  384.95   28.29
   2  -5   5  354.67   28.66
  -3   5  -5  227.52   17.51
  -3   5  -5  244.81   17.44
   3  -5   5  240.42   18.55
   3  -5   5  228.52   19.02
   3  -5   5  216.64   19.19
  -4   5  -5  154.59   12.43
  -4   5  -5  163.73   12.40
  -4   5  -5  180.49   13.83
   4  -5   5  155.60   14.14
   4  -5   5  149.65   14.09
   4  -5   5  175.62   13.75
  -5   5  -5  280.36   21.99
  -5   5  -5  312.36   23.66
  -5   5  -5  270.63   22.03
   5  -5   5  266.10   23.92
   5  -5   5  264.85   23.77
   5  -5   5  336.30   22.59
   5  -5   5  317.13   23.65
  -6   5  -5  110.26    9.23
  -6   5  -5  137.41   13.17
   6  -5   5  121.50   10.89
   6  -5   5  108.58   10.92
   6  -5   5  138.22    9.68
   6  -5   5  108.18   11.22
  -7   5  -5   96.87    8.65
  -7   5  -5   80.24    6.62
   7  -5   5   93.84    8.63
   7  -5   5   78.58    8.78
   7  -5   5   74.23    8.22
   6   4  -5   73.05    6.66
  -6  -4   5   82.97    6.36
   5   4  -5   87.87    7.74
  -5  -4   5   84.13    8.64
  -5  -4   5   98.67    7.42
  -5  -4   5  101.52    7.60
  -5  -4   5  102.13    7.34
   4   4  -5   63.71    6.01
  -4  -4   5   78.26    5.82
  -4  -4   5   76.41    5.89
  -4  -4   5   76.34    6.01
  -4  -4   5   74.85    5.91
  -4  -4   5   77.74    5.72
  -4  -4   5   67.88    6.96
  -3  -4   5  150.22   10.80
  -3  -4   5  129.53   12.00
  -3  -4   5  142.87   11.01
  -3  -4   5  141.71   10.89
  -3  -4   5  141.07   10.68
  -3  -4   5  141.02   10.82
   2   4  -5   13.81    1.44
   2   4  -5   13.45    1.24
  -2  -4   5   13.84    1.43
  -2  -4   5   12.34    1.45
  -2  -4   5   14.56    1.22
  -2  -4   5   13.69    2.37
  -2  -4   5   14.72    1.59
  -2  -4   5   13.74    1.46
  -2  -4   5   13.91    1.32
   1   4  -5   89.11    6.87
   1   4  -5   87.48    6.57
   1   4  -5   83.42    6.68
  -1  -4   5   88.61    6.54
  -1  -4   5   84.06    6.92
  -1  -4   5   93.68    6.80
  -1  -4   5   78.84    7.03
  -1  -4   5   81.40    7.91
   0   4  -5  181.61   13.53
   0   4  -5  173.44   12.84
   0   4  -5  159.62   13.27
   0  -4   5  181.25   12.91
   0  -4   5  159.90   13.55
   0  -4   5  164.80   14.30
   0  -4   5  171.98   13.36
  -1   4  -5   59.76    5.99
  -1   4  -5   74.95    5.50
  -1   4  -5   74.90    6.25
  -1   4  -5   69.95    5.55
   1  -4   5   73.95    6.50
   1  -4   5   76.78    5.55
   1  -4   5   70.63    6.93
   1  -4   5   72.42    6.16
  -2   4  -5   86.61    6.60
  -2   4  -5   90.82    7.59
  -2   4  -5   79.14    6.63
   2  -4   5   82.37    8.05
   2  -4   5   86.76    7.78
   2  -4   5   86.97    7.41
   2  -4   5   90.86    6.65
  -3   4  -5  242.03   18.50
  -3   4  -5  234.97   18.55
   3  -4   5  256.93   18.55
   3  -4   5  250.38   19.55
   3  -4   5  239.50   20.29
   3  -4   5  254.89   21.55
  -4   4  -5   55.18    4.31
  -4   4  -5   59.92    5.58
  -4   4  -5   55.93    4.49
   4  -4   5   51.73    5.79
   4  -4   5   51.04    5.72
   4  -4   5   56.54    5.45
  -5   4  -5   94.87    7.49
  -5   4  -5  107.11    8.99
   5  -4   5  104.09    8.88
   5  -4   5   90.66    9.20
   5  -4   5   89.36    8.95
  -6   4  -5  108.01    8.55
  -6   4  -5   93.37    9.63
  -6   4  -5  130.32   10.34
   6  -4   5  101.44   10.03
   6  -4   5  125.04   10.30
   6  -4   5  111.56   10.61
  -7   4  -5   18.73    2.94
  -7   4  -5   23.76    3.44
  -7   4  -5   20.85    1.84
   7  -4   5   19.24    3.51
   7  -4   5   22.66    3.94
   7  -4   5   18.37    3.08
  -8   4  -5   25.08    3.66
  -8   4  -5   19.70    1.89
  -8   4  -5   19.03    3.18
   8  -4   5   20.37    3.28
   8  -4   5   23.19    3.69
   8  -4   5   20.48    3.83
   7   3  -5   55.70    5.46
  -7  -3   5   54.61    4.23
  -7  -3   5   50.09    4.70
  -7  -3   5   49.50    5.23
   6   3  -5   88.02    7.11
   6   3  -5   75.19    6.82
  -6  -3   5   79.00    6.95
  -6  -3   5   92.30    6.46
  -6  -3   5   88.56    6.55
  -6  -3   5   73.90    6.80
  -6  -3   5   85.60    6.50
  -6  -3   5   76.45    7.63
   5   3  -5   98.84    8.77
   5   3  -5  123.82    9.04
  -5  -3   5  114.78    8.62
  -5  -3   5   98.60    9.57
  -5  -3   5  108.00    8.92
  -5  -3   5  117.14    8.52
  -5  -3   5   99.01    8.77
  -5  -3   5  119.27    8.44
   4   3  -5  115.66    9.43
   4   3  -5   99.41    8.21
   4   3  -5   99.90    8.11
  -4  -3   5  111.40    7.87
  -4  -3   5  103.64    8.00
  -4  -3   5   92.70    8.94
  -4  -3   5   99.75    8.19
  -4  -3   5   92.81    8.08
   3   3  -5  277.65   22.63
   3   3  -5  326.06   24.02
   3   3  -5  315.20   22.86
  -3  -3   5  276.19   23.65
  -3  -3   5  318.16   22.49
  -3  -3   5  271.39   22.76
  -3  -3   5  306.70   22.54
   2   3  -5  375.59   28.19
   2   3  -5  413.45   29.49
   2   3  -5  405.16   28.41
   2   3  -5  365.12   27.88
   2   3  -5  367.84   28.07
  -2  -3   5  360.54   28.32
  -2  -3   5  325.54   27.94
  -2  -3   5  353.45   28.34
  -2  -3   5  349.99   29.16
  -2  -3   5  393.36   27.88
  -2  -3   5  389.86   28.02
   1   3  -5  194.66   14.95
   1   3  -5  200.38   15.37
   1   3  -5  213.76   15.54
   1   3  -5  193.99   15.07
   1   3  -5  218.81   16.45
  -1  -3   5  213.96   15.10
  -1  -3   5  194.34   15.40
  -1  -3   5  195.62   14.93
  -1  -3   5  183.16   16.18
  -1  -3   5  180.63   15.51
   0   3  -5  709.84   50.39
   0   3  -5  631.52   50.77
   0   3  -5  687.70   50.33
   0   3  -5  708.53   51.02
   0  -3   5  686.78   50.30
   0  -3   5  628.93   51.64
   0  -3   5  615.09   51.05
   0  -3   5  730.48   50.39
  -1   3  -5  728.58   50.13
  -1   3  -5  602.62   49.80
  -1   3  -5  686.63   49.23
   1  -3   5  687.29   49.27
   1  -3   5  644.85   50.20
   1  -3   5  610.33   50.49
  -2   3  -5  211.00   15.86
  -2   3  -5  207.90   15.90
  -2   3  -5  219.25   16.81
   2  -3   5  208.34   17.01
   2  -3   5  194.43   17.14
   2  -3   5  222.00   15.90
   2  -3   5  215.03   16.68
  -3   3  -5  310.82   23.72
  -3   3  -5  319.75   23.70
  -3   3  -5  284.92   24.47
  -3   3  -5  336.34   25.40
   3  -3   5  306.57   25.05
   3  -3   5  334.59   24.73
   3  -3   5  334.68   23.73
   3  -3   5  304.27   25.11
  -4   3  -5  402.54   29.94
  -4   3  -5  365.84   30.94
  -4   3  -5  439.51   31.28
   4  -3   5  389.97   31.52
   4  -3   5  376.70   31.34
   4  -3   5  424.95   31.17
  -5   3  -5  120.87   10.96
  -5   3  -5  128.08    9.94
  -5   3  -5  144.99   11.41
   5  -3   5  124.99   12.33
   5  -3   5  137.65   11.30
   5  -3   5  127.82   11.37
  -6   3  -5  177.14   13.73
  -6   3  -5  207.10   15.35
  -6   3  -5  165.32   14.79
   6  -3   5  195.98   15.27
   6  -3   5  169.39   15.05
   6  -3   5  165.83   15.51
  -7   3  -5  114.55    9.57
  -7   3  -5  102.37    7.69
  -7   3  -5   91.45    8.97
   7  -3   5   95.54    9.79
   7  -3   5   96.81    9.17
  -8   3  -5   61.30    6.30
  -8   3  -5   50.68    4.35
  -8   3  -5   53.30    5.84
   8  -3   5   60.70    6.40
   8  -3   5   52.75    6.54
   8  -3   5   52.73    5.80
   7   2  -5    6.69    1.24
   7   2  -5    9.97    1.53
  -7  -2   5    9.48    1.67
  -7  -2   5    9.49    0.97
  -7  -2   5   10.09    1.94
   6   2  -5   19.41    2.33
   6   2  -5   22.11    2.20
  -6  -2   5   21.51    3.01
  -6  -2   5   20.69    2.53
  -6  -2   5   25.17    2.87
  -6  -2   5   25.07    2.00
  -6  -2   5   23.64    2.02
   5   2  -5   94.36    7.92
   5   2  -5  104.16    8.55
  -5  -2   5   88.41    8.69
  -5  -2   5   90.10    8.11
  -5  -2   5  105.77    7.71
  -5  -2   5  108.85    7.58
   4   2  -5  157.69   12.59
   4   2  -5  141.21   11.35
  -4  -2   5  155.23   11.25
  -4  -2   5  148.21   11.71
  -4  -2   5  136.46   11.56
  -4  -2   5  136.53   12.25
   3   2  -5   54.35    5.06
   3   2  -5   48.52    3.88
   3   2  -5   48.28    4.31
   3   2  -5   39.13    3.96
  -3  -2   5   42.73    4.07
  -3  -2   5   44.28    4.74
  -3  -2   5   47.80    4.17
   2   2  -5  370.64   28.45
   2   2  -5  368.27   28.26
   2   2  -5  383.64   28.73
   2   2  -5  412.04   29.73
   2   2  -5  392.86   28.95
  -2  -2   5  358.48   28.75
  -2  -2   5  387.97   28.34
  -2  -2   5  345.51   29.41
  -2  -2   5  348.90   28.79
  -2  -2   5  391.84   28.34
  -2  -2   5  399.74   28.26
   1   2  -5  113.50    8.88
   1   2  -5  101.02    8.19
   1   2  -5  105.65    8.65
   1   2  -5  119.20    9.56
   1   2  -5  106.65    8.32
  -1  -2   5  100.54    8.67
  -1  -2   5  105.37    9.38
  -1  -2   5  114.04    8.27
  -1  -2   5  101.09    8.84
  -1  -2   5  112.62    8.25
  -1  -2   5  112.64    8.19
   0   2  -5   29.11    2.93
   0   2  -5   33.75    3.19
   0   2  -5   32.36    2.55
   0  -2   5   31.66    3.01
   0  -2   5   30.01    3.19
   0  -2   5   31.59    2.47
   0  -2   5   32.54    2.53
  -1   2  -5  246.71   18.25
  -1   2  -5  262.60   19.13
  -1   2  -5  245.56   18.27
  -1   2  -5  273.71   19.55
   1  -2   5  253.67   18.29
   1  -2   5  216.96   19.36
   1  -2   5  223.65   19.12
   1  -2   5  227.83   18.87
  -2   2  -5  199.52   15.00
  -2   2  -5  217.15   15.98
  -2   2  -5  193.64   14.98
   2  -2   5  191.15   16.06
   2  -2   5  183.01   16.09
   2  -2   5  200.96   15.76
   2  -2   5  211.42   15.01
  -3   2  -5   39.08    3.09
  -3   2  -5   34.68    3.76
  -3   2  -5   42.07    4.07
   3  -2   5   39.27    3.90
   3  -2   5   38.35    4.21
   3  -2   5   41.59    3.10
   3  -2   5   40.11    4.22
  -4   2  -5  196.98   14.45
  -4   2  -5  158.44   13.97
  -4   2  -5  173.17   13.13
   4  -2   5  185.52   14.27
   4  -2   5  169.92   14.39
   4  -2   5  162.16   14.52
  -5   2  -5   88.83    8.48
  -5   2  -5  106.25    8.91
  -5   2  -5   98.92    7.56
   5  -2   5   96.70    9.18
   5  -2   5  108.15    8.90
   5  -2   5   96.42    8.83
  -6   2  -5  144.92   11.69
  -6   2  -5  125.33   10.09
  -6   2  -5  123.42   11.21
   6  -2   5  130.92   11.46
   6  -2   5  126.56   11.92
   6  -2   5  149.31   11.73
  -7   2  -5  204.57   18.12
  -7   2  -5  209.79   16.84
  -7   2  -5  250.92   18.71
   7  -2   5  240.81   18.69
   7  -2   5  215.02   18.24
  -8   2  -5   69.36    5.82
  -8   2  -5   70.09    7.22
  -8   2  -5   80.65    7.71
   8  -2   5   73.63    8.07
   8  -2   5   84.31    7.90
  -9   2  -5   22.07    1.97
  -9   2  -5   20.15    3.36
  -9   2  -5   25.21    3.77
   9  -2   5   22.44    4.09
   9  -2   5   26.32    4.89
   7   1  -5  191.99   15.06
   7   1  -5  171.54   15.07
  -7  -1   5  204.10   16.11
  -7  -1   5  227.76   14.97
  -7  -1   5  177.56   15.58
   6   1  -5  107.37    9.26
   6   1  -5  113.51    9.13
   6   1  -5  127.21   10.40
  -6  -1   5  123.88    8.90
  -6  -1   5  105.86    9.67
  -6  -1   5  119.74    8.89
  -6  -1   5  123.22   10.10
  -6  -1   5  107.80   10.09
   5   1  -5  148.80   11.68
   5   1  -5  168.04   13.25
   5   1  -5  138.85   11.83
   5   1  -5  159.47   12.72
  -5  -1   5  155.21   11.60
  -5  -1   5  137.31   12.21
  -5  -1   5  165.67   11.53
  -5  -1   5  156.52   12.50
  -5  -1   5  139.07   12.78
   4   1  -5  442.38   30.27
   4   1  -5  376.08   28.55
   4   1  -5  373.65   29.44
   4   1  -5  382.85   28.86
  -4  -1   5  397.51   29.37
  -4  -1   5  394.07   28.47
  -4  -1   5  335.71   29.64
  -4  -1   5  344.18   29.11
   3   1  -5  242.43   18.05
   3   1  -5  234.73   18.36
  -3  -1   5  227.25   19.00
  -3  -1   5  251.91   18.56
  -3  -1   5  229.54   18.44
   2   1  -5  242.20   18.40
   2   1  -5  222.02   17.60
   2   1  -5  263.57   19.08
   2   1  -5  238.85   17.80
   2   1  -5  233.48   18.15
  -2  -1   5  223.53   18.77
  -2  -1   5  240.19   17.60
  -2  -1   5  215.72   18.23
  -2  -1   5  236.19   18.23
   1   1  -5  778.23   55.56
  -1  -1   5  771.17   55.42
  -1  -1   5  681.60   56.13
   0   1  -5  487.40   34.93
   0   1  -5  472.65   35.68
   0   1  -5  500.62   36.13
   0   1  -5  518.96   35.01
   0  -1   5  416.45   35.95
   0  -1   5  446.53   35.48
   0  -1   5  433.70   35.70
   1  -1   5  614.08   46.72
  -3   1  -5  456.84   33.95
  -3   1  -5  422.21   34.73
  -3   1  -5  505.66   35.10
   3  -1   5  472.54   33.97
   3  -1   5  464.05   34.86
   3  -1   5  436.91   35.06
   3  -1   5  426.39   35.14
  -4   1  -5  520.88   45.17
  -4   1  -5  648.91   44.31
  -4   1  -5  651.55   45.68
   4  -1   5  614.20   45.48
   4  -1   5  579.39   45.84
   4  -1   5  555.92   45.49
  -5   1  -5  722.01   55.60
  -5   1  -5  654.29   56.52
  -5   1  -5  821.16   55.55
  -5   1  -5  829.80   57.09
   5  -1   5  806.58   56.97
   5  -1   5  694.13   57.21
   5  -1   5  692.85   56.74
  -6   1  -5  218.26   16.25
  -6   1  -5  172.06   15.63
  -6   1  -5  192.82   14.61
   6  -1   5  192.90   15.85
   6  -1   5  173.26   16.32
   6  -1   5  217.78   16.22
  -7   1  -5  120.73   10.27
  -7   1  -5   97.32    9.34
  -7   1  -5  104.78    8.15
   7  -1   5  104.55    9.38
   7  -1   5  101.66   10.15
   7  -1   5  116.29    9.90
  -8   1  -5  143.00   11.72
  -8   1  -5  123.14    9.69
  -8   1  -5  116.02   11.05
   8  -1   5  121.32   10.92
   8  -1   5  119.38   11.93
   8  -1   5  145.31   11.83
  -9   1  -5   33.59    4.36
  -9   1  -5   34.02    2.88
  -9   1  -5   38.77    4.88
   9  -1   5   33.29    3.70
   9  -1   5   42.12    5.04
   9  -1   5   32.95    5.07
   6   0  -5   38.84    3.74
   6   0  -5   42.11    3.72
   6   0  -5   44.53    4.76
  -6   0   5   43.70    3.35
  -6   0   5   39.89    4.34
  -6   0   5   46.71    3.44
   5   0  -5   19.30    1.81
   5   0  -5   19.14    2.86
   5   0  -5   14.53    1.59
  -5   0   5   14.73    2.15
  -5   0   5   15.57    3.21
  -5   0   5   14.60    2.44
   4   0  -5   86.75    7.15
   4   0  -5   89.87    6.98
  -4   0   5   82.95    8.10
  -4   0   5   96.27    6.89
  -4   0   5   95.49    8.32
   3   0  -5  429.44   33.26
   3   0  -5  494.06   34.67
   3   0  -5  434.56   33.05
   3   0  -5  454.96   34.04
  -3   0   5  395.89   33.76
  -3   0   5  396.50   34.19
  -3   0   5  465.70   33.94
  -3   0   5  470.39   33.05
   2   0  -5  120.68    9.91
   2   0  -5  135.40   10.80
   2   0  -5  136.04   10.11
   2   0  -5  142.29   11.30
  -2   0   5  121.98   11.03
  -2   0   5  122.70   10.65
  -2   0   5  136.43    9.92
  -2   0   5  139.21   10.67
   1   0  -5  353.76   25.09
   1   0  -5  327.08   24.94
   1   0  -5  347.33   25.78
  -1   0   5  308.75   25.71
  -1   0   5  352.56   24.94
  -1   0   5  329.21   25.58
  -1   0   5  318.88   26.06
   0   0  -5  219.61   18.42
   0   0  -5  252.23   17.99
   0   0  -5  243.44   17.90
   0   0  -5  259.40   19.04
   0   0  -5  249.02   18.72
   0   0   5  224.00   18.46
   0   0   5  221.39   18.70
   0   0   5  245.48   17.92
  -1   0  -5  120.81   10.62
  -1   0  -5  139.69   10.09
  -1   0  -5  153.25   11.18
  -1   0  -5  138.34   10.91
   1   0   5  129.21   11.08
   1   0   5  124.75   10.68
   1   0   5  134.91   11.03
   1   0   5  133.62   10.09
  -2   0  -5  352.31   29.24
  -2   0  -5  411.02   29.54
  -2   0  -5  399.87   29.54
   2   0   5  363.71   29.59
   2   0   5  389.17   28.60
   2   0   5  380.60   29.68
   2   0   5  386.12   29.36
  -3   0  -5  277.82   21.40
  -3   0  -5  304.90   21.32
  -3   0  -5  238.62   21.06
  -3   0  -5  272.70   20.38
   3   0   5  280.26   20.39
   3   0   5  262.29   21.39
   3   0   5  281.62   21.27
   3   0   5  263.89   21.58
  -4   0  -5    6.97    0.60
  -4   0  -5    5.51    1.21
  -4   0  -5    6.28    1.41
  -4   0  -5    5.66    0.75
   4   0   5    5.41    1.48
   4   0   5    6.78    1.38
   4   0   5    6.18    1.34
  -5   0  -5   48.32    3.77
  -5   0  -5   42.04    4.59
  -5   0  -5   53.51    5.03
  -5   0  -5   53.03    3.81
   5   0   5   46.08    5.17
   5   0   5   52.12    4.93
   5   0   5   48.35    4.79
  -6   0  -5  109.84    7.95
  -6   0  -5  113.74    9.42
  -6   0  -5   94.59    8.92
  -6   0  -5   99.80    7.89
   6   0   5  100.10    8.98
   6   0   5  100.82    9.65
   6   0   5  112.72    9.34
  -7   0  -5   26.32    3.44
  -7   0  -5   30.34    2.41
  -7   0  -5   34.06    3.97
   7   0   5   29.60    4.18
   7   0   5   33.92    3.98
   7   0   5   29.21    3.42
  -8   0  -5   53.33    5.61
  -8   0  -5   57.09    6.00
  -8   0  -5   54.60    4.28
   8   0   5   52.38    6.35
   8   0   5   61.34    6.14
   8   0   5   52.51    5.06
  -9   0  -5   79.63    6.39
  -9   0  -5   87.47    8.37
  -9   0  -5   74.19    7.84
   9   0   5   96.62    8.73
   9   0   5   81.36    7.43
   8  -1  -5   58.48    5.24
   7  -1  -5   71.54    6.98
   7  -1  -5   63.21    5.66
   7  -1  -5   62.99    5.71
  -7   1   5   70.34    6.91
  -7   1   5   81.07    5.59
  -7   1   5   60.39    6.48
   6  -1  -5  316.39   24.27
   6  -1  -5  292.76   24.24
   6  -1  -5  341.10   25.57
  -6   1   5  290.27   24.99
  -6   1   5  348.48   23.95
  -6   1   5  324.87   25.40
   5  -1  -5  360.26   26.15
   5  -1  -5  331.20   26.18
  -5   1   5  371.35   25.90
  -5   1   5  333.54   26.95
  -5   1   5  369.94   27.21
  -5   1   5  308.50   27.15
   4  -1  -5  210.98   17.34
   4  -1  -5  218.14   16.75
   4  -1  -5  224.38   16.64
   4  -1  -5  250.93   18.41
   4  -1  -5  204.52   17.58
  -4   1   5  238.68   16.50
  -4   1   5  204.99   17.39
  -4   1   5  198.87   17.77
  -4   1   5  228.54   17.58
   3  -1  -5  506.14   34.71
   3  -1  -5  448.66   32.98
   3  -1  -5  419.94   33.70
   3  -1  -5  456.49   34.04
  -3   1   5  455.82   33.91
  -3   1   5  389.30   34.18
  -3   1   5  400.46   33.78
  -3   1   5  455.79   32.95
   2  -1  -5  548.35   43.24
   2  -1  -5  581.66   42.74
   2  -1  -5  609.93   43.57
   2  -1  -5  660.16   44.16
  -2   1   5  503.55   43.71
  -2   1   5  523.18   43.37
   1  -1  -5  318.63   22.98
   1  -1  -5  286.03   21.63
   1  -1  -5  275.76   22.26
   1  -1  -5  298.83   22.55
  -1   1   5  292.15   22.35
  -1   1   5  272.79   22.48
  -1   1   5  284.22   22.84
   0   1   5  515.23   41.29
   0   1   5  563.67   41.20
  -1  -1  -5  364.30   26.73
  -1  -1  -5  381.18   26.89
  -1  -1  -5  299.99   26.36
   1   1   5  342.19   26.81
   1   1   5  361.79   25.87
   1   1   5  319.45   26.82
   1   1   5  354.54   25.83
  -2  -1  -5  345.64   25.73
  -2  -1  -5  364.11   25.70
  -2  -1  -5  302.08   25.42
   2   1   5  324.80   25.83
   2   1   5  345.30   24.78
   2   1   5  328.42   24.94
   2   1   5  321.98   25.77
   2   1   5  325.09   25.49
   3   1   5  661.86   50.42
   3   1   5  658.54   50.19
  -4  -1  -5  509.07   41.73
  -4  -1  -5  593.05   41.69
  -4  -1  -5  599.17   42.16
   4   1   5  529.98   42.26
   4   1   5  546.48   41.90
   4   1   5  540.49   41.26
   4   1   5  523.77   41.87
  -5  -1  -5  374.32   27.25
  -5  -1  -5  378.64   26.00
  -5  -1  -5  337.05   25.87
  -5  -1  -5  305.41   26.74
   5   1   5  378.56   27.15
   5   1   5  321.47   27.38
   5   1   5  347.37   26.91
   5   1   5  331.59   26.35
  -6  -1  -5  555.41   38.77
  -6  -1  -5  456.22   39.61
  -6  -1  -5  503.14   38.63
  -6  -1  -5  564.73   40.21
   6   1   5  493.31   39.23
   6   1   5  518.01   39.68
   6   1   5  559.87   40.13
   6   1   5  495.93   40.44
  -7  -1  -5  372.45   28.74
  -7  -1  -5  404.57   28.89
  -7  -1  -5  347.34   29.99
  -7  -1  -5  402.31   30.39
   7   1   5  359.70   29.46
   7   1   5  440.22   30.60
   7   1   5  368.13   30.81
   7   1   5  385.59   29.75
  -8  -1  -5  105.59    9.32
  -8  -1  -5   94.43    8.86
  -8  -1  -5   97.20    7.51
   8   1   5   92.28    9.68
   8   1   5   93.13    8.36
   8   1   5  111.93    9.47
  -9  -1  -5   96.85    8.87
  -9  -1  -5   84.00    6.80
  -9  -1  -5   80.81    8.25
   9   1   5  100.04    9.05
   9   1   5   86.88    9.24
   8  -2  -5   69.76    6.58
   8  -2  -5   73.46    6.56
  -8   2   5   77.77    6.14
  -8   2   5   81.11    8.02
   7  -2  -5   39.41    3.74
   7  -2  -5   43.37    4.94
   7  -2  -5   36.01    3.56
  -7   2   5   36.37    4.46
  -7   2   5   42.05    4.88
  -7   2   5   42.51    3.24
   6  -2  -5   27.74    2.62
   6  -2  -5   31.30    4.24
   6  -2  -5   23.98    2.47
   6  -2  -5   28.66    3.63
  -6   2   5   26.19    3.52
  -6   2   5   22.04    3.20
   5  -2  -5   53.99    4.36
   5  -2  -5   46.25    4.27
   5  -2  -5   52.43    5.34
   5  -2  -5   60.87    6.24
  -5   2   5   45.63    5.04
  -5   2   5   54.29    4.04
   4  -2  -5   51.30    4.18
   4  -2  -5   52.98    4.16
   4  -2  -5   54.61    5.16
   4  -2  -5   47.08    4.80
   4  -2  -5   60.67    5.89
  -4   2   5   46.72    5.18
  -4   2   5   51.46    3.94
  -4   2   5   46.90    4.88
  -4   2   5   49.94    4.98
   3  -2  -5   57.15    4.14
   3  -2  -5   50.77    4.21
   3  -2  -5   52.20    5.06
   3  -2  -5   50.41    4.83
   3  -2  -5   59.13    5.67
  -3   2   5   55.14    5.00
  -3   2   5   48.38    4.89
  -3   2   5   45.42    5.19
  -3   2   5   53.46    4.02
   2  -2  -5  200.92   15.87
   2  -2  -5  224.71   15.89
   2  -2  -5  236.37   17.47
   2  -2  -5  216.84   16.91
   2  -2  -5  201.62   16.63
  -2   2   5  223.02   15.88
  -2   2   5  192.48   16.75
  -2   2   5  213.17   16.75
  -2   2   5  201.32   17.25
   1  -2  -5   65.53    5.36
   1  -2  -5   72.84    6.29
   1  -2  -5   79.88    6.70
   1  -2  -5   66.94    6.03
  -1   2   5   76.76    6.19
  -1   2   5   68.00    6.56
  -1   2   5   73.93    5.37
  -1   2   5   65.61    6.23
   0  -2  -5  217.80   16.37
   0  -2  -5  219.46   16.20
   0  -2  -5  180.69   15.82
   0  -2  -5  204.93   15.22
   0   2   5  195.84   16.17
  -1  -2  -5  499.50   35.82
   1   2   5  438.94   35.91
   1   2   5  462.32   35.80
  -2  -2  -5  353.36   29.29
  -2  -2  -5  398.34   29.60
  -2  -2  -5  423.82   29.55
   2   2   5  362.05   29.65
   2   2   5  379.72   29.73
   2   2   5  387.10   29.40
  -3  -2  -5  249.02   21.53
  -3  -2  -5  293.69   21.89
  -3  -2  -5  296.32   21.58
   3   2   5  279.14   21.11
   3   2   5  271.98   21.64
   3   2   5  268.89   22.00
   3   2   5  292.62   20.81
   3   2   5  281.44   21.88
  -4  -2  -5  418.75   30.76
  -4  -2  -5  442.64   31.33
   4   2   5  380.36   31.42
   4   2   5  397.88   31.05
   4   2   5  394.13   31.10
   4   2   5  389.36   30.49
  -5  -2  -5   95.76    7.49
  -5  -2  -5  105.92    7.70
  -5  -2  -5   92.80    8.43
  -5  -2  -5  102.33    8.75
   5   2   5   97.05    9.00
   5   2   5   96.65    8.03
   5   2   5  106.65    8.69
   5   2   5  103.87    8.51
  -6  -2  -5    5.48    0.73
  -6  -2  -5    5.10    1.51
  -6  -2  -5    5.48    0.50
  -6  -2  -5    5.08    1.33
   6   2   5    3.92    1.06
   6   2   5    7.13    1.35
   6   2   5    5.14    1.68
   6   2   5    6.26    2.15
  -7  -2  -5   31.78    3.75
  -7  -2  -5   33.10    2.68
  -7  -2  -5   36.53    2.91
  -7  -2  -5   38.16    4.22
   7   2   5   33.91    3.49
   7   2   5   39.16    4.24
   7   2   5   32.31    4.40
  -8  -2  -5   14.98    2.48
  -8  -2  -5   17.41    2.86
  -8  -2  -5   16.18    1.36
  -8  -2  -5   17.81    1.63
   8   2   5   16.12    1.93
   8   2   5   16.30    2.29
   8   2   5   19.49    2.98
  -9  -2  -5    7.98    1.97
  -9  -2  -5    6.90    0.72
  -9  -2  -5    8.54    2.27
   9   2   5    9.59    2.44
   7  -3  -5   83.54    8.07
   7  -3  -5   75.91    6.53
  -7   3   5   86.99    8.21
  -7   3   5   86.71    6.21
  -7   3   5   68.62    7.51
   6  -3  -5   97.14    8.11
   6  -3  -5  113.05    9.62
   6  -3  -5  100.51    8.28
  -6   3   5  101.80    7.81
  -6   3   5   93.08    9.09
  -6   3   5  109.98    9.57
   5  -3  -5  253.98   19.27
   5  -3  -5  218.81   17.90
   5  -3  -5  216.03   18.77
  -5   3   5  240.72   17.74
  -5   3   5  250.51   19.21
  -5   3   5  250.12   17.65
  -5   3   5  217.03   18.89
   4  -3  -5  380.30   26.96
   4  -3  -5  313.54   24.87
   4  -3  -5  339.66   26.06
   4  -3  -5  303.79   25.64
  -4   3   5  316.98   24.83
  -4   3   5  337.45   24.64
  -4   3   5  350.78   26.00
  -4   3   5  297.92   25.73
   3  -3  -5  324.90   23.18
   3  -3  -5  266.58   22.07
   3  -3  -5  266.08   21.35
   3  -3  -5  298.98   22.42
  -3   3   5  253.48   22.52
  -3   3   5  252.01   22.14
  -3   3   5  297.44   22.32
  -3   3   5  307.51   21.16
   2  -3  -5  556.52   43.15
   2  -3  -5  603.63   43.41
   2  -3  -5  640.21   44.01
  -2   3   5  520.15   43.65
  -2   3   5  515.55   43.21
   0  -3  -5  428.85   33.38
   0  -3  -5  482.46   33.73
   0  -3  -5  504.15   33.98
   0   3   5  408.33   33.63
   0   3   5  367.41   33.85
  -1  -3  -5  437.06   30.29
  -1  -3  -5  379.98   30.75
  -1  -3  -5  434.18   31.13
  -1  -3  -5  425.53   31.08
   1   3   5  386.46   31.11
   1   3   5  357.66   31.23
   2   3   5  569.72   43.66
  -3  -3  -5  183.06   15.53
  -3  -3  -5  215.38   15.56
  -3  -3  -5  205.65   15.85
   3   3   5  199.73   15.63
   3   3   5  200.86   15.11
   3   3   5  190.27   15.98
   3   3   5  191.85   15.89
  -4  -3  -5   65.84    5.84
  -4  -3  -5   56.45    5.51
  -4  -3  -5   66.35    5.35
   4   3   5   59.00    5.96
   4   3   5   62.47    5.18
   4   3   5   61.73    5.73
   4   3   5   68.26    5.75
  -5  -3  -5  195.08   15.54
  -5  -3  -5  194.49   14.76
  -5  -3  -5  205.52   14.50
   5   3   5  182.09   15.82
   5   3   5  179.06   14.78
   5   3   5  178.03   15.72
   5   3   5  200.73   15.42
  -6  -3  -5  183.41   16.38
  -6  -3  -5  219.73   15.67
  -6  -3  -5  209.83   16.82
   6   3   5  196.27   16.08
   6   3   5  198.90   17.88
   6   3   5  215.72   16.75
   6   3   5  219.21   16.27
  -7  -3  -5  208.82   14.83
  -7  -3  -5  183.63   14.50
  -7  -3  -5  174.73   15.68
  -7  -3  -5  208.71   16.18
   7   3   5  193.06   15.23
   7   3   5  216.54   16.21
   7   3   5  175.92   15.32
  -8  -3  -5  239.20   21.20
  -8  -3  -5  276.66   21.72
   8   3   5  288.18   20.55
   8   3   5  291.19   21.86
   8   3   5  236.72   20.84
  -9  -3  -5   70.51    5.42
  -9  -3  -5   57.28    7.63
  -9  -3  -5   70.83    6.96
  -9  -3  -5   65.53    5.07
   9   3   5   74.90    7.57
   9   3   5   61.65    6.33
   7  -4  -5   49.64    4.49
   7  -4  -5   51.21    4.75
   7  -4  -5   57.98    6.15
  -7   4   5   48.04    5.63
  -7   4   5   59.20    6.31
   6  -4  -5   83.81    7.72
   6  -4  -5   70.62    6.14
  -6   4   5   77.96    5.81
  -6   4   5   69.57    7.24
  -6   4   5   80.16    7.70
   5  -4  -5   47.27    5.05
   5  -4  -5   51.47    5.37
   5  -4  -5   46.22    4.11
  -5   4   5   56.21    5.47
  -5   4   5   50.47    3.97
  -5   4   5   47.12    5.15
  -5   4   5   50.23    3.85
   4  -4  -5   79.47    7.42
   4  -4  -5   75.97    7.00
  -4   4   5   91.10    6.33
  -4   4   5   84.52    6.55
  -4   4   5   88.96    7.74
  -4   4   5   78.69    7.53
   3  -4  -5  143.64   11.46
   3  -4  -5  113.64   10.41
   3  -4  -5  126.79   10.71
  -3   4   5  132.78    9.46
  -3   4   5  114.86   10.56
  -3   4   5  130.65   10.69
  -3   4   5  120.99    9.77
   2  -4  -5   19.10    2.52
   2  -4  -5   17.19    2.30
  -2   4   5   21.51    1.50
  -2   4   5   16.33    2.38
  -2   4   5   20.46    2.48
   1  -4  -5   61.01    5.69
   1  -4  -5   59.90    4.84
   1  -4  -5   67.36    6.21
   1  -4  -5   70.02    5.98
  -1   4   5   58.87    5.85
  -1   4   5   69.93    5.87
   0  -4  -5  154.82   12.12
   0  -4  -5  174.90   12.23
   0  -4  -5  171.78   13.17
   0  -4  -5  176.29   13.40
   0  -4  -5  155.03   12.88
   0   4   5  144.91   13.44
   0   4   5  155.17   13.14
  -1  -4  -5    5.88    1.14
  -1  -4  -5    6.07    1.30
  -1  -4  -5    7.11    1.38
  -1  -4  -5    6.78    0.75
   1   4   5    7.65    1.28
   1   4   5    7.29    1.67
   1   4   5    6.96    1.54
  -2  -4  -5   16.15    1.99
  -2  -4  -5   12.52    1.76
  -2  -4  -5   16.70    1.44
   2   4   5   14.80    1.42
   2   4   5   16.11    1.92
   2   4   5   14.86    2.23
   2   4   5   14.86    2.13
  -3  -4  -5  284.33   21.35
  -3  -4  -5  251.41   21.02
  -3  -4  -5  305.59   20.56
  -3  -4  -5  279.73   21.01
   3   4   5  247.26   21.39
   3   4   5  261.06   20.58
   3   4   5  279.16   21.13
   3   4   5  264.20   21.49
  -4  -4  -5  282.29   21.09
  -4  -4  -5  243.68   20.71
  -4  -4  -5  290.31   20.56
   4   4   5  254.09   20.35
   4   4   5  285.24   20.93
   4   4   5  253.87   20.98
   4   4   5  257.67   21.26
  -5  -4  -5  253.60   18.30
  -5  -4  -5  227.26   18.77
  -5  -4  -5  247.83   19.10
   5   4   5  229.91   18.41
   5   4   5  219.73   18.53
   5   4   5  265.08   19.15
   5   4   5  227.32   19.31
  -6  -4  -5  214.37   16.56
  -6  -4  -5  219.87   15.53
  -6  -4  -5  188.00   16.16
   6   4   5  195.12   15.88
   6   4   5  193.48   15.85
   6   4   5  193.67   16.84
   6   4   5  213.51   16.46
  -7  -4  -5   35.37    3.08
  -7  -4  -5   36.93    4.18
   7   4   5   35.84    3.45
   7   4   5   39.24    4.22
   7   4   5   31.98    3.54
  -8  -4  -5   74.78    5.73
  -8  -4  -5   64.56    6.54
  -8  -4  -5   70.31    7.95
   8   4   5   64.58    6.31
   8   4   5   80.06    6.05
  -9  -4  -5   48.46    5.40
  -9  -4  -5   59.53    4.56
  -9  -4  -5   57.60    5.95
   9   4   5   49.60    5.27
   7  -5  -5   28.17    3.00
   7  -5  -5   34.83    4.57
  -7   5   5   37.76    5.40
  -7   5   5   29.72    4.18
   6  -5  -5   78.06    8.03
   6  -5  -5   95.75    8.62
   6  -5  -5   80.08    6.90
  -6   5   5   81.45    8.17
  -6   5   5   92.63    8.63
  -6   5   5   92.37    6.66
   5  -5  -5  117.48   11.37
   5  -5  -5  143.51   11.90
   5  -5  -5  132.44   10.39
  -5   5   5  137.21   10.27
  -5   5   5  146.99   11.95
  -5   5   5  127.49   11.60
   4  -5  -5   86.00    8.16
   4  -5  -5   98.76    9.19
  -4   5   5   97.18    8.51
  -4   5   5   94.10    7.27
  -4   5   5   96.45    6.99
  -4   5   5   84.01    8.28
   3  -5  -5  258.54   20.78
   3  -5  -5  208.46   18.90
   3  -5  -5  246.96   19.31
  -3   5   5  222.32   19.14
  -3   5   5  259.37   17.88
  -3   5   5  247.11   19.23
  -3   5   5  234.13   18.22
   2  -5  -5  353.98   28.79
   2  -5  -5  403.23   29.17
  -2   5   5  356.86   28.20
  -2   5   5  399.17   29.04
  -2   5   5  350.85   29.00
   1  -5  -5  312.77   24.16
   1  -5  -5  367.30   25.84
   1  -5  -5  305.84   25.10
   1  -5  -5  342.91   25.43
  -1   5   5  287.49   25.24
  -1   5   5  350.48   25.30
  -1   5   5  305.04   24.65
   0  -5  -5  753.50   51.22
   0   5   5  623.34   50.25
   0   5   5  627.59   50.83
   1   5   5  775.87   58.36
  -2  -5  -5  576.43   41.79
  -2  -5  -5  599.16   40.94
  -2  -5  -5  516.97   41.45
  -2  -5  -5  562.31   41.66
   2   5   5  509.65   41.81
   2   5   5  589.82   41.58
   2   5   5  466.01   41.22
  -3  -5  -5  610.84   48.68
  -3  -5  -5  692.40   48.75
   3   5   5  567.65   48.51
   3   5   5  671.40   48.27
   3   5   5  671.92   49.24
  -4  -5  -5  404.81   29.86
  -4  -5  -5  358.60   30.02
  -4  -5  -5  413.69   29.58
  -4  -5  -5  420.49   30.43
   4   5   5  380.56   30.60
   4   5   5  426.95   30.26
   4   5   5  344.44   29.89
   4   5   5  383.71   29.69
  -5  -5  -5  161.45   12.63
  -5  -5  -5  143.66   12.28
  -5  -5  -5  159.83   11.81
   5   5   5  168.20   12.54
   5   5   5  151.04   12.91
   5   5   5  146.56   11.97
   5   5   5  128.69   12.02
  -6  -5  -5  229.26   16.28
  -6  -5  -5  196.42   16.91
  -6  -5  -5  223.35   17.31
   6   5   5  212.17   16.71
   6   5   5  204.34   16.67
  -7  -5  -5  187.56   14.58
  -7  -5  -5  156.21   14.10
  -7  -5  -5  179.12   13.59
   7   5   5  183.62   13.79
   7   5   5  163.85   13.90
  -8  -5  -5   33.18    4.03
  -8  -5  -5   42.74    3.38
  -8  -5  -5   37.39    4.37
   8   5   5   33.30    3.88
   8   5   5   40.22    3.61
   8   5   5   42.25    4.60
  -9  -5  -5  117.58    9.95
  -9  -5  -5  114.31    8.47
  -9  -5  -5   94.40    9.31
   9   5   5   99.37    9.24
   7  -6  -5   15.91    3.06
   7  -6  -5   10.07    2.44
   7  -6  -5   11.96    1.54
  -7   6   5   13.25    2.74
  -7   6   5   13.67    3.05
   6  -6  -5   30.27    4.49
   6  -6  -5   25.99    3.74
   6  -6  -5   21.31    2.22
   6  -6  -5   20.88    3.35
  -6   6   5   23.79    2.04
  -6   6   5   20.55    3.33
  -6   6   5   26.31    3.88
   5  -6  -5  131.98   10.97
   5  -6  -5  107.18   10.44
   5  -6  -5  115.16    9.29
  -5   6   5  123.09    9.24
  -5   6   5  116.04   10.65
  -5   6   5  124.89   12.21
   4  -6  -5  139.78   11.55
   4  -6  -5  117.83   10.98
  -4   6   5  121.02   11.17
  -4   6   5  137.64   11.39
  -4   6   5  129.23   10.00
   3  -6  -5   84.80    8.23
   3  -6  -5  108.87    9.27
   3  -6  -5   96.73    8.57
  -3   6   5   93.29    7.48
  -3   6   5   85.46    8.38
  -3   6   5   98.48    8.53
   2  -6  -5  313.80   25.86
   2  -6  -5  357.50   26.22
  -2   6   5  307.47   25.98
  -2   6   5  323.58   25.17
  -2   6   5  356.11   26.10
   1  -6  -5  344.23   24.82
   1  -6  -5  340.59   25.17
   1  -6  -5  288.64   24.43
  -1   6   5  292.57   23.92
  -1   6   5  332.87   24.62
  -1   6   5  287.07   24.59
   0  -6  -5   89.47    8.14
   0  -6  -5  102.35    8.45
   0  -6  -5   90.15    7.19
   0  -6  -5  109.70    8.77
   0  -6  -5  105.56    7.51
   0   6   5  100.52    8.26
   0   6   5   83.15    8.27
   0   6   5   91.58    7.79
  -1  -6  -5  180.99   12.70
  -1  -6  -5  153.01   13.25
  -1  -6  -5  172.46   13.68
  -1  -6  -5  170.97   13.57
   1   6   5  180.33   13.45
   1   6   5  153.89   13.52
   1   6   5  149.66   12.99
  -2  -6  -5   23.81    2.80
  -2  -6  -5   23.36    2.75
  -2  -6  -5   24.30    2.12
  -2  -6  -5   20.23    2.51
   2   6   5   22.22    2.82
   2   6   5   23.61    2.62
   2   6   5   20.78    2.38
   2   6   5   25.40    1.82
  -3  -6  -5   21.01    1.98
  -3  -6  -5   21.10    2.41
  -3  -6  -5   18.91    2.36
  -3  -6  -5   21.60    2.63
   3   6   5   19.01    2.00
   3   6   5   23.17    2.50
   3   6   5   18.04    2.23
   3   6   5   19.95    2.72
  -4  -6  -5  200.21   13.68
  -4  -6  -5  164.52   13.97
  -4  -6  -5  173.37   13.81
  -4  -6  -5  187.15   14.33
   4   6   5  149.45   13.80
   4   6   5  164.40   13.61
   4   6   5  187.19   14.13
  -5  -6  -5   97.37    8.20
  -5  -6  -5   87.53    7.89
  -5  -6  -5  101.02    7.44
  -5  -6  -5   95.58    7.47
   5   6   5   84.81    7.58
   5   6   5   86.39    7.71
  -6  -6  -5   25.29    3.00
  -6  -6  -5   27.02    3.23
   6   6   5   26.84    2.83
   6   6   5   25.28    2.79
  -7  -6  -5  113.05   10.31
  -7  -6  -5  119.34   10.57
  -7  -6  -5  131.15    9.66
   7   6   5  123.98   10.02
   7   6   5  108.16   10.07
   7   6   5  140.57   10.85
  -8  -6  -5   38.17    4.37
  -8  -6  -5   32.26    4.06
  -8  -6  -5   40.21    3.33
   8   6   5   42.42    4.51
   8   6   5   28.87    3.79
   8   6   5   37.89    3.82
   9   6   5   -0.44    0.39
   9   6   5   -0.01    0.49
   6  -7  -5   86.80    8.32
   6  -7  -5   73.41    7.85
   6  -7  -5   76.75    6.42
  -6   7   5   75.32    7.92
  -6   7   5   89.34    8.46
   5  -7  -5  103.78    8.58
   5  -7  -5   99.54    9.84
   5  -7  -5  115.21   10.28
  -5   7   5  105.38   10.04
  -5   7   5  125.03   10.48
  -5   7   5  112.44    8.61
   4  -7  -5  336.76   25.58
   4  -7  -5  284.79   25.21
  -4   7   5  300.80   25.34
  -4   7   5  319.60   24.05
  -4   7   5  344.02   25.62
   3  -7  -5  172.27   13.48
   3  -7  -5  139.29   12.96
  -3   7   5  148.73   13.20
  -3   7   5  172.64   13.40
  -3   7   5  150.07   12.13
   2  -7  -5   80.34    7.57
   2  -7  -5   93.04    7.96
  -2   7   5   86.09    6.91
  -2   7   5   81.09    7.75
   1  -7  -5  196.09   15.26
   1  -7  -5  168.39   14.86
   1  -7  -5  204.65   15.66
  -1   7   5  173.67   14.36
  -1   7   5  171.54   15.09
  -1   7   5  195.95   15.11
   0  -7  -5  157.59   12.40
   0  -7  -5  161.29   11.11
   0  -7  -5  129.64   11.73
   0  -7  -5  148.32   12.07
   0   7   5  129.69   11.32
   0   7   5  152.75   11.93
   0   7   5  127.56   11.89
  -1  -7  -5  212.12   18.27
  -1  -7  -5  238.75   18.58
  -1  -7  -5  252.47   17.70
  -1  -7  -5  252.94   18.86
   1   7   5  248.73   18.50
   1   7   5  212.80   18.51
   1   7   5  238.73   17.45
   1   7   5  201.21   17.93
  -2  -7  -5  468.19   39.92
  -2  -7  -5  577.55   39.47
  -2  -7  -5  540.02   40.29
  -2  -7  -5  544.35   40.33
   2   7   5  563.74   39.11
   2   7   5  575.43   40.54
   2   7   5  477.71   40.24
   2   7   5  447.47   39.70
  -3  -7  -5  211.45   16.28
  -3  -7  -5  216.89   16.47
  -3  -7  -5  189.48   16.10
   3   7   5  219.19   16.99
   3   7   5  172.51   15.90
   3   7   5  211.29   15.21
  -4  -7  -5  275.12   23.00
  -4  -7  -5  297.11   22.92
  -4  -7  -5  315.86   23.34
  -4  -7  -5  326.56   22.58
   4   7   5  264.53   22.86
  -5  -7  -5  320.86   25.02
  -5  -7  -5  317.23   23.39
  -5  -7  -5  294.89   23.76
   5   7   5  298.29   24.19
   5   7   5  292.76   23.44
  -6  -7  -5  110.59    8.61
  -6  -7  -5  116.92    8.50
  -6  -7  -5   94.17    8.97
  -6  -7  -5  109.35    9.31
   6   7   5  100.80    8.86
   6   7   5  123.04    9.43
   6   7   5   91.98    8.76
  -7  -7  -5   43.07    4.62
  -7  -7  -5   39.50    4.42
  -7  -7  -5   49.81    4.03
   7   7   5   37.83    4.21
   7   7   5   45.37    4.24
   7   7   5   49.58    4.83
  -8  -7  -5  100.05    9.31
  -8  -7  -5  114.29    9.66
   8   7   5   92.58    9.15
   8   7   5  122.68    9.01
   6  -8  -5   24.84    2.51
   6  -8  -5   26.65    3.96
   6  -8  -5   29.34    4.20
  -6   8   5   26.38    4.00
  -6   8   5   34.76    5.53
   5  -8  -5    3.06    1.37
   5  -8  -5    2.36    1.16
   5  -8  -5    7.55    2.85
  -5   8   5    3.55    1.46
  -5   8   5    3.37    1.44
  -5   8   5    4.26    0.82
   4  -8  -5   20.97    3.26
   4  -8  -5   18.00    2.95
   4  -8  -5   22.03    3.74
  -4   8   5   23.60    3.39
  -4   8   5   18.59    2.01
  -4   8   5   19.24    3.10
   3  -8  -5   62.10    6.08
   3  -8  -5   52.02    5.65
   3  -8  -5   69.06    8.67
  -3   8   5   60.36    5.98
  -3   8   5   51.75    5.80
  -3   8   5   52.19    4.80
   2  -8  -5   31.28    3.67
   2  -8  -5   24.20    3.24
  -2   8   5   25.23    3.38
  -2   8   5   23.88    2.66
  -2   8   5   29.25    3.49
   1  -8  -5  112.27   10.36
   1  -8  -5  136.47   11.10
   1  -8  -5  127.79   10.67
  -1   8   5  121.85   10.42
  -1   8   5  107.03   10.43
  -1   8   5  127.17   10.51
   0  -8  -5  242.83   18.38
   0  -8  -5  221.24   19.48
   0  -8  -5  241.97   18.63
   0   8   5  245.29   18.18
   0   8   5  231.69   17.08
   0   8   5  190.78   18.17
   0   8   5  203.71   18.15
  -1  -8  -5   59.33    6.16
  -1  -8  -5   68.74    5.31
  -1  -8  -5   67.87    6.15
   1   8   5   55.97    5.53
   1   8   5   68.41    5.00
  -2  -8  -5  158.18   12.97
  -2  -8  -5  143.69   12.68
  -2  -8  -5  167.66   13.18
  -2  -8  -5  173.04   12.20
   2   8   5  164.62   11.79
   2   8   5  131.48   12.40
  -3  -8  -5   99.81    7.43
  -3  -8  -5   95.13    8.12
  -3  -8  -5   85.30    7.84
   3   8   5   83.32    7.71
   3   8   5   95.94    6.94
  -4  -8  -5    8.27    1.53
  -4  -8  -5    8.38    1.67
  -4  -8  -5    7.50    1.48
   4   8   5    7.59    1.46
  -5  -8  -5   30.06    3.41
  -5  -8  -5   29.55    2.96
  -5  -8  -5   31.07    2.89
  -5  -8  -5   26.90    3.16
   5   8   5   23.30    3.00
   5   8   5   34.16    3.43
  -6  -8  -5   64.05    6.00
  -6  -8  -5   70.24    6.21
   6   8   5   63.00    5.84
   6   8   5   60.83    5.76
  -7  -8  -5    9.95    1.41
  -7  -8  -5    9.28    1.86
  -7  -8  -5    7.72    2.18
   7   8   5    8.51    1.60
   7   8   5   10.16    1.95
   7   8   5    6.23    1.81
  -8  -8  -5   21.38    3.13
  -8  -8  -5   18.47    2.70
   8   8   5   22.36    2.58
   5  -9  -5   96.98    8.95
   5  -9  -5   81.88    8.43
  -5   9   5   94.45    8.97
  -5   9   5   85.02    7.01
  -5   9   5   77.43    8.43
   4  -9  -5   77.53    8.33
   4  -9  -5  100.88    9.11
  -4   9   5   83.56    7.24
  -4   9   5   98.93    8.95
   3  -9  -5  225.50   21.17
   3  -9  -5  289.55   23.37
   3  -9  -5  284.04   21.81
  -3   9   5  284.31   21.73
  -3   9   5  241.26   20.25
   2  -9  -5  197.21   15.98
   2  -9  -5  191.95   15.53
   2  -9  -5  168.32   15.09
  -2   9   5  164.28   14.25
  -2   9   5  193.51   15.43
   1  -9  -5   96.70    8.81
   1  -9  -5   98.78    8.56
   1  -9  -5   81.14    8.07
  -1   9   5   99.21    8.41
  -1   9   5   79.32    7.44
   0  -9  -5  222.30   17.34
   0  -9  -5  188.88   16.63
   0  -9  -5  222.42   17.04
   0   9   5  186.55   16.12
   0   9   5  212.88   15.66
   0   9   5  205.76   16.87
  -1  -9  -5  168.50   14.89
  -1  -9  -5  197.05   15.54
  -1  -9  -5  194.25   15.25
   1   9   5  167.37   14.54
   1   9   5  194.23   13.95
  -2  -9  -5   61.26    5.93
  -2  -9  -5   63.65    6.08
  -2  -9  -5   56.65    5.63
  -2  -9  -5   64.27    4.59
   2   9   5   51.76    5.36
   2   9   5   65.56    4.73
  -3  -9  -5  237.29   16.53
  -3  -9  -5  219.55   17.24
  -3  -9  -5  196.21   16.92
  -3  -9  -5  218.07   17.34
   3   9   5  235.06   17.12
   3   9   5  205.51   15.97
   3   9   5  179.56   16.74
  -4  -9  -5  151.54   12.48
  -4  -9  -5  164.74   12.02
  -4  -9  -5  150.74   12.58
  -4  -9  -5  138.06   12.32
   4   9   5  133.94   12.27
   4   9   5  171.63   12.58
  -5  -9  -5  100.03    8.78
  -5  -9  -5  102.21    8.60
  -5  -9  -5   87.92    8.30
  -5  -9  -5   99.35    8.26
  -5  -9  -5  108.87    8.07
   5   9   5   91.64    8.34
  -6  -9  -5  119.66    9.17
  -6  -9  -5  103.70    9.40
  -6  -9  -5  109.27    8.87
  -6  -9  -5  115.25    9.65
  -6  -9  -5  119.98    9.00
   6   9   5  106.81    9.45
  -7  -9  -5  103.44    8.76
  -7  -9  -5   90.73    8.49
   7   9   5  105.74    8.61
   4 -10  -5   13.83    3.42
   4 -10  -5   10.88    3.17
  -4  10   5   12.29    1.57
  -4  10   5   10.73    1.46
  -4  10   5   13.66    3.68
   3 -10  -5   10.57    2.35
   3 -10  -5   14.80    3.10
   3 -10  -5   14.78    2.84
  -3  10   5   14.59    2.78
  -3  10   5   10.49    1.48
  -3  10   5   14.12    1.72
   2 -10  -5   45.55    5.47
   2 -10  -5   59.24    6.06
   2 -10  -5   59.18    6.39
  -2  10   5   51.06    4.79
  -2  10   5   59.21    6.25
  -2  10   5   52.01    4.49
   1 -10  -5   29.52    2.80
   1 -10  -5   25.78    3.51
   1 -10  -5   28.52    3.77
   1 -10  -5   27.98    4.02
  -1  10   5   27.18    2.55
  -1  10   5   33.66    3.06
  -1  10   5   28.36    3.65
   0 -10  -5   31.09    3.80
   0 -10  -5   24.91    3.43
   0 -10  -5   31.91    4.14
   0 -10  -5   34.02    2.96
   0  10   5   29.11    2.60
   0  10   5   34.54    3.78
   0  10   5   26.87    3.08
  -1 -10  -5  164.86   13.96
  -1 -10  -5  166.87   13.66
  -1 -10  -5  177.49   12.75
  -1 -10  -5  144.16   13.32
   1  10   5  160.77   12.32
   1  10   5  142.06   12.94
   1  10   5  178.33   13.59
  -2 -10  -5   82.23    6.25
  -2 -10  -5   67.04    6.66
  -2 -10  -5   71.89    6.89
  -2 -10  -5   70.76    5.54
  -2 -10  -5   78.25    7.27
   2  10   5   75.06    5.73
   2  10   5   63.93    6.43
   2  10   5   83.18    6.91
  -3 -10  -5   37.43    4.10
  -3 -10  -5   40.73    3.72
  -3 -10  -5   40.82    3.10
  -3 -10  -5   38.69    4.28
  -3 -10  -5   40.41    4.55
   3  10   5   35.89    4.01
   3  10   5   47.00    4.35
  -4 -10  -5   64.59    4.77
  -4 -10  -5   59.18    6.02
  -4 -10  -5   64.63    5.41
  -4 -10  -5   56.60    5.68
  -4 -10  -5   62.69    6.05
   4  10   5   54.46    5.66
   4  10   5   71.60    6.00
  -5 -10  -5   41.40    3.18
  -5 -10  -5   37.99    3.96
  -5 -10  -5   38.61    4.14
  -5 -10  -5   42.42    4.23
  -5 -10  -5   38.48    4.01
  -5 -10  -5   35.67    3.97
   5  10   5   38.68    4.14
   5  10   5   46.78    4.24
  -6 -10  -5   24.05    2.44
  -6 -10  -5   24.15    2.48
  -6 -10  -5   20.16    2.65
  -6 -10  -5   23.87    1.97
  -6 -10  -5   24.06    2.89
   6  10   5   23.60    3.11
   3 -11  -5   69.20    6.90
   3 -11  -5   52.53    6.13
  -3  11   5   53.48    4.92
  -3  11   5   59.67    5.21
   2 -11  -5  119.60   11.56
   2 -11  -5  152.39   12.25
  -2  11   5  126.30   10.67
  -2  11   5  129.38   10.33
   1 -11  -5  212.82   15.38
   1 -11  -5  203.03   17.27
   1 -11  -5  210.56   17.21
   1 -11  -5  189.43   18.65
  -1  11   5  187.50   15.05
  -1  11   5  201.72   16.86
  -1  11   5  169.89   15.47
   0 -11  -5  113.12    8.27
   0 -11  -5  101.04    9.22
   0 -11  -5  108.00    9.80
   0 -11  -5   85.63    8.87
   0  11   5   86.71    8.38
   0  11   5  111.89    9.23
   0  11   5   97.07    7.83
  -1 -11  -5   76.02    7.65
  -1 -11  -5   87.08    8.36
  -1 -11  -5   89.08    7.08
   1  11   5   93.01    7.93
   1  11   5   75.51    7.31
   1  11   5   87.99    6.64
  -2 -11  -5  163.55   11.87
  -2 -11  -5  146.23   12.53
  -2 -11  -5  150.17   12.97
  -2 -11  -5  131.73   12.27
   2  11   5  169.03   12.61
   2  11   5  127.27   12.12
   2  11   5  149.97   11.29
  -3 -11  -5   53.20    6.11
  -3 -11  -5   61.48    6.04
  -3 -11  -5   64.11    5.12
  -3 -11  -5   57.11    4.32
   3  11   5   44.72    6.16
  -4 -11  -5   70.76    7.13
  -4 -11  -5   83.96    7.73
  -4 -11  -5   82.44    7.42
  -4 -11  -5   86.13    6.28
   4  11   5   74.31    7.35
   4  11   5   97.39    7.98
  -5 -11  -5   78.30    6.84
  -5 -11  -5   78.18    6.73
  -5 -11  -5   79.15    5.71
  -5 -11  -5   67.24    6.48
   5  11   5   66.90    6.76
   1 -12  -5   25.77    3.74
  -1  12   5   20.49    2.71
  -1  12   5   23.69    2.28
   0 -12  -5   33.12    4.14
   0 -12  -5   29.26    3.86
   0  12   5   32.04    3.49
   0  12   5   33.25    2.82
  -1 -12  -5   12.53    2.42
  -1 -12  -5   12.49    2.72
  -1 -12  -5   11.31    2.19
   1  12   5   10.96    1.97
   1  12   5   12.96    1.34
  -2 -12  -5   43.96    5.05
  -2 -12  -5   35.66    4.20
   2  12   5   43.89    3.29
   2  12   5   34.73    4.13
  -2  -7   6   12.20    2.82
  -2  -7   6   11.29    1.51
   1   7  -6   79.77    6.39
  -1  -7   6   78.27    8.53
  -1  -7   6   88.28    6.84
   0   7  -6   72.89    5.67
   0  -7   6   78.60    6.13
   0  -7   6   69.80    7.93
   0  -7   6   74.11    6.05
   0  -7   6   67.70    6.16
  -1   7  -6   45.76    3.77
  -1   7  -6   50.40    4.44
   1  -7   6   43.53    4.68
   1  -7   6   45.47    7.03
   1  -7   6   48.26    4.47
  -2   7  -6   84.20    7.11
  -2   7  -6  101.08    8.12
  -2   7  -6   89.70    6.97
   2  -7   6   82.89    9.37
  -3   7  -6   79.50    6.15
  -3   7  -6   77.20    6.28
   3  -7   6   77.71    7.94
   3  -7   6   85.25    7.48
   3  -7   6   73.71    8.48
  -4   7  -6   35.15    3.35
  -4   7  -6   43.16    3.30
   4  -7   6   38.31    5.09
   4  -7   6   37.12    5.38
   4  -7   6   44.85    4.78
  -3  -6   6  211.70   15.52
  -3  -6   6  207.48   15.30
  -3  -6   6  173.39   16.74
  -2  -6   6  171.29   12.93
  -2  -6   6  163.17   12.34
  -2  -6   6  143.51   14.27
  -2  -6   6  165.15   12.70
  -2  -6   6  171.45   12.51
   1   6  -6  165.54   13.57
  -1  -6   6  191.68   14.18
  -1  -6   6  190.21   13.70
  -1  -6   6  187.62   13.94
  -1  -6   6  161.67   15.54
   0   6  -6  309.89   22.18
   0   6  -6  285.76   21.76
   0  -6   6  298.49   22.88
   0  -6   6  254.22   22.38
   0  -6   6  282.52   22.25
   0  -6   6  262.92   23.83
   0  -6   6  306.94   22.13
   0  -6   6  315.98   21.87
  -1   6  -6  173.38   13.62
  -1   6  -6  193.91   14.45
   1  -6   6  174.96   14.37
   1  -6   6  166.27   14.65
   1  -6   6  160.07   15.61
   1  -6   6  199.55   15.11
   1  -6   6  196.24   13.98
  -2   6  -6  143.66   11.36
  -2   6  -6  141.20   11.46
  -2   6  -6  162.03   12.78
   2  -6   6  141.13   13.54
   2  -6   6  166.59   12.37
   2  -6   6  141.17   12.80
   2  -6   6  152.28   12.40
  -3   6  -6  247.40   18.57
  -3   6  -6  204.76   17.24
  -3   6  -6  225.92   17.17
   3  -6   6  240.68   17.26
   3  -6   6  211.74   18.90
   3  -6   6  261.20   17.85
   3  -6   6  200.64   19.30
  -4   6  -6  106.90    9.04
  -4   6  -6  117.01    8.99
  -4   6  -6  123.95   10.48
   4  -6   6  136.89    9.66
   4  -6   6  127.68   10.56
   4  -6   6  102.99   11.06
   4  -6   6  103.78   10.83
  -5   6  -6  109.49    7.98
  -5   6  -6   98.23    8.04
   5  -6   6   97.32   10.19
   5  -6   6   93.42   11.05
   5  -6   6  114.57    9.76
  -6   6  -6  130.32    9.77
  -6   6  -6  119.47    9.79
   6  -6   6  121.42   12.07
   6  -6   6  143.99   11.90
   6  -6   6  118.53   12.19
  -4  -5   6   56.00    4.72
  -4  -5   6   55.85    4.53
  -4  -5   6   50.04    5.86
  -3  -5   6   41.52    3.48
  -3  -5   6   46.39    3.65
  -3  -5   6   44.40    3.94
  -3  -5   6   45.60    3.77
  -3  -5   6   40.42    5.01
   2   5  -6   90.63    7.58
  -2  -5   6  103.35    8.06
  -2  -5   6  111.16    7.92
  -2  -5   6   97.14    7.56
  -2  -5   6  104.96    7.86
  -2  -5   6   87.57    9.24
   1   5  -6   30.98    2.69
  -1  -5   6   37.47    3.25
  -1  -5   6   31.95    4.29
  -1  -5   6   33.38    2.66
  -1  -5   6   28.94    3.10
  -1  -5   6   36.13    2.81
  -1  -5   6   32.44    3.04
  -1  -5   6   35.38    2.99
   0   5  -6  114.08    8.96
   0  -5   6  122.49    9.25
   0  -5   6  107.15    9.71
   0  -5   6  104.74   10.70
   0  -5   6  125.05    9.28
   0  -5   6  135.61    9.56
   0  -5   6  116.38    9.54
  -1   5  -6  120.22    9.26
  -1   5  -6  131.52   10.17
   1  -5   6  117.37   10.34
   1  -5   6  129.86    9.33
   1  -5   6  121.14   10.03
   1  -5   6  107.67   10.98
  -2   5  -6   46.36    3.85
  -2   5  -6   46.27    3.78
  -2   5  -6   51.76    4.83
   2  -5   6   53.12    3.86
   2  -5   6   44.37    5.03
   2  -5   6   42.28    5.43
   2  -5   6   48.82    4.71
  -3   5  -6  126.59   10.51
  -3   5  -6  115.47    9.02
  -3   5  -6  111.82    9.07
   3  -5   6  122.47   10.21
   3  -5   6  113.07   10.98
   3  -5   6  126.58    9.08
   3  -5   6  109.72   10.59
  -4   5  -6  181.13   14.00
  -4   5  -6  180.69   13.95
  -4   5  -6  206.76   15.55
   4  -5   6  194.87   15.40
   4  -5   6  167.44   15.91
   4  -5   6  172.79   15.84
  -5   5  -6   76.12    6.98
  -5   5  -6   65.33    5.33
  -5   5  -6   64.41    5.36
   5  -5   6   65.68    7.35
   5  -5   6   73.14    6.95
   5  -5   6   61.82    7.16
  -6   5  -6  109.39    9.53
  -6   5  -6   88.94    7.62
  -6   5  -6   93.42    7.63
   6  -5   6  114.02    8.20
   6  -5   6   84.66    9.44
   6  -5   6  106.55    9.55
   6  -5   6   92.55    9.89
  -7   5  -6   97.09    7.79
  -7   5  -6   89.91    8.23
   7  -5   6  117.65   10.19
   7  -5   6   96.47   10.32
   7  -5   6   97.34   11.34
   5   4  -6   99.17    8.47
  -5  -4   6   95.42    9.44
  -5  -4   6  112.75    8.26
   4   4  -6  164.84   14.02
  -4  -4   6  189.04   14.03
  -4  -4   6  197.45   13.80
  -4  -4   6  192.40   13.67
  -4  -4   6  158.07   15.15
   3   4  -6  127.45   10.80
  -3  -4   6  133.57   10.78
  -3  -4   6  148.76   10.93
  -3  -4   6  127.55   10.73
  -3  -4   6  152.89   10.66
  -3  -4   6  145.74   10.71
  -3  -4   6  124.24   12.05
  -3  -4   6  149.09   10.52
   2   4  -6  295.49   22.61
   2   4  -6  296.41   22.83
  -2  -4   6  319.80   22.60
  -2  -4   6  325.20   22.80
  -2  -4   6  303.12   23.00
  -2  -4   6  288.68   22.99
  -2  -4   6  279.18   24.25
   1   4  -6  331.18   24.69
   1   4  -6  331.54   24.55
  -1  -4   6  344.34   24.52
  -1  -4   6  312.00   25.18
  -1  -4   6  348.24   24.75
  -1  -4   6  301.95   26.19
  -1  -4   6  321.92   25.04
   0   4  -6  320.38   23.37
   0  -4   6  315.66   24.03
   0  -4   6  293.81   24.23
   0  -4   6  281.76   24.97
   0  -4   6  345.61   23.60
  -1   4  -6  590.60   42.69
   1  -4   6  534.04   44.42
   1  -4   6  603.67   43.55
   1  -4   6  556.58   43.83
  -2   4  -6  456.44   32.94
  -2   4  -6  437.67   32.98
   2  -4   6  444.34   34.39
   2  -4   6  421.92   34.70
  -3   4  -6  219.60   15.61
  -3   4  -6  203.35   15.63
   3  -4   6  194.57   17.14
   3  -4   6  199.65   17.40
   3  -4   6  216.24   16.79
  -4   4  -6  330.38   25.88
  -4   4  -6  378.10   27.39
  -4   4  -6  334.75   25.87
   4  -4   6  319.72   27.67
   4  -4   6  333.10   27.75
   4  -4   6  372.42   28.12
  -5   4  -6  273.02   22.50
  -5   4  -6  340.45   24.26
  -5   4  -6  293.24   22.52
   5  -4   6  289.83   24.65
   5  -4   6  270.55   24.29
   5  -4   6  327.98   24.19
  -6   4  -6   99.61    8.16
  -6   4  -6  117.14   10.00
   6  -4   6   98.18   10.29
   6  -4   6  114.14    9.95
   6  -4   6  100.93    9.96
  -7   4  -6   84.68    7.84
  -7   4  -6   67.69    5.74
   7  -4   6   67.40    7.47
   7  -4   6   72.38    8.17
   7  -4   6   76.28   10.19
   6   3  -6   18.88    2.36
  -6  -3   6   23.30    2.14
  -6  -3   6   21.40    2.45
  -6  -3   6   21.71    3.23
  -6  -3   6   22.11    2.40
   5   3  -6   38.24    3.88
   5   3  -6   46.95    4.04
  -5  -3   6   40.30    3.96
  -5  -3   6   47.66    3.64
  -5  -3   6   38.86    4.80
  -5  -3   6   50.31    3.54
  -5  -3   6   46.86    3.77
  -5  -3   6   39.25    3.89
   4   3  -6  128.11   10.88
   4   3  -6  153.69   11.14
   4   3  -6  125.73   12.14
  -4  -3   6  150.42   10.67
  -4  -3   6  144.73   10.83
  -4  -3   6  148.21   10.55
  -4  -3   6  128.97   12.02
  -4  -3   6  127.54   10.94
   3   3  -6  150.06   12.50
   3   3  -6  173.24   14.11
  -3  -3   6  173.19   12.34
  -3  -3   6  169.62   12.33
  -3  -3   6  155.98   12.70
  -3  -3   6  158.98   12.74
  -3  -3   6  150.53   13.75
   2   3  -6  118.72    9.86
   2   3  -6  112.74    8.70
   2   3  -6   98.55    8.23
   2   3  -6   98.45    8.03
  -2  -3   6  109.99    8.14
  -2  -3   6  100.16    8.53
  -2  -3   6   99.69    8.59
   1   3  -6  291.17   20.47
   1   3  -6  261.50   19.67
   1   3  -6  290.37   21.49
   1   3  -6  261.28   19.80
  -1  -3   6  237.11   20.84
  -1  -3   6  228.38   21.14
  -1  -3   6  251.82   20.24
  -1  -3   6  271.15   19.79
  -1  -3   6  264.37   19.64
   0   3  -6  106.34    8.19
   0   3  -6  106.21    8.13
   0   3  -6  116.07    8.99
   0  -3   6  115.09    8.29
   0  -3   6  112.88    8.19
   0  -3   6   96.35    9.53
   0  -3   6  103.02    8.76
   0  -3   6   97.90    9.05
  -1   3  -6   68.35    5.09
  -1   3  -6   62.97    5.11
  -1   3  -6   71.03    6.06
   1  -3   6   66.20    5.15
   1  -3   6   64.76    5.85
   1  -3   6   63.39    6.15
  -2   3  -6  129.82   10.24
  -2   3  -6  135.87   10.22
   2  -3   6  123.37   12.17
   2  -3   6  136.42   12.18
   2  -3   6  138.22   11.16
   2  -3   6  144.24   10.25
  -3   3  -6   61.07    5.59
  -3   3  -6   48.20    5.14
  -3   3  -6   55.47    4.40
  -3   3  -6   57.01    4.39
   3  -3   6   55.22    5.88
   3  -3   6   58.39    5.43
   3  -3   6   60.39    4.42
   3  -3   6   54.74    6.17
  -4   3  -6   14.37    2.33
  -4   3  -6   11.99    2.07
  -4   3  -6   15.14    1.32
  -4   3  -6   15.07    1.31
   4  -3   6   12.15    2.47
   4  -3   6   15.60    2.63
   4  -3   6   14.96    2.31
  -5   3  -6   53.81    4.15
  -5   3  -6   46.63    5.10
  -5   3  -6   54.42    5.51
   5  -3   6   52.52    5.94
   5  -3   6   48.11    5.57
   5  -3   6   56.90    5.54
  -6   3  -6   41.96    4.71
  -6   3  -6   46.56    5.06
  -6   3  -6   42.63    3.51
   6  -3   6   42.93    5.45
   6  -3   6   46.60    5.07
   6  -3   6   42.81    5.05
  -7   3  -6   38.35    4.53
  -7   3  -6   30.28    3.98
  -7   3  -6   31.17    2.68
   7  -3   6   30.51    4.16
   7  -3   6   36.92    4.70
   7  -3   6   29.57    4.64
  -8   3  -6   64.19    5.24
  -8   3  -6   72.44    7.30
  -8   3  -6   63.38    6.79
   8  -3   6   76.29    7.50
   8  -3   6   64.35    7.64
   8  -3   6   61.27    6.83
   6   2  -6  172.02   12.68
   6   2  -6  131.59   11.72
  -6  -2   6  151.11   12.26
  -6  -2   6  141.96   12.83
  -6  -2   6  129.73   12.59
  -6  -2   6  158.69   11.41
   5   2  -6  125.03   10.85
   5   2  -6  146.86   11.56
  -5  -2   6  127.22   11.91
  -5  -2   6  147.34   10.67
  -5  -2   6  144.53   10.47
  -5  -2   6  143.27   11.38
  -5  -2   6  126.16   11.08
   4   2  -6  167.57   13.90
   4   2  -6  184.20   14.52
   4   2  -6  189.84   15.44
  -4  -2   6  195.42   13.59
  -4  -2   6  162.02   14.16
   3   2  -6  326.88   23.30
  -3  -2   6  261.92   22.76
  -3  -2   6  274.20   21.99
  -3  -2   6  276.24   21.99
   2   2  -6  151.93   12.02
   2   2  -6  143.89   11.06
   2   2  -6  128.30   10.19
   2   2  -6  127.23   10.39
  -2  -2   6  119.41   11.52
  -2  -2   6  137.32   10.23
   1   2  -6  159.75   12.25
   1   2  -6  151.85   12.79
   1   2  -6  178.29   13.16
   1   2  -6  166.41   15.42
   1   2  -6  161.40   12.39
  -1  -2   6  151.91   13.06
  -1  -2   6  166.17   12.23
  -1  -2   6  159.70   12.88
  -1  -2   6  173.17   12.30
  -1  -2   6  171.75   12.32
  -1  -2   6  146.49   13.58
   0   2  -6  357.87   26.62
   0   2  -6  339.34   27.23
   0   2  -6  398.34   28.25
   0   2  -6  358.31   26.68
   0   2  -6  394.71   28.10
   0  -2   6  324.53   28.01
   0  -2   6  321.93   27.51
   0  -2   6  339.08   27.28
   0  -2   6  369.30   26.66
  -1   2  -6  268.52   20.31
  -1   2  -6  270.82   19.32
  -1   2  -6  254.18   19.32
  -1   2  -6  278.31   20.80
   1  -2   6  244.84   20.41
   1  -2   6  233.03   20.66
   1  -2   6  246.53   20.08
   1  -2   6  263.97   19.35
  -2   2  -6  263.93   19.23
  -2   2  -6  216.72   18.71
  -2   2  -6  241.12   17.98
  -2   2  -6  248.67   17.89
   2  -2   6  230.02   19.24
   2  -2   6  223.06   19.36
   2  -2   6  243.36   18.89
   2  -2   6  248.14   17.99
  -3   2  -6  412.53   31.56
  -3   2  -6  378.13   29.30
  -3   2  -6  378.92   29.30
   3  -2   6  383.51   30.79
   3  -2   6  403.42   30.40
   3  -2   6  365.12   30.73
   3  -2   6  420.28   29.32
  -4   2  -6  351.04   25.59
  -4   2  -6  300.48   25.19
  -4   2  -6  318.83   24.18
   4  -2   6  348.46   24.20
   4  -2   6  337.77   25.44
   4  -2   6  307.33   25.82
   4  -2   6  295.00   25.57
  -5   2  -6  348.19   25.89
  -5   2  -6  308.30   26.92
  -5   2  -6  399.13   27.60
   5  -2   6  324.46   27.39
   5  -2   6  325.43   28.15
   5  -2   6  368.74   27.39
  -6   2  -6  428.09   30.74
  -6   2  -6  344.96   30.09
  -6   2  -6  375.32   28.91
   6  -2   6  372.33   31.34
   6  -2   6  431.95   30.76
   6  -2   6  365.20   31.05
  -7   2  -6  161.75   13.24
  -7   2  -6  144.21   11.33
  -7   2  -6  139.28   12.71
   7  -2   6  165.57   13.34
   7  -2   6  147.36   13.71
   7  -2   6  139.85   12.85
  -8   2  -6   78.35    7.52
  -8   2  -6   67.70    5.43
  -8   2  -6   66.44    6.98
   8  -2   6   66.27    6.95
   8  -2   6   78.69    7.62
   8  -2   6   62.91    7.70
  -9   2  -6   77.20    7.80
  -7  -1   6   10.17    2.64
   6   1  -6   24.39    2.58
   6   1  -6   25.42    3.36
  -6  -1   6   21.68    3.32
  -6  -1   6   22.72    2.93
  -6  -1   6   25.09    3.20
  -6  -1   6   25.89    2.17
  -6  -1   6   24.81    2.11
   5   1  -6   15.84    2.46
   5   1  -6   14.85    2.75
   5   1  -6   14.31    1.72
  -5  -1   6   14.83    1.50
  -5  -1   6   15.28    1.37
  -5  -1   6   12.72    2.03
  -5  -1   6   16.20    3.81
  -5  -1   6   14.49    2.23
   4   1  -6   10.53    2.30
   4   1  -6   10.03    1.31
   4   1  -6   10.57    1.92
  -4  -1   6    9.65    0.96
  -4  -1   6   11.22    1.77
  -4  -1   6    8.32    1.99
  -4  -1   6    7.85    1.54
   3   1  -6   84.89    6.49
   3   1  -6   83.51    7.19
  -3  -1   6   75.76    6.93
  -3  -1   6   78.50    6.17
  -3  -1   6   76.94    7.59
  -3  -1   6   84.98    7.04
   2   1  -6  229.80   17.23
   2   1  -6  237.20   18.00
   2   1  -6  221.23   17.66
   2   1  -6  215.25   17.00
  -2  -1   6  230.21   17.77
  -2  -1   6  242.37   17.01
  -2  -1   6  220.01   18.44
  -2  -1   6  216.53   17.82
   1   1  -6   57.59    4.59
   1   1  -6   54.26    4.43
   1   1  -6   65.96    5.98
   1   1  -6   60.88    5.35
   1   1  -6   56.01    5.04
  -1  -1   6   59.65    4.42
  -1  -1   6   57.60    4.39
  -1  -1   6   55.32    5.43
  -1  -1   6   61.39    4.51
  -1  -1   6   52.46    5.26
  -1  -1   6   53.04    5.66
   0   1  -6  138.82   10.91
   0   1  -6  126.62    9.56
   0   1  -6  137.27   10.45
   0   1  -6  119.68    9.46
   0  -1   6  127.14    9.50
   0  -1   6  111.69   10.36
   0  -1   6  119.41   10.16
   0  -1   6  119.44   10.76
   0  -1   6  127.86    9.47
  -1   1  -6  428.34   29.64
  -1   1  -6  391.90   29.60
  -1   1  -6  362.18   30.27
  -1   1  -6  447.79   31.06
  -1   1  -6  415.60   30.61
   1  -1   6  403.27   29.62
   1  -1   6  373.48   30.94
   1  -1   6  372.72   30.33
   1  -1   6  370.79   30.69
  -2   1  -6  280.37   22.06
  -2   1  -6  322.94   23.21
  -2   1  -6  263.71   22.79
  -2   1  -6  318.59   23.33
  -2   1  -6  315.38   22.04
   2  -1   6  294.89   22.95
   2  -1   6  276.47   23.26
   2  -1   6  307.99   22.07
   2  -1   6  271.56   23.32
  -3   1  -6  229.80   18.36
  -3   1  -6  270.65   18.30
  -3   1  -6  225.20   19.21
  -3   1  -6  262.42   19.59
   3  -1   6  232.94   19.74
   3  -1   6  250.42   18.38
   3  -1   6  259.92   19.44
   3  -1   6  227.51   19.64
  -4   1  -6  171.82   14.73
  -4   1  -6  179.75   13.77
  -4   1  -6  204.05   15.19
   4  -1   6  170.24   15.28
   4  -1   6  165.79   15.06
   4  -1   6  196.99   13.80
   4  -1   6  193.86   15.02
  -5   1  -6   41.59    4.62
  -5   1  -6   46.42    3.67
  -5   1  -6   55.13    5.14
   5  -1   6   43.23    4.91
   5  -1   6   52.82    5.03
   5  -1   6   44.87    5.27
  -6   1  -6   37.60    4.32
  -6   1  -6   42.33    3.29
  -6   1  -6   45.01    4.81
   6  -1   6   38.63    5.02
   6  -1   6   48.09    4.87
   6  -1   6   40.10    4.60
  -7   1  -6   78.51    7.28
  -7   1  -6   68.59    5.50
  -7   1  -6   65.76    6.75
   7  -1   6   71.33    6.98
   7  -1   6   64.76    8.65
   7  -1   6   80.37    7.39
  -8   1  -6   10.70    2.48
  -8   1  -6    9.69    2.24
  -8   1  -6    9.11    0.95
   8  -1   6   10.73    2.56
   8  -1   6    9.06    2.04
   8  -1   6    9.60    2.77
  -9   1  -6   37.52    4.78
  -9   1  -6   31.88    4.30
  -9   1  -6   34.70    2.85
   9  -1   6   32.89    3.68
   9  -1   6   33.77    5.27
   9  -1   6   42.33    5.11
   7   0  -6   49.37    4.83
  -7   0   6   54.38    5.55
  -7   0   6   61.48    6.03
   6   0  -6   75.32    6.88
   6   0  -6   93.98    8.25
  -6   0   6   74.39    7.46
  -6   0   6   89.24    7.92
  -6   0   6   91.29    6.54
  -6   0   6   76.43    7.90
  -6   0   6   88.66    6.53
   5   0  -6  314.52   23.39
   5   0  -6  292.55   22.60
   5   0  -6  256.70   21.45
  -5   0   6  247.11   22.03
  -5   0   6  296.28   21.12
   4   0  -6  371.06   26.41
  -4   0   6  326.38   27.59
  -4   0   6  346.79   27.05
   3   0  -6  246.24   19.62
   3   0  -6  292.91   21.32
  -3   0   6  224.56   20.68
  -3   0   6  265.20   19.37
  -3   0   6  263.47   20.41
   2   0  -6  457.68   35.03
   2   0  -6  471.35   36.62
   2   0  -6  484.08   35.26
  -2   0   6  447.69   35.96
  -2   0   6  493.09   35.03
  -2   0   6  480.93   35.94
  -2   0   6  449.78   36.48
   1   0  -6  715.68   55.21
   1   0  -6  753.88   54.41
   1   0  -6  835.43   55.92
  -1   0   6  645.29   55.51
  -1   0   6  689.64   55.22
   0   0  -6  407.41   30.61
   0   0  -6  388.57   31.29
   0   0  -6  429.17   30.73
   0   0  -6  427.44   31.62
   0   0  -6  448.15   32.06
   0   0   6  387.53   31.65
   0   0   6  404.54   31.37
   0   0   6  371.20   31.85
   0   0   6  425.46   30.65
  -1   0  -6  408.26   33.20
  -1   0  -6  454.31   33.54
  -1   0  -6  448.03   32.53
   1   0   6  459.20   32.54
   1   0   6  440.38   33.32
   1   0   6  405.48   33.73
   1   0   6  433.21   33.69
  -2   0  -6  526.16   37.62
  -2   0  -6  519.10   37.56
  -2   0  -6  448.29   37.20
  -2   0  -6  483.81   36.47
   2   0   6  498.87   36.46
   2   0   6  489.71   37.74
   2   0   6  454.47   37.68
  -3   0  -6  261.13   19.11
  -3   0  -6  249.40   19.15
  -3   0  -6  217.38   18.79
   3   0   6  231.32   19.36
   3   0   6  254.50   17.99
   3   0   6  242.38   18.97
   3   0   6  224.68   19.20
  -4   0  -6  286.71   24.67
  -4   0  -6  341.56   25.14
  -4   0  -6  319.62   23.79
   4   0   6  337.82   23.82
   4   0   6  302.87   25.05
   4   0   6  311.39   25.39
   4   0   6  328.33   24.96
  -5   0  -6  314.42   22.47
  -5   0  -6  335.30   24.04
  -5   0  -6  278.41   23.52
  -5   0  -6  290.10   22.45
   5   0   6  277.57   24.14
   5   0   6  291.20   23.79
   5   0   6  315.28   23.82
  -6   0  -6  208.61   15.76
  -6   0  -6  160.26   15.06
  -6   0  -6  185.24   14.02
   6   0   6  205.72   15.66
   6   0   6  185.24   15.41
   6   0   6  176.36   15.98
  -7   0  -6  364.24   27.56
  -7   0  -6  327.28   25.35
  -7   0  -6  307.61   27.11
   7   0   6  334.48   26.77
   7   0   6  378.25   27.34
   7   0   6  323.26   27.63
  -8   0  -6  199.88   18.79
  -8   0  -6  228.47   17.47
  -8   0  -6  258.96   19.60
   8   0   6  229.15   20.09
   8   0   6  268.71   19.75
   8   0   6  226.28   18.89
   8   0   6  220.57   18.29
  -9   0  -6   49.77    4.14
  -9   0  -6   57.50    6.23
  -9   0  -6   52.12    5.70
   9   0   6   50.08    6.58
   9   0   6   48.74    5.06
   9   0   6   63.24    6.50
   7  -1  -6   82.48    7.45
  -7   1   6   85.28    8.33
  -7   1   6  100.18    7.10
  -7   1   6   96.98    8.87
   6  -1  -6   82.15    7.76
   6  -1  -6   71.96    6.43
  -6   1   6   70.67    7.17
  -6   1   6   79.45    6.03
  -6   1   6   84.13    6.09
  -6   1   6   81.93    7.62
   5  -1  -6   26.17    2.58
   5  -1  -6   33.07    4.23
  -5   1   6   24.23    3.22
  -5   1   6   28.02    3.46
  -5   1   6   27.58    2.37
   4  -1  -6   73.99    6.03
   4  -1  -6   73.13    5.75
  -4   1   6   79.72    6.93
  -4   1   6   71.94    6.77
  -4   1   6   69.99    7.22
  -4   1   6   79.81    5.74
   3  -1  -6  114.32    9.09
   3  -1  -6  107.97    9.65
   3  -1  -6  133.76   10.79
   3  -1  -6  109.50    9.94
  -3   1   6  107.78    9.81
  -3   1   6  113.20   10.36
  -3   1   6  126.76    9.99
  -3   1   6  124.93    8.87
   2  -1  -6   56.14    4.52
   2  -1  -6   58.08    5.31
   2  -1  -6   59.77    5.59
   2  -1  -6   65.91    6.13
   2  -1  -6   60.09    4.75
  -2   1   6   62.63    4.53
  -2   1   6   56.90    5.51
  -2   1   6   52.47    5.78
  -2   1   6   60.55    5.44
   1  -1  -6  116.08    8.86
   1  -1  -6  110.02    9.42
   1  -1  -6  115.46    9.72
   1  -1  -6  135.25   10.33
   1  -1  -6  111.59    8.70
  -1   1   6  104.83    9.66
  -1   1   6  120.56    8.70
  -1   1   6  116.46    9.55
  -1   1   6  109.27   10.05
   0  -1  -6   97.75    7.88
   0  -1  -6   85.94    7.47
   0  -1  -6   79.24    7.16
   0  -1  -6   84.65    6.50
   0   1   6   84.49    7.58
   0   1   6   87.73    7.31
   0   1   6   81.95    7.75
  -1  -1  -6   66.61    5.65
  -1  -1  -6   57.59    5.37
  -1  -1  -6   50.66    5.04
  -1  -1  -6   58.22    4.42
   1   1   6   53.82    5.56
   1   1   6   62.78    4.43
   1   1   6   56.94    4.42
   1   1   6   55.71    5.47
  -2  -1  -6  433.80   32.22
  -2  -1  -6  381.81   32.27
  -2  -1  -6  454.41   32.26
   2   1   6  429.36   31.12
   2   1   6  427.08   32.00
   2   1   6  385.82   32.31
   2   1   6  406.36   32.39
  -3  -1  -6  232.77   17.63
  -3  -1  -6  245.81   17.89
  -3  -1  -6  202.16   17.46
   3   1   6  233.81   16.65
   3   1   6  202.78   17.78
   3   1   6  227.42   16.90
   3   1   6  212.00   17.99
   3   1   6  223.07   17.62
  -4  -1  -6  161.10   13.00
  -4  -1  -6  142.84   12.64
  -4  -1  -6  167.55   12.69
   4   1   6  162.87   12.88
   4   1   6  151.94   13.26
   4   1   6  153.49   12.96
   4   1   6  156.08   12.10
  -5  -1  -6  308.25   22.11
  -5  -1  -6  269.58   23.02
  -5  -1  -6  287.46   22.01
  -5  -1  -6  319.67   23.52
   5   1   6  283.82   23.25
   5   1   6  315.29   23.38
   5   1   6  291.91   22.50
   5   1   6  282.46   23.76
  -6  -1  -6  136.22   10.17
  -6  -1  -6  127.08   10.05
  -6  -1  -6  143.82   11.65
  -6  -1  -6  124.70   11.21
   6   1   6  133.75   12.02
   6   1   6  130.51   11.31
   6   1   6  145.84   11.62
   6   1   6  130.11   10.72
  -7  -1  -6    6.64    1.67
  -7  -1  -6    8.46    2.06
  -7  -1  -6    7.75    0.72
   7   1   6    8.24    1.71
   7   1   6    8.61    2.09
   7   1   6    8.32    1.50
  -8  -1  -6   50.76    5.67
  -8  -1  -6   64.82    6.35
  -8  -1  -6   55.89    4.39
   8   1   6   53.07    6.61
   8   1   6   67.68    6.49
   8   1   6   52.75    5.26
  -9  -1  -6   15.34    3.00
  -9  -1  -6   13.84    1.20
  -9  -1  -6   13.06    2.57
   9   1   6   11.92    2.12
   9   1   6   16.05    3.07
   6  -2  -6  140.89   11.86
   6  -2  -6  116.71   10.30
  -6   2   6  143.29   10.00
  -6   2   6  118.15   11.24
  -6   2   6  137.59   11.97
   5  -2  -6  127.81   10.77
   5  -2  -6  114.96    9.43
  -5   2   6  109.28   10.31
  -5   2   6  129.36   11.38
   4  -2  -6  146.94   12.04
  -4   2   6  148.98   11.93
  -4   2   6  122.79   12.06
  -4   2   6  132.93   11.73
  -4   2   6  147.96   10.57
   3  -2  -6  381.56   28.53
   3  -2  -6  351.95   27.40
   3  -2  -6  338.13   28.07
   3  -2  -6  372.66   27.14
   3  -2  -6  411.19   29.28
  -3   2   6  382.03   27.17
  -3   2   6  320.51   28.68
  -3   2   6  328.57   28.24
  -3   2   6  386.68   28.40
   2  -2  -6  362.39   27.41
   2  -2  -6  327.91   26.20
   2  -2  -6  405.12   28.12
   2  -2  -6  330.32   26.39
   2  -2  -6  336.53   27.07
  -2   2   6  372.37   27.31
  -2   2   6  334.72   27.32
  -2   2   6  305.87   27.66
  -2   2   6  383.91   26.22
   1  -2  -6  589.99   40.67
   1  -2  -6  494.56   39.79
   1  -2  -6  538.85   40.15
  -1   2   6  526.11   40.42
  -1   2   6  568.45   39.00
  -1   2   6  486.07   40.07
  -1   2   6  457.29   40.37
   0   2   6  842.48   64.24
  -1  -2  -6  521.35   36.90
  -1  -2  -6  443.89   36.46
   1   2   6  460.43   36.90
   1   2   6  500.05   35.75
   1   2   6  447.22   37.06
   1   2   6  501.05   36.63
  -2  -2  -6  440.67   37.06
  -2  -2  -6  550.23   37.47
  -2  -2  -6  499.41   37.41
   2   2   6  476.74   37.60
   2   2   6  488.49   36.55
   2   2   6  447.21   37.52
   2   2   6  504.87   37.25
   3   2   6  737.74   56.92
   3   2   6  755.72   57.07
  -4  -2  -6  157.70   13.99
  -4  -2  -6  183.12   13.94
  -4  -2  -6  186.35   14.41
   4   2   6  168.12   14.61
   4   2   6  172.66   13.48
   4   2   6  177.06   14.39
   4   2   6  179.75   14.22
  -5  -2  -6   71.49    6.00
  -5  -2  -6   75.02    6.63
   5   2   6   64.95    6.79
   5   2   6   68.52    6.42
   5   2   6   61.63    5.67
   5   2   6   70.63    6.42
  -6  -2  -6  268.08   20.17
  -6  -2  -6  241.24   18.49
  -6  -2  -6  215.15   19.56
  -6  -2  -6  270.18   18.72
   6   2   6  225.58   19.13
   6   2   6  267.18   20.05
   6   2   6  257.20   19.82
   6   2   6  238.37   20.46
  -7  -2  -6  146.34   11.37
  -7  -2  -6  137.28   12.64
  -7  -2  -6  159.79   13.14
  -7  -2  -6  152.85   11.59
   7   2   6  143.95   12.17
   7   2   6  161.44   12.63
   7   2   6  170.36   13.23
   7   2   6  143.69   13.51
  -8  -2  -6  120.90   10.62
  -8  -2  -6  105.21   10.13
  -8  -2  -6  109.38    8.73
   8   2   6  133.83   10.87
   8   2   6  114.06    9.73
  -9  -2  -6  118.67   11.46
  -9  -2  -6  124.67    9.91
  -9  -2  -6  142.19   12.09
   9   2   6  152.22   12.38
   9   2   6  123.95   11.03
   7  -3  -6   10.29    1.45
  -7   3   6    9.92    2.33
   6  -3  -6   49.83    4.60
   6  -3  -6   57.43    6.09
  -6   3   6   59.07    4.28
  -6   3   6   57.55    6.02
  -6   3   6   55.19    4.28
  -6   3   6   48.16    5.58
   5  -3  -6  178.97   13.14
   5  -3  -6  152.78   13.10
   5  -3  -6  180.71   14.60
  -5   3   6  166.53   12.99
  -5   3   6  180.00   12.83
  -5   3   6  158.91   14.19
  -5   3   6  173.49   14.44
   4  -3  -6   55.78    5.75
   4  -3  -6   70.28    6.95
   4  -3  -6   56.26    4.93
   4  -3  -6   63.94    4.88
   4  -3  -6   63.27    6.15
  -4   3   6   63.51    6.05
  -4   3   6   54.02    5.85
  -4   3   6   62.94    4.69
   3  -3  -6  133.32   11.43
   3  -3  -6  134.26   10.63
  -3   3   6  127.85   12.03
  -3   3   6  132.09   11.63
  -3   3   6  152.35   10.41
  -3   3   6  148.89   11.72
   2  -3  -6  268.04   22.54
   2  -3  -6  330.57   23.64
   2  -3  -6  278.04   21.61
   2  -3  -6  296.12   22.91
  -2   3   6  271.57   22.78
  -2   3   6  302.57   21.62
  -2   3   6  257.41   23.17
  -2   3   6  311.41   22.84
   1  -3  -6  114.61    9.14
   1  -3  -6  115.02   10.00
   1  -3  -6  140.24   10.84
   1  -3  -6  124.26   10.30
  -1   3   6  110.61   10.69
  -1   3   6  132.45   10.24
  -1   3   6  116.12   10.29
   0  -3  -6  126.51    9.78
   0  -3  -6   96.62    9.04
   0  -3  -6  105.90    8.30
   0  -3  -6  110.57    9.41
   0  -3  -6  121.73    8.33
   0   3   6  104.91    9.45
   0   3   6  112.31    9.24
   0   3   6  105.74    9.80
  -1  -3  -6  151.63   13.00
  -1  -3  -6  164.21   12.22
  -1  -3  -6  168.96   13.34
  -1  -3  -6  176.34   13.44
   1   3   6  171.43   13.16
   1   3   6  152.80   13.64
   1   3   6  155.44   13.41
  -2  -3  -6   28.49    3.01
  -2  -3  -6   22.06    2.68
  -2  -3  -6   26.86    3.03
   2   3   6   23.80    3.15
   2   3   6   25.91    3.15
   2   3   6   27.03    2.00
   2   3   6   26.46    2.20
  -3  -3  -6   86.90    8.12
  -3  -3  -6  103.70    8.23
  -3  -3  -6  103.01    8.51
   3   3   6  100.67    7.27
   3   3   6   90.79    8.55
   3   3   6   99.55    8.26
   3   3   6   92.33    8.64
   3   3   6   99.12    7.60
  -4  -3  -6  251.64   19.02
  -4  -3  -6  220.54   18.63
  -4  -3  -6  251.61   18.53
   4   3   6  246.71   18.83
   4   3   6  227.28   18.10
   4   3   6  230.93   19.22
   4   3   6  229.14   18.98
  -5  -3  -6  118.29   10.82
  -5  -3  -6  137.13   11.25
  -5  -3  -6  141.74   10.61
   5   3   6  127.21   11.54
   5   3   6  122.81   10.36
   5   3   6  140.39   11.13
   5   3   6  132.05   11.12
  -6  -3  -6  112.45   10.15
  -6  -3  -6  118.68    8.96
   6   3   6  121.08   10.17
   6   3   6  108.92   10.54
   6   3   6  119.92    9.94
  -7  -3  -6  164.41   13.38
  -7  -3  -6  173.36   11.97
  -7  -3  -6  134.32   12.79
   7   3   6  153.04   12.53
   7   3   6  173.83   13.47
   7   3   6  137.62   13.65
  -8  -3  -6   22.98    3.31
  -8  -3  -6   15.59    2.66
   8   3   6   18.09    2.50
   8   3   6   22.07    3.25
   8   3   6   22.12    2.39
   7  -4  -6   44.94    4.11
   6  -4  -6   59.62    5.46
   6  -4  -6   67.23    5.60
   6  -4  -6   70.36    7.91
  -6   4   6   71.29    5.23
  -6   4   6   60.65    6.63
  -6   4   6   69.72    7.03
   5  -4  -6  189.19   15.41
   5  -4  -6  165.26   13.83
  -5   4   6  164.56   15.01
  -5   4   6  190.51   13.55
  -5   4   6  195.86   15.41
  -5   4   6  175.69   13.72
   4  -4  -6  177.73   16.11
   4  -4  -6  221.47   16.73
   4  -4  -6  186.59   15.21
  -4   4   6  211.98   16.55
  -4   4   6  214.46   14.96
  -4   4   6  197.53   15.26
  -4   4   6  186.30   16.39
   3  -4  -6  112.69    9.47
   3  -4  -6   96.73    8.98
  -3   4   6  107.09    7.91
  -3   4   6   94.68    9.13
  -3   4   6  113.72    9.33
   2  -4  -6  286.63   22.52
   2  -4  -6  287.88   23.58
   2  -4  -6  339.56   24.56
   2  -4  -6  320.07   23.97
  -2   4   6  317.86   23.81
  -2   4   6  327.51   22.54
  -2   4   6  256.99   24.10
  -2   4   6  278.95   23.77
   1  -4  -6  239.23   18.78
   1  -4  -6  265.81   20.09
   1  -4  -6  278.80   20.52
   1  -4  -6  267.57   18.86
   1  -4  -6  228.74   19.68
  -1   4   6  231.83   19.98
  -1   4   6  228.81   20.44
  -1   4   6  271.89   19.97
   0  -4  -6  133.38   11.00
   0  -4  -6  140.10   11.25
   0  -4  -6  129.14    9.80
   0  -4  -6  121.99   10.66
   0   4   6  128.81   11.05
   0   4   6  120.00   11.37
   0   4   6  142.36   10.87
  -1  -4  -6  553.84   44.46
  -1  -4  -6  638.83   44.96
   1   4   6  550.10   45.23
   1   4   6  598.75   44.98
  -2  -4  -6  563.53   46.75
  -2  -4  -6  665.05   47.07
  -2  -4  -6  677.28   47.25
   2   4   6  603.61   47.29
   2   4   6  573.39   47.50
  -3  -4  -6  334.95   28.38
  -3  -4  -6  382.36   28.48
  -3  -4  -6  416.87   28.91
   3   4   6  351.36   28.94
   3   4   6  340.59   28.99
   3   4   6  367.42   27.85
   3   4   6  390.70   28.59
  -4  -4  -6  534.32   39.54
  -4  -4  -6  547.59   40.09
  -4  -4  -6  483.37   39.68
   4   4   6  520.29   40.40
   4   4   6  557.48   39.92
   4   4   6  489.81   40.16
   4   4   6  506.13   39.17
  -5  -4  -6  272.38   22.76
  -5  -4  -6  306.96   22.41
  -5  -4  -6  309.42   23.19
   5   4   6  277.29   22.27
   5   4   6  292.03   23.06
   5   4   6  265.89   23.48
   5   4   6  312.14   23.08
  -6  -4  -6   83.21    7.68
  -6  -4  -6   91.47    6.61
  -6  -4  -6   72.95    7.30
   6   4   6   78.44    6.93
   6   4   6   85.66    7.61
   6   4   6   89.46    7.41
   6   4   6   80.32    8.08
  -7  -4  -6  139.30   11.59
  -7  -4  -6  140.36   10.22
  -7  -4  -6  112.44   11.01
   7   4   6  141.19   11.55
   7   4   6  123.15   10.70
   7   4   6  135.46   10.80
  -8  -4  -6   67.98    7.33
  -8  -4  -6   86.53    7.96
  -8  -4  -6   85.05    6.48
   8   4   6   92.40    8.27
   8   4   6   72.47    7.08
   8   4   6   83.70    6.96
  -9  -4  -6   25.70    3.00
  -9  -4  -6   24.81    3.73
   9   4   6   25.88    3.18
   7  -5  -6   13.36    1.70
   7  -5  -6   12.88    1.87
   7  -5  -6   17.46    3.70
  -7   5   6   16.13    3.33
  -7   5   6   14.16    2.90
   6  -5  -6    8.90    1.27
   6  -5  -6   10.06    2.80
  -6   5   6   11.96    2.62
  -6   5   6    9.79    1.00
  -6   5   6    9.73    2.30
   5  -5  -6   15.98    2.81
   5  -5  -6   18.49    3.39
   5  -5  -6   13.03    1.58
   5  -5  -6   13.18    2.42
  -5   5   6   16.92    2.86
  -5   5   6   14.09    1.46
  -5   5   6   14.37    2.62
   4  -5  -6  115.43    9.77
   4  -5  -6  123.68   10.85
   4  -5  -6  130.97   11.25
  -4   5   6  123.47    9.83
  -4   5   6  138.35   11.24
   3  -5  -6   21.42    2.90
   3  -5  -6   23.41    3.23
   3  -5  -6   28.10    3.77
  -3   5   6   24.49    3.18
  -3   5   6   22.43    2.25
  -3   5   6   20.65    3.04
  -3   5   6   25.02    1.86
   2  -5  -6   64.78    6.00
   2  -5  -6   69.37    6.48
   2  -5  -6   53.40    5.56
  -2   5   6   62.54    5.81
  -2   5   6   55.23    5.80
  -2   5   6   57.20    5.04
   1  -5  -6  325.50   28.82
   1  -5  -6  375.09   29.21
   1  -5  -6  399.18   28.01
   1  -5  -6  421.00   29.72
   1  -5  -6  348.05   27.84
  -1   5   6  344.29   29.15
  -1   5   6  404.56   29.17
   0  -5  -6  305.44   21.53
   0  -5  -6  272.95   21.13
   0  -5  -6  289.29   20.02
   0  -5  -6  235.77   20.74
   0  -5  -6  252.17   19.83
   0   5   6  277.24   20.95
   0   5   6  233.92   21.47
   0   5   6  261.02   21.18
  -1  -5  -6   25.22    2.99
  -1  -5  -6   27.16    2.22
  -1  -5  -6   27.87    3.30
  -1  -5  -6   33.91    3.52
  -1  -5  -6   29.67    2.42
   1   5   6   25.70    3.58
   1   5   6   31.25    3.22
   1   5   6   30.46    3.46
  -2  -5  -6  148.82   13.27
  -2  -5  -6  172.21   13.67
  -2  -5  -6  178.81   12.68
  -2  -5  -6  171.84   13.54
   2   5   6  144.93   13.88
   2   5   6  182.95   13.53
   2   5   6  161.80   13.81
  -3  -5  -6   21.22    1.93
  -3  -5  -6   20.39    2.72
  -3  -5  -6   21.26    2.49
  -3  -5  -6   19.26    2.45
   3   5   6   20.25    1.97
   3   5   6   21.26    2.90
   3   5   6   19.54    2.85
   3   5   6   21.61    2.56
  -4  -5  -6   47.39    4.83
  -4  -5  -6   56.47    4.31
  -4  -5  -6   51.23    4.71
  -4  -5  -6   53.75    5.20
   4   5   6   48.06    4.37
   4   5   6   59.57    5.20
   4   5   6   47.81    5.20
   4   5   6   49.55    5.38
  -5  -5  -6   80.95    6.45
  -5  -5  -6   70.86    7.11
   5   5   6   76.77    7.47
   5   5   6   85.24    7.07
   5   5   6   72.97    6.37
   5   5   6   70.21    6.60
  -6  -5  -6   57.47    4.59
  -6  -5  -6   57.95    4.50
  -6  -5  -6   49.37    5.19
   6   5   6   50.03    4.83
   6   5   6   59.46    5.51
   6   5   6   50.53    4.99
  -7  -5  -6   25.04    2.52
  -7  -5  -6   20.50    2.83
   7   5   6   19.55    2.52
   7   5   6   24.36    3.18
   7   5   6   21.69    2.56
  -8  -5  -6  125.31   10.75
  -8  -5  -6  127.43    9.31
  -8  -5  -6  110.56   10.24
   8   5   6  119.61   10.06
   8   5   6  108.53    9.92
  -9  -5  -6   30.93    4.08
  -9  -5  -6   31.76    2.73
  -9  -5  -6   26.34    3.59
   9   5   6   27.86    3.43
   6  -6  -6  124.07   10.22
   6  -6  -6  117.10   11.46
   6  -6  -6  138.34   12.89
  -6   6   6  142.82   12.21
  -6   6   6  125.38   11.73
  -6   6   6  135.05    9.99
   5  -6  -6   71.41    7.46
   5  -6  -6   85.53    8.04
   5  -6  -6   73.74    6.31
  -5   6   6   87.23    8.10
  -5   6   6   73.45    7.70
  -5   6   6   82.14    6.28
   4  -6  -6  221.20   16.86
   4  -6  -6  174.33   16.17
  -4   6   6  202.35   15.22
  -4   6   6  220.06   16.78
  -4   6   6  172.61   17.12
   3  -6  -6  349.56   30.55
   3  -6  -6  434.55   31.20
  -3   6   6  381.31   29.75
  -3   6   6  381.99   30.94
  -3   6   6  418.79   31.01
   2  -6  -6  163.15   12.75
   2  -6  -6  131.85   12.21
  -2   6   6  137.53   12.53
  -2   6   6  161.01   12.60
  -2   6   6  147.95   11.64
   1  -6  -6  131.76   11.09
   1  -6  -6  141.87   11.50
   1  -6  -6  123.61    9.63
   1  -6  -6  115.31   10.71
   1  -6  -6  144.24    9.91
  -1   6   6  115.35   10.20
  -1   6   6  140.09   11.03
  -1   6   6  119.60   11.00
   0  -6  -6  298.21   23.00
   0  -6  -6  307.66   23.26
   0  -6  -6  326.39   21.90
   0  -6  -6  269.55   21.65
   0  -6  -6  262.20   22.64
   0   6   6  316.05   22.90
   0   6   6  264.12   22.94
   0   6   6  276.28   22.29
  -1  -6  -6  199.72   15.72
  -1  -6  -6  192.13   16.68
  -1  -6  -6  221.34   16.00
  -1  -6  -6  223.74   17.11
  -1  -6  -6  220.36   17.13
   1   6   6  206.38   17.12
   1   6   6  190.96   16.41
   1   6   6  230.20   16.93
  -2  -6  -6  342.63   25.03
  -2  -6  -6  337.98   24.03
  -2  -6  -6  331.66   25.06
  -2  -6  -6  289.44   24.66
   2   6   6  293.99   25.09
   2   6   6  280.77   24.44
   2   6   6  348.97   24.89
  -3  -6  -6  483.29   33.21
  -3  -6  -6  441.36   33.87
  -3  -6  -6  471.02   34.26
  -3  -6  -6  416.39   33.84
   3   6   6  420.90   33.24
   3   6   6  425.08   34.39
   3   6   6  483.65   34.90
   3   6   6  383.68   33.61
  -4  -6  -6  301.27   23.28
  -4  -6  -6  318.22   22.44
  -4  -6  -6  272.63   22.93
  -4  -6  -6  298.17   22.79
   4   6   6  326.49   23.18
   4   6   6  290.84   23.58
   4   6   6  260.83   22.74
   4   6   6  279.87   22.42
  -5  -6  -6  376.42   25.98
  -5  -6  -6  347.59   26.18
  -5  -6  -6  373.49   27.01
  -5  -6  -6  319.42   26.55
   5   6   6  319.53   26.11
   5   6   6  312.40   26.39
  -6  -6  -6  335.72   23.97
  -6  -6  -6  342.63   25.17
  -6  -6  -6  300.04   24.71
   6   6   6  300.46   25.07
   6   6   6  294.62   24.29
  -7  -6  -6  113.15    8.26
  -7  -6  -6   91.90    8.97
  -7  -6  -6  107.09    9.41
   7   6   6  100.86    8.73
   7   6   6  117.40   10.13
   7   6   6   93.39    8.69
  -8  -6  -6   88.22    7.03
  -8  -6  -6   84.09    8.21
   8   6   6   76.22    8.59
   8   6   6   86.84    7.46
   8   6   6   98.29    9.72
   6  -7  -6   21.96    3.66
   6  -7  -6   33.21    5.71
   6  -7  -6   27.87    4.21
   6  -7  -6   24.67    2.50
  -6   7   6   29.55    4.22
  -6   7   6   28.26    2.38
  -6   7   6   24.53    3.89
   5  -7  -6   48.62    4.29
   5  -7  -6   55.67    6.02
   5  -7  -6   48.74    5.55
  -5   7   6   49.87    4.27
  -5   7   6   49.34    5.78
  -5   7   6   57.64    6.08
   4  -7  -6    9.18    2.32
   4  -7  -6   11.84    2.82
  -4   7   6    8.51    2.24
  -4   7   6   12.07    1.34
  -4   7   6    9.03    2.26
   3  -7  -6   56.40    5.74
   3  -7  -6   59.43    6.18
   3  -7  -6   42.97    5.17
  -3   7   6   48.35    5.49
  -3   7   6   59.35    5.73
  -3   7   6   48.70    4.43
   2  -7  -6   48.72    5.19
   2  -7  -6   54.37    5.54
  -2   7   6   50.60    5.42
  -2   7   6   51.68    4.51
  -2   7   6   54.99    5.44
   1  -7  -6   91.52    6.70
   1  -7  -6   85.58    7.87
   1  -7  -6   95.10    8.31
   1  -7  -6   77.83    7.55
  -1   7   6   94.00    9.34
  -1   7   6   76.28    6.95
  -1   7   6   75.89    7.73
   0  -7  -6  247.45   16.75
   0  -7  -6  203.13   17.52
   0  -7  -6  208.41   16.36
   0  -7  -6  228.87   17.88
   0  -7  -6  240.07   18.18
   0   7   6  202.73   17.08
   0   7   6  207.94   17.83
  -1  -7  -6  386.43   28.81
  -1  -7  -6  403.80   27.70
  -1  -7  -6  392.23   28.92
  -1  -7  -6  330.83   28.36
   1   7   6  326.99   28.05
   1   7   6  390.31   28.69
   1   7   6  336.57   28.71
  -2  -7  -6  114.50    8.51
  -2  -7  -6  111.98    9.42
  -2  -7  -6  117.67    9.54
  -2  -7  -6   93.35    9.05
   2   7   6   98.97    9.48
   2   7   6  120.34    8.19
   2   7   6   96.60    8.89
   2   7   6  112.66    9.29
  -3  -7  -6  200.60   16.54
  -3  -7  -6  232.75   16.47
  -3  -7  -6  206.82   16.80
   3   7   6  184.99   16.86
   3   7   6  211.80   16.56
  -4  -7  -6   79.37    6.82
  -4  -7  -6   75.51    6.96
  -4  -7  -6   85.16    6.38
  -4  -7  -6   82.25    7.28
   4   7   6   67.26    6.73
  -5  -7  -6   21.24    2.74
  -5  -7  -6   22.54    2.45
  -5  -7  -6   24.26    3.05
   5   7   6   20.02    2.60
   5   7   6   20.99    2.39
  -6  -7  -6   30.77    2.79
  -6  -7  -6   27.81    3.47
  -6  -7  -6   25.84    3.22
  -6  -7  -6   27.89    2.58
  -6  -7  -6   28.57    2.63
   6   7   6   23.58    2.86
   6   7   6   24.23    3.04
   6   7   6   32.10    3.53
  -7  -7  -6   62.62    6.08
  -7  -7  -6   54.08    5.74
  -7  -7  -6   69.85    5.22
   7   7   6   61.07    5.58
   7   7   6   53.89    5.47
  -8  -7  -6    1.96    1.10
  -8  -7  -6    1.70    0.95
   8   7   6    3.36    1.14
   8   7   6    3.53    1.28
   5  -8  -6   87.65    9.28
   5  -8  -6  108.84    9.95
   5  -8  -6  117.70   10.81
   5  -8  -6   87.69    7.90
  -5   8   6   98.09    8.20
  -5   8   6  115.66   10.09
  -5   8   6   93.74    9.57
   4  -8  -6  155.47   13.26
   4  -8  -6  168.70   13.99
   4  -8  -6  128.10   12.63
  -4   8   6  134.43   13.01
  -4   8   6  164.85   13.31
  -4   8   6  138.57   11.57
   3  -8  -6  203.85   16.33
   3  -8  -6  218.62   16.96
   3  -8  -6  169.17   15.71
  -3   8   6  179.65   14.79
  -3   8   6  176.63   16.02
  -3   8   6  199.34   16.19
   2  -8  -6  296.82   25.68
   2  -8  -6  348.42   26.23
  -2   8   6  358.72   26.11
  -2   8   6  304.73   25.99
  -2   8   6  320.79   24.93
   1  -8  -6  309.57   23.33
   1  -8  -6  294.86   22.89
   1  -8  -6  242.76   22.33
   1  -8  -6  321.82   21.57
  -1   8   6  298.07   22.74
  -1   8   6  255.65   22.66
  -1   8   6  262.76   21.81
   0  -8  -6  140.98   13.23
   0  -8  -6  166.91   13.65
   0  -8  -6  180.17   14.08
   0  -8  -6  178.82   12.51
   0   8   6  173.88   13.54
   0   8   6  149.55   13.56
   0   8   6  142.30   12.78
  -1  -8  -6  218.48   18.27
  -1  -8  -6  240.15   18.75
  -1  -8  -6  245.31   18.81
  -1  -8  -6  214.89   17.04
   1   8   6  250.56   18.46
   1   8   6  255.41   17.24
   1   8   6  202.13   17.82
   1   8   6  203.35   18.47
  -2  -8  -6  129.24   10.80
  -2  -8  -6  143.14   11.60
  -2  -8  -6  134.70    9.82
  -2  -8  -6  116.28   10.45
   2   8   6  107.59   11.64
   2   8   6  104.71   10.13
   2   8   6  138.27    9.46
  -3  -8  -6   42.08    4.29
  -3  -8  -6   36.69    4.11
  -3  -8  -6   43.05    4.48
  -3  -8  -6   44.16    3.61
   3   8   6   38.41    4.00
  -4  -8  -6  134.47   11.61
  -4  -8  -6  150.80   11.63
  -4  -8  -6  152.56   12.00
   4   8   6  119.74   11.40
  -5  -8  -6  120.69   10.57
  -5  -8  -6  140.08   10.04
  -5  -8  -6  125.69   10.25
  -5  -8  -6  135.20   10.91
   5   8   6  109.71   10.38
   5   8   6  120.36   10.17
  -6  -8  -6   54.54    5.72
  -6  -8  -6   62.13    4.85
  -6  -8  -6   49.16    5.30
  -6  -8  -6   55.66    4.69
   6   8   6   64.99    5.70
   6   8   6   52.44    5.22
   6   8   6   45.11    4.93
  -7  -8  -6   83.61    8.07
  -7  -8  -6   99.14    7.31
  -7  -8  -6   92.68    8.21
   7   8   6   87.76    7.74
   7   8   6   77.00    8.01
   8   8   6   83.91    7.36
   5  -9  -6   15.68    3.06
   5  -9  -6   21.87    3.58
  -5   9   6   20.71    3.60
  -5   9   6   17.80    3.35
  -5   9   6   19.57    2.01
   4  -9  -6   64.87    6.88
  -4   9   6   57.16    5.22
  -4   9   6   68.89    8.10
  -4   9   6   59.38    6.81
   3  -9  -6   27.08    3.89
   3  -9  -6   30.78    4.35
   3  -9  -6   22.13    3.30
  -3   9   6   22.38    2.46
  -3   9   6   24.44    3.59
  -3   9   6   20.49    3.48
   2  -9  -6   18.96    3.10
   2  -9  -6   14.78    2.60
   2  -9  -6   18.08    3.33
  -2   9   6   16.60    2.82
  -2   9   6   15.66    1.98
   1  -9  -6   22.38    3.50
   1  -9  -6   19.89    3.10
   1  -9  -6   17.06    2.78
   1  -9  -6   22.06    2.10
  -1   9   6   21.45    3.03
  -1   9   6   18.70    2.25
   0  -9  -6   23.17    3.42
   0  -9  -6   16.98    2.68
   0  -9  -6   22.25    2.10
   0  -9  -6   20.18    3.01
   0   9   6   21.63    2.89
   0   9   6   18.95    2.35
   0   9   6   19.11    1.82
  -1  -9  -6   17.64    2.62
  -1  -9  -6   20.04    3.08
  -1  -9  -6   19.16    2.88
   1   9   6   21.57    2.81
   1   9   6   17.08    2.29
   1   9   6   19.50    1.69
  -2  -9  -6  142.62   11.68
  -2  -9  -6  138.78   11.52
  -2  -9  -6  124.25   11.20
   2   9   6  143.89   10.12
   2   9   6  116.59   10.88
  -3  -9  -6   38.39    4.20
  -3  -9  -6   39.47    3.37
  -3  -9  -6   39.21    4.16
  -3  -9  -6   33.95    3.87
   3   9   6   31.39    3.69
  -4  -9  -6   30.68    3.63
  -4  -9  -6   32.42    3.65
  -4  -9  -6   34.37    3.17
   4   9   6   29.37    3.52
   4   9   6   39.81    3.92
  -5  -9  -6   71.82    6.84
  -5  -9  -6   81.12    7.17
  -5  -9  -6   78.14    6.65
   5   9   6   69.79    6.76
  -6  -9  -6   66.69    5.95
  -6  -9  -6   69.25    6.74
  -6  -9  -6   73.88    6.07
  -6  -9  -6   69.40    5.96
   6   9   6   64.56    6.49
   6   9   6   82.77    6.94
  -7  -9  -6   17.79    2.71
  -7  -9  -6   16.15    2.50
   7   9   6   17.36    2.50
   7   9   6   15.46    2.45
   4 -10  -6   33.33    4.63
  -4  10   6   29.63    3.01
   3 -10  -6   68.95    7.69
   3 -10  -6   88.61    8.39
  -3  10   6   90.65    8.33
  -3  10   6   75.43    6.73
   2 -10  -6  102.45    9.34
   2 -10  -6  103.79    9.80
   2 -10  -6  110.31    7.85
   2 -10  -6   78.94    8.65
  -2  10   6   85.85    7.56
  -2  10   6  103.17    9.22
  -2  10   6   86.86    7.90
   1 -10  -6  125.37   12.24
   1 -10  -6  167.27   11.43
   1 -10  -6  159.12   12.93
  -1  10   6  130.55   11.58
  -1  10   6  141.28   11.15
   0 -10  -6  248.65   19.53
   0 -10  -6  230.38   18.96
   0 -10  -6  203.04   18.58
   0 -10  -6  255.65   17.80
   0  10   6  229.11   17.50
   0  10   6  243.92   18.94
   0  10   6  201.97   18.01
  -1 -10  -6  117.68   10.21
  -1 -10  -6  122.98   10.62
  -1 -10  -6   98.74    9.75
  -1 -10  -6  121.54    9.10
   1  10   6  125.01   10.13
   1  10   6   94.74    9.37
   1  10   6  114.14    8.71
  -2 -10  -6  103.09   10.16
  -2 -10  -6  126.25   10.83
  -2 -10  -6  117.87   10.50
  -2 -10  -6  129.29    9.61
   2  10   6  101.47    9.91
   2  10   6  127.01    9.13
   2  10   6  133.68   10.86
  -3 -10  -6  198.40   16.07
  -3 -10  -6  175.61   15.67
  -3 -10  -6  207.08   15.10
   3  10   6  222.35   16.30
   3  10   6  162.65   15.46
  -4 -10  -6   82.90    7.68
  -4 -10  -6   89.35    7.08
  -4 -10  -6   78.09    7.56
  -4 -10  -6   85.68    7.85
   4  10   6   72.89    7.46
   4  10   6   99.70    7.94
  -5 -10  -6   58.06    6.84
  -5 -10  -6   73.82    5.84
  -5 -10  -6   73.47    6.52
  -5 -10  -6   67.15    6.09
   5  10   6   59.18    6.17
  -6 -10  -6   73.83    7.09
  -6 -10  -6   85.29    7.68
  -6 -10  -6   78.05    6.65
   6  10   6   78.51    7.87
   3 -11  -6   47.93    5.86
   3 -11  -6   63.41    6.63
  -3  11   6   54.24    4.62
  -3  11   6   51.84    5.09
   2 -11  -6   72.48    5.40
   2 -11  -6   52.94    6.24
   2 -11  -6   65.34    6.90
  -2  11   6   56.77    5.46
  -2  11   6   60.04    5.09
   1 -11  -6   19.62    3.71
   1 -11  -6   14.45    3.19
   1 -11  -6   17.24    3.14
   1 -11  -6   18.83    2.08
  -1  11   6   16.99    1.76
  -1  11   6   15.63    2.16
   0 -11  -6   23.26    3.69
   0 -11  -6   22.06    2.34
   0 -11  -6   18.37    3.62
   0 -11  -6   21.53    3.32
   0  11   6   20.67    1.94
   0  11   6   20.70    3.13
   0  11   6   17.28    2.45
  -1 -11  -6   58.85    5.99
  -1 -11  -6   56.09    7.37
  -1 -11  -6   62.94    4.98
  -1 -11  -6   48.63    5.83
   1  11   6   45.11    5.22
   1  11   6   57.70    4.51
   1  11   6   64.30    5.98
   2  11   6    8.12    0.86
  -3 -11  -6   39.78    3.02
  -3 -11  -6   39.91    4.50
  -3 -11  -6   39.71    4.65
  -3 -11  -6   43.58    3.77
  -3 -11  -6   38.27    4.33
   3  11   6   35.20    4.11
  -4 -11  -6   35.87    2.70
  -4 -11  -6   35.36    4.07
  -4 -11  -6   32.66    3.82
  -4 -11  -6   35.84    4.07
   4  11   6   30.92    3.81
  -5 -11  -6   14.66    2.45
  -5 -11  -6   16.21    2.36
  -5 -11  -6   15.61    1.30
  -5 -11  -6   13.59    2.22
   5  11   6   12.67    2.33
   0 -12  -6   45.68    5.14
   0 -12  -6   40.76    6.22
   0  12   6   41.60    3.53
   0  12   6   37.60    4.18
  -1 -12  -6   78.59    8.33
  -1 -12  -6  101.70   10.69
  -1 -12  -6   92.50    8.57
   1  12   6   92.58    6.98
   1  12   6   82.25    7.89
  -2 -12  -6   93.18    8.60
  -2 -12  -6  102.48    9.25
  -2 -12  -6   82.93    8.75
   2  12   6   87.31    9.00
  -1   7  -7  172.23   13.49
   1  -7   7  196.37   13.97
   1  -7   7  161.66   14.44
   1  -7   7  188.96   14.34
   1  -7   7  166.48   16.33
   2  -7   7  120.97   11.46
   2  -7   7  140.55   11.20
  -2  -6   7   36.64    6.91
  -2  -6   7   45.28    3.75
   1   6  -7   82.14    6.82
  -1  -6   7   91.31    7.11
  -1  -6   7   87.10   11.11
   0   6  -7   52.22    4.05
   0  -6   7   54.92    4.40
   0  -6   7   44.61    6.63
   0  -6   7   53.31    4.61
   0  -6   7   45.27    4.71
  -1   6  -7   59.46    5.21
  -1   6  -7   53.26    4.37
   1  -6   7   56.37    5.18
   1  -6   7   49.93    5.41
  -2   6  -7   62.81    5.78
  -2   6  -7   57.91    4.62
   2  -6   7   49.61    7.00
   2  -6   7   59.40    4.84
   2  -6   7   58.68    5.63
  -3   6  -7   26.13    2.45
  -3   6  -7   26.95    2.29
   3  -6   7   25.02    4.18
   3  -6   7   26.39    3.85
   3  -6   7   27.10    3.43
  -4   6  -7   46.23    3.79
  -4   6  -7   45.67    3.84
   4  -6   7   49.16    5.27
   4  -6   7   43.17    5.94
   4  -6   7   47.42    5.79
  -5   6  -7   55.59    4.99
  -5   6  -7   61.94    5.03
   5  -6   7   62.45    7.46
   5  -6   7   69.58    6.85
  -3  -5   7  146.00   10.83
  -3  -5   7  121.75   12.49
  -3  -5   7  148.71   11.19
   2   5  -7   76.74    6.35
  -2  -5   7   84.41    6.27
  -2  -5   7   72.05    8.14
  -2  -5   7   82.78    6.50
  -2  -5   7   87.43    6.88
   1   5  -7  134.71   10.97
  -1  -5   7  167.34   11.67
  -1  -5   7  132.57   13.03
  -1  -5   7  151.98   11.24
  -1  -5   7  140.16   11.42
  -1  -5   7  157.05   11.10
  -1  -5   7  127.87   11.47
   0   5  -7  239.47   16.92
   0   5  -7  207.96   16.13
   0  -5   7  207.73   16.80
   0  -5   7  193.33   17.00
   0  -5   7  231.51   16.23
   0  -5   7  186.90   18.12
   0  -5   7  226.61   16.42
  -1   5  -7  157.25   12.09
  -1   5  -7  174.93   13.14
   1  -5   7  162.16   13.02
   1  -5   7  149.42   13.31
   1  -5   7  146.30   14.18
   1  -5   7  164.00   12.58
  -2   5  -7  212.49   16.41
   2  -5   7  205.88   17.92
   2  -5   7  235.83   16.70
   2  -5   7  232.26   17.62
   2  -5   7  200.22   18.59
  -3   5  -7  206.65   15.92
  -3   5  -7  189.04   15.95
  -3   5  -7  232.67   17.43
   3  -5   7  213.03   17.24
   3  -5   7  202.64   17.78
   3  -5   7  239.69   16.47
   3  -5   7  193.66   18.10
  -4   5  -7  135.03   10.95
  -4   5  -7  144.81   10.94
  -4   5  -7  159.48   12.60
   4  -5   7  127.82   13.04
   4  -5   7  135.59   13.01
   4  -5   7  154.35   12.54
  -5   5  -7  207.19   15.38
  -5   5  -7  187.57   15.35
   5  -5   7  233.56   17.35
   5  -5   7  179.73   18.47
  -6   5  -7  177.91   13.22
   6  -5   7  154.40   15.35
   6  -5   7  193.22   15.37
   6  -5   7  165.13   15.81
   4   4  -7   17.33    2.09
  -4  -4   7   17.49    3.14
  -4  -4   7   21.44    2.18
   3   4  -7   70.96    6.23
  -3  -4   7   78.76    5.91
  -3  -4   7   70.95    7.72
  -3  -4   7   82.30    6.40
  -3  -4   7   85.29    6.08
  -3  -4   7   72.73    6.25
  -3  -4   7   70.40    6.21
  -3  -4   7   78.86    6.03
   2   4  -7   93.06    7.66
   2   4  -7  106.54    8.07
   2   4  -7   96.63    7.89
  -2  -4   7   98.27    8.15
  -2  -4   7  103.06    7.80
  -2  -4   7  101.50    7.68
  -2  -4   7   93.13    8.13
  -2  -4   7   92.57    9.44
  -2  -4   7  111.63    7.81
   1   4  -7   63.66    5.04
   1   4  -7   59.69    4.87
   1   4  -7   67.07    5.55
  -1  -4   7   60.28    5.46
  -1  -4   7   55.00    5.53
  -1  -4   7   69.47    4.99
  -1  -4   7   55.67    6.54
  -1  -4   7   67.20    5.06
   0   4  -7  168.01   12.49
   0   4  -7  146.72   11.55
   0  -4   7  164.66   11.64
   0  -4   7  140.66   12.53
   0  -4   7  132.77   13.29
   0  -4   7  162.63   11.76
   0  -4   7  148.96   12.32
  -1   4  -7  131.00   10.35
  -1   4  -7  151.30   11.50
   1  -4   7  130.97   11.63
   1  -4   7  140.63   11.29
   1  -4   7  146.25   10.43
   1  -4   7  115.03   12.05
  -2   4  -7   89.73    7.57
  -2   4  -7   79.01    6.31
   2  -4   7   79.53    7.76
   2  -4   7   85.66    6.36
   2  -4   7   73.19    8.09
  -3   4  -7  152.93   12.01
  -3   4  -7  175.20   13.48
  -3   4  -7  147.92   12.03
   3  -4   7  138.71   13.86
   3  -4   7  152.70   13.78
   3  -4   7  168.95   12.05
   3  -4   7  169.20   13.35
  -4   4  -7   79.58    6.40
  -4   4  -7   79.91    6.39
  -4   4  -7   92.90    7.96
   4  -4   7   91.24    6.42
   4  -4   7   72.08    8.14
   4  -4   7   76.86    8.24
  -5   4  -7   32.16    2.79
  -5   4  -7   37.26    4.38
  -5   4  -7   30.53    2.80
   5  -4   7   33.00    4.69
   5  -4   7   29.68    4.40
   5  -4   7   38.28    4.38
  -6   4  -7   78.25    7.43
  -6   4  -7   66.79    5.63
  -6   4  -7   67.48    5.59
   6  -4   7   67.08    7.89
   6  -4   7   66.29    7.51
   6  -4   7   81.92    7.59
  -7   4  -7   44.84    3.74
   7  -4   7   43.62    6.11
   7  -4   7   43.55    5.91
   7  -4   7   55.63    7.30
   5   3  -7  140.65   11.78
  -5  -3   7  141.43   13.14
  -5  -3   7  144.07   11.79
  -5  -3   7  164.33   11.63
   4   3  -7  214.14   17.19
   4   3  -7  172.75   15.18
   4   3  -7  220.38   15.52
  -4  -3   7  207.54   14.84
  -4  -3   7  207.68   15.20
  -4  -3   7  209.15   14.97
  -4  -3   7  186.24   15.39
  -4  -3   7  177.92   15.31
  -4  -3   7  167.18   16.49
   3   3  -7  202.81   16.80
   3   3  -7  244.04   18.84
   3   3  -7  241.29   17.28
  -3  -3   7  238.52   16.68
  -3  -3   7  198.94   17.04
  -3  -3   7  203.58   17.07
  -3  -3   7  227.93   16.55
  -3  -3   7  195.43   18.23
   2   3  -7  280.51   22.48
   2   3  -7  330.98   24.75
   2   3  -7  327.79   23.37
  -2  -3   7  304.60   22.46
  -2  -3   7  269.67   23.15
  -2  -3   7  326.11   22.61
  -2  -3   7  270.21   24.23
  -2  -3   7  302.81   22.53
  -2  -3   7  283.48   23.11
   1   3  -7  208.82   15.87
   1   3  -7  203.97   16.01
   1   3  -7  227.08   17.41
  -1  -3   7  218.09   15.84
  -1  -3   7  178.78   17.46
  -1  -3   7  197.58   16.73
  -1  -3   7  217.86   15.95
  -1  -3   7  213.20   16.63
  -1  -3   7  228.54   15.97
   0   3  -7  233.34   17.15
   0   3  -7  236.95   17.22
   0  -3   7  231.61   17.97
   0  -3   7  213.20   18.20
   0  -3   7  244.99   17.26
   0  -3   7  203.99   18.85
  -1   3  -7  457.52   34.34
  -1   3  -7  486.70   34.32
   1  -3   7  417.09   36.07
   1  -3   7  482.24   35.34
   1  -3   7  449.41   35.69
  -2   3  -7  213.81   15.59
   2  -3   7  225.32   16.77
   2  -3   7  189.83   17.30
   2  -3   7  196.77   17.03
  -3   3  -7  179.53   13.22
   3  -3   7  167.44   15.05
   3  -3   7  180.09   14.43
   3  -3   7  170.39   14.92
  -4   3  -7  384.56   27.31
  -4   3  -7  324.14   25.63
  -4   3  -7  326.75   25.62
   4  -3   7  382.27   27.22
   4  -3   7  325.42   27.58
   4  -3   7  304.64   27.42
  -5   3  -7  270.95   20.37
  -5   3  -7  237.44   18.62
  -5   3  -7  226.25   18.57
   5  -3   7  232.15   20.49
   5  -3   7  245.28   20.84
   5  -3   7  267.85   20.34
  -6   3  -7  199.06   15.68
  -6   3  -7  171.08   13.75
   6  -3   7  168.46   16.11
   6  -3   7  168.58   15.64
   6  -3   7  201.26   15.75
  -7   3  -7  239.63   18.71
  -7   3  -7  205.08   16.56
   7  -3   7  247.88   18.91
   7  -3   7  204.50   19.21
   7  -3   7  200.82   18.49
  -8   3  -7   33.28    4.22
   5   2  -7   37.84    3.97
   5   2  -7   32.29    3.35
  -5  -2   7   34.28    3.71
  -5  -2   7   36.86    3.15
  -5  -2   7   33.19    4.44
   4   2  -7   55.64    4.99
   4   2  -7   66.34    6.74
   4   2  -7   63.02    5.68
  -4  -2   7   47.73    6.02
  -4  -2   7   52.81    5.27
  -4  -2   7   56.73    5.38
  -4  -2   7   68.21    4.78
  -4  -2   7   61.11    4.61
   3   2  -7   36.65    3.37
   3   2  -7   40.58    4.04
  -3  -2   7   35.06    3.77
  -3  -2   7   36.93    3.81
  -3  -2   7   40.11    3.06
  -3  -2   7   33.85    4.52
  -3  -2   7   43.33    3.21
   2   2  -7  105.29    8.01
   2   2  -7  108.09    8.26
  -2  -2   7  102.21    8.86
  -2  -2   7  107.40    8.79
  -2  -2   7  100.16    9.70
   1   2  -7  167.87   12.59
   1   2  -7  166.67   12.43
  -1  -2   7  167.56   13.22
  -1  -2   7  154.30   13.38
  -1  -2   7  151.81   14.03
  -1  -2   7  176.30   12.44
   0   2  -7   24.64    3.12
   0   2  -7   29.83    2.45
   0   2  -7   31.29    3.84
   0   2  -7   27.80    2.36
   0  -2   7   26.89    3.71
   0  -2   7   28.63    3.12
   0  -2   7   31.17    2.41
   0  -2   7   31.19    2.42
   0  -2   7   28.79    3.40
  -1   2  -7  112.34    8.85
  -1   2  -7  123.41    8.88
   1  -2   7  115.71    9.78
   1  -2   7  118.95   10.21
   1  -2   7  105.20   10.40
   1  -2   7  122.12    8.90
  -2   2  -7  380.90   26.24
  -2   2  -7  350.85   26.31
   2  -2   7  310.82   27.86
   2  -2   7  359.54   27.39
   2  -2   7  330.23   27.73
   2  -2   7  372.61   26.33
  -3   2  -7   99.00    7.68
  -3   2  -7  106.19    8.99
   3  -2   7   90.64    9.17
   3  -2   7   94.94    9.22
   3  -2   7  108.01    7.69
   3  -2   7  102.78    9.32
  -4   2  -7  100.25    7.65
  -4   2  -7  105.41    9.04
  -4   2  -7   94.23    7.59
   4  -2   7   94.78    9.35
   4  -2   7  104.84    8.94
   4  -2   7  106.80    7.63
   4  -2   7   89.63    9.18
  -5   2  -7   95.26    7.67
  -5   2  -7   90.89    8.81
  -5   2  -7  113.03    9.38
   5  -2   7  101.88    9.49
   5  -2   7  111.45    9.31
   5  -2   7   91.42    9.55
  -6   2  -7   22.13    3.25
  -6   2  -7   28.39    3.66
  -6   2  -7   23.89    2.10
   6  -2   7   23.88    3.60
   6  -2   7   23.63    3.92
   6  -2   7   29.83    3.75
  -7   2  -7   15.61    2.76
  -7   2  -7   18.62    3.13
  -7   2  -7   17.67    1.56
   7  -2   7   16.65    3.40
   7  -2   7   17.38    3.04
   7  -2   7   19.87    3.26
  -8   2  -7   18.10    1.63
  -8   2  -7   18.79    3.11
   8  -2   7   18.29    3.13
   8  -2   7   19.47    3.42
   8  -2   7   17.39    3.66
   6   1  -7   74.61    6.65
  -6  -1   7   73.62    7.82
  -6  -1   7   88.25    6.30
  -6  -1   7   76.53    7.13
   5   1  -7   55.31    5.19
   5   1  -7   67.94    6.25
  -5  -1   7   62.57    5.94
  -5  -1   7   56.96    5.68
  -5  -1   7   65.11    4.81
  -5  -1   7   56.88    6.45
   4   1  -7  210.06   16.92
   4   1  -7  239.26   17.95
  -4  -1   7  206.37   17.45
  -4  -1   7  198.96   18.24
  -4  -1   7  227.18   17.66
  -4  -1   7  234.46   16.56
   3   1  -7  256.92   19.86
   3   1  -7  246.64   19.54
   3   1  -7  284.01   20.85
  -3  -1   7  244.60   20.45
  -3  -1   7  265.13   20.53
  -3  -1   7  279.14   19.54
  -3  -1   7  243.49   21.26
   2   1  -7  158.22   12.61
   2   1  -7  170.41   12.88
   2   1  -7  193.76   14.75
  -2  -1   7  152.02   13.53
  -2  -1   7  174.03   13.56
  -2  -1   7  156.06   14.22
   1   1  -7  400.63   29.21
   1   1  -7  347.58   27.28
   1   1  -7  381.12   28.80
   1   1  -7  362.90   27.46
  -1  -1   7  334.31   28.31
  -1  -1   7  321.18   29.00
  -1  -1   7  404.78   27.38
   0   1  -7  517.01   37.52
   0   1  -7  531.69   39.11
   0   1  -7  499.17   37.40
   0  -1   7  446.60   38.89
   0  -1   7  469.27   38.22
   0  -1   7  468.01   38.59
   0  -1   7  533.39   37.37
   0  -1   7  539.85   37.46
  -1   1  -7  213.72   16.17
  -1   1  -7  199.91   15.66
  -1   1  -7  174.69   15.25
  -1   1  -7  206.55   14.57
  -1   1  -7  192.88   14.51
   1  -1   7  192.05   15.42
   1  -1   7  178.05   15.76
   1  -1   7  177.18   15.99
   1  -1   7  200.05   14.54
  -2   1  -7  409.51   29.78
  -2   1  -7  395.25   29.52
  -2   1  -7  369.94   28.27
  -2   1  -7  341.16   29.11
  -2   1  -7  402.53   28.25
   2  -1   7  346.32   29.80
   2  -1   7  390.73   29.35
   2  -1   7  386.16   28.27
   2  -1   7  357.14   29.69
  -3   1  -7  253.36   18.75
  -3   1  -7  246.91   17.23
  -3   1  -7  245.83   18.74
  -3   1  -7  217.10   17.32
  -3   1  -7  205.05   18.22
   3  -1   7  216.29   18.87
   3  -1   7  244.69   17.33
   3  -1   7  233.60   18.46
   3  -1   7  209.91   18.78
  -4   1  -7   95.22    8.16
  -4   1  -7   83.20    6.70
  -4   1  -7   83.71    7.77
   4  -1   7   81.74    8.21
   4  -1   7   93.83    8.04
   4  -1   7   97.53    6.75
   4  -1   7   80.47    8.33
  -5   1  -7  154.18   12.50
  -5   1  -7  141.38   10.90
  -5   1  -7  130.04   12.00
   5  -1   7  156.56   12.45
   5  -1   7  140.48   13.09
  -6   1  -7  152.73   13.47
  -6   1  -7  173.12   13.94
  -6   1  -7  153.31   12.12
   6  -1   7  180.98   14.01
   6  -1   7  148.27   13.77
   6  -1   7  157.36   14.38
  -7   1  -7   92.85    7.52
  -7   1  -7   88.84    8.86
  -7   1  -7  110.38    9.51
   7  -1   7  114.39    9.67
   7  -1   7   94.74    9.23
   7  -1   7   92.93    9.88
  -8   1  -7  211.98   16.86
  -8   1  -7  172.17   16.13
  -8   1  -7  184.61   14.63
   8  -1   7  187.95   17.47
   8  -1   7  185.69   16.40
   8  -1   7  225.70   17.13
   6   0  -7   62.31    5.78
  -6   0   7   73.76    5.42
  -6   0   7   73.60    6.86
  -6   0   7   63.58    6.42
  -6   0   7   64.75    7.01
   5   0  -7   42.48    4.73
   5   0  -7   38.18    3.66
   5   0  -7   49.19    5.59
  -5   0   7   34.43    4.70
  -5   0   7   44.36    4.60
  -5   0   7   34.67    4.19
  -5   0   7   43.74    3.49
   4   0  -7   17.35    2.59
   4   0  -7   13.90    1.68
  -4   0   7   13.53    2.67
  -4   0   7   14.41    2.24
  -4   0   7   14.82    1.34
   3   0  -7  112.02    8.80
   3   0  -7  116.81    9.11
  -3   0   7  110.91   10.46
  -3   0   7  116.74    9.89
  -3   0   7  122.35   10.49
   2   0  -7   74.13    6.06
   2   0  -7   75.86    6.27
   2   0  -7   89.00    7.92
  -2   0   7   81.20    6.03
  -2   0   7   74.28    7.61
  -2   0   7   75.48    7.08
  -2   0   7   82.03    7.04
   1   0  -7   35.82    4.24
   1   0  -7   35.67    2.93
   1   0  -7   42.30    4.56
   1   0  -7   36.00    3.10
  -1   0   7   33.55    4.27
  -1   0   7   39.33    3.84
  -1   0   7   35.72    3.96
  -1   0   7   38.26    2.92
   0   0  -7  100.76    7.80
   0   0  -7  109.27    7.95
   0   0  -7   98.78    8.58
   0   0   7  111.17    7.86
   0   0   7   99.66    9.02
   0   0   7   96.59    9.28
  -1   0  -7   52.23    3.98
  -1   0  -7   48.97    3.89
  -1   0  -7   45.61    4.65
  -1   0  -7   59.46    5.41
  -1   0  -7   52.52    5.00
   1   0   7   45.91    5.04
   1   0   7   51.93    3.91
   1   0   7   50.52    4.77
   1   0   7   44.76    5.16
  -2   0  -7   49.88    4.60
  -2   0  -7   39.24    4.17
  -2   0  -7   43.65    3.38
  -2   0  -7   44.88    4.57
   2   0   7   44.71    3.37
   2   0   7   43.79    4.30
   2   0   7   39.31    4.61
   2   0   7   38.80    4.60
  -3   0  -7  278.83   20.97
  -3   0  -7  310.78   22.33
  -3   0  -7  293.85   22.28
  -3   0  -7  254.96   21.88
   3   0   7  256.79   22.37
   3   0   7  257.09   22.44
   3   0   7  294.54   20.94
   3   0   7  289.17   22.11
  -4   0  -7  139.25   11.23
  -4   0  -7  139.24   11.03
  -4   0  -7  114.61   10.73
   4   0   7  138.33   11.08
   4   0   7  120.01   11.22
   4   0   7  137.23    9.78
   4   0   7  116.44   11.37
  -5   0  -7  153.12   14.86
  -5   0  -7  140.49   11.11
   5   0   7  143.79   13.06
   5   0   7  160.96   12.67
   5   0   7  141.39   12.69
  -6   0  -7  253.99   19.44
  -6   0  -7  227.23   17.65
  -6   0  -7  213.27   18.87
   6   0   7  222.31   19.83
   6   0   7  236.42   19.37
   6   0   7  260.67   19.44
  -7   0  -7   94.21    9.76
  -7   0  -7  110.21    9.63
  -7   0  -7   94.66    7.70
   7   0   7   95.41    8.39
   7   0   7  100.98    9.38
   7   0   7  114.89    9.69
  -8   0  -7   20.99    3.40
  -8   0  -7   18.38    1.62
  -8   0  -7   18.24    2.97
   8   0   7   18.51    2.97
   8   0   7   23.28    3.55
   8   0   7   19.35    2.44
   8   0   7   19.66    3.78
  -9   0  -7   45.90    5.48
  -9   0  -7   40.55    4.98
  -9   0  -7   41.84    3.41
   9   0   7   41.11    4.37
   9   0   7   41.43    5.99
   9   0   7   51.44    5.85
   6  -1  -7   59.29    5.37
  -6   1   7   69.67    6.69
  -6   1   7   57.47    6.13
  -6   1   7   64.69    4.94
   5  -1  -7  201.87   15.73
   5  -1  -7  172.68   14.26
  -5   1   7  201.28   13.90
  -5   1   7  197.40   15.51
  -5   1   7  159.24   15.54
  -5   1   7  170.14   15.10
   4  -1  -7   62.04    5.21
  -4   1   7   58.14    6.00
  -4   1   7   58.23    6.56
  -4   1   7   69.03    5.06
  -4   1   7   67.73    6.19
   3  -1  -7  164.52   12.72
   3  -1  -7  153.97   12.41
  -3   1   7  149.93   14.67
  -3   1   7  176.30   12.43
  -3   1   7  158.46   13.60
  -3   1   7  184.35   13.73
   2  -1  -7  395.63   29.64
   2  -1  -7  376.10   29.39
   2  -1  -7  379.00   30.32
  -2   1   7  357.54   31.02
  -2   1   7  428.94   30.63
  -2   1   7  422.10   29.40
   1  -1  -7  354.36   26.11
   1  -1  -7  333.06   26.77
   1  -1  -7  341.38   25.90
   1  -1  -7  348.40   28.08
  -1   1   7  361.89   26.97
  -1   1   7  368.14   25.90
  -1   1   7  344.87   27.18
  -1   1   7  318.69   27.52
   0  -1  -7  371.19   27.75
   0  -1  -7  430.90   29.56
   0  -1  -7  354.89   28.60
   0  -1  -7  389.19   29.01
   0   1   7  347.02   29.01
   0   1   7  341.61   29.26
   0   1   7  365.72   28.73
  -1  -1  -7  704.04   57.59
  -1  -1  -7  829.88   58.09
  -1  -1  -7  847.48   58.32
   1   1   7  656.46   58.17
   1   1   7  805.00   56.74
   1   1   7  726.81   58.13
  -2  -1  -7  493.22   36.15
  -2  -1  -7  509.41   36.24
  -2  -1  -7  434.26   35.75
   2   1   7  465.27   34.97
   2   1   7  481.94   34.85
   2   1   7  432.61   36.28
   2   1   7  447.44   36.35
   2   1   7  470.67   35.87
  -3  -1  -7  662.73   48.80
  -3  -1  -7  662.05   48.64
  -3  -1  -7  595.99   48.42
   3   1   7  587.97   48.88
   3   1   7  607.87   49.03
   3   1   7  625.76   47.66
   3   1   7  670.68   48.65
   3   1   7  677.09   47.45
  -4  -1  -7  405.57   34.49
  -4  -1  -7  480.67   34.67
  -4  -1  -7  480.76   34.97
   4   1   7  438.60   33.81
   4   1   7  497.46   33.49
   4   1   7  406.01   34.87
   4   1   7  424.98   35.22
   4   1   7  453.61   34.72
  -5  -1  -7  131.09   11.55
  -5  -1  -7  149.62   11.98
  -5  -1  -7  120.47   10.45
   5   1   7  138.52   11.92
   5   1   7  137.72   12.36
   5   1   7  158.19   11.96
   5   1   7  134.52   10.87
  -6  -1  -7   95.94    8.47
  -6  -1  -7   85.34    6.74
  -6  -1  -7   80.30    7.89
   6   1   7   87.25    7.36
   6   1   7  107.24   10.45
   6   1   7   85.30    8.78
   6   1   7   88.98    8.26
  -7  -1  -7  172.89   15.64
  -7  -1  -7  186.10   14.31
   7   1   7  185.40   15.08
   7   1   7  217.99   16.38
   7   1   7  192.53   16.88
   7   1   7  192.13   15.92
  -8  -1  -7   68.83    6.92
  -8  -1  -7   61.09    4.93
  -8  -1  -7   57.04    6.36
   8   1   7   76.49    7.17
   8   1   7   65.87    7.55
   8   1   7   61.16    5.82
  -9  -1  -7   51.78    4.18
  -9  -1  -7   57.76    6.33
  -9  -1  -7   51.47    5.86
   9   1   7   62.49    6.53
   9   1   7   50.48    5.20
   6  -2  -7   11.86    1.54
  -6   2   7   12.11    2.40
  -6   2   7   13.28    3.39
  -6   2   7   10.64    1.21
  -6   2   7   11.74    1.20
   5  -2  -7   64.27    5.75
  -5   2   7   61.17    7.00
  -5   2   7   79.41    7.21
  -5   2   7   67.10    6.77
  -5   2   7   77.47    5.43
   4  -2  -7  176.75   13.75
   4  -2  -7  147.38   12.30
  -4   2   7  153.26   13.36
  -4   2   7  142.29   13.73
  -4   2   7  175.06   13.59
   3  -2  -7   58.47    5.08
   3  -2  -7   71.79    7.00
   3  -2  -7   65.35    6.22
  -3   2   7   56.53    5.97
  -3   2   7   64.71    4.83
  -3   2   7   66.89    6.10
  -3   2   7   55.75    6.75
   2  -2  -7  178.54   14.55
   2  -2  -7  193.69   14.80
   2  -2  -7  186.25   15.53
   2  -2  -7  203.10   15.96
  -2   2   7  209.67   16.41
  -2   2   7  184.69   15.84
  -2   2   7  187.79   16.37
  -2   2   7  208.51   14.57
   1  -2  -7  252.16   20.69
   1  -2  -7  278.93   21.14
   1  -2  -7  255.45   19.78
  -1   2   7  291.37   20.98
  -1   2   7  252.16   21.52
  -1   2   7  255.36   21.08
   0  -2  -7  169.31   12.65
   0  -2  -7  182.49   13.95
   0  -2  -7  158.10   13.57
   0   2   7  183.32   13.77
   0   2   7  154.37   14.19
   0   2   7  162.09   13.97
  -1  -2  -7   97.62    8.46
  -1  -2  -7   89.45    8.11
  -1  -2  -7  106.83    8.69
  -1  -2  -7   97.34    7.26
   1   2   7   94.00    8.61
   1   2   7   93.82    7.22
   1   2   7   90.67    8.76
   1   2   7   96.89    8.25
  -2  -2  -7   61.55    5.58
  -2  -2  -7   52.15    5.17
  -2  -2  -7   57.13    4.36
   2   2   7   55.42    4.56
   2   2   7   54.62    5.75
   2   2   7   59.43    5.39
   2   2   7   58.85    4.34
   2   2   7   53.69    5.68
  -3  -2  -7    5.16    1.34
  -3  -2  -7    4.71    1.29
  -3  -2  -7    5.65    1.49
   3   2   7    4.04    1.35
   3   2   7    5.87    1.84
   3   2   7    5.79    0.53
   3   2   7    5.64    1.37
   3   2   7    4.95    0.77
  -4  -2  -7  115.81    9.91
  -4  -2  -7  106.11    9.57
  -4  -2  -7  115.10    9.52
   4   2   7  109.63    8.88
   4   2   7  127.24    8.53
   4   2   7  105.87    9.95
   4   2   7  106.39   10.14
   4   2   7  117.67    9.79
  -5  -2  -7  127.77   10.28
  -5  -2  -7  113.88   10.39
  -5  -2  -7  128.52   10.83
   5   2   7  118.98   10.78
   5   2   7  138.23   10.80
   5   2   7  118.79   11.17
   5   2   7  119.28    9.79
  -6  -2  -7   50.34    4.15
  -6  -2  -7   54.53    5.56
  -6  -2  -7   45.45    5.10
   6   2   7   52.53    4.72
   6   2   7   50.94    5.95
   6   2   7   59.08    5.61
   6   2   7   54.93    5.51
  -7  -2  -7   76.13    7.48
   7   2   7   69.62    7.93
   7   2   7   82.50    7.58
   7   2   7   71.75    6.55
   7   2   7   80.75    7.30
  -8  -2  -7  101.66    9.80
  -8  -2  -7  126.08   10.56
  -8  -2  -7  111.42    8.35
   8   2   7  101.89   10.87
   8   2   7  116.77    9.40
  -9  -2  -7   25.39    1.98
  -9  -2  -7   27.91    4.01
  -9  -2  -7   21.07    3.98
   9   2   7   24.31    3.06
   9   2   7   31.15    6.05
   6  -3  -7  130.26   11.73
  -6   3   7  133.48   14.84
  -6   3   7  166.10   11.42
  -6   3   7  164.35   13.53
  -6   3   7  154.09   11.47
   5  -3  -7  121.45   10.64
   5  -3  -7   96.46    8.47
  -5   3   7  113.49    9.93
  -5   3   7   98.29    9.61
   4  -3  -7  254.77   19.51
   4  -3  -7  216.56   17.94
  -4   3   7  226.66   19.16
  -4   3   7  255.29   19.35
  -4   3   7  252.76   17.67
  -4   3   7  205.31   19.42
   3  -3  -7  157.31   12.81
   3  -3  -7  172.46   14.12
   3  -3  -7  160.44   13.68
   3  -3  -7  191.16   14.98
  -3   3   7  152.21   13.88
  -3   3   7  181.17   14.06
  -3   3   7  143.05   14.25
  -3   3   7  178.72   12.56
   2  -3  -7  188.29   16.11
   2  -3  -7  183.97   15.07
   2  -3  -7  218.90   16.60
  -2   3   7  193.96   16.45
  -2   3   7  179.72   16.86
  -2   3   7  221.16   16.48
  -2   3   7  221.67   15.09
   1  -3  -7  217.32   16.56
   1  -3  -7  239.08   18.01
   1  -3  -7  211.08   17.55
  -1   3   7  252.07   17.87
  -1   3   7  201.66   18.36
  -1   3   7  205.89   17.89
   0  -3  -7  171.26   14.46
   0  -3  -7  208.51   15.29
   0  -3  -7  175.54   13.54
   0  -3  -7  183.43   14.84
   0   3   7  161.96   15.17
   0   3   7  169.36   14.87
   0   3   7  194.57   14.71
  -1  -3  -7  109.52    9.69
  -1  -3  -7  121.15   10.08
  -1  -3  -7  117.25    8.80
  -1  -3  -7  124.78   10.22
   1   3   7  119.55    9.85
   1   3   7  112.09   10.19
   1   3   7  112.72   10.47
  -2  -3  -7  716.93   49.60
  -2  -3  -7  662.25   49.58
  -2  -3  -7  621.31   49.22
   2   3   7  607.42   49.71
   2   3   7  686.98   49.36
   2   3   7  587.99   49.80
  -3  -3  -7  594.37   42.93
  -3  -3  -7  588.69   43.17
  -3  -3  -7  539.96   42.79
   3   3   7  592.20   41.72
   3   3   7  555.80   42.01
   3   3   7  572.61   42.89
   3   3   7  535.07   43.39
   3   3   7  500.40   43.25
  -4  -3  -7  442.97   32.13
  -4  -3  -7  367.69   31.61
  -4  -3  -7  433.91   31.65
   4   3   7  409.24   31.00
   4   3   7  378.43   32.13
   4   3   7  447.13   31.97
   4   3   7  392.54   32.38
  -5  -3  -7  390.71   28.86
  -5  -3  -7  337.86   29.02
  -5  -3  -7  394.23   29.53
   5   3   7  358.35   29.84
   5   3   7  405.83   29.42
   5   3   7  371.76   29.54
   5   3   7  361.44   28.44
  -6  -3  -7  321.92   25.58
  -6  -3  -7  293.83   25.69
  -6  -3  -7  341.52   24.18
   6   3   7  333.89   25.56
   6   3   7  301.10   24.58
   6   3   7  305.19   26.07
   6   3   7  346.00   25.58
  -7  -3  -7   86.06    6.73
  -7  -3  -7   75.96    7.74
  -7  -3  -7   92.30    8.33
   7   3   7   85.75    8.82
   7   3   7   81.51    7.29
   7   3   7   95.09    8.29
   9   3   7   29.85    3.09
   6  -4  -7   21.66    2.38
   6  -4  -7   25.48    5.43
  -6   4   7   26.67    3.91
  -6   4   7   23.65    2.09
   5  -4  -7   23.96    3.60
   5  -4  -7   28.85    4.45
   5  -4  -7   21.49    2.22
  -5   4   7   24.10    3.53
  -5   4   7   19.92    3.23
  -5   4   7   22.08    2.13
   4  -4  -7   25.71    3.62
   4  -4  -7   29.51    5.18
   4  -4  -7   21.54    3.16
   4  -4  -7   23.66    2.36
  -4   4   7   28.63    3.65
  -4   4   7   23.98    3.43
  -4   4   7   30.14    2.19
   3  -4  -7   73.07    7.29
   3  -4  -7   89.01    7.86
  -3   4   7   79.63    7.95
  -3   4   7   85.96    6.18
  -3   4   7   90.78    7.79
  -3   4   7   68.65    7.83
   2  -4  -7   30.58    4.00
   2  -4  -7   26.13    3.12
   2  -4  -7   26.46    4.13
   2  -4  -7   24.36    2.06
  -2   4   7   24.67    3.33
  -2   4   7   24.46    4.23
  -2   4   7   27.90    3.32
   1  -4  -7  139.37   11.95
   1  -4  -7  157.50   10.90
   1  -4  -7  155.67   12.37
   1  -4  -7  138.07   10.89
  -1   4   7  155.48   12.18
  -1   4   7  137.39   12.28
  -1   4   7  131.10   12.72
   0  -4  -7  407.23   32.62
   0  -4  -7  487.43   34.42
   0  -4  -7  454.26   34.05
   0  -4  -7  401.70   33.60
   0  -4  -7  464.78   32.69
   0   4   7  395.15   34.51
   0   4   7  419.83   34.08
   0   4   7  469.76   33.88
  -1  -4  -7  357.56   27.26
  -1  -4  -7  360.11   27.35
  -1  -4  -7  318.03   26.85
  -1  -4  -7  339.74   25.91
  -1  -4  -7  389.88   26.04
   1   4   7  311.39   27.71
   1   4   7  373.99   27.13
   1   4   7  324.24   27.35
  -2  -4  -7   59.88    5.71
  -2  -4  -7   65.00    5.95
  -2  -4  -7   67.03    6.09
   2   4   7   67.79    5.89
   2   4   7   60.22    4.92
   2   4   7   56.48    6.33
   2   4   7   59.44    6.16
  -3  -4  -7  175.35   15.43
  -3  -4  -7  204.77   15.91
  -3  -4  -7  206.65   15.63
   3   4   7  189.35   16.13
   3   4   7  199.78   14.43
   3   4   7  203.75   15.69
   3   4   7  185.91   14.75
   3   4   7  180.21   16.14
  -4  -4  -7   76.48    6.73
  -4  -4  -7   68.99    6.78
  -4  -4  -7   82.73    7.26
   4   4   7   88.78    7.14
   4   4   7   71.72    6.18
   4   4   7   74.12    7.38
   4   4   7   72.62    7.44
  -5  -4  -7   25.76    3.20
  -5  -4  -7   23.15    2.58
  -5  -4  -7   21.13    2.81
   5   4   7   24.71    3.04
   5   4   7   21.10    3.11
   5   4   7   20.98    3.32
   5   4   7   20.87    2.30
  -6  -4  -7   30.61    3.79
  -6  -4  -7   31.67    2.59
  -6  -4  -7   28.91    2.95
  -6  -4  -7   25.60    3.34
   6   4   7   30.55    3.72
   6   4   7   27.94    4.01
   6   4   7   26.64    2.90
   6   4   7   31.52    3.65
  -7  -4  -7   20.30    2.94
  -7  -4  -7   23.85    2.10
  -7  -4  -7   22.75    3.30
   7   4   7   24.99    3.30
   7   4   7   19.01    2.48
  -8  -4  -7   11.44    2.20
  -8  -4  -7   12.22    1.37
  -8  -4  -7   12.10    2.52
   8   4   7   11.12    1.88
   8   4   7   11.29    1.89
   8   4   7   13.59    2.63
  -9  -4  -7   44.94    5.14
  -9  -4  -7   39.58    4.64
   9   4   7   43.00    4.32
   9   4   7   33.77    3.79
   6  -5  -7   59.78    7.88
   6  -5  -7   51.00    4.79
  -6   5   7   64.77    6.71
  -6   5   7   57.70    4.55
  -6   5   7   51.74    7.21
   5  -5  -7  159.12   13.66
   5  -5  -7  192.93   15.58
  -5   5   7  165.88   15.13
  -5   5   7  174.16   13.60
  -5   5   7  194.78   15.54
   4  -5  -7  140.05   11.83
   4  -5  -7  171.97   13.62
   4  -5  -7  142.28   12.94
  -4   5   7  153.20   11.94
  -4   5   7  147.53   13.25
  -4   5   7  165.91   13.45
   3  -5  -7  317.08   23.44
   3  -5  -7  279.12   22.86
  -3   5   7  322.32   23.27
  -3   5   7  248.87   23.61
  -3   5   7  292.98   22.01
  -3   5   7  264.91   21.48
   2  -5  -7  347.89   29.37
   2  -5  -7  411.88   30.39
   2  -5  -7  393.22   29.85
   2  -5  -7  347.24   28.14
  -2   5   7  343.28   29.64
  -2   5   7  422.86   29.83
   1  -5  -7  286.10   20.25
   1  -5  -7  252.15   20.12
   1  -5  -7  288.73   21.72
   1  -5  -7  271.20   22.26
   1  -5  -7  253.91   21.29
  -1   5   7  296.60   21.62
  -1   5   7  269.68   21.74
  -1   5   7  237.88   22.03
   0  -5  -7  118.59   10.65
   0  -5  -7  139.60    9.77
   0  -5  -7  141.12   11.16
   0  -5  -7  121.44    9.62
   0   5   7  118.97   11.04
   0   5   7  115.07   11.49
   0   5   7  142.49   10.97
  -1  -5  -7  294.56   22.54
  -1  -5  -7  332.51   22.73
  -1  -5  -7  266.94   23.50
  -1  -5  -7  336.77   24.16
  -1  -5  -7  313.35   23.99
   1   5   7  279.42   24.00
   1   5   7  265.04   24.36
   1   5   7  326.65   23.82
  -2  -5  -7   84.41    8.30
  -2  -5  -7  103.10    7.62
  -2  -5  -7  104.82    8.70
  -2  -5  -7   99.29    8.76
   2   5   7  106.96    8.62
   2   5   7   98.13    8.97
   2   5   7   89.85    9.12
  -3  -5  -7  125.74   11.37
  -3  -5  -7  144.20   11.86
  -3  -5  -7  143.75   11.54
  -3  -5  -7  152.55   10.70
   3   5   7  150.81   11.67
   3   5   7  127.13   12.09
   3   5   7  132.86   12.02
   3   5   7  129.91   10.71
  -4  -5  -7  242.12   18.44
  -4  -5  -7  211.35   17.96
  -4  -5  -7  233.39   17.88
   4   5   7  212.01   17.30
   4   5   7  245.96   18.25
   4   5   7  212.13   18.56
   4   5   7  222.13   18.70
  -5  -5  -7  188.22   16.02
  -5  -5  -7  208.71   16.44
  -5  -5  -7  194.14   15.64
   5   5   7  181.43   15.39
   5   5   7  217.89   16.35
   5   5   7  201.79   16.56
   5   5   7  195.92   16.86
  -6  -5  -7  145.52   12.10
  -6  -5  -7  129.58   11.65
  -6  -5  -7  138.00   11.08
   6   5   7  153.81   12.06
   6   5   7  131.58   11.14
   6   5   7  134.50   11.44
  -7  -5  -7  187.32   16.72
  -7  -5  -7  203.96   17.13
  -7  -5  -7  214.86   15.75
   7   5   7  207.80   16.49
   7   5   7  231.74   17.30
   7   5   7  188.62   16.24
  -8  -5  -7   70.83    5.64
  -8  -5  -7   59.70    6.57
  -8  -5  -7   71.26    7.06
   8   5   7   79.12    7.31
   8   5   7   64.13    6.25
   8   5   7   72.32    6.29
  -9  -5  -7   78.04    6.08
  -9  -5  -7   79.64    7.74
  -9  -5  -7   68.14    7.25
   9   5   7   72.04    6.93
   9   5   7   76.93    6.59
   5  -6  -7   29.95    4.07
   5  -6  -7   35.59    4.61
   5  -6  -7   31.69    2.94
  -5   6   7   33.47    2.90
  -5   6   7   29.55    4.30
  -5   6   7   34.94    4.53
   4  -6  -7   56.94    6.05
   4  -6  -7   48.38    5.47
  -4   6   7   47.81    5.72
  -4   6   7   52.93    4.50
  -4   6   7   61.79    6.64
   3  -6  -7    5.60    1.71
   3  -6  -7    5.17    2.00
   3  -6  -7    4.03    1.32
  -3   6   7    4.45    1.44
  -3   6   7    4.28    0.91
  -3   6   7    3.98    1.42
   2  -6  -7   12.98    2.47
   2  -6  -7   11.21    2.10
  -2   6   7   12.02    1.58
  -2   6   7   13.65    2.43
  -2   6   7   10.44    2.27
   1  -6  -7   30.32    2.49
   1  -6  -7   36.26    2.74
   1  -6  -7   32.84    3.91
   1  -6  -7   29.45    3.58
  -1   6   7   35.79    3.90
  -1   6   7   33.02    3.99
  -1   6   7   30.83    3.15
   0  -6  -7   40.07    3.09
   0  -6  -7   43.17    4.56
   0  -6  -7   33.27    3.89
   0  -6  -7   37.56    4.23
   0  -6  -7   33.84    2.84
   0   6   7   33.53    3.53
   0   6   7   40.79    4.14
   0   6   7   36.90    4.28
  -1  -6  -7  101.30    7.97
  -1  -6  -7  111.94    8.22
  -1  -6  -7  113.03    9.49
  -1  -6  -7   93.91    8.98
  -1  -6  -7  109.51    9.54
   1   6   7  116.22    9.30
   1   6   7   97.72    9.43
  -2  -6  -7  258.09   20.19
  -2  -6  -7  230.10   19.90
  -2  -6  -7  260.64   19.12
  -2  -6  -7  258.35   20.33
   2   6   7  274.71   20.18
   2   6   7  231.82   20.40
  -3  -6  -7   54.20    5.55
  -3  -6  -7   60.29    5.62
  -3  -6  -7   61.06    5.91
  -3  -6  -7   65.77    4.86
   3   6   7   56.97    6.09
   3   6   7   52.67    5.38
   3   6   7   62.25    5.71
   3   6   7   59.28    4.90
  -4  -6  -7  127.34   10.18
  -4  -6  -7  127.96   10.67
  -4  -6  -7  134.87    9.89
  -4  -6  -7  109.79   10.43
   4   6   7  110.04    9.59
   4   6   7  110.78   10.05
   4   6   7  129.88   10.47
  -5  -6  -7  117.07    9.45
  -5  -6  -7  107.55    9.75
  -5  -6  -7  120.44   10.16
   5   6   7  107.74    9.60
   5   6   7  128.55   10.11
   5   6   7  100.84    9.13
  -6  -6  -7   34.26    4.18
  -6  -6  -7   36.82    3.41
  -6  -6  -7   34.07    3.97
   6   6   7   40.96    4.29
   6   6   7   32.05    3.73
   6   6   7   35.54    3.51
  -7  -6  -7   44.48    5.03
  -7  -6  -7   51.94    5.42
  -7  -6  -7   48.95    4.15
   7   6   7   45.02    4.60
   7   6   7   54.95    5.52
   7   6   7   48.82    4.81
  -8  -6  -7   52.39    4.15
  -8  -6  -7   43.55    5.03
  -8  -6  -7   49.30    5.42
   8   6   7   47.19    4.99
   8   6   7   47.76    4.68
   5  -7  -7   20.12    3.66
   5  -7  -7   11.25    2.57
   5  -7  -7   11.32    1.98
   5  -7  -7   16.19    3.09
  -5   7   7   15.69    1.64
  -5   7   7   16.62    3.13
  -5   7   7   13.66    2.92
   4  -7  -7  105.51   10.48
   4  -7  -7  140.31   13.86
   4  -7  -7  124.90   11.03
  -4   7   7  109.83    9.25
  -4   7   7  108.38   10.70
  -4   7   7  120.96   10.89
   3  -7  -7  183.70   14.82
   3  -7  -7  144.24   14.06
   3  -7  -7  195.17   15.36
  -3   7   7  155.79   14.50
  -3   7   7  161.77   13.28
  -3   7   7  179.40   14.61
   2  -7  -7  183.17   14.83
   2  -7  -7  149.59   14.20
  -2   7   7  160.96   14.63
  -2   7   7  183.31   14.46
  -2   7   7  188.48   14.75
   1  -7  -7  298.59   26.41
   1  -7  -7  363.74   25.44
   1  -7  -7  356.38   26.96
  -1   7   7  304.42   26.76
  -1   7   7  363.56   26.79
   0  -7  -7  434.67   34.92
   0  -7  -7  425.30   36.18
   0  -7  -7  494.06   36.65
   0  -7  -7  512.08   35.25
   0  -7  -7  513.90   36.90
   0   7   7  440.57   36.61
   0   7   7  422.40   35.98
   0   7   7  509.08   36.48
  -1  -7  -7  161.49   14.87
  -1  -7  -7  205.32   15.53
  -1  -7  -7  171.58   13.76
  -1  -7  -7  194.28   15.39
  -1  -7  -7  197.87   14.10
   1   7   7  207.70   15.29
   1   7   7  165.93   14.57
   1   7   7  170.83   15.34
  -2  -7  -7  281.89   22.31
  -2  -7  -7  297.15   21.16
  -2  -7  -7  249.46   22.02
  -2  -7  -7  284.90   22.90
   2   7   7  302.45   22.21
   2   7   7  256.21   22.40
  -3  -7  -7  162.22   12.30
  -3  -7  -7  166.86   13.10
  -3  -7  -7  170.44   13.45
  -3  -7  -7  153.02   13.01
   3   7   7  154.27   13.58
   3   7   7  138.64   12.71
  -4  -7  -7  108.16    9.58
  -4  -7  -7  104.82    8.97
  -4  -7  -7  108.03    8.34
  -4  -7  -7   98.18    9.09
   4   7   7   94.37    8.87
   4   7   7  100.06    8.85
   4   7   7  120.18    9.37
  -5  -7  -7  182.73   15.85
  -5  -7  -7  199.88   15.57
  -5  -7  -7  201.80   16.27
   5   7   7  223.83   16.26
   5   7   7  181.72   15.27
   5   7   7  181.60   15.70
  -6  -7  -7  143.33   11.02
  -6  -7  -7  129.15   11.62
  -6  -7  -7  152.67   12.13
   6   7   7  129.78   11.13
   6   7   7  132.70   11.49
  -7  -7  -7   40.84    4.61
  -7  -7  -7   40.49    3.47
  -7  -7  -7   36.67    4.30
   7   7   7   42.63    4.68
   7   7   7   34.32    3.84
   7   7   7   37.38    4.07
  -8  -7  -7   88.16    8.65
  -8  -7  -7  100.78    9.05
   8   7   7  100.17    8.36
   8   7   7   92.72    8.33
   5  -8  -7   43.81    4.02
   5  -8  -7   55.25    6.88
   5  -8  -7   42.37    5.40
  -5   8   7   48.51    4.08
  -5   8   7   49.55    5.89
  -5   8   7   45.66    5.73
   4  -8  -7   44.86    5.54
   4  -8  -7   31.57    4.37
   4  -8  -7   38.43    4.96
  -4   8   7   35.14    4.78
  -4   8   7   41.50    5.01
  -4   8   7   36.88    3.43
   3  -8  -7  126.09   12.42
   3  -8  -7  170.34   15.72
   3  -8  -7  150.44   13.08
  -3   8   7  153.18   12.93
  -3   8   7  135.83   12.85
  -3   8   7  144.45   11.53
   2  -8  -7   69.15    7.41
   2  -8  -7   90.06    8.39
   2  -8  -7   89.84    8.12
  -2   8   7   76.52    6.70
  -2   8   7   70.16    7.68
  -2   8   7   84.85    7.85
   1  -8  -7   21.05    3.31
   1  -8  -7   20.78    1.98
   1  -8  -7   19.82    3.12
  -1   8   7   20.35    3.00
  -1   8   7   18.18    3.05
  -1   8   7   20.23    2.30
   0  -8  -7   51.17    3.96
   0  -8  -7   52.19    5.45
   0  -8  -7   46.41    5.13
   0  -8  -7   42.44    3.51
   0  -8  -7   41.54    4.78
   0   8   7   45.87    5.18
   0   8   7   45.54    4.36
   0   8   7   51.64    5.08
  -1  -8  -7   45.22    3.53
  -1  -8  -7   43.60    4.74
  -1  -8  -7   43.53    4.68
  -1  -8  -7   37.19    3.08
  -1  -8  -7   36.96    4.24
   1   8   7   40.02    4.68
   1   8   7   44.53    4.53
   1   8   7   35.56    3.90
  -2  -8  -7   41.34    3.42
  -2  -8  -7   41.08    4.44
  -2  -8  -7   41.69    4.49
  -2  -8  -7   33.07    4.03
   2   8   7   34.14    3.85
   2   8   7   41.76    3.07
   2   8   7   39.94    4.29
  -3  -8  -7  122.47   10.96
  -3  -8  -7  146.45   10.25
   3   8   7  120.86   10.75
  -4  -8  -7   37.99    4.01
  -4  -8  -7   36.24    4.09
  -4  -8  -7   38.84    4.40
   4   8   7   42.99    4.33
   4   8   7   33.19    3.87
  -5  -8  -7   37.45    3.91
  -5  -8  -7   36.80    4.25
  -5  -8  -7   41.88    4.59
  -5  -8  -7   39.97    3.56
   5   8   7   34.25    4.02
   5   8   7   37.57    3.75
   5   8   7   46.27    4.60
  -6  -8  -7  122.13   10.27
  -6  -8  -7  117.48    9.24
  -6  -8  -7  112.56    9.46
  -6  -8  -7  108.24    9.89
   6   8   7  108.74    9.72
   6   8   7  108.27    9.35
  -7  -8  -7   49.30    5.20
  -7  -8  -7   45.48    4.95
  -7  -8  -7   46.06    4.41
   7   8   7   45.74    4.73
   7   8   7   44.22    4.60
   4  -9  -7   33.90    4.62
   4  -9  -7   26.45    4.01
  -4   9   7   32.32    3.05
  -4   9   7   30.49    4.50
  -4   9   7   34.67    4.68
   3  -9  -7   59.62    6.66
   3  -9  -7   44.83    5.62
   3  -9  -7   58.32    6.34
  -3   9   7   50.92    4.76
  -3   9   7   54.58    6.22
  -3   9   7   59.22    6.17
   2  -9  -7  134.60   11.57
   2  -9  -7  133.93   11.25
   2  -9  -7  103.13   10.46
  -2   9   7  102.42   10.78
  -2   9   7  114.41    9.71
  -2   9   7  131.93   11.06
   1  -9  -7   98.73    9.21
   1  -9  -7  105.78    7.80
   1  -9  -7  104.61    9.56
   1  -9  -7   83.97    8.70
  -1   9   7  105.46    9.15
  -1   9   7   86.66    8.07
   0  -9  -7  146.57   12.63
   0  -9  -7  128.65   12.21
   0  -9  -7  157.19   11.29
   0  -9  -7  152.79   12.91
   0   9   7  129.89   11.66
   0   9   7  151.88   12.48
  -1  -9  -7  278.86   22.21
  -1  -9  -7  287.10   20.92
  -1  -9  -7  238.68   21.71
  -1  -9  -7  291.34   22.44
   1   9   7  290.74   20.63
   1   9   7  234.00   21.32
   1   9   7  296.31   22.13
  -2  -9  -7  115.09    9.77
  -2  -9  -7  111.97    9.84
  -2  -9  -7   97.27    9.31
   2   9   7   98.91    8.13
   2   9   7   97.82    9.04
   2   9   7  122.70    9.69
  -3  -9  -7  133.71   12.33
  -3  -9  -7  156.50   12.63
  -3  -9  -7  162.25   11.67
  -3  -9  -7  154.30   12.81
   3   9   7  133.60   12.15
  -4  -9  -7  207.91   16.98
  -4  -9  -7  217.68   15.89
  -4  -9  -7  185.36   16.57
  -4  -9  -7  205.61   16.62
   4   9   7  173.11   16.39
   4   9   7  240.40   18.27
  -5  -9  -7   81.25    7.29
  -5  -9  -7   75.03    6.64
  -5  -9  -7   70.80    6.90
   5   9   7   67.34    6.76
  -6  -9  -7   48.64    4.25
  -6  -9  -7   45.92    4.94
  -6  -9  -7   47.80    4.36
   6   9   7   44.80    4.84
  -7  -9  -7   63.91    6.19
   7   9   7   57.73    5.79
   7   9   7   54.56    5.57
   3 -10  -7   18.90    3.22
   3 -10  -7   22.33    3.73
  -3  10   7   20.43    2.37
  -3  10   7   25.32    3.77
   2 -10  -7   82.58    9.05
   2 -10  -7   60.64    7.10
   2 -10  -7   78.71    7.82
  -2  10   7   68.64    6.34
  -2  10   7   81.13    7.74
   1 -10  -7   77.08    7.61
   1 -10  -7   74.15    5.73
   1 -10  -7   70.87    7.17
   1 -10  -7   57.57    6.61
  -1  10   7   67.38    5.52
  -1  10   7   58.47    5.93
  -1  10   7   74.66    7.13
   0 -10  -7   10.68    2.44
   0 -10  -7   12.34    1.55
   0 -10  -7   10.56    2.68
   0 -10  -7   10.63    2.23
   0  10   7   16.24    2.04
   0  10   7   12.60    1.28
   0  10   7   10.55    2.66
  -1 -10  -7   40.76    4.79
  -1 -10  -7   36.13    4.50
  -1 -10  -7   43.59    5.04
  -1 -10  -7   45.98    3.77
   1  10   7   46.30    3.40
   1  10   7   43.21    5.67
   1  10   7   34.75    4.06
  -2 -10  -7   68.51    6.69
  -2 -10  -7   69.81    6.83
  -2 -10  -7   61.29    5.01
  -2 -10  -7   60.58    6.35
  -2 -10  -7   73.57    5.64
   2  10   7   58.36    6.04
   2  10   7   75.42    6.72
  -3 -10  -7   11.18    2.26
  -3 -10  -7   10.36    2.05
  -3 -10  -7   13.63    1.63
  -3 -10  -7   12.54    2.37
   3  10   7   10.73    1.95
  -4 -10  -7   21.54    2.97
  -4 -10  -7   21.70    3.16
  -4 -10  -7   23.83    2.37
  -4 -10  -7   18.78    2.91
   4  10   7   17.59    2.74
   4  10   7   25.31    3.16
  -5 -10  -7   25.34    2.75
  -5 -10  -7   24.98    3.32
  -5 -10  -7   27.33    3.57
  -5 -10  -7   27.45    3.27
  -6 -10  -7    6.03    1.34
  -6 -10  -7    6.48    2.01
  -6 -10  -7    6.03    1.87
   6  10   7    4.81    1.64
   2 -11  -7   30.41    4.41
   2 -11  -7   26.86    3.88
   2 -11  -7   26.82    2.75
  -2  11   7   28.47    2.63
  -2  11   7   25.62    3.13
   1 -11  -7   83.91    8.00
   1 -11  -7   68.16    7.37
  -1  11   7   82.75    6.13
  -1  11   7   66.91    7.20
   0 -11  -7   63.88    6.92
   0 -11  -7   75.21    7.68
   0 -11  -7   72.63    7.27
   0  11   7   71.30    5.56
   0  11   7   62.69    6.92
  -1 -11  -7   36.21    4.74
  -1 -11  -7   44.11    3.78
  -1 -11  -7   42.73    5.16
   1  11   7   38.11    4.27
  -2 -11  -7  108.61    9.93
  -2 -11  -7  119.03   10.28
  -2 -11  -7  118.14    8.87
  -2 -11  -7  102.32    9.70
   2  11   7   96.26    9.32
  -3 -11  -7   92.82    8.70
  -3 -11  -7   85.19    8.37
  -3 -11  -7   92.56    6.95
  -3 -11  -7   99.15    8.80
  -3 -11  -7  102.62    7.68
   3  11   7   81.98    8.16
  -4 -11  -7   51.82    5.46
  -4 -11  -7   54.33    5.33
  -4 -11  -7   47.80    5.18
   4  11   7   43.09    5.02
   1  -6   8  170.57   13.62
   1  -6   8  175.75   13.01
   1  -6   8  165.77   17.39
   1  -6   8  151.97   13.81
  -2   6  -8   87.54    6.70
   2  -6   8   83.12    9.41
   1   5  -8   62.13    5.40
  -1  -5   8   68.42    5.96
  -1  -5   8   76.48    5.64
  -1  -5   8   66.09    7.62
   0   5  -8   44.74    3.76
   0   5  -8   48.94    4.49
   0  -5   8   45.00    4.46
   0  -5   8   43.75    5.92
  -1   5  -8  105.62    8.46
  -1   5  -8  117.56    9.55
   1  -5   8  118.55    8.74
   1  -5   8  110.22    9.69
   1  -5   8   93.81   10.70
  -2   5  -8   69.15    5.60
   2  -5   8   78.21    6.90
   2  -5   8   70.08    7.32
   2  -5   8   74.06    5.71
   2  -5   8   63.56    7.76
  -3   5  -8   50.22    4.09
   3  -5   8   45.68    6.17
   3  -5   8   55.21    4.18
   3  -5   8   53.83    6.26
   3  -5   8   48.06    5.83
   4  -5   8   95.94    8.33
   4  -5   8   77.30    8.91
   4  -5   8   76.78    8.62
  -5   5  -8   35.64    3.02
  -5   5  -8   33.27    2.99
   5  -5   8   31.98    5.01
   5  -5   8   34.27    7.41
   5  -5   8   40.59    4.76
   3   4  -8  121.63    9.71
  -3  -4   8  117.31   12.02
  -3  -4   8  124.34    9.85
   2   4  -8  128.26   10.17
   2   4  -8  146.62   10.47
   2   4  -8  125.09    9.91
  -2  -4   8  129.99   10.50
  -2  -4   8  114.98   11.96
  -2  -4   8  119.69   10.47
  -2  -4   8  137.86    9.97
   1   4  -8  168.59   12.89
   1   4  -8  160.61   12.73
   1   4  -8  182.29   13.60
  -1  -4   8  176.39   12.84
  -1  -4   8  191.56   12.88
  -1  -4   8  165.92   13.47
  -1  -4   8  147.37   14.74
  -1  -4   8  147.45   13.50
   0   4  -8  139.14   11.16
   0   4  -8  154.32   12.46
   0  -4   8  128.50   12.21
   0  -4   8  162.03   11.36
   0  -4   8  129.35   13.21
   0  -4   8  146.57   12.67
   0  -4   8  165.77   11.29
  -1   4  -8  184.49   14.25
  -1   4  -8  159.31   12.92
   1  -4   8  155.74   14.29
   1  -4   8  193.27   13.09
   1  -4   8  175.09   14.02
   1  -4   8  153.66   15.04
  -2   4  -8  266.46   19.91
  -2   4  -8  229.40   18.42
   2  -4   8  210.28   20.51
   2  -4   8  234.41   20.18
   2  -4   8  271.45   18.74
   2  -4   8  254.03   19.93
  -3   4  -8   73.60    6.81
  -3   4  -8   69.54    5.36
   3  -4   8   67.44    7.18
   3  -4   8   58.37    7.24
   3  -4   8   66.14    5.46
   3  -4   8   71.41    6.74
  -4   4  -8   92.38    7.36
  -4   4  -8  108.18    9.12
   4  -4   8   89.19    9.54
   4  -4   8   88.20    9.42
  -5   4  -8  152.25   12.60
  -5   4  -8  162.87   12.66
   5  -4   8  165.82   15.40
   5  -4   8  181.98   14.61
  -6   4  -8  104.74    8.65
  -6   4  -8  110.28    8.74
   6  -4   8  130.38   10.96
   6  -4   8  103.51   10.93
   6  -4   8  113.78   11.49
   4   3  -8   28.56    2.87
  -4  -3   8   25.67    2.84
  -4  -3   8   28.65    2.96
  -4  -3   8   24.79    2.82
  -4  -3   8   23.75    3.89
   3   3  -8   57.55    6.28
   3   3  -8   52.37    4.64
   3   3  -8   44.34    4.13
  -3  -3   8   46.58    4.48
  -3  -3   8   41.47    5.57
  -3  -3   8   43.00    4.42
   2   3  -8   28.96    2.90
   2   3  -8   31.45    2.70
   2   3  -8   38.69    4.91
  -2  -3   8   29.80    4.45
  -2  -3   8   36.14    2.85
  -2  -3   8   33.78    2.67
  -2  -3   8   29.31    3.40
  -2  -3   8   33.64    3.46
   1   3  -8   53.23    4.57
   1   3  -8   53.43    4.41
   1   3  -8   63.09    6.57
   1   3  -8   64.41    5.54
  -1  -3   8   49.69    6.16
  -1  -3   8   58.78    4.43
  -1  -3   8   53.46    5.42
  -1  -3   8   50.02    5.31
   0   3  -8   80.10    6.50
   0   3  -8   90.30    7.61
   0   3  -8   79.33    6.43
   0  -3   8   93.07    6.53
   0  -3   8   76.19    8.30
   0  -3   8   85.58    6.50
   0  -3   8   82.50    7.38
   0  -3   8   77.12    7.62
  -1   3  -8   31.60    2.75
  -1   3  -8   36.69    3.94
   1  -3   8   30.74    4.42
   1  -3   8   35.61    2.81
   1  -3   8   34.60    3.74
   1  -3   8   30.79    3.97
  -2   3  -8  148.99   11.56
  -2   3  -8  124.96   10.03
   2  -3   8  138.09   11.31
   2  -3   8  123.68   11.67
   2  -3   8  113.43   11.84
   2  -3   8  138.80   10.07
  -3   3  -8  197.29   15.51
  -3   3  -8  178.00   13.97
   3  -3   8  193.86   15.37
   3  -3   8  169.98   15.76
   3  -3   8  166.13   15.95
   3  -3   8  199.01   13.99
  -4   3  -8   84.30    6.72
  -4   3  -8   91.88    9.22
   4  -3   8   81.97    8.71
   4  -3   8   92.00    6.72
   4  -3   8   93.77    8.28
   4  -3   8   74.37    8.50
  -5   3  -8   99.97    8.34
  -5   3  -8  121.67   10.22
  -5   3  -8  106.52    8.42
   5  -3   8   99.23   10.36
   5  -3   8  121.99   10.23
   5  -3   8  103.86   10.63
  -6   3  -8  118.02    9.61
  -6   3  -8  116.64    9.52
  -6   3  -8  139.16   11.59
   6  -3   8  114.73   12.05
   6  -3   8  116.08   11.66
   6  -3   8  142.98   11.74
  -7   3  -8   37.69    3.24
   7  -3   8   38.05    5.67
   7  -3   8   46.76    5.44
   7  -3   8   37.86    5.48
   4   2  -8   65.05    5.90
   4   2  -8   81.71    6.83
  -4  -2   8   66.22    6.34
  -4  -2   8   66.40    7.38
   3   2  -8  206.79   17.51
   3   2  -8  257.56   19.90
   3   2  -8  246.88   18.45
  -3  -2   8  214.67   18.10
  -3  -2   8  238.28   17.19
  -3  -2   8  202.26   19.15
  -3  -2   8  206.31   18.06
  -3  -2   8  252.96   17.36
   2   2  -8  215.34   16.97
   2   2  -8  248.51   18.27
   2   2  -8  212.95   17.22
  -2  -2   8  226.42   17.92
  -2  -2   8  203.99   18.90
  -2  -2   8  239.42   17.12
  -2  -2   8  238.93   17.00
  -2  -2   8  213.57   17.98
   1   2  -8  233.85   18.39
   1   2  -8  234.19   18.57
   1   2  -8  267.13   19.70
   1   2  -8  266.34   20.69
  -1  -2   8  244.89   19.38
  -1  -2   8  214.10   19.43
  -1  -2   8  223.48   20.32
  -1  -2   8  271.59   18.51
   0   2  -8  355.17   28.55
   0   2  -8  407.40   30.69
   0   2  -8  405.75   29.89
   0   2  -8  380.22   28.66
   0  -2   8  387.04   28.54
   0  -2   8  400.79   28.63
   0  -2   8  366.56   29.56
   0  -2   8  345.94   29.85
  -1   2  -8  437.25   33.05
  -1   2  -8  482.80   33.08
   1  -2   8  461.68   34.22
   1  -2   8  399.02   34.90
   1  -2   8  424.40   34.58
  -2   2  -8  265.66   19.80
   2  -2   8  246.72   21.46
   2  -2   8  288.09   21.12
   2  -2   8  251.15   21.77
  -3   2  -8  411.25   29.01
  -3   2  -8  369.33   27.37
   3  -2   8  347.28   29.19
   3  -2   8  329.97   29.21
  -4   2  -8  215.74   16.33
  -4   2  -8  189.67   14.64
   4  -2   8  213.82   16.22
   4  -2   8  168.78   16.41
   4  -2   8  177.13   16.59
  -5   2  -8  110.74    9.47
  -5   2  -8   97.29    7.70
  -5   2  -8   92.68    7.60
   5  -2   8  107.61    9.37
   5  -2   8   96.25    9.84
   5  -2   8   92.14    9.52
  -6   2  -8  105.23    8.49
  -6   2  -8  122.36   10.81
   6  -2   8   99.31   10.39
   6  -2   8  107.61   10.98
   6  -2   8  122.22   10.49
  -7   2  -8  104.22    8.66
  -7   2  -8  125.78   10.85
   7  -2   8  101.96   10.63
   7  -2   8  104.21   11.28
   7  -2   8  133.31   11.09
   4   1  -8   54.30    6.18
   4   1  -8   53.01    5.37
   4   1  -8   44.99    4.36
  -4  -1   8   57.66    4.21
  -4  -1   8   42.72    5.65
  -4  -1   8   47.51    5.04
  -4  -1   8   49.25    5.07
  -4  -1   8   51.19    3.98
   3   1  -8   82.11    7.18
   3   1  -8  107.20    9.60
   3   1  -8  102.07    9.34
   3   1  -8   83.60    7.51
  -3  -1   8   93.20    8.28
  -3  -1   8   81.37    8.95
  -3  -1   8   86.80    8.21
  -3  -1   8  112.49    7.62
  -3  -1   8  101.45    7.45
   2   1  -8  190.61   14.72
   2   1  -8  191.09   15.57
   2   1  -8  167.91   13.57
   2   1  -8  156.16   13.29
  -2  -1   8  156.26   15.10
  -2  -1   8  201.87   13.46
  -2  -1   8  162.51   14.41
  -2  -1   8  183.22   13.29
   1   1  -8  107.22   11.01
   1   1  -8  112.02    8.66
   1   1  -8  118.75   11.44
   1   1  -8  101.69    8.44
  -1  -1   8  124.82    8.59
  -1  -1   8  106.23   10.32
  -1  -1   8  106.30    9.67
   0   1  -8   45.66    3.48
   0   1  -8   40.96    3.32
   0  -1   8   39.03    4.55
   0  -1   8   38.19    4.92
   0  -1   8   44.17    4.32
  -1   1  -8  100.89    7.95
  -1   1  -8  109.29    8.02
   1  -1   8   87.85    9.49
   1  -1   8  110.32    9.09
   1  -1   8  116.67    8.02
   1  -1   8   99.00    9.39
  -2   1  -8   52.58    5.03
  -2   1  -8   42.90    3.65
  -2   1  -8   47.56    3.64
   2  -1   8   48.40    4.79
   2  -1   8   41.42    5.16
   2  -1   8   42.39    5.09
   2  -1   8   46.96    3.67
  -3   1  -8   22.58    3.12
  -3   1  -8   20.00    1.91
  -3   1  -8   24.38    3.25
   3  -1   8   22.25    2.97
   3  -1   8   20.70    3.32
   3  -1   8   21.64    3.32
   3  -1   8   25.68    1.93
  -4   1  -8   71.35    5.76
  -4   1  -8   77.91    7.23
  -4   1  -8   68.62    6.82
   4  -1   8   67.58    7.41
   4  -1   8   71.05    7.59
   4  -1   8   82.36    5.77
   4  -1   8   79.78    7.16
  -5   1  -8   79.19    7.44
  -5   1  -8   69.99    7.00
   5  -1   8   70.31    7.53
   5  -1   8   82.30    7.40
   5  -1   8   72.83    7.86
  -6   1  -8   56.23    4.62
  -6   1  -8   64.01    6.42
   6  -1   8   56.18    6.41
   6  -1   8   56.26    6.84
   6  -1   8   65.98    6.46
  -7   1  -8  103.66    9.19
  -7   1  -8   88.42    7.15
   7  -1   8   85.87    9.01
   7  -1   8   85.32    9.65
   7  -1   8  105.00    9.35
  -8   1  -8   37.47    4.83
  -8   1  -8   33.90    2.85
  -8   1  -8   33.97    4.44
   8  -1   8   33.07    3.61
   8  -1   8   34.52    4.68
   8  -1   8   42.79    5.08
   8  -1   8   34.53    5.32
   5   0  -8   94.19    9.37
   5   0  -8   78.56    6.99
  -5   0   8   94.46    8.17
  -5   0   8   76.31    8.41
  -5   0   8   79.43    7.73
   4   0  -8  169.99   13.91
   4   0  -8  148.40   12.63
   4   0  -8  186.66   15.00
  -4   0   8  169.95   12.26
  -4   0   8  169.44   13.68
  -4   0   8  139.33   14.12
  -4   0   8  148.98   13.43
   3   0  -8   63.36    6.11
   3   0  -8   56.25    5.01
   3   0  -8   70.68    7.00
   3   0  -8   56.38    4.68
  -3   0   8   54.29    6.44
  -3   0   8   55.38    5.80
  -3   0   8   66.02    4.70
   2   0  -8  146.91   11.35
   2   0  -8  136.91   11.05
  -2   0   8  135.46   12.92
  -2   0   8  139.26   12.30
  -2   0   8  157.54   11.06
  -2   0   8  159.18   12.31
   1   0  -8  233.99   17.29
   1   0  -8  223.02   17.06
  -1   0   8  215.45   18.91
  -1   0   8  238.20   18.24
  -1   0   8  223.15   18.43
   0   0  -8  170.68   13.17
   0   0  -8  180.30   13.33
   0   0   8  159.26   14.91
   0   0   8  162.01   14.55
   0   0   8  184.03   14.32
   0   0   8  190.36   13.24
  -1   0  -8  104.31    9.55
  -1   0  -8  121.17    8.74
  -1   0  -8  114.71    8.63
  -1   0  -8  120.38    9.99
   1   0   8  106.84   10.32
   1   0   8  114.13    8.56
   1   0   8  115.63    9.71
   1   0   8  109.85   10.13
  -2   0  -8  489.00   34.21
  -2   0  -8  455.20   34.17
  -2   0  -8  480.23   35.60
  -2   0  -8  468.07   35.74
  -2   0  -8  406.50   35.10
   2   0   8  480.69   34.17
   2   0   8  465.47   35.38
   2   0   8  409.43   35.82
  -3   0  -8  362.09   27.85
  -3   0  -8  393.44   29.36
  -3   0  -8  394.15   29.39
  -3   0  -8  337.37   28.88
   3   0   8  404.92   27.84
   3   0   8  379.98   29.15
   3   0   8  330.58   29.48
  -4   0  -8  326.52   25.51
  -4   0  -8  288.43   25.05
  -4   0  -8  346.18   25.44
   4   0   8  313.26   26.74
   4   0   8  341.44   23.93
   4   0   8  275.59   25.53
   4   0   8  342.60   25.43
  -5   0  -8  192.32   17.07
  -5   0  -8  231.92   17.65
   5   0   8  200.92   17.66
   5   0   8  200.13   18.01
   5   0   8  229.31   17.56
  -6   0  -8   99.07    9.59
  -6   0  -8  104.99    8.26
  -6   0  -8  119.70   10.16
   6   0   8  103.45   10.57
   6   0   8  108.88   10.16
   6   0   8  119.11   12.08
   6   0   8  111.83    8.89
  -7   0  -8   84.13    7.95
  -7   0  -8   71.36    5.95
   7   0   8   75.95    6.67
   7   0   8   74.42    7.78
   7   0   8   86.02    8.02
   7   0   8   78.02    8.55
  -8   0  -8  128.80   10.83
  -8   0  -8   98.38   10.00
  -8   0  -8  104.79    8.47
   8   0   8  104.87    9.30
   8   0   8  110.47   11.45
   8   0   8  129.63   10.99
   8   0   8  108.67   10.40
   5  -1  -8    8.24    2.82
   5  -1  -8    5.07    1.29
  -5   1   8    4.91    1.52
  -5   1   8    4.01    1.36
  -5   1   8    5.69    2.17
  -5   1   8    6.16    0.76
   4  -1  -8   35.90    4.87
   4  -1  -8   35.36    4.22
   4  -1  -8   30.57    3.00
  -4   1   8   29.27    3.83
  -4   1   8   33.91    2.65
  -4   1   8   27.76    4.31
  -4   1   8   34.30    3.97
   3  -1  -8   66.11    5.55
   3  -1  -8   67.20    5.88
   3  -1  -8   73.82    7.71
   3  -1  -8   86.18    8.04
  -3   1   8   68.75    7.47
  -3   1   8   76.98    5.57
  -3   1   8   64.78    6.76
  -3   1   8   75.58    6.92
   2  -1  -8   58.20    4.71
   2  -1  -8   54.74    4.42
  -2   1   8   53.34    6.16
  -2   1   8   56.83    5.76
  -2   1   8   61.12    5.67
   1  -1  -8   78.20    8.15
   1  -1  -8   94.58    7.22
   1  -1  -8   92.61    6.97
  -1   1   8   90.91    8.84
  -1   1   8  100.31    8.23
  -1   1   8   91.61    8.38
   0  -1  -8  240.69   20.22
   0  -1  -8  270.17   19.46
   0  -1  -8  274.91   20.73
   0  -1  -8  244.53   19.26
   0   1   8  273.87   20.51
   0   1   8  236.60   21.10
  -1  -1  -8  129.38   10.86
  -1  -1  -8  116.16   10.46
  -1  -1  -8  116.97   11.04
  -1  -1  -8  123.42    9.51
   1   1   8  135.95   10.75
   1   1   8  125.31   11.09
   1   1   8  142.43    9.55
   1   1   8  113.46   11.31
  -2  -1  -8   86.36    8.13
  -2  -1  -8   90.71    7.20
  -2  -1  -8   99.59    8.59
  -2  -1  -8  104.38    8.77
   2   1   8   89.66    8.78
   2   1   8   87.88    8.84
   2   1   8  101.32    7.21
   2   1   8   95.39    8.33
  -3  -1  -8   82.93    6.64
  -3  -1  -8   81.66    7.60
  -3  -1  -8   90.64    7.87
  -3  -1  -8   88.25    8.02
   3   1   8   81.75    8.24
   3   1   8   91.22    6.52
   3   1   8   80.04    8.14
   3   1   8   80.50    6.69
   3   1   8   91.27    7.82
  -4  -1  -8   27.14    3.47
  -4  -1  -8   25.71    3.20
  -4  -1  -8   26.94    3.28
   4   1   8   25.10    2.44
   4   1   8   26.66    3.33
   4   1   8   23.85    3.53
   4   1   8   29.85    3.92
   4   1   8   27.63    2.14
  -5  -1  -8   67.49    6.32
  -5  -1  -8   55.07    5.78
   5   1   8   59.37    5.07
   5   1   8   54.62    6.17
   5   1   8   67.08    6.18
   5   1   8   57.51    6.57
  -6  -1  -8   92.58    8.41
  -6  -1  -8   75.52    7.84
   6   1   8   84.28    7.21
   6   1   8   86.05    8.97
   6   1   8   85.46    8.38
   6   1   8   99.70    8.47
  -7  -1  -8   22.62    3.43
   7   1   8   22.44    3.37
   7   1   8   19.07    3.69
   7   1   8   22.61    3.45
   7   1   8   20.58    2.47
  -8  -1  -8   59.12    6.18
  -8  -1  -8   49.16    3.95
   8   1   8   51.15    6.61
   8   1   8   50.02    4.88
   8   1   8   49.34    5.65
  -5   2   8  181.84   14.47
  -5   2   8  149.60   14.54
   4  -2  -8   98.68    8.46
  -4   2   8  121.98   10.00
  -4   2   8  104.16    9.64
  -4   2   8   93.49   10.00
  -4   2   8  113.02    8.13
   3  -2  -8  233.17   18.11
   3  -2  -8  261.86   19.62
  -3   2   8  227.56   19.28
  -3   2   8  224.66   19.97
   2  -2  -8  243.78   19.19
   2  -2  -8  238.29   18.92
   2  -2  -8  269.78   20.57
  -2   2   8  222.06   20.82
  -2   2   8  273.33   18.93
  -2   2   8  268.99   20.36
  -2   2   8  247.94   20.44
   1  -2  -8  219.85   18.52
   1  -2  -8  240.75   18.96
   1  -2  -8  225.72   17.49
   1  -2  -8  269.27   19.74
   1  -2  -8  227.33   17.71
  -1   2   8  247.07   18.82
  -1   2   8  217.96   19.24
  -1   2   8  218.29   19.44
   0  -2  -8  199.90   15.70
   0  -2  -8  190.08   14.22
   0  -2  -8  184.93   15.33
   0   2   8  208.11   15.52
   0   2   8  168.24   16.84
   0   2   8  181.34   15.74
  -1  -2  -8  219.40   18.53
  -1  -2  -8  250.89   19.33
  -1  -2  -8  259.47   19.28
  -1  -2  -8  222.30   17.50
   1   2   8  256.26   17.54
   1   2   8  212.53   19.03
   1   2   8  213.13   19.29
  -2  -2  -8  102.86    9.57
  -2  -2  -8  107.58    8.57
  -2  -2  -8  120.11   10.02
  -2  -2  -8  120.90   10.03
   2   2   8  114.43    8.79
   2   2   8  118.68    8.57
   2   2   8  104.31   10.21
   2   2   8  119.98    9.82
   2   2   8  108.46   10.20
  -3  -2  -8  526.06   38.40
  -3  -2  -8  452.33   37.93
   3   2   8  477.59   38.71
   3   2   8  494.01   37.03
   3   2   8  512.12   36.81
   3   2   8  526.84   38.23
   3   2   8  463.50   38.57
  -4  -2  -8  371.16   32.19
  -4  -2  -8  458.72   32.69
  -4  -2  -8  428.14   32.67
   4   2   8  442.62   32.58
   4   2   8  396.32   32.86
   4   2   8  412.78   33.14
   4   2   8  403.81   31.40
  -5  -2  -8  209.92   16.77
  -5  -2  -8  211.83   16.27
  -5  -2  -8  182.46   16.28
   5   2   8  199.76   16.91
   5   2   8  214.99   16.66
   5   2   8  191.01   17.15
   5   2   8  196.36   15.54
  -6  -2  -8  250.83   22.23
  -6  -2  -8  235.83   20.86
   6   2   8  252.09   21.68
   6   2   8  253.43   19.89
   6   2   8  263.94   21.19
   6   2   8  287.95   21.13
  -7  -2  -8  243.54   19.32
  -7  -2  -8  205.90   18.67
   7   2   8  228.70   18.08
   7   2   8  251.33   19.31
   7   2   8  219.65   19.90
   7   2   8  236.00   19.18
  -8  -2  -8   60.41    6.73
  -8  -2  -8   76.51    7.42
   8   2   8   73.97    8.33
   8   2   8   70.27    6.26
   9   2   8   77.86    7.06
   6  -3  -8   11.32    3.22
  -6   3   8    9.25    2.97
  -6   3   8   12.71    2.75
  -6   3   8    9.46    1.17
  -6   3   8    9.20    1.04
   5  -3  -8   71.18    7.37
   5  -3  -8   84.79   11.15
  -5   3   8   71.88    7.28
  -5   3   8   59.37    7.15
  -5   3   8   69.59    5.41
   4  -3  -8   44.40    5.58
   4  -3  -8   40.89    4.78
   4  -3  -8   30.94    3.30
  -4   3   8   42.42    3.15
  -4   3   8   40.31    4.62
  -4   3   8   33.18    4.77
  -4   3   8   36.14    4.52
   3  -3  -8   12.45    2.80
   3  -3  -8   10.02    2.27
   3  -3  -8    9.23    1.25
  -3   3   8    9.26    2.16
  -3   3   8   10.67    2.24
  -3   3   8    7.73    2.27
  -3   3   8   11.43    0.98
   2  -3  -8   50.28    4.26
   2  -3  -8   49.62    5.09
   2  -3  -8   54.73    5.55
   2  -3  -8   49.28    3.99
  -2   3   8   52.41    5.50
  -2   3   8   56.65    5.42
  -2   3   8   48.81    5.94
   1  -3  -8   71.74    6.82
   1  -3  -8   81.17    7.28
   1  -3  -8   72.04    5.74
  -1   3   8   67.50    7.61
  -1   3   8   85.80    7.17
  -1   3   8   73.79    7.24
   0  -3  -8   86.50    7.94
   0  -3  -8   88.81    6.91
   0  -3  -8   93.02    9.30
   0   3   8  104.21    8.30
   0   3   8   83.98    8.83
   0   3   8   89.75    8.44
  -1  -3  -8  401.82   29.34
  -1  -3  -8  365.03   27.62
  -1  -3  -8  408.48   29.24
  -1  -3  -8  334.10   28.61
   1   3   8  349.54   29.26
   1   3   8  331.35   29.48
   1   3   8  396.76   28.95
  -2  -3  -8  190.03   14.49
  -2  -3  -8  203.95   16.02
  -2  -3  -8  178.07   15.52
   2   3   8  172.79   16.22
   2   3   8  196.41   14.58
   2   3   8  208.06   14.48
   2   3   8  207.15   15.79
   2   3   8  184.85   16.18
  -3  -3  -8   85.78    7.80
  -3  -3  -8   94.20    7.72
  -3  -3  -8   76.36    7.38
   3   3   8   84.73    7.58
   3   3   8   85.56    6.32
   3   3   8   80.67    6.57
   3   3   8   80.52    8.10
   3   3   8   79.30    8.05
  -4  -3  -8  183.10   16.22
  -4  -3  -8  217.20   16.35
  -4  -3  -8  214.54   16.73
   4   3   8  191.81   16.91
   4   3   8  190.31   15.41
   4   3   8  192.19   17.04
   4   3   8  218.22   16.58
  -5  -3  -8   66.74    6.60
  -5  -3  -8   73.62    7.02
  -5  -3  -8   69.67    6.39
   5   3   8   78.57    6.94
   5   3   8   69.92    7.13
   5   3   8   69.60    5.89
   5   3   8   67.00    7.33
  -6  -3  -8    7.60    1.00
  -6  -3  -8    9.23    1.98
  -6  -3  -8   10.72    2.29
  -6  -3  -8   10.20    1.73
   6   3   8    9.22    2.48
   6   3   8   10.52    2.24
   6   3   8    9.32    1.48
   6   3   8   10.11    2.27
  -7  -3  -8   46.79    5.29
  -7  -3  -8   41.08    4.86
   7   3   8   49.97    5.31
   7   3   8   42.32    4.29
   7   3   8   47.75    5.94
   7   3   8   49.00    5.28
  -9  -3  -8    8.50    2.17
   5  -4  -8   48.48    5.48
   5  -4  -8   35.15    3.75
  -5   4   8   42.62    3.67
  -5   4   8   40.38    5.04
  -5   4   8   43.53    5.19
   4  -4  -8  197.38   16.88
   4  -4  -8  230.37   18.63
  -4   4   8  208.60   18.34
  -4   4   8  245.82   18.63
   3  -4  -8  157.35   13.02
   3  -4  -8  186.01   14.67
   3  -4  -8  145.01   13.90
  -3   4   8  154.19   14.84
  -3   4   8  189.82   12.75
  -3   4   8  190.21   14.53
  -3   4   8  161.64   14.43
   2  -4  -8  258.94   20.29
   2  -4  -8  300.98   22.16
   2  -4  -8  258.44   21.56
  -2   4   8  260.56   21.97
  -2   4   8  304.54   21.98
  -2   4   8  243.92   22.42
   1  -4  -8  455.37   33.19
   1  -4  -8  400.68   31.45
   1  -4  -8  400.28   32.64
  -1   4   8  375.14   33.56
  -1   4   8  484.94   33.10
  -1   4   8  411.68   33.12
   0  -4  -8  284.99   23.06
   0  -4  -8  293.86   24.20
   0  -4  -8  304.72   24.87
   0  -4  -8  326.56   24.69
   0   4   8  345.14   24.55
   0   4   8  302.94   24.75
   0   4   8  302.39   27.47
  -1  -4  -8  196.11   15.73
  -1  -4  -8  206.67   15.92
  -1  -4  -8  181.31   15.32
  -1  -4  -8  181.39   14.20
   1   4   8  208.40   15.59
   1   4   8  182.37   15.88
   1   4   8  168.60   16.19
  -2  -4  -8  300.71   23.43
  -2  -4  -8  282.57   24.51
  -2  -4  -8  365.34   27.65
  -2  -4  -8  332.75   25.04
   2   4   8  340.09   23.43
   2   4   8  315.62   23.58
   2   4   8  276.64   25.34
   2   4   8  298.59   25.20
  -3  -4  -8   63.70    6.14
  -3  -4  -8   68.79    6.51
  -3  -4  -8   68.58    6.26
   3   4   8   66.07    5.27
   3   4   8   60.67    6.76
   3   4   8   57.81    6.58
   3   4   8   72.31    6.37
  -4  -4  -8  134.79   11.57
  -4  -4  -8  141.70   11.20
  -4  -4  -8  122.94   11.16
   4   4   8  130.69   10.39
   4   4   8  153.69   12.11
   4   4   8  120.25   11.76
   4   4   8  125.20   11.91
  -5  -4  -8  268.33   20.35
  -5  -4  -8  235.64   20.97
  -5  -4  -8  269.00   20.99
   5   4   8  248.96   21.45
   5   4   8  240.81   19.74
   5   4   8  286.51   20.95
   5   4   8  251.19   21.18
  -6  -4  -8  122.84   10.67
  -6  -4  -8  104.07   10.10
  -6  -4  -8  123.11    9.83
   6   4   8  111.47    9.50
   6   4   8  111.38   11.09
   6   4   8  118.77   10.75
   6   4   8  130.39   10.63
  -7  -4  -8   90.40    8.99
  -7  -4  -8  108.47    9.57
   7   4   8   92.04    8.39
   7   4   8  113.18    9.61
  -8  -4  -8  150.08   12.92
  -8  -4  -8  124.01   12.27
   8   4   8  138.96   11.84
   8   4   8  166.47   13.18
   5  -5  -8   28.11    2.94
   5  -5  -8   33.99    4.65
  -5   5   8   34.83    4.56
  -5   5   8   33.25    2.95
  -5   5   8   31.07    4.35
   4  -5  -8   90.99    8.61
   4  -5  -8   74.96    6.79
  -4   5   8   92.23    8.50
  -4   5   8   84.95    8.38
  -4   5   8   81.71    6.93
   3  -5  -8   85.07    8.08
   3  -5  -8   95.15    8.91
   3  -5  -8   68.36    7.45
  -3   5   8   74.48    7.89
  -3   5   8   88.09    8.03
   2  -5  -8    8.64    1.90
   2  -5  -8    9.84    2.19
   2  -5  -8   10.83    2.62
   2  -5  -8    7.92    0.80
  -2   5   8    8.88    2.07
  -2   5   8    8.71    2.39
   1  -5  -8   36.19    4.11
   1  -5  -8   41.15    5.95
   1  -5  -8   34.95    2.92
  -1   5   8   42.87    4.42
  -1   5   8   35.66    4.88
  -1   5   8   38.08    4.52
   0  -5  -8   73.13    7.13
   0  -5  -8   85.18    7.57
   0  -5  -8   68.47    6.75
   0  -5  -8   69.96    5.62
   0   5   8   82.34    7.09
   0   5   8   68.19    7.65
   0   5   8   73.11    7.25
  -1  -5  -8   11.06    1.98
  -1  -5  -8   12.77    1.18
  -1  -5  -8   12.52    2.32
  -1  -5  -8   13.29    2.31
  -1  -5  -8   11.81    1.03
   1   5   8   13.13    2.17
   1   5   8    9.73    2.45
   1   5   8   11.08    2.29
  -2  -5  -8   99.52    9.46
  -2  -5  -8  118.22   10.01
  -2  -5  -8  111.28    8.42
  -2  -5  -8  119.74   10.40
   2   5   8  100.25   10.38
   2   5   8  105.43   10.12
   2   5   8  126.34    9.88
  -3  -5  -8  199.77   15.29
  -3  -5  -8  197.47   15.57
  -3  -5  -8  175.48   15.07
   3   5   8  177.82   14.17
   3   5   8  169.53   15.88
   3   5   8  189.93   15.90
  -4  -5  -8   64.11    6.22
  -4  -5  -8   54.99    5.75
  -4  -5  -8   65.34    5.79
   4   5   8   55.56    5.01
   4   5   8   60.29    6.52
   4   5   8   53.23    6.34
   4   5   8   69.44    6.12
  -5  -5  -8  108.29    8.96
  -5  -5  -8   96.97    9.18
  -5  -5  -8  107.58    9.60
   5   5   8   97.96    8.46
   5   5   8  104.06    9.86
   5   5   8  102.67   10.05
   5   5   8  117.02    9.57
  -6  -5  -8  124.97   11.02
  -6  -5  -8  123.73   10.10
  -6  -5  -8  111.10   10.55
   6   5   8  129.94   11.17
   6   5   8  114.58    9.92
   6   5   8  131.98   10.96
  -7  -5  -8   31.39    4.11
  -7  -5  -8   29.15    3.77
  -7  -5  -8   32.78    2.81
   7   5   8   31.85    3.55
   7   5   8   34.42    5.93
   7   5   8   29.00    3.24
  -8  -5  -8   42.14    3.57
  -8  -5  -8   41.52    5.08
   8   5   8   42.23    4.34
   8   5   8   39.94    4.50
   5  -6  -8   53.06    6.01
   5  -6  -8   40.75    4.04
  -5   6   8   43.74    5.61
  -5   6   8   47.67    4.05
  -5   6   8   51.05    5.84
   4  -6  -8   20.57    3.27
   4  -6  -8   26.25    3.90
   4  -6  -8   20.18    2.18
  -4   6   8   21.98    2.35
  -4   6   8   22.64    3.60
  -4   6   8   26.63    3.82
   3  -6  -8  151.75   14.38
   3  -6  -8  199.94   15.82
   3  -6  -8  174.79   15.01
  -3   6   8  183.76   15.10
  -3   6   8  156.46   14.77
   2  -6  -8  133.20   11.72
   2  -6  -8  157.59   12.35
  -2   6   8  127.87   11.20
  -2   6   8  127.79   12.20
   1  -6  -8  109.21    8.94
   1  -6  -8  130.85   10.84
   1  -6  -8  108.94   10.22
  -1   6   8  115.51   10.73
  -1   6   8  132.99   10.63
   0  -6  -8  397.44   29.17
   0  -6  -8  342.53   27.33
   0  -6  -8  339.54   28.60
   0  -6  -8  410.87   29.44
   0   6   8  406.68   28.99
   0   6   8  331.68   29.63
   0   6   8  337.13   29.04
  -1  -6  -8  438.53   32.45
  -1  -6  -8  369.06   31.88
  -1  -6  -8  384.14   30.71
  -1  -6  -8  452.98   32.59
  -1  -6  -8  406.68   30.91
   1   6   8  371.91   32.40
   1   6   8  461.30   32.39
  -2  -6  -8  129.53   12.08
  -2  -6  -8  139.41   10.95
  -2  -6  -8  151.43   12.59
  -2  -6  -8  162.32   12.57
  -2  -6  -8  150.92   11.20
   2   6   8  164.56   12.49
   2   6   8  138.21   12.72
   2   6   8  129.49   12.99
  -3  -6  -8  217.53   15.70
  -3  -6  -8  224.11   17.43
  -3  -6  -8  185.11   16.63
  -3  -6  -8  216.72   17.11
   3   6   8  220.87   16.89
   3   6   8  179.79   17.37
   3   6   8  194.08   17.31
  -4  -6  -8  145.50   13.14
  -4  -6  -8  169.28   13.68
  -4  -6  -8  172.06   13.22
   4   6   8  176.85   13.50
   4   6   8  144.32   13.86
   4   6   8  148.67   12.36
   4   6   8  154.01   13.99
  -5  -6  -8  100.87    8.27
  -5  -6  -8   82.51    8.36
  -5  -6  -8   96.17    8.88
   5   6   8   89.61    7.76
   5   6   8  105.89    8.85
  -6  -6  -8  130.82   11.42
  -6  -6  -8  132.38   10.49
  -6  -6  -8  115.06   10.94
   6   6   8  116.47   10.29
   6   6   8  122.79   10.78
   6   6   8  146.78   11.45
  -7  -6  -8   39.29    4.74
  -7  -6  -8   46.61    3.83
  -7  -6  -8   45.31    4.02
  -7  -6  -8   46.89    5.22
   7   6   8   38.80    4.20
   7   6   8   48.02    5.14
   7   6   8   43.24    4.56
  -8  -6  -8   19.84    1.97
  -8  -6  -8   19.49    3.33
  -8  -6  -8   17.02    2.88
   8   6   8   18.75    2.64
   8   6   8   17.40    2.48
   5  -7  -8   36.89    3.76
   5  -7  -8   38.20    5.04
   5  -7  -8   50.05    5.86
  -5   7   8   44.66    3.82
  -5   7   8   41.44    5.49
  -5   7   8   52.64    5.83
   4  -7  -8   40.97    5.06
   4  -7  -8   33.63    4.45
  -4   7   8   33.74    4.74
  -4   7   8   35.84    3.38
  -4   7   8   39.90    4.96
   3  -7  -8   52.21    6.98
   3  -7  -8   69.83    7.29
   3  -7  -8   62.18    6.57
  -3   7   8   51.33    6.25
  -3   7   8   55.36    5.05
  -3   7   8   60.05    6.40
   2  -7  -8  148.76   12.65
   2  -7  -8  117.61   11.56
   2  -7  -8  147.77   12.25
  -2   7   8  121.27   11.97
  -2   7   8  144.28   12.03
  -2   7   8  132.40   10.87
   1  -7  -8   45.54    4.98
   1  -7  -8   37.66    4.47
   1  -7  -8   42.75    5.53
   1  -7  -8   40.96    3.16
  -1   7   8   39.72    4.89
  -1   7   8   43.92    4.77
  -1   7   8   40.09    3.95
   0  -7  -8    7.79    1.82
   0  -7  -8   10.65    2.33
   0  -7  -8   10.16    2.28
   0  -7  -8    8.81    0.78
   0   7   8   10.73    2.13
   0   7   8    9.94    1.62
   0   7   8    8.64    2.22
  -1  -7  -8   42.89    3.52
  -1  -7  -8   47.52    5.13
  -1  -7  -8   50.78    5.22
  -1  -7  -8   44.08    6.01
  -1  -7  -8   46.81    3.81
   1   7   8   51.39    5.05
   1   7   8   45.15    5.22
   1   7   8   40.39    4.36
  -2  -7  -8   23.71    1.93
  -2  -7  -8   25.83    2.26
  -2  -7  -8   24.20    3.27
  -2  -7  -8   25.70    3.18
  -2  -7  -8   24.71    3.37
   2   7   8   19.89    2.74
   2   7   8   23.14    3.50
   2   7   8   27.78    3.34
  -3  -7  -8   27.19    2.43
  -3  -7  -8   27.27    3.31
  -3  -7  -8   23.13    3.13
  -3  -7  -8   26.04    3.51
   3   7   8   21.32    2.87
   3   7   8   23.97    3.68
   3   7   8   28.85    3.39
  -4  -7  -8   64.75    6.39
  -4  -7  -8   61.79    5.84
  -4  -7  -8   65.62    5.10
  -4  -7  -8   55.88    5.94
   4   7   8   55.01    5.70
   4   7   8   67.31    6.22
   4   7   8   57.70    5.46
  -5  -7  -8   29.30    3.71
  -5  -7  -8   23.71    2.91
  -5  -7  -8   23.46    3.19
   5   7   8   21.03    2.53
   5   7   8   22.55    3.01
   5   7   8   28.95    3.55
  -6  -7  -8   27.51    3.66
  -6  -7  -8   31.40    4.05
  -6  -7  -8   30.50    3.19
   6   7   8   34.41    4.00
   6   7   8   28.92    3.51
   6   7   8   27.36    3.06
  -7  -7  -8   83.03    9.50
  -7  -7  -8   99.43    9.06
  -7  -7  -8  101.15    7.60
  -7  -7  -8   94.68    7.64
   7   7   8   87.76    8.01
   7   7   8   97.58    8.43
  -8  -7  -8   33.84    4.38
   8   7   8   34.03    3.77
   8   7   8   29.75    3.54
   4  -8  -8   72.07    7.83
   4  -8  -8   84.80    8.54
  -4   8   8   77.02    8.32
  -4   8   8   79.60    6.67
  -4   8   8   88.68    8.53
   3  -8  -8   30.31    4.14
   3  -8  -8   36.76    4.72
   3  -8  -8   38.37    5.08
  -3   8   8   31.03    3.25
  -3   8   8   31.01    4.51
  -3   8   8   36.43    4.62
   2  -8  -8   62.72    7.41
   2  -8  -8   61.40    6.50
   2  -8  -8   51.32    5.89
  -2   8   8   53.87    6.29
  -2   8   8   56.93    5.17
  -2   8   8   64.39    6.40
   1  -8  -8  121.95   10.47
   1  -8  -8   92.21    9.50
   1  -8  -8  113.12   10.08
  -1   8   8  105.82    8.95
  -1   8   8   97.62    9.94
  -1   8   8  117.09    9.96
   0  -8  -8   88.77    8.21
   0  -8  -8   71.61    7.47
   0  -8  -8   88.67    8.08
   0  -8  -8   75.78    6.12
   0   8   8   92.38    7.96
   0   8   8   76.44    7.03
   0   8   8   79.59    8.03
  -1  -8  -8  179.86   13.10
  -1  -8  -8  154.53   12.72
  -1  -8  -8  155.34   14.10
  -1  -8  -8  196.32   14.83
  -1  -8  -8  173.64   14.55
   1   8   8  159.87   14.61
   1   8   8  186.08   14.45
   1   8   8  157.46   13.68
  -2  -8  -8  234.30   20.46
  -2  -8  -8  271.98   19.54
  -2  -8  -8  244.37   19.14
  -2  -8  -8  268.43   20.84
  -2  -8  -8  262.55   20.93
   2   8   8  225.07   20.11
   2   8   8  286.50   20.88
  -3  -8  -8  160.69   13.19
  -3  -8  -8  161.58   13.50
  -3  -8  -8  175.85   12.16
  -3  -8  -8  144.42   13.02
   3   8   8  136.10   12.70
  -4  -8  -8  158.73   14.58
  -4  -8  -8  180.42   15.06
  -4  -8  -8  181.38   14.57
   4   8   8  159.71   14.38
   4   8   8  203.22   15.06
  -5  -8  -8  219.56   19.26
  -5  -8  -8  240.26   18.96
  -5  -8  -8  247.98   18.34
  -5  -8  -8  252.39   19.74
   5   8   8  272.96   20.40
   5   8   8  208.63   18.98
   5   8   8  225.08   18.53
  -6  -8  -8   82.37    7.86
  -6  -8  -8   83.96    7.14
  -6  -8  -8   91.01    8.98
   6   8   8   78.51    7.49
   6   8   8   74.43    6.99
  -7  -8  -8   65.35    6.81
  -7  -8  -8   71.73    5.81
  -7  -8  -8   73.72    7.25
   7   8   8   67.49    6.29
   7   8   8   71.06    6.67
   3  -9  -8   40.27    5.16
   3  -9  -8   53.85    5.96
  -3   9   8   43.46    5.59
  -3   9   8   45.95    4.22
   2  -9  -8   41.03    5.19
   2  -9  -8   52.23    6.06
   2  -9  -8   52.58    5.87
  -2   9   8   53.87    5.71
  -2   9   8   44.62    5.66
  -2   9   8   46.29    4.47
   1  -9  -8  103.45    9.30
   1  -9  -8   79.51    8.31
   1  -9  -8   97.18    8.99
  -1   9   8   82.78    8.80
  -1   9   8   85.73    7.71
  -1   9   8   97.84    8.75
   0  -9  -8  103.36    9.42
   0  -9  -8   84.85    8.83
   0  -9  -8  108.32    9.64
   0   9   8   87.98    8.31
   0   9   8  110.13    9.35
  -1  -9  -8   56.21    5.91
  -1  -9  -8   55.70    4.47
  -1  -9  -8   45.59    5.34
  -1  -9  -8   53.94    5.81
   1   9   8   55.54    4.22
   1   9   8   46.96    4.95
   1   9   8   56.37    5.66
  -2  -9  -8   89.79    8.85
  -2  -9  -8   93.00    7.46
  -2  -9  -8  106.88    9.34
  -2  -9  -8  104.67    9.32
   2   9   8  112.01    9.25
   2   9   8   90.94    8.51
  -3  -9  -8   90.15    6.64
  -3  -9  -8   87.53    7.98
  -3  -9  -8   71.69    7.43
  -3  -9  -8   84.98    7.65
   3   9   8   68.73    7.13
  -4  -9  -8   14.14    2.62
  -4  -9  -8   15.31    2.42
  -4  -9  -8   11.20    2.31
  -4  -9  -8   15.77    1.77
   4   9   8   11.16    2.18
   4   9   8   16.76    2.66
  -5  -9  -8   19.10    2.41
  -5  -9  -8   18.15    3.06
  -5  -9  -8   19.32    3.12
  -5  -9  -8   19.12    2.60
   5   9   8   22.85    3.16
   5   9   8   16.69    2.63
  -6  -9  -8   27.42    3.02
  -6  -9  -8   27.80    3.80
  -6  -9  -8   26.30    3.52
  -6  -9  -8   27.09    2.87
   6   9   8   22.29    3.62
   2 -10  -8   76.28    8.46
   2 -10  -8   99.37    9.32
  -2  10   8   82.89    7.64
  -2  10   8  106.49    9.27
   1 -10  -8   74.99    7.95
   1 -10  -8   56.61    6.59
   1 -10  -8   70.72    7.23
  -1  10   8   62.65    5.94
  -1  10   8   68.92    6.99
   0 -10  -8  112.94   10.18
   0 -10  -8   90.80    9.49
   0 -10  -8  113.69   10.34
   0  10   8   94.18    8.96
   0  10   8  115.67    8.34
   0  10   8  113.67   10.00
  -1 -10  -8   72.21    5.78
  -1 -10  -8   72.76    7.86
  -1 -10  -8   69.03    7.15
  -1 -10  -8   61.24    6.70
   1  10   8   61.72    6.30
   1  10   8   75.59    7.09
   1  10   8   75.06    5.48
  -2 -10  -8   49.34    5.36
  -2 -10  -8   43.13    5.00
  -2 -10  -8   41.78    3.51
  -2 -10  -8   48.25    5.33
  -2 -10  -8   50.30    4.11
   2  10   8   53.07    5.34
   2  10   8   41.88    4.63
  -3 -10  -8   86.05    7.86
  -3 -10  -8   85.72    8.03
  -3 -10  -8   73.21    7.55
  -3 -10  -8   90.14    6.73
   3  10   8   68.63    7.26
  -4 -10  -8   79.72    7.40
  -4 -10  -8   74.94    6.93
  -4 -10  -8   77.58    6.09
  -4 -10  -8   64.70    6.86
   4  10   8   60.92    6.95
  -5 -10  -8   25.18    2.80
  -5 -10  -8   26.33    3.70
  -5 -10  -8   25.68    3.15
  -5 -10  -8   25.91    3.45
   5  10   8   23.02    3.26
   1 -11  -8   16.54    3.28
   1 -11  -8   14.21    2.77
  -1  11   8   16.08    2.25
  -1  11   8   15.13    1.66
   0 -11  -8   12.39    2.58
   0 -11  -8    8.72    1.87
   0 -11  -8   15.37    3.07
   0  11   8   14.23    1.43
   0  11   8   12.00    1.98
  -1 -11  -8   47.56    5.39
  -1 -11  -8   44.81    5.37
  -1 -11  -8   38.50    4.83
  -1 -11  -8   48.01    4.25
   1  11   8   38.83    4.39
  -2 -11  -8   23.51    3.52
  -2 -11  -8   24.75    3.58
  -2 -11  -8   20.30    3.17
  -2 -11  -8   22.65    2.36
   2  11   8   18.51    2.80
  -3 -11  -8   21.05    2.23
  -3 -11  -8   18.17    2.93
  -3 -11  -8   20.50    3.24
  -3 -11  -8   21.23    3.20
   3  11   8   15.42    2.63
  -4 -11  -8   47.99    5.43
  -4 -11  -8   50.98    5.19
   4  11   8   40.91    5.06
   1   4  -9   35.36    3.14
  -1  -4   9   35.72    5.22
  -1  -4   9   41.31    3.11
  -1  -4   9   39.59    3.97
  -1  -4   9   32.90    3.89
   0   4  -9   30.31    2.58
   0  -4   9   29.90    3.46
   0  -4   9   27.90    4.50
   0  -4   9   27.26    3.59
   0  -4   9   32.81    2.67
  -1   4  -9   70.98    5.33
   1  -4   9   56.48    7.34
   1  -4   9   69.81    6.48
   1  -4   9   72.11    5.47
   1  -4   9   64.48    6.79
  -2   4  -9   30.18    2.67
   2  -4   9   30.72    3.13
   2  -4   9   33.84    3.94
   2  -4   9   32.19    4.32
   2  -4   9   28.15    4.69
  -3   4  -9   49.87    4.21
   3  -4   9   55.13    5.71
   3  -4   9   56.07    4.32
   3  -4   9   47.08    6.02
  -4   4  -9   58.21    4.74
   4  -4   9   53.88    6.95
   4  -4   9   65.13    7.66
   4  -4   9   58.27    4.92
   4  -4   9   58.38    6.92
   2   3  -9  106.51    8.48
   2   3  -9  108.32    8.76
  -2  -3   9  106.16    9.41
  -2  -3   9  102.45   10.77
  -2  -3   9  123.88    9.54
   1   3  -9  154.39   11.60
   1   3  -9  126.70   10.23
   1   3  -9  129.41   10.40
  -1  -3   9  139.25   14.42
  -1  -3   9  138.00   11.26
  -1  -3   9  114.04   11.73
   0   3  -9  135.84   10.75
   0   3  -9  113.97    9.38
   0  -3   9  126.41    9.32
   0  -3   9  112.82   10.73
   0  -3   9  123.00   10.46
   0  -3   9  103.40   11.37
   0  -3   9  133.65    9.45
  -1   3  -9  181.54   14.70
  -1   3  -9  212.81   16.25
   1  -3   9  180.56   16.31
   1  -3   9  174.70   16.93
   1  -3   9  194.59   15.95
   1  -3   9  212.60   14.79
   1  -3   9  199.39   14.79
  -2   3  -9  270.00   19.72
  -2   3  -9  221.85   17.96
   2  -3   9  210.19   20.19
   2  -3   9  229.41   19.91
   2  -3   9  255.75   19.49
  -3   3  -9  153.49   12.54
  -3   3  -9  131.46   10.82
   3  -3   9  157.55   11.08
   3  -3   9  121.64   12.97
   3  -3   9  134.84   12.93
   3  -3   9  150.58   12.40
  -4   3  -9  163.08   14.06
  -4   3  -9  196.94   18.11
   4  -3   9  159.90   17.60
   4  -3   9  209.61   14.47
   4  -3   9  195.97   15.84
  -5   3  -9  124.85    9.80
   5  -3   9  116.45   12.01
   5  -3   9  124.42   12.37
   5  -3   9  140.68   11.78
  -6   3  -9   48.83    4.28
   6  -3   9   51.82    6.82
   6  -3   9   62.30    6.45
   6  -3   9   46.70    6.29
   3   2  -9   40.08    5.33
   3   2  -9   32.93    3.28
  -3  -2   9   33.49    7.16
  -3  -2   9   36.62    3.91
  -3  -2   9   33.55    3.87
   2   2  -9   61.90    5.16
   2   2  -9   73.65    6.54
   2   2  -9   69.82    7.53
   2   2  -9   60.19    5.42
  -2  -2   9   70.95    5.87
  -2  -2   9   65.84    6.20
  -2  -2   9   57.76    7.14
   1   2  -9  116.44   10.20
   1   2  -9   91.33    7.61
   1   2  -9   95.22    7.82
   1   2  -9  104.96    9.01
  -1  -2   9   87.78    8.79
  -1  -2   9  100.42    8.74
  -1  -2   9  114.65    7.78
  -1  -2   9   82.76    9.56
   0   2  -9   85.62    7.46
   0   2  -9   78.21    8.68
   0   2  -9   74.79    6.00
   0   2  -9   69.09    5.87
   0  -2   9   78.56    7.08
   0  -2   9   64.20    7.77
   0  -2   9   83.00    6.02
   0  -2   9   70.54    7.27
  -1   2  -9   29.33    2.67
  -1   2  -9   35.29    6.15
   1  -2   9   34.18    2.69
   1  -2   9   32.24    3.77
   1  -2   9   31.74    4.14
   1  -2   9   37.63    2.78
   1  -2   9   26.73    4.29
  -2   2  -9  114.33    9.61
  -2   2  -9  139.98   12.43
   2  -2   9  109.58   11.57
   2  -2   9  136.32   11.08
   2  -2   9  117.89   11.44
   2  -2   9  136.95    9.67
  -3   2  -9   53.93    4.07
   3  -2   9   54.61    4.05
   3  -2   9   53.39    5.43
   3  -2   9   44.24    5.85
   3  -2   9   45.22    5.79
  -4   2  -9   18.25    2.97
  -4   2  -9   17.63    1.64
   4  -2   9   15.17    3.13
   4  -2   9   15.22    3.15
   4  -2   9   19.86    2.98
   4  -2   9   16.57    1.57
  -5   2  -9   70.79    5.78
  -5   2  -9   79.18    7.60
   5  -2   9   70.63    8.05
   5  -2   9   70.43    7.87
   5  -2   9   74.03    7.42
  -6   2  -9   74.44    6.30
  -6   2  -9   84.83    8.59
   6  -2   9   76.44    9.27
   6  -2   9   91.96    8.39
   6  -2   9   72.40    8.33
   4   1  -9   71.22    6.40
  -4  -1   9   77.43    7.45
  -4  -1   9   78.82    7.49
   3   1  -9  190.97   15.42
   3   1  -9  156.93   12.89
  -3  -1   9  150.18   14.69
  -3  -1   9  161.55   13.77
   2   1  -9  131.50   13.43
   2   1  -9  125.93   10.71
   2   1  -9  109.60    9.17
   2   1  -9  112.47    9.47
  -2  -1   9  122.34   10.41
  -2  -1   9  111.06   10.43
  -2  -1   9  139.31    9.36
  -2  -1   9  111.80   11.37
   1   1  -9  182.50   14.62
   1   1  -9  143.99   12.06
   1   1  -9  153.55   12.30
   1   1  -9  181.86   16.27
  -1  -1   9  138.50   14.07
  -1  -1   9  139.54   13.35
  -1  -1   9  180.92   12.22
   0   1  -9  273.82   20.90
   0   1  -9  249.70   19.46
   0   1  -9  287.32   21.78
   0   1  -9  233.25   19.31
   0  -1   9  234.39   20.84
   0  -1   9  284.73   19.42
   0  -1   9  219.54   21.31
   0  -1   9  271.21   20.67
  -1   1  -9  147.66   11.38
  -1   1  -9  167.13   13.58
  -1   1  -9  156.23   12.85
   1  -1   9  151.08   12.62
   1  -1   9  157.84   11.38
   1  -1   9  130.84   13.24
   1  -1   9  147.93   11.23
   1  -1   9  133.09   12.92
  -2   1  -9  165.13   12.85
  -2   1  -9  177.52   14.43
  -2   1  -9  186.76   14.89
   2  -1   9  160.92   14.70
   2  -1   9  178.53   14.39
   2  -1   9  147.54   14.71
  -3   1  -9  491.89   35.24
  -3   1  -9  421.10   33.41
  -3   1  -9  481.63   35.38
   3  -1   9  433.98   35.59
   3  -1   9  457.87   34.92
   3  -1   9  388.59   35.37
  -4   1  -9  307.35   23.28
  -4   1  -9  280.88   21.49
   4  -1   9  304.08   23.14
   4  -1   9  262.69   23.53
   4  -1   9  269.89   23.67
  -5   1  -9  171.68   14.64
  -5   1  -9  213.72   16.60
   5  -1   9  213.07   16.51
   5  -1   9  180.09   16.74
   5  -1   9  186.54   17.06
  -6   1  -9  203.92   17.36
   6  -1   9  179.42   17.51
   6  -1   9  181.50   17.09
   6  -1   9  227.76   18.66
  -7   1  -9  102.84    9.60
   7  -1   9  102.83    9.68
   7  -1   9   89.81    9.59
   7  -1   9   93.93   10.33
   4   0  -9   13.53    3.14
   4   0  -9    9.57    1.92
  -4   0   9   11.07    2.26
  -4   0   9   11.75    2.88
  -4   0   9   12.46    2.41
   3   0  -9   55.67    7.07
   3   0  -9   45.27    3.81
   3   0  -9   50.89    5.41
   3   0  -9   45.76    4.19
  -3   0   9   44.38    5.10
  -3   0   9   41.86    5.71
  -3   0   9   53.50    3.83
   2   0  -9   90.49    9.71
   2   0  -9  108.23    9.74
   2   0  -9   80.94    7.11
   2   0  -9   86.41    7.43
  -2   0   9   98.42    8.51
  -2   0   9   88.06    8.51
  -2   0   9   83.81    9.15
  -2   0   9  108.56    7.36
   1   0  -9   73.29    6.90
   1   0  -9   82.02    7.78
   1   0  -9   62.91    5.38
   1   0  -9   69.84    5.65
  -1   0   9   71.69    6.63
  -1   0   9   77.16    5.53
  -1   0   9   58.13    7.21
  -1   0   9   62.92    6.74
   0   0  -9  124.27    9.30
   0   0  -9  118.17    9.10
   0   0  -9  136.88   11.37
   0   0  -9  104.66   12.28
   0   0   9  107.24   11.04
   0   0   9  116.02   10.72
   0   0   9  126.65   10.46
  -1   0  -9  252.24   19.52
  -1   0  -9  246.21   18.04
  -1   0  -9  229.54   17.92
   1   0   9  225.36   19.70
   1   0   9  218.61   19.95
   1   0   9  255.04   19.34
  -2   0  -9   87.59    6.83
  -2   0  -9   91.35    6.88
  -2   0  -9   90.72    8.31
  -2   0  -9  100.68    8.73
   2   0   9   94.59    8.22
   2   0   9   93.59    6.85
   2   0   9   81.31    6.82
   2   0   9   77.85    8.61
   2   0   9   81.26    8.55
  -3   0  -9  100.39    7.96
  -3   0  -9  106.99    9.50
  -3   0  -9  104.77    7.93
  -3   0  -9  109.14    9.60
   3   0   9   95.61    9.83
   3   0   9  112.78    7.95
   3   0   9   95.43    8.05
   3   0   9   97.05    9.84
   3   0   9  110.76    9.44
  -4   0  -9   66.44    6.93
  -4   0  -9   71.66    5.82
  -4   0  -9   87.46    7.53
  -4   0  -9   80.05    7.49
   4   0   9   70.35    5.85
   4   0   9   86.02    7.46
   4   0   9   72.69    7.82
   4   0   9   67.75    7.57
   4   0   9   71.53    6.04
  -5   0  -9   11.45    2.24
  -5   0  -9   11.02    2.40
   5   0   9   12.96    2.45
   5   0   9    9.92    1.40
   5   0   9   10.72    2.50
   5   0   9   10.02    2.66
  -6   0  -9   21.83    3.25
  -6   0  -9   26.02    3.72
   6   0   9   22.10    3.99
   6   0   9   22.51    3.68
   6   0   9   25.18    2.55
   6   0   9   27.23    3.71
  -7   0  -9   26.19    3.72
  -7   0  -9   29.48    4.15
   7   0   9   32.75    4.30
   7   0   9   29.44    4.80
   7   0   9   28.01    4.16
   7   0   9   26.00    2.95
   4  -1  -9  123.37   11.07
   4  -1  -9  160.11   13.52
  -4   1   9  118.69   12.58
  -4   1   9  139.11   12.05
  -4   1   9  128.33   11.88
  -4   1   9  148.04   10.39
   3  -1  -9  109.96   10.06
   3  -1  -9   87.78    7.44
   3  -1  -9   92.60    8.72
   3  -1  -9   80.28    7.05
  -3   1   9  104.32    7.37
  -3   1   9   94.63    8.58
  -3   1   9   90.63    8.58
  -3   1   9   82.09    9.15
   2  -1  -9  237.64   19.85
   2  -1  -9  308.59   22.65
   2  -1  -9  272.46   21.59
   2  -1  -9  256.19   20.19
  -2   1   9  254.34   21.46
  -2   1   9  288.02   21.48
  -2   1   9  235.68   22.03
   1  -1  -9  235.82   19.36
   1  -1  -9  249.18   19.63
   1  -1  -9  296.27   21.91
   1  -1  -9  261.67   21.00
  -1   1   9  222.21   21.37
  -1   1   9  264.84   20.80
  -1   1   9  241.52   20.93
  -1   1   9  293.92   19.53
   0  -1  -9  120.10   10.09
   0  -1  -9  115.71    8.69
   0  -1  -9  105.08    8.45
   0   1   9  104.27   10.49
   0   1   9  105.07   10.06
   0   1   9  115.39    9.87
  -1  -1  -9  149.74   11.55
  -1  -1  -9  145.14   11.39
  -1  -1  -9  154.54   12.95
   1   1   9  156.41   12.78
   1   1   9  133.21   13.26
   1   1   9  169.29   11.45
   1   1   9  144.24   13.17
  -2  -1  -9  119.76    9.28
  -2  -1  -9  132.50   10.91
  -2  -1  -9  108.17   10.35
  -2  -1  -9  134.55   11.09
   2   1   9  132.67   10.73
   2   1   9  118.16    9.25
   2   1   9  115.25   11.09
   2   1   9  106.50   11.07
   2   1   9  129.88    9.30
  -3  -1  -9   79.60    7.26
  -3  -1  -9   69.47    6.84
  -3  -1  -9   76.40    7.22
  -3  -1  -9   73.92    5.71
   3   1   9   69.76    7.58
   3   1   9   70.93    5.81
   3   1   9   77.46    5.68
   3   1   9   66.18    7.48
   3   1   9   78.93    7.14
  -4  -1  -9  235.11   17.49
  -4  -1  -9  229.98   17.65
  -4  -1  -9  188.84   17.07
  -4  -1  -9  210.20   15.88
   4   1   9  196.45   16.08
   4   1   9  196.60   17.97
   4   1   9  226.75   17.46
   4   1   9  197.83   17.81
  -5  -1  -9  145.09   13.38
  -5  -1  -9  172.58   13.60
  -5  -1  -9  175.00   13.99
   5   1   9  150.72   12.47
   5   1   9  179.57   13.92
   5   1   9  146.00   14.02
   5   1   9  149.76   14.34
  -6  -1  -9   74.65    7.87
  -6  -1  -9   90.43    8.45
   6   1   9   85.35    8.61
   6   1   9   87.60    9.10
   6   1   9   94.23    8.52
   6   1   9   83.18    7.12
  -7  -1  -9  173.05   14.65
  -7  -1  -9  147.03   14.05
   7   1   9  190.82   14.90
   7   1   9  166.45   15.54
   7   1   9  165.26   14.76
   7   1   9  159.75   13.30
  -8  -1  -9  121.81   11.06
  -8  -1  -9  102.97   10.41
   8   1   9  115.60   11.96
   8   1   9  127.23   11.18
   8   1   9  119.74   11.08
   5  -2  -9   16.60    4.68
   5  -2  -9   10.00    1.62
  -5   2   9   10.86    3.35
  -5   2   9   13.24    2.72
   4  -2  -9   66.65    6.05
  -4   2   9   78.09    8.10
  -4   2   9   82.20    5.63
  -4   2   9   64.70    7.69
  -4   2   9   68.52    7.53
   3  -2  -9   13.41    3.03
   3  -2  -9   13.42    2.55
   3  -2  -9    9.77    1.38
  -3   2   9   12.53    1.12
  -3   2   9    9.19    2.66
  -3   2   9   12.90    2.78
  -3   2   9   10.16    2.28
   2  -2  -9    5.55    0.75
   2  -2  -9    3.64    1.33
   2  -2  -9    2.95    1.69
   2  -2  -9    3.97    0.91
  -2   2   9    3.13    1.29
  -2   2   9    2.80    1.17
  -2   2   9    3.42    1.74
   1  -2  -9   45.55    5.02
   1  -2  -9   43.84    3.83
   1  -2  -9   53.40    5.77
   1  -2  -9   42.50    3.56
  -1   2   9   41.96    5.52
  -1   2   9   49.13    5.00
  -1   2   9   42.63    5.06
   0  -2  -9   50.11    4.12
   0  -2  -9   57.31    5.69
   0  -2  -9   47.79    5.13
   0   2   9   47.33    5.95
   0   2   9   62.91    5.65
   0   2   9   52.48    5.76
  -1  -2  -9   47.24    5.00
  -1  -2  -9   53.45    5.44
  -1  -2  -9   51.56    3.94
   1   2   9   44.87    5.50
   1   2   9   46.81    5.79
   1   2   9   50.92    5.18
   1   2   9   56.58    4.00
  -2  -2  -9  187.70   14.53
  -2  -2  -9  171.17   14.29
  -2  -2  -9  154.25   13.86
  -2  -2  -9  162.41   12.71
   2   2   9  166.18   12.71
   2   2   9  160.68   15.53
   2   2   9  181.12   12.72
   2   2   9  153.98   14.67
   2   2   9  177.64   14.16
  -3  -2  -9  111.68   10.16
  -3  -2  -9  124.02    8.98
  -3  -2  -9  130.09   10.59
  -3  -2  -9  128.55   10.67
   3   2   9  106.83    8.91
   3   2   9  107.94   10.81
   3   2   9  128.79   10.49
   3   2   9  101.52   11.87
   3   2   9  119.64    9.10
  -4  -2  -9  106.28    9.84
  -4  -2  -9  121.11   10.02
  -4  -2  -9  115.58   10.24
   4   2   9  103.51   10.44
   4   2   9  125.44   10.24
   4   2   9  107.87   11.28
   4   2   9  109.43    8.86
  -5  -2  -9  168.12   13.54
  -5  -2  -9  174.63   14.08
  -5  -2  -9  147.85   13.49
   5   2   9  150.64   14.13
   5   2   9  148.87   12.57
   5   2   9  181.32   15.40
  -6  -2  -9   43.13    5.01
  -6  -2  -9   47.91    5.40
   6   2   9   45.50    4.21
   6   2   9   45.99    5.93
   6   2   9   48.03    5.59
   6   2   9   51.61    5.44
  -7  -2  -9   19.41    3.16
  -7  -2  -9   25.64    3.76
   7   2   9   28.44    3.80
   7   2   9   23.27    4.23
   7   2   9   21.47    2.58
   7   2   9   24.08    3.74
  -8  -2  -9   41.47    5.25
  -8  -2  -9   50.99    5.83
   8   2   9   57.38    6.12
   8   2   9   49.89    6.72
   8   2   9   46.67    4.69
   5  -3  -9   27.95    3.09
  -5   3   9   36.94    4.64
  -5   3   9   33.20    2.68
  -5   3   9   31.55    4.38
   4  -3  -9   51.17    5.96
   4  -3  -9   41.84    4.49
   4  -3  -9   60.34    6.89
  -4   3   9   55.76    5.80
  -4   3   9   53.17    3.98
  -4   3   9   46.39    6.59
  -4   3   9   43.30    5.93
   3  -3  -9  152.26   12.93
  -3   3   9  150.38   14.88
  -3   3   9  187.81   12.63
  -3   3   9  160.94   14.38
  -3   3   9  182.39   14.45
   2  -3  -9  162.19   13.12
   2  -3  -9  187.31   14.76
   2  -3  -9  198.81   15.61
   2  -3  -9  152.29   12.80
  -2   3   9  163.62   14.56
  -2   3   9  178.67   14.48
  -2   3   9  149.38   15.09
   1  -3  -9  296.36   22.47
   1  -3  -9  242.28   21.83
   1  -3  -9  269.71   20.68
  -1   3   9  275.94   22.52
  -1   3   9  253.62   23.01
  -1   3   9  317.98   22.43
   0  -3  -9  372.87   30.88
   0  -3  -9  427.58   31.49
   0   3   9  356.89   31.89
   0   3   9  382.15   31.52
   0   3   9  446.74   31.35
  -1  -3  -9  258.57   22.74
  -1  -3  -9  315.49   23.58
  -1  -3  -9  284.15   23.20
  -1  -3  -9  284.00   21.67
   1   3   9  260.97   23.73
   1   3   9  312.57   23.17
   1   3   9  268.24   24.04
   1   3   9  321.29   21.65
  -2  -3  -9  252.73   20.00
  -2  -3  -9  294.87   21.75
  -2  -3  -9  242.00   21.10
  -2  -3  -9  274.09   21.60
   2   3   9  236.26   21.92
   2   3   9  244.44   21.83
   2   3   9  262.03   19.95
   2   3   9  300.39   21.58
   2   3   9  282.18   19.92
  -3  -3  -9  228.52   17.36
  -3  -3  -9  250.13   18.94
  -3  -3  -9  212.01   18.56
  -3  -3  -9  237.79   19.05
   3   3   9  215.46   19.40
   3   3   9  250.52   18.92
   3   3   9  232.40   17.53
   3   3   9  219.76   19.39
  -4  -3  -9  104.86    9.08
  -4  -3  -9   89.54    8.90
  -4  -3  -9  106.27    9.41
   4   3   9  112.02    9.35
   4   3   9   94.12    9.75
   4   3   9   94.81    7.98
   4   3   9  110.03   12.35
  -5  -3  -9  111.63   10.39
  -5  -3  -9  120.88   10.80
  -5  -3  -9  127.01   10.34
   5   3   9  113.16   11.81
   5   3   9  129.46   10.76
   5   3   9  113.83    9.45
   5   3   9  116.90   11.39
  -6  -3  -9  189.79   15.79
  -6  -3  -9  168.78   15.21
  -6  -3  -9  187.27   15.01
   6   3   9  185.11   15.99
   6   3   9  171.34   16.26
   6   3   9  203.64   15.76
   6   3   9  177.37   14.39
  -7  -3  -9   59.16    6.29
  -7  -3  -9   51.61    5.77
   7   3   9   58.35    6.32
   7   3   9   53.18    6.77
   7   3   9   61.11    6.32
   7   3   9   51.93    5.04
  -8  -3  -9   50.55    5.79
  -8  -3  -9   59.20    6.35
   8   3   9   56.84    5.26
   5  -4  -9   58.93    5.61
  -5   4   9   52.41    6.20
  -5   4   9   59.29    6.43
  -5   4   9   51.35    5.39
   4  -4  -9   66.47    7.14
   4  -4  -9   74.42    8.14
  -4   4   9   68.76    7.07
  -4   4   9   58.64    6.88
   3  -4  -9  100.12    8.67
   3  -4  -9  115.53   10.37
  -3   4   9  101.70   10.68
  -3   4   9  108.08   10.25
  -3   4   9  123.14   10.27
   2  -4  -9   77.32    7.31
   2  -4  -9   66.20    5.42
  -2   4   9   66.25    7.67
  -2   4   9   82.57    7.25
  -2   4   9   62.39    7.04
   1  -4  -9   25.54    3.45
   1  -4  -9   21.63    1.87
   1  -4  -9   21.30    2.99
  -1   4   9   27.31    3.42
  -1   4   9   20.91    3.31
  -1   4   9   22.25    3.83
   0  -4  -9   61.51    6.16
   0  -4  -9   61.18    4.95
   0  -4  -9   69.30    6.60
   0   4   9   58.13    7.10
   0   4   9   73.14    6.55
  -1  -4  -9   56.38    5.64
  -1  -4  -9   46.41    4.95
  -1  -4  -9   44.99    3.78
  -1  -4  -9   51.73    5.38
   1   4   9   41.32    5.70
   1   4   9   54.72    5.28
   1   4   9   47.22    5.51
  -2  -4  -9    9.64    0.90
  -2  -4  -9   11.59    2.26
  -2  -4  -9   11.24    3.33
  -2  -4  -9    8.72    1.91
   2   4   9   11.24    2.08
   2   4   9    9.02    2.28
   2   4   9    8.52    2.44
   2   4   9    6.89    0.82
  -3  -4  -9   65.57    6.19
  -3  -4  -9   66.19    6.44
  -3  -4  -9   58.72    5.94
  -3  -4  -9   58.80    4.80
   3   4   9   58.86    6.63
   3   4   9   67.24    6.24
   3   4   9   59.15    4.92
   3   4   9   53.64    7.31
  -4  -4  -9  152.49   12.45
  -4  -4  -9  127.80   11.85
  -4  -4  -9  148.00   11.98
   4   4   9  128.79   12.69
   4   4   9  155.45   12.30
   4   4   9  131.70   10.92
   4   4   9  138.40   12.92
  -5  -4  -9   48.06    4.85
  -5  -4  -9   41.85    4.93
  -5  -4  -9   50.31    5.44
   5   4   9   45.96    5.65
   5   4   9   49.86    5.98
   5   4   9   51.82    5.37
   5   4   9   44.14    4.14
  -6  -4  -9   70.50    7.36
  -6  -4  -9   80.59    7.13
  -6  -4  -9   81.70    7.89
   6   4   9   69.91    6.54
   6   4   9   75.38    8.40
   6   4   9   88.44    7.88
   6   4   9   82.34    8.15
  -7  -4  -9   74.71    7.44
   7   4   9   70.47    8.36
   7   4   9   83.25    6.75
   7   4   9   80.99    8.00
   4  -5  -9   65.46    6.90
   4  -5  -9   54.06    5.06
  -4   5   9   56.51    6.61
  -4   5   9   66.84    6.77
  -4   5   9   60.57    5.24
   3  -5  -9   55.88    6.42
   3  -5  -9   40.41    4.00
   3  -5  -9   47.01    5.58
  -3   5   9   49.21    5.52
  -3   5   9   47.28    5.60
   2  -5  -9  113.25    9.94
   2  -5  -9   97.55    7.89
   2  -5  -9   97.52    9.31
  -2   5   9  117.47    9.79
  -2   5   9  106.56    9.90
  -2   5   9   94.58   10.23
   1  -5  -9  110.11   10.25
   1  -5  -9  128.52   10.83
   1  -5  -9  107.96    8.89
  -1   5   9  136.28   10.75
  -1   5   9  112.45   11.39
  -1   5   9  113.57   10.79
   0  -5  -9  132.86   11.02
   0  -5  -9  117.71    9.17
   0  -5  -9  119.35   10.51
   0  -5  -9  126.50   11.17
   0   5   9  120.10   11.07
   0   5   9  113.19   11.57
  -1  -5  -9  330.15   24.85
  -1  -5  -9  366.66   26.86
  -1  -5  -9  311.07   26.13
   1   5   9  301.96   27.27
   1   5   9  302.56   26.70
   1   5   9  381.59   26.60
  -2  -5  -9  312.68   23.76
  -2  -5  -9  351.06   25.60
  -2  -5  -9  291.25   25.04
  -2  -5  -9  335.31   25.59
   2   5   9  285.62   26.16
   2   5   9  357.26   25.49
   2   5   9  289.95   25.71
  -3  -5  -9  179.92   14.87
  -3  -5  -9  165.29   14.44
  -3  -5  -9  183.37   14.63
   3   5   9  153.16   16.09
   3   5   9  170.02   13.35
   3   5   9  163.74   15.17
   3   5   9  200.86   14.90
  -4  -5  -9  204.78   17.69
  -4  -5  -9  222.25   17.64
  -4  -5  -9  225.85   18.12
   4   5   9  203.24   16.61
   4   5   9  204.36   18.45
   4   5   9  208.76   18.69
   4   5   9  245.52   18.06
  -5  -5  -9  252.11   20.36
  -5  -5  -9  250.90   19.68
  -5  -5  -9  223.61   19.80
   5   5   9  244.35   19.36
   5   5   9  234.53   20.78
   5   5   9  241.93   20.93
   5   5   9  274.93   20.35
  -6  -5  -9   93.67    7.81
  -6  -5  -9   92.41    8.60
  -6  -5  -9   79.66    8.05
   6   5   9   91.62    8.87
   6   5   9   78.58    7.25
   6   5   9   75.62    8.85
   6   5   9   98.42    8.54
  -7  -5  -9   81.04    8.08
  -7  -5  -9   94.04    8.65
   7   5   9   83.16    7.36
  -8  -5  -9   27.09    3.75
  -8  -5  -9   28.88    4.22
   8   5   9   25.02    3.14
   8   5   9   33.53    3.55
   4  -6  -9   39.59    5.04
   4  -6  -9   32.60    3.20
  -4   6   9   34.61    3.36
  -4   6   9   34.74    4.84
  -4   6   9   36.34    4.80
   3  -6  -9   80.33    8.15
   3  -6  -9   58.75    6.72
   3  -6  -9   72.35    7.44
  -3   6   9   74.54    7.39
  -3   6   9   68.92    5.98
  -3   6   9   63.90    7.22
   2  -6  -9   80.69    7.81
   2  -6  -9   70.29    7.27
  -2   6   9   84.92    9.65
  -2   6   9   71.55    7.72
   1  -6  -9  113.29    9.46
   1  -6  -9  116.74   10.89
   1  -6  -9  147.04   11.67
   1  -6  -9  142.49   11.98
  -1   6   9  112.38   11.89
  -1   6   9  126.50   11.55
   0  -6  -9   58.39    4.90
   0  -6  -9   67.06    6.70
   0  -6  -9   59.03    6.21
   0  -6  -9   74.55    7.06
   0   6   9   75.13    7.21
   0   6   9   58.43    7.18
   0   6   9   61.62    6.72
  -1  -6  -9   51.72    5.41
  -1  -6  -9   45.33    3.62
  -1  -6  -9   43.61    4.87
  -1  -6  -9   53.09    5.40
   1   6   9   44.18    5.88
   1   6   9   44.79    5.38
  -2  -6  -9   77.59    7.77
  -2  -6  -9   91.45    8.20
  -2  -6  -9   82.10    6.54
  -2  -6  -9   93.54    8.37
   2   6   9   76.84    8.80
   2   6   9   83.59    8.51
   2   6   9   98.08    8.24
  -3  -6  -9   56.18    5.60
  -3  -6  -9   49.42    5.40
  -3  -6  -9   58.59    5.96
   3   6   9   61.36    5.81
   3   6   9   49.80    6.29
   3   6   9   48.93    6.06
  -4  -6  -9   10.75    2.04
  -4  -6  -9    8.86    2.05
  -4  -6  -9    9.31    2.24
   4   6   9   11.49    2.27
   4   6   9    8.20    1.23
   4   6   9   11.06    2.71
   4   6   9    9.75    2.64
  -5  -6  -9   47.78    5.36
  -5  -6  -9   42.29    4.93
  -5  -6  -9   47.07    4.76
   5   6   9   42.99    5.54
   5   6   9   43.47    4.10
   5   6   9   53.19    5.35
  -6  -6  -9   12.89    2.48
  -6  -6  -9   15.73    2.21
  -6  -6  -9   14.65    2.84
   6   6   9   12.98    1.84
  -7  -6  -9   18.04    3.18
  -7  -6  -9   17.26    2.95
  -7  -6  -9   19.43    1.91
  -7  -6  -9   16.67    2.22
   7   6   9   16.59    2.61
   7   6   9   17.15    2.29
   7   6   9   19.21    3.16
  -8  -6  -9   34.02    4.47
  -8  -6  -9   39.08    3.38
   8   6   9   40.88    4.08
   8   6   9   41.48    4.34
   4  -7  -9   77.89    8.52
   4  -7  -9   79.36    7.19
   4  -7  -9  104.69    9.50
  -4   7   9   90.54    7.41
  -4   7   9  103.97    9.43
  -4   7   9   83.58    9.01
   3  -7  -9  105.74   10.65
   3  -7  -9  140.13   12.70
   3  -7  -9  124.50   11.36
  -3   7   9  114.17    9.73
  -3   7   9  108.32   11.14
  -3   7   9  130.67   11.33
   2  -7  -9   51.61    5.99
   2  -7  -9   60.77    6.57
   2  -7  -9   67.97    7.11
  -2   7   9   58.83    5.34
  -2   7   9   56.67    6.53
  -2   7   9   62.47    6.46
   1  -7  -9   48.81    5.55
   1  -7  -9   63.02    6.48
   1  -7  -9   45.70    4.07
   1  -7  -9   57.44    6.06
  -1   7   9   52.03    4.96
  -1   7   9   58.57    5.93
   0  -7  -9  119.39   11.50
   0  -7  -9  154.92   12.48
   0  -7  -9  141.63   12.48
   0  -7  -9  122.22   10.13
   0   7   9  153.61   12.08
   0   7   9  130.59   12.19
   0   7   9  125.50   11.05
  -1  -7  -9   88.43    7.95
  -1  -7  -9   73.21    7.31
  -1  -7  -9   71.93    5.94
  -1  -7  -9   81.89    7.75
   1   7   9   69.99    6.87
   1   7   9   88.79    7.74
   1   7   9   76.52    7.92
  -2  -7  -9   97.36    9.29
  -2  -7  -9  100.84    7.93
  -2  -7  -9  107.61    9.76
  -2  -7  -9  113.88    9.69
   2   7   9  115.65    9.67
   2   7   9  101.56    9.96
   2   7   9   97.98    8.95
  -3  -7  -9  148.67   13.11
  -3  -7  -9  160.53   13.54
  -3  -7  -9  163.48   13.21
   3   7   9  134.38   12.66
   3   7   9  171.30   13.43
   3   7   9  149.30   13.85
  -4  -7  -9  116.93   10.32
  -4  -7  -9  101.14    9.78
  -4  -7  -9  113.03    9.78
   4   7   9  125.82   10.24
   4   7   9   96.61    9.46
  -5  -7  -9  102.65    9.24
  -5  -7  -9   94.38    8.80
  -5  -7  -9   98.02    8.46
   5   7   9   89.54    7.80
   5   7   9   91.39    8.48
  -6  -7  -9  182.33   14.18
  -6  -7  -9  187.51   15.21
  -6  -7  -9  164.03   14.68
   6   7   9  176.67   14.50
   6   7   9  158.97   13.77
  -7  -7  -9   59.79    6.30
  -7  -7  -9   57.23    5.04
  -7  -7  -9   60.74    4.70
  -7  -7  -9   47.63    5.63
   7   7   9   48.31    5.02
   7   7   9   53.83    5.53
   3  -8  -9    9.66    2.68
   3  -8  -9    7.83    2.16
  -3   8   9    9.32    2.50
  -3   8   9    9.22    2.62
  -3   8   9    9.12    1.48
   2  -8  -9   51.32    6.12
   2  -8  -9   67.64    7.15
   2  -8  -9   65.05    6.85
  -2   8   9   68.01    6.79
  -2   8   9   57.18    6.70
  -2   8   9   57.11    5.43
   1  -8  -9   20.74    3.46
   1  -8  -9   16.17    2.86
   1  -8  -9   21.02    3.40
  -1   8   9   20.11    3.15
  -1   8   9   18.25    2.35
  -1   8   9   16.53    3.22
   0  -8  -9   45.86    6.27
   0  -8  -9   49.94    5.46
   0  -8  -9   41.19    3.32
   0  -8  -9   38.08    4.72
   0   8   9   42.64    5.29
   0   8   9   39.64    4.26
   0   8   9   50.49    5.24
  -1  -8  -9   70.42    7.32
  -1  -8  -9   89.74    7.99
  -1  -8  -9   71.90    5.88
  -1  -8  -9   85.75    7.88
   1   8   9   66.66    6.84
   1   8   9   87.98    7.76
   1   8   9   74.16    7.89
  -2  -8  -9   61.26    6.23
  -2  -8  -9   52.76    5.76
  -2  -8  -9   57.62    4.37
  -2  -8  -9   63.36    6.18
   2   8   9   66.08    6.20
   2   8   9   48.31    6.13
   2   8   9   51.18    5.38
  -3  -8  -9   61.78    6.41
  -3  -8  -9   63.95    6.14
  -3  -8  -9   56.27    5.97
  -3  -8  -9   49.44    4.85
   3   8   9   56.76    5.68
   3   8   9   70.33    6.38
  -4  -8  -9   60.21    6.44
  -4  -8  -9   68.60    6.92
  -4  -8  -9   67.08    6.39
   4   8   9   75.77    7.79
   4   8   9   56.07    6.10
  -5  -8  -9    7.15    1.98
  -5  -8  -9    8.24    2.30
  -5  -8  -9    7.10    1.74
   5   8   9    5.77    1.74
   5   8   9    8.63    2.17
  -6  -8  -9   22.77    4.00
  -6  -8  -9   26.88    3.64
  -6  -8  -9   28.49    3.93
   6   8   9   25.39    3.38
   6   8   9   26.87    2.88
  -7  -8  -9   17.71    2.18
  -7  -8  -9   19.64    3.34
  -7  -8  -9   20.41    4.29
   7   8   9   15.33    2.33
   7   8   9   17.09    2.79
   3  -9  -9   58.70    6.63
   3  -9  -9   46.43    5.89
  -3   9   9   55.03    5.01
  -3   9   9   64.27    6.70
  -3   9   9   53.87    6.60
   2  -9  -9   89.27    9.10
   2  -9  -9  112.05    9.95
  -2   9   9   93.64    8.19
  -2   9   9   94.71    9.70
   1  -9  -9  139.27   12.12
   1  -9  -9  106.99   10.99
   1  -9  -9  136.57   11.83
  -1   9   9  117.08   11.69
  -1   9   9  119.65   10.39
  -1   9   9  136.71   12.02
   0  -9  -9   74.50    7.38
   0  -9  -9   56.95    6.54
   0  -9  -9   68.66    7.16
   0   9   9   63.13    6.08
   0   9   9   72.76    7.05
  -1  -9  -9  128.33   11.12
  -1  -9  -9  108.80   10.55
  -1  -9  -9  131.23   11.31
  -1  -9  -9  108.43    8.97
   1   9   9  107.32   10.05
   1   9   9  136.61   11.14
  -2  -9  -9   68.37    6.95
  -2  -9  -9   67.60    5.40
  -2  -9  -9   76.79    7.41
  -2  -9  -9   78.11    7.32
   2   9   9   66.65    6.53
  -3  -9  -9   52.00    5.64
  -3  -9  -9   43.79    5.15
  -3  -9  -9   52.47    5.39
  -3  -9  -9   50.76    4.21
   3   9   9   42.69    4.83
  -4  -9  -9   71.96    7.22
  -4  -9  -9   75.19    7.11
  -4  -9  -9   77.79    6.17
  -4  -9  -9   78.78    7.66
   4   9   9   67.99    6.97
  -5  -9  -9   73.17    5.83
  -5  -9  -9   72.08    7.27
  -5  -9  -9   65.85    6.84
  -5  -9  -9   68.10    6.53
   5   9   9   65.64    6.66
  -6  -9  -9   31.50    3.46
  -6  -9  -9   32.90    4.33
  -6  -9  -9   28.57    3.96
   6   9   9   27.07    3.67
   1 -10  -9   37.60    5.09
   1 -10  -9   50.34    5.78
  -1  10   9   45.92    5.75
  -1  10   9   43.56    5.12
   0 -10  -9   13.77    2.99
   0 -10  -9   12.92    2.64
   0  10   9   18.04    3.08
   0  10   9   13.54    3.06
  -1 -10  -9   17.08    3.10
  -1 -10  -9   15.07    2.73
  -1 -10  -9   17.38    3.21
   1  10   9   13.79    2.45
   1  10   9   18.17    3.03
  -2 -10  -9   43.49    5.73
  -2 -10  -9   42.80    3.55
  -2 -10  -9   48.46    5.53
  -2 -10  -9   50.57    5.63
   2  10   9   56.63    6.01
   2  10   9   41.65    4.68
  -3 -10  -9   36.83    2.95
  -3 -10  -9   40.93    4.87
  -3 -10  -9   41.30    3.50
  -3 -10  -9   36.20    4.51
  -3 -10  -9   40.23    4.65
   3  10   9   34.15    4.09
  -4 -10  -9   29.66    4.10
  -4 -10  -9   31.45    3.73
  -4 -10  -9   25.54    3.67
  -4 -10  -9   28.67    2.77
   4  10   9   23.21    3.36
  -5 -10  -9   79.06    7.36
  -5 -10  -9   84.91    8.14
   5  10   9   73.33    7.47
  -2 -11  -9   85.82    8.09
  -2 -11  -9   77.75    7.83
  -2 -11  -9   65.04    7.27
   2  11   9   71.89    7.75
   0  -3  10   75.06    6.98
   0  -3  10   76.90    9.34
   0  -3  10   64.77    8.56
  -1   3 -10   53.78    4.44
   1  -3  10   52.46    6.09
   1  -3  10   48.13    6.58
   1  -3  10   60.48    4.43
   1  -3  10   58.02    5.79
  -2   3 -10   42.81    3.64
   2  -3  10   41.74    5.41
   2  -3  10   49.85    5.17
   2  -3  10   41.30    5.81
  -3   3 -10   71.42    5.92
   3  -3  10   69.04    8.33
   3  -3  10   84.25    7.67
   3  -3  10   73.55    8.25
   1   2 -10   92.84    7.44
   1   2 -10   88.84    7.21
  -1  -2  10  103.38    8.63
  -1  -2  10   90.30    9.72
  -1  -2  10   87.55    8.57
   0   2 -10   83.99    6.87
   0  -2  10   84.89    8.47
   0  -2  10  100.03    8.40
   0  -2  10   83.18    9.32
  -1   2 -10  107.33    8.78
   1  -2  10  105.53   10.59
   1  -2  10  103.34   11.10
   1  -2  10  129.02    8.89
   1  -2  10  124.76   10.33
  -2   2 -10   69.91    5.82
   2  -2  10   68.96    7.76
   2  -2  10   82.03    5.88
   2  -2  10   67.82    7.99
   2  -2  10   80.45    7.39
  -3   2 -10  101.40    8.43
   3  -2  10  101.20   10.64
   3  -2  10  126.70    8.66
   3  -2  10  120.00   10.19
   3  -2  10   97.24   10.68
  -4   2 -10  167.82   13.60
   4  -2  10  211.06   14.12
   4  -2  10  169.42   16.12
   4  -2  10  154.30   15.88
   4  -2  10  193.93   15.51
  -5   2 -10  101.80    7.91
   5  -2  10   85.84   10.03
   5  -2  10  117.44   10.03
   5  -2  10   98.55   10.49
   2   1 -10   25.81    2.65
   2   1 -10   27.65    2.35
  -2  -1  10   31.31    3.68
  -2  -1  10   26.06    3.56
  -2  -1  10   23.59    4.27
   1   1 -10   39.56    3.36
   1   1 -10   41.08    3.61
   1   1 -10   50.25    7.45
  -1  -1  10   49.24    3.57
  -1  -1  10   42.69    4.81
  -1  -1  10   36.13    4.66
  -1  -1  10   33.13    6.34
   0   1 -10   36.64    3.29
   0   1 -10   36.68    4.39
   0   1 -10   39.32    5.15
   0   1 -10   33.80    2.92
   0  -1  10   30.14    4.79
   0  -1  10   34.55    4.17
   0  -1  10   31.22    4.57
   0  -1  10   40.82    3.05
  -1   1 -10   96.55    8.75
  -1   1 -10  101.14    9.37
  -1   1 -10   83.00    7.09
  -1   1 -10   82.38    7.03
   1  -1  10   82.75    9.28
   1  -1  10   82.34    8.82
   1  -1  10  102.82    7.13
   1  -1  10   97.63    8.60
  -2   1 -10  144.86   12.25
  -2   1 -10  121.48    9.92
  -2   1 -10  137.33   11.69
   2  -1  10  121.16    9.87
   2  -1  10  143.10    9.98
   2  -1  10  137.70   12.40
   2  -1  10  117.77   11.90
   2  -1  10  115.84   12.12
  -3   1 -10   75.05    6.22
  -3   1 -10   87.05    8.01
   3  -1  10   74.36    8.34
   3  -1  10   87.28    6.24
   3  -1  10   69.60    8.27
   3  -1  10   83.37    7.84
  -4   1 -10   91.30    8.41
  -4   1 -10   80.90    6.68
   4  -1  10   80.53    8.89
   4  -1  10   73.06    8.59
   4  -1  10   92.22    8.34
  -5   1 -10   82.40    8.05
  -5   1 -10   77.21    6.11
   5  -1  10   70.46    8.61
   5  -1  10   70.49    8.19
   5  -1  10   84.98    7.98
  -6   1 -10   20.78    2.05
   6  -1  10   22.73    4.29
   6  -1  10   22.25    2.44
   6  -1  10   24.04    3.78
  -3   0  10  100.18    8.65
  -3   0  10   77.30    9.19
  -3   0  10   89.07    9.39
   2   0 -10  117.78    9.46
   2   0 -10  118.35    9.11
  -2   0  10  119.55   10.75
   1   0 -10  269.77   21.94
   1   0 -10  341.87   24.95
   1   0 -10  280.13   22.23
   1   0 -10  317.32   23.90
  -1   0  10  265.64   23.60
  -1   0  10  255.33   24.36
  -1   0  10  314.38   23.68
   0   0 -10  243.46   19.25
   0   0 -10  273.35   20.93
   0   0 -10  225.41   19.04
   0   0 -10  289.89   21.73
   0   0  10  260.66   20.61
   0   0  10  287.63   19.18
   0   0  10  225.85   20.79
   0   0  10  219.29   21.29
  -1   0 -10  125.32   10.56
  -1   0 -10  161.98   13.29
  -1   0 -10  136.79   13.52
  -1   0 -10  141.12   10.71
   1   0  10  120.40   12.68
   1   0  10  160.98   10.67
   1   0  10  145.58   12.93
   1   0  10  120.39   12.38
  -2   0 -10  190.14   18.61
  -2   0 -10  173.62   13.71
  -2   0 -10  180.71   13.76
  -2   0 -10  193.48   16.20
   2   0  10  199.68   13.76
   2   0  10  156.51   15.85
   2   0  10  172.92   15.84
   2   0  10  173.21   13.62
   2   0  10  190.28   15.36
  -3   0 -10  211.68   17.35
  -3   0 -10  200.86   16.49
  -3   0 -10  176.24   14.27
   3   0  10  168.08   16.44
   3   0  10  175.90   14.33
   3   0  10  203.82   16.01
   3   0  10  183.51   16.59
  -4   0 -10  112.38   11.67
  -4   0 -10  102.03    7.93
   4   0  10   85.64    9.87
   4   0  10  119.86    9.85
   4   0  10   95.34    8.09
   4   0  10  102.44   10.33
  -5   0 -10  130.61   11.51
  -5   0 -10  118.55    9.69
   5   0  10  119.65   12.13
   5   0  10  143.99   11.65
   5   0  10  114.56   11.79
   5   0  10  123.44   10.20
  -6   0 -10  120.68   10.72
  -6   0 -10  104.23    8.67
   6   0  10  107.93    9.10
   6   0  10  106.07   10.91
   6   0  10  107.88   11.33
   6   0  10  126.54   10.80
   7   0  10   68.30    6.00
   3  -1 -10   77.03    6.78
  -3   1  10   77.27    7.77
  -3   1  10   88.37    7.94
  -3   1  10   71.41    8.49
   2  -1 -10   46.26    5.69
   2  -1 -10   33.39    3.10
   2  -1 -10   33.95    3.44
   2  -1 -10   37.81    4.86
  -2   1  10   34.83    5.21
  -2   1  10   40.03    4.61
  -2   1  10   46.46    3.36
   1  -1 -10   14.24    1.46
   1  -1 -10   19.63    3.54
   1  -1 -10   14.20    1.73
   1  -1 -10   18.28    2.94
  -1   1  10   14.44    3.29
  -1   1  10   16.90    2.93
   0  -1 -10   71.99    5.76
   0  -1 -10   62.36    5.50
   0  -1 -10   75.02    7.57
   0   1  10   77.69    7.13
   0   1  10   83.17    5.65
   0   1  10   62.20    7.63
   0   1  10   65.37    7.23
  -1  -1 -10   50.69    4.33
  -1  -1 -10   61.73    6.46
  -1  -1 -10   55.44    4.52
  -1  -1 -10   57.77    5.99
   1   1  10   47.49    6.28
   1   1  10   61.47    5.91
   1   1  10   50.97    6.12
  -2  -1 -10   31.23    2.80
  -2  -1 -10   37.64    4.56
  -2  -1 -10   34.72    2.92
  -2  -1 -10   36.37    4.38
   2   1  10   38.49    4.33
   2   1  10   34.67    2.81
   2   1  10   33.13    4.61
   2   1  10   27.17    4.47
  -3  -1 -10   77.72    7.51
  -3  -1 -10   81.96    7.65
  -3  -1 -10   72.50    5.81
   3   1  10   68.81    7.84
   3   1  10   71.89    5.87
   3   1  10   80.48    7.47
   3   1  10   69.02    7.87
  -4  -1 -10  104.84    8.14
  -4  -1 -10  112.06    9.95
  -4  -1 -10  114.42    9.83
   4   1  10   98.83    8.29
   4   1  10   97.55   10.25
   4   1  10  114.67    9.87
   4   1  10   96.55   10.33
  -5  -1 -10   51.44    5.81
  -5  -1 -10   57.15    6.19
  -5  -1 -10   63.66    6.10
  -5  -1 -10   54.60    4.46
   5   1  10   54.35    6.56
   5   1  10   56.66    6.87
   5   1  10   54.07    4.76
  -6  -1 -10   72.14    7.60
  -6  -1 -10   82.49    8.12
   6   1  10   92.13    8.30
   6   1  10   71.66    6.54
   6   1  10   75.18    8.68
   6   1  10   78.19    8.42
  -7  -1 -10   23.88    3.59
  -7  -1 -10   26.36    3.90
   7   1  10   27.35    3.92
   7   1  10   23.83    2.71
   7   1  10   22.65    3.96
   7   1  10   23.92    4.44
   3  -2 -10   49.27    6.85
   3  -2 -10   36.37    3.74
  -3   2  10   32.19    7.07
  -3   2  10   46.23    5.14
  -3   2  10   41.74    5.03
   2  -2 -10  111.65    9.13
   2  -2 -10  124.44   10.75
   2  -2 -10  104.83    8.75
  -2   2  10  131.11   10.68
  -2   2  10  111.36   10.59
  -2   2  10  105.90   11.23
   1  -2 -10  123.65    9.72
   1  -2 -10  139.92   14.00
   1  -2 -10  130.17   10.06
  -1   2  10  129.41   11.64
  -1   2  10  118.27   12.16
   0  -2 -10  189.56   15.51
   0  -2 -10  168.44   13.64
   0  -2 -10  179.12   13.92
   0   2  10  166.09   15.50
   0   2  10  215.08   13.82
   0   2  10  167.30   16.02
  -1  -2 -10  274.69   21.34
  -1  -2 -10  235.66   19.08
  -1  -2 -10  260.31   20.90
   1   2  10  286.88   20.96
   1   2  10  269.91   19.15
   1   2  10  217.60   21.27
   1   2  10  231.56   21.08
  -2  -2 -10  191.68   15.77
  -2  -2 -10  205.11   16.04
  -2  -2 -10  173.37   13.94
   2   2  10  160.29   16.11
   2   2  10  195.54   13.95
   2   2  10  170.17   16.05
   2   2  10  194.47   15.59
  -3  -2 -10  150.38   12.59
  -3  -2 -10  137.57   10.75
  -3  -2 -10  129.13   12.08
  -3  -2 -10  157.38   12.63
   3   2  10  154.31   12.50
   3   2  10  136.15   12.98
   3   2  10  126.45   12.87
   3   2  10  139.53   10.82
  -4  -2 -10  189.91   15.39
  -4  -2 -10  178.63   13.47
  -4  -2 -10  166.27   14.82
  -4  -2 -10  193.09   15.19
   4   2  10  166.04   13.64
   4   2  10  170.69   15.88
   4   2  10  160.96   15.58
   4   2  10  195.88   15.35
  -5  -2 -10   72.72    7.37
  -5  -2 -10   77.26    7.74
  -5  -2 -10   83.49    7.48
   5   2  10   84.62    7.82
   5   2  10   74.71    8.12
   5   2  10   73.24    6.28
   5   2  10   69.69    8.25
  -6  -2 -10   55.47    6.27
  -6  -2 -10   65.44    6.81
   6   2  10   58.67    6.97
   6   2  10   74.77    6.99
   6   2  10   61.73    7.45
   6   2  10   61.55    5.42
  -7  -2 -10   73.26    7.81
  -7  -2 -10   85.35    8.44
   7   2  10   78.49    6.97
   7   2  10   89.92    8.49
   7   2  10   79.31    9.10
   7   2  10   85.00    8.69
   4  -3 -10   37.80    3.80
  -4   3  10   46.58    3.42
  -4   3  10   43.34    6.42
  -4   3  10   37.41    5.57
  -4   3  10   45.28    5.33
   3  -3 -10   37.60    4.10
   3  -3 -10   49.15    6.40
  -3   3  10   47.08    5.30
  -3   3  10   39.89    5.20
   2  -3 -10   59.10    6.64
   2  -3 -10   52.89    5.76
   2  -3 -10   46.15    3.95
   2  -3 -10   45.28    4.30
  -2   3  10   51.15    5.80
  -2   3  10   44.56    6.27
  -2   3  10   55.38    5.72
   1  -3 -10   76.39    6.32
   1  -3 -10   71.20    5.99
   1  -3 -10   84.43    7.89
  -1   3  10   87.41    7.80
  -1   3  10   72.72    8.42
  -1   3  10   76.16    7.85
   0  -3 -10   20.64    3.24
   0  -3 -10   25.65    3.78
   0  -3 -10   20.13    1.78
   0   3  10   20.61    3.41
   0   3  10   18.04    3.60
   0   3  10   23.33    3.28
  -1  -3 -10   54.21    5.72
  -1  -3 -10   42.57    4.86
  -1  -3 -10   49.75    5.41
  -1  -3 -10   41.59    3.65
   1   3  10   52.83    3.74
   1   3  10   43.47    5.80
   1   3  10   40.98    5.39
   1   3  10   48.20    5.13
  -2  -3 -10   34.86    2.83
  -2  -3 -10   31.39    4.03
  -2  -3 -10   39.23    4.54
  -2  -3 -10   35.33    4.41
   2   3  10   30.92    4.60
   2   3  10   33.15    4.83
   2   3  10   41.56    4.51
  -3  -3 -10   14.99    1.37
  -3  -3 -10   16.15    2.76
  -3  -3 -10   13.15    2.44
  -3  -3 -10   14.89    2.79
   3   3  10   16.67    2.75
   3   3  10   15.83    1.47
   3   3  10   14.70    3.13
   3   3  10   14.14    3.11
  -4  -3 -10   33.43    2.74
  -4  -3 -10   35.97    4.17
  -4  -3 -10   34.08    4.35
  -4  -3 -10   28.82    3.90
   4   3  10   31.69    4.71
   4   3  10   31.83    4.68
   4   3  10   39.43    4.47
   4   3  10   32.88    2.96
  -5  -3 -10   96.12    9.19
  -5  -3 -10  102.51    9.01
  -5  -3 -10  100.50    9.46
   5   3  10   90.52    7.88
   5   3  10   90.86    9.93
   5   3  10   94.88    9.80
   5   3  10  112.58    9.52
  -6  -3 -10   18.23    3.28
  -6  -3 -10   17.00    2.66
  -6  -3 -10   14.97    2.80
   6   3  10   16.09    3.55
   6   3  10   18.06    3.41
   6   3  10   13.94    1.92
   6   3  10   21.36    3.30
  -7  -3 -10   45.80    5.41
  -7  -3 -10   52.94    5.94
   7   3  10   53.82    6.23
   7   3  10   52.58    6.91
   7   3  10   45.37    4.52
   7   3  10   48.95    6.63
   4  -4 -10   72.69    6.69
  -4   4  10   88.21    8.27
  -4   4  10   71.10    8.42
  -4   4  10   77.96    8.16
   3  -4 -10   86.60    8.53
   3  -4 -10  118.21   11.80
  -3   4  10   96.79   11.19
  -3   4  10  116.69   10.15
   2  -4 -10   27.08    2.72
   2  -4 -10   31.67    4.25
   2  -4 -10   36.66    4.99
   2  -4 -10   26.19    2.37
  -2   4  10   27.25    4.53
  -2   4  10   32.03    4.13
  -2   4  10   28.37    4.13
   1  -4 -10   74.20    6.14
   1  -4 -10   85.88    8.06
  -1   4  10   75.38    8.03
  -1   4  10   73.23    8.61
  -1   4  10   93.13    8.09
   0  -4 -10  147.08   12.44
   0  -4 -10  124.82   10.50
   0  -4 -10  162.42   13.04
   0  -4 -10  133.51   11.91
   0   4  10  124.89   13.06
   0   4  10  151.68   12.33
   0   4  10  131.41   12.50
  -1  -4 -10  143.12   12.35
  -1  -4 -10  161.29   12.78
  -1  -4 -10  124.53   11.78
  -1  -4 -10  130.27   10.48
   1   4  10  158.84   12.37
   1   4  10  124.14   12.93
   1   4  10  129.63   12.52
  -2  -4 -10  255.94   20.30
  -2  -4 -10  238.48   18.35
  -2  -4 -10  269.49   20.41
  -2  -4 -10  232.51   19.77
   2   4  10  227.95   20.56
   2   4  10  211.63   20.70
   2   4  10  273.76   20.23
  -3  -4 -10  230.22   17.41
  -3  -4 -10  220.17   18.88
  -3  -4 -10  248.24   19.19
  -3  -4 -10  241.00   19.34
   3   4  10  268.41   20.04
   3   4  10  216.81   19.82
   3   4  10  207.21   19.77
   3   4  10  220.14   17.53
  -4  -4 -10  120.05   12.36
  -4  -4 -10  140.93   12.29
  -4  -4 -10  143.93   11.94
   4   4  10  130.07   10.62
   4   4  10  128.26   12.75
   4   4  10  155.62   12.30
  -5  -4 -10  251.33   20.65
  -5  -4 -10  223.70   20.08
  -5  -4 -10  249.15   20.06
   5   4  10  280.56   20.79
   5   4  10  235.46   19.06
   5   4  10  249.64   21.29
  -6  -4 -10  193.90   16.26
  -6  -4 -10  194.81   15.52
  -6  -4 -10  170.53   15.67
   6   4  10  172.99   14.67
   6   4  10  208.96   16.29
   6   4  10  178.43   17.48
   6   4  10  192.69   16.74
  -7  -4 -10   61.53    6.73
  -7  -4 -10   53.28    6.20
   7   4  10   53.70    5.33
   7   4  10   69.33    7.24
   7   4  10   70.14    6.87
   7   4  10   56.52    7.42
   3  -5 -10   41.88    5.12
   3  -5 -10   33.02    3.29
  -3   5  10   33.61    5.16
  -3   5  10   33.32    4.78
  -3   5  10   40.73    4.92
   2  -5 -10   62.64    5.36
  -2   5  10   70.07    7.46
  -2   5  10   84.47    7.54
  -2   5  10   64.17    7.83
   1  -5 -10   43.77    3.99
   1  -5 -10   58.68    6.01
   1  -5 -10   51.64    5.52
  -1   5  10   59.68    5.90
  -1   5  10   49.26    6.46
  -1   5  10   49.25    5.96
   0  -5 -10  163.52   13.69
   0  -5 -10  159.48   13.28
   0  -5 -10  138.21   11.27
   0  -5 -10  141.99   12.73
   0   5  10  133.79   13.86
   0   5  10  171.98   13.31
   0   5  10  139.76   13.33
  -1  -5 -10   60.05    4.85
  -1  -5 -10   54.62    6.10
  -1  -5 -10   71.17    6.94
  -1  -5 -10   66.71    6.71
   1   5  10   59.53    6.81
   1   5  10   57.81    7.27
   1   5  10   74.09    7.27
  -2  -5 -10   75.43    5.99
  -2  -5 -10   73.98    7.41
  -2  -5 -10   80.73    7.82
  -2  -5 -10   85.51    7.86
   2   5  10   66.98    8.37
   2   5  10   86.50    7.72
  -3  -5 -10  104.89    9.44
  -3  -5 -10   98.83    7.80
  -3  -5 -10  100.02   10.38
  -3  -5 -10  107.17    9.72
   3   5  10   95.72   10.36
   3   5  10   94.20   10.00
   3   5  10  115.55    9.68
  -4  -5 -10   46.63    5.26
  -4  -5 -10   48.14    5.60
  -4  -5 -10   51.07    5.30
   4   5  10   56.72    5.73
   4   5  10   49.12    6.11
   4   5  10   47.74    6.24
   4   5  10   45.72    4.16
  -5  -5 -10    6.49    1.94
  -5  -5 -10    4.14    1.58
  -5  -5 -10    3.76    1.35
   5   5  10    4.53    1.94
   5   5  10    4.85    1.19
   5   5  10    4.30    2.16
   5   5  10    4.52    1.52
  -6  -5 -10   46.46    5.38
  -6  -5 -10   38.27    4.80
  -6  -5 -10   43.27    4.58
   6   5  10   51.85    5.53
   6   5  10   37.24    3.92
   6   5  10   41.96    5.86
   6   5  10   44.47    5.79
  -7  -5 -10    7.60    1.73
  -7  -5 -10    7.62    2.13
  -7  -5 -10    7.29    2.35
   7   5  10    9.97    2.47
   7   5  10    7.24    1.47
   3  -6 -10  126.65   11.08
   3  -6 -10   95.72    8.86
  -3   6  10  108.09    9.24
  -3   6  10  127.16   10.90
  -3   6  10  104.35   10.73
   2  -6 -10  145.51   14.01
   2  -6 -10  170.52   15.14
   2  -6 -10  188.23   15.45
  -2   6  10  144.25   14.48
  -2   6  10  181.10   14.70
   1  -6 -10   57.60    6.20
   1  -6 -10   54.32    5.81
   1  -6 -10   41.12    3.69
   1  -6 -10   43.15    5.12
  -1   6  10   41.70    6.00
  -1   6  10   55.45    5.71
  -1   6  10   46.50    5.73
   0  -6 -10   77.30    7.51
   0  -6 -10   84.66    7.96
   0  -6 -10   75.87    5.96
   0   6  10   76.29    8.69
   0   6  10   77.64    8.08
  -1  -6 -10  174.84   14.74
  -1  -6 -10  151.84   14.44
  -1  -6 -10  190.60   15.01
  -1  -6 -10  151.55   12.76
   1   6  10  173.36   15.93
   1   6  10  192.28   14.76
   1   6  10  156.13   15.55
  -2  -6 -10   75.28    7.24
  -2  -6 -10   70.41    5.47
  -2  -6 -10   65.99    6.80
  -2  -6 -10   74.39    7.31
   2   6  10   79.81    7.26
   2   6  10   67.68    7.54
   2   6  10   59.03    7.68
  -3  -6 -10   55.27    5.94
  -3  -6 -10   58.84    6.03
  -3  -6 -10   56.63    4.49
  -3  -6 -10   60.79    6.43
   3   6  10   68.35    6.46
   3   6  10   52.56    6.58
   3   6  10   53.37    6.84
  -4  -6 -10  127.04   11.08
  -4  -6 -10  137.17   13.12
  -4  -6 -10  114.62   11.09
   4   6  10  122.34    9.97
   4   6  10  121.05   12.06
   4   6  10  146.88   11.64
   4   6  10  118.59   12.13
  -5  -6 -10   81.75    7.50
  -5  -6 -10   70.14    7.57
  -5  -6 -10   82.82    8.23
   5   6  10   93.78    8.25
   5   6  10   75.06    6.63
   5   6  10   80.75    8.70
   5   6  10   79.54    8.74
  -6  -6 -10  106.27   10.17
  -6  -6 -10  107.30    9.24
  -6  -6 -10   93.60    9.50
   6   6  10   95.55    8.58
   6   6  10  118.64   10.17
   6   6  10  108.73   10.53
  -7  -6 -10  116.60   11.16
  -7  -6 -10  133.04   10.60
   7   6  10  125.53   10.31
   3  -7 -10    1.95    1.20
   3  -7 -10    2.66    1.44
  -3   7  10    1.85    1.25
  -3   7  10    2.47    0.94
  -3   7  10    2.60    1.40
   2  -7 -10   21.24    3.54
   2  -7 -10   15.96    2.93
  -2   7  10   18.23    2.39
  -2   7  10   18.37    3.44
  -2   7  10   22.29    3.54
   1  -7 -10   55.21    6.14
   1  -7 -10   69.43    6.87
   1  -7 -10   52.21    4.56
  -1   7  10   67.58    6.68
  -1   7  10   58.17    6.76
  -1   7  10   59.74    5.56
   0  -7 -10    8.91    2.41
   0  -7 -10    6.45    1.87
   0  -7 -10    7.76    2.31
   0  -7 -10    6.11    0.67
   0   7  10    7.34    2.29
   0   7  10    8.82    2.22
  -1  -7 -10   50.68    5.82
  -1  -7 -10   59.77    6.32
  -1  -7 -10   51.49    4.39
  -1  -7 -10   63.20    6.42
   1   7  10   64.04    6.28
   1   7  10   58.13    6.57
  -2  -7 -10   72.59    5.72
  -2  -7 -10   65.94    7.12
  -2  -7 -10   85.86    7.70
  -2  -7 -10   78.05    7.70
   2   7  10   70.11    8.33
   2   7  10   83.61    7.63
   2   7  10   69.92    7.85
  -3  -7 -10   69.81    7.19
  -3  -7 -10   69.44    6.83
  -3  -7 -10   65.15    5.19
  -3  -7 -10   62.66    6.67
   3   7  10   63.09    7.68
   3   7  10   64.65    7.42
   3   7  10   79.64    7.20
  -4  -7 -10   60.17    5.88
  -4  -7 -10   59.05    6.36
  -4  -7 -10   51.14    5.81
  -5  -7 -10   80.27    7.41
  -5  -7 -10   72.48    7.59
  -5  -7 -10   80.35    8.04
   5   7  10   71.34    7.25
   5   7  10   92.10    8.15
   5   7  10   73.46    6.53
  -6  -7 -10   16.53    3.07
  -6  -7 -10   15.23    2.35
   6   7  10   11.83    1.80
   6   7  10   13.83    3.79
   2  -8 -10   60.41    6.85
   2  -8 -10   73.23    7.60
  -2   8  10   65.60    7.52
  -2   8  10   62.98    6.01
  -2   8  10   76.20    7.48
   1  -8 -10  151.17   13.02
   1  -8 -10  133.78   12.37
  -1   8  10  128.20   12.83
  -1   8  10  160.43   12.96
  -1   8  10  130.45   11.56
   0  -8 -10  118.82   10.68
   0  -8 -10  117.65   10.54
   0  -8 -10   99.82    8.24
   0  -8 -10   98.40    9.87
   0   8  10  105.48    9.35
   0   8  10  105.18   10.57
   0   8  10  124.36   10.45
  -1  -8 -10   89.31    8.08
  -1  -8 -10   70.10    5.78
  -1  -8 -10   83.82    7.94
  -1  -8 -10   71.89    7.40
   1   8  10   72.57    6.94
   1   8  10   71.91    7.94
  -2  -8 -10  123.99   12.23
  -2  -8 -10  107.46   10.22
  -2  -8 -10  108.73    8.63
  -2  -8 -10  127.70   10.69
   2   8  10  110.18   10.94
   2   8  10  110.40    9.87
  -3  -8 -10   90.81    8.45
  -3  -8 -10   74.49    7.82
  -3  -8 -10   82.58    7.95
   3   8  10   72.90    7.46
   3   8  10   96.66   10.42
  -4  -8 -10   30.34    3.84
  -4  -8 -10   27.39    3.89
  -4  -8 -10   33.14    4.39
   4   8  10   36.77    4.42
   4   8  10   26.13    3.98
  -5  -8 -10   49.95    5.16
  -5  -8 -10   49.59    5.77
  -5  -8 -10   44.52    6.26
   5   8  10   60.18    7.95
   5   8  10   42.83    5.06
  -6  -8 -10   35.53    4.66
  -6  -8 -10   32.15    4.29
  -6  -8 -10   34.46    3.79
   6   8  10   32.48    4.01
   6   8  10   28.94    3.28
   1  -9 -10    4.72    1.58
  -1   9  10    4.64    1.80
  -1   9  10    7.55    2.31
   0  -9 -10   30.76    4.42
   0  -9 -10   26.04    3.83
   0  -9 -10   28.49    2.28
   0   9  10   34.11    4.30
   0   9  10   29.47    4.73
  -1  -9 -10    3.25    1.35
  -1  -9 -10    3.07    1.42
  -1  -9 -10    5.81    2.28
  -1  -9 -10    3.42    0.40
   1   9  10    4.34    2.18
   1   9  10    4.33    1.55
  -2  -9 -10    8.28    2.28
  -2  -9 -10    8.88    0.81
  -2  -9 -10   10.06    2.44
  -2  -9 -10    8.02    2.16
   2   9  10   10.36    2.39
   2   9  10    8.35    1.98
  -3  -9 -10   24.38    3.49
  -3  -9 -10   23.87    3.71
  -3  -9 -10   21.58    3.35
  -3  -9 -10   21.27    1.84
   3   9  10   20.92    2.99
   3   9  10   25.97    3.67
  -4  -9 -10   26.04    3.76
  -4  -9 -10   30.26    4.19
  -4  -9 -10   28.80    3.67
   4   9  10   23.56    3.33
  -5  -9 -10   20.55    3.29
  -5  -9 -10   21.96    2.99
  -5  -9 -10   23.15    3.72
   5   9  10   19.23    3.05
   0 -10 -10   48.03    5.69
   0 -10 -10   55.79    6.27
   0  10  10   47.29    4.97
  -1 -10 -10   68.83    7.31
  -1 -10 -10   81.37    7.96
  -1 -10 -10   71.10    5.48
   1  10  10   71.49    6.77
  -2 -10 -10   79.68    7.50
  -2 -10 -10   74.59    7.54
  -2 -10 -10   64.26    5.19
  -2 -10 -10   63.97    6.90
   2  10  10   62.39    6.45
  -3 -10 -10   96.47    7.56
  -3 -10 -10  106.24    9.84
  -3 -10 -10   95.37    9.34
  -3 -10 -10  109.22    9.57
   3  10  10   92.88    8.95
   0   1 -11  170.78   14.23
   0  -1  11  193.98   15.85
   0  -1  11  194.03   20.91
  -1   1 -11  118.35    9.03
   1  -1  11  119.93   11.26
   1  -1  11  112.05   11.69
  -2   1 -11   68.82    5.75
   2  -1  11   86.38    7.69
   2  -1  11   73.12    8.09
   2  -1  11   62.61    8.07
  -3   1 -11  107.47    8.73
   3  -1  11  102.61   11.24
   3  -1  11  107.40   11.18
   3  -1  11  108.49    8.73
   3  -1  11  126.34   10.72
   3  -1  11  124.16    8.75
  -4   1 -11  138.79   10.05
   4  -1  11  142.18   11.67
   4  -1  11  113.24    9.60
   4  -1  11  112.03   12.03
   4  -1  11  113.60   12.11
   1   0 -11   32.95    3.07
   1   0 -11   29.08    2.74
  -1   0  11   31.83    5.14
  -1   0  11   36.17    6.15
  -1   0  11   35.30    4.33
   0   0 -11   13.92    1.40
   0   0 -11   15.23    1.64
   0   0  11   17.30    1.56
   0   0  11   15.74    2.79
   0   0  11   11.46    3.18
   0   0  11   12.06    2.78
  -1   0 -11   44.75    3.73
  -1   0 -11   46.32    3.89
   1   0  11   51.80    5.46
   1   0  11   40.61    5.53
   1   0  11   53.78    3.84
   1   0  11   38.30    5.80
  -2   0 -11   25.30    2.32
   2   0  11   23.45    4.16
   2   0  11   24.29    4.31
   2   0  11   30.80    2.38
   2   0  11   29.91    3.95
  -3   0 -11   19.22    1.86
   3   0  11   21.04    1.82
   3   0  11   23.22    3.41
   3   0  11   18.82    4.03
   3   0  11   17.78    3.76
  -4   0 -11   65.49    5.28
   4   0  11   63.27    5.37
   4   0  11   74.40    7.24
   4   0  11   60.98    7.62
   4   0  11   66.81    7.91
  -5   0 -11   61.50    4.89
   5   0  11   57.08    7.23
   5   0  11   62.54    7.61
   5   0  11   60.78    5.12
   1  -1 -11  126.56    9.98
   1  -1 -11  120.86    9.61
  -1   1  11  125.48   11.63
  -1   1  11  138.78   13.69
  -1   1  11  118.88   12.36
   0  -1 -11   98.51    8.06
   0  -1 -11  101.81    8.07
   0   1  11   92.57    9.82
   0   1  11  118.60    9.81
   0   1  11   93.16   10.32
  -1  -1 -11  202.44   16.99
  -1  -1 -11  161.60   13.82
  -1  -1 -11  184.16   15.79
  -1  -1 -11  179.44   14.02
   1   1  11  166.29   16.12
   1   1  11  189.46   15.69
   1   1  11  196.01   13.91
  -2  -1 -11  209.69   16.80
  -2  -1 -11  231.89   18.82
  -2  -1 -11  236.91   19.15
  -2  -1 -11  229.03   16.93
   2   1  11  195.46   19.33
   2   1  11  207.65   19.21
   2   1  11  244.38   18.81
   2   1  11  221.73   16.82
  -3  -1 -11  184.45   15.44
  -3  -1 -11  161.21   13.40
  -3  -1 -11  200.74   15.77
   3   1  11  158.01   15.82
   3   1  11  171.68   13.36
   3   1  11  156.58   15.73
   3   1  11  201.09   15.52
  -4  -1 -11  155.25   13.29
  -4  -1 -11  153.08   13.32
  -4  -1 -11  147.29   11.33
   4   1  11  165.61   13.38
   4   1  11  141.99   13.94
   4   1  11  132.81   13.71
   4   1  11  139.45   11.43
  -5  -1 -11  185.35   14.93
  -5  -1 -11  209.10   17.10
   5   1  11  188.78   17.61
   5   1  11  183.80   15.25
   5   1  11  218.16   17.13
   5   1  11  193.62   17.91
   6   1  11   89.79    8.59
   6   1  11   93.10   13.30
   6   1  11   69.25    6.63
   6   1  11   75.87    9.83
   2  -2 -11   28.87    2.59
  -2   2  11   28.68    4.27
  -2   2  11   30.97    5.04
  -2   2  11   37.40    4.51
   1  -2 -11   72.79    5.81
   1  -2 -11   78.37    6.21
  -1   2  11   75.34    7.83
  -1   2  11   72.67    8.50
   0  -2 -11  130.11   12.02
   0  -2 -11  147.80   12.93
   0  -2 -11  124.47   10.41
   0  -2 -11  118.35   10.11
   0   2  11  118.23   12.10
   0   2  11  149.96   10.26
   0   2  11  143.59   12.08
  -1  -2 -11   44.44    5.31
  -1  -2 -11   33.79    3.05
  -1  -2 -11   37.23    4.74
  -1  -2 -11   37.21    3.31
   1   2  11   40.39    3.14
   1   2  11   40.17    4.73
   1   2  11   32.52    5.12
   1   2  11   37.05    5.05
  -2  -2 -11   56.55    6.17
  -2  -2 -11   51.11    6.19
  -2  -2 -11   51.67    4.10
   2   2  11   45.10    6.29
   2   2  11   47.88    6.20
   2   2  11   55.87    5.86
  -3  -2 -11   48.32    3.92
  -3  -2 -11   52.09    5.74
   3   2  11   57.42    5.85
   3   2  11   49.46    3.88
   3   2  11   39.23    5.93
   3   2  11   45.69    6.10
  -4  -2 -11   25.27    3.61
  -4  -2 -11   20.42    1.94
   4   2  11   21.54    4.04
   4   2  11   21.14    2.06
   4   2  11   18.62    3.75
   4   2  11   25.29    4.68
  -5  -2 -11   26.59    3.69
  -5  -2 -11   25.84    2.22
  -5  -2 -11   25.04    4.52
  -5  -2 -11   26.68    3.93
   5   2  11   27.39    4.00
   5   2  11   26.42    4.55
   5   2  11   21.61    4.05
   5   2  11   22.48    2.41
  -6  -2 -11   28.38    2.36
  -6  -2 -11   26.48    3.83
  -6  -2 -11   29.12    4.16
   6   2  11   30.02    4.14
   6   2  11   24.38    4.34
   6   2  11   23.79    2.67
   6   2  11   26.02    4.68
   2  -3 -11   93.06    8.08
   2  -3 -11   88.65    7.31
  -2   3  11  110.78    9.56
  -2   3  11   88.94   10.15
  -2   3  11   94.92    9.47
   1  -3 -11   19.48    1.81
   1  -3 -11   20.67    2.17
   1  -3 -11   22.94    3.80
  -1   3  11   26.31    3.64
  -1   3  11   15.90    3.76
  -1   3  11   21.06    5.08
   0  -3 -11   84.57    7.19
   0  -3 -11  105.33    9.60
   0  -3 -11   92.20    8.85
   0  -3 -11   83.68    6.88
   0   3  11   80.83    9.44
   0   3  11   79.26    8.85
   0   3  11  103.33    7.03
  -1  -3 -11   82.76    6.96
  -1  -3 -11  103.51    9.38
   1   3  11  101.75    8.97
   1   3  11   79.66    9.43
   1   3  11   86.46    9.17
  -2  -3 -11   87.85    7.12
  -2  -3 -11  101.87    9.27
  -2  -3 -11   98.01    9.12
   2   3  11  101.84    9.05
   2   3  11   82.45    9.29
   2   3  11   83.11    9.54
  -3  -3 -11   92.06    8.81
  -3  -3 -11   96.82   10.44
  -3  -3 -11   88.32    7.20
  -3  -3 -11   97.46    9.20
   3   3  11  108.92   10.75
   3   3  11   87.20    9.67
   3   3  11   91.49    7.20
   3   3  11   89.31    9.67
  -4  -3 -11  111.42    9.98
  -4  -3 -11   95.01    7.84
  -4  -3 -11   93.81    9.39
  -4  -3 -11  110.56   10.83
   4   3  11   98.12    8.01
   4   3  11   95.24   10.33
   4   3  11  116.00    9.97
   4   3  11   97.99   10.37
  -5  -3 -11   70.41    6.02
  -5  -3 -11   82.51    8.06
  -5  -3 -11   69.28    7.43
  -5  -3 -11   80.27    7.97
   5   3  11   88.03    8.12
   5   3  11   74.22    6.28
   5   3  11   72.94    8.56
   5   3  11   75.04    8.45
  -6  -3 -11  160.57   14.01
  -6  -3 -11  161.91   14.08
  -6  -3 -11  147.13   13.46
   6   3  11  149.74   14.79
   6   3  11  146.72   12.18
   6   3  11  158.46   14.53
   2  -4 -11   16.69    1.61
   2  -4 -11   18.35    2.04
  -2   4  11   22.83    3.56
  -2   4  11   17.81    3.82
  -2   4  11   19.33    3.48
   1  -4 -11   31.27    4.17
   1  -4 -11   24.71    2.18
   1  -4 -11   24.61    2.54
  -1   4  11   25.26    4.07
  -1   4  11   22.67    4.41
  -1   4  11   30.99    4.02
   0  -4 -11   34.37    2.94
   0  -4 -11   35.01    5.23
   0  -4 -11   43.45    5.29
   0   4  11   32.31    4.78
   0   4  11   40.69    4.76
   0   4  11   35.83    5.47
  -1  -4 -11  100.87    9.01
  -1  -4 -11   83.63    6.51
  -1  -4 -11   92.48    8.60
  -1  -4 -11   69.53    7.79
   1   4  11   86.24    8.85
   1   4  11   78.76    9.20
  -2  -4 -11   40.91    4.79
  -2  -4 -11   43.82    5.52
  -2  -4 -11   43.99    5.17
  -2  -4 -11   40.70    3.31
   2   4  11   39.54    5.43
   2   4  11   38.97    5.65
  -3  -4 -11   65.60    6.78
  -3  -4 -11   59.10    6.59
  -3  -4 -11   58.49    6.34
  -3  -4 -11   61.69    4.81
   3   4  11   54.93    7.04
   3   4  11   69.23    6.74
   3   4  11   60.71    7.35
  -4  -4 -11   88.01    8.61
  -4  -4 -11   85.51    6.59
  -4  -4 -11   93.54    8.40
  -4  -4 -11   78.01    8.12
   4   4  11   77.05    9.06
   4   4  11   98.01    8.70
   4   4  11   82.97    6.79
   4   4  11   78.59    9.07
  -5  -4 -11   39.83    4.49
  -5  -4 -11   33.94    3.02
  -5  -4 -11   37.57    4.93
  -5  -4 -11   34.57    4.49
   5   4  11   36.26    3.36
   5   4  11   36.79    5.41
   5   4  11   42.29    5.06
   5   4  11   36.92    5.51
  -6  -4 -11   11.88    2.32
  -6  -4 -11   12.21    2.81
  -6  -4 -11    8.93    2.36
   6   4  11   10.72    2.98
   6   4  11    9.03    1.51
   6   4  11   10.54    3.40
   6   4  11   10.90    3.20
   2  -5 -11   90.25    7.41
   2  -5 -11   89.09    6.96
  -2   5  11   89.69    9.94
  -2   5  11   95.77    9.62
   1  -5 -11  120.03    9.94
   1  -5 -11  144.40   12.26
  -1   5  11  129.70   13.06
  -1   5  11  132.80   12.40
   0  -5 -11   54.65    4.65
   0  -5 -11   71.25    7.20
   0  -5 -11   54.22    6.11
   0  -5 -11   62.46    6.86
   0   5  11   69.35    6.78
   0   5  11   57.68    6.82
   0   5  11   54.60    7.26
  -1  -5 -11  132.83   11.98
  -1  -5 -11  149.34   12.43
  -1  -5 -11  120.47   11.48
  -1  -5 -11  118.30    9.92
   1   5  11  123.75   12.25
   1   5  11  153.64   12.19
   1   5  11  121.75   12.86
  -2  -5 -11  135.84   10.40
  -2  -5 -11  147.43   12.58
  -2  -5 -11  135.37   13.42
  -2  -5 -11  116.45   12.43
   2   5  11  126.36   13.33
   2   5  11  161.44   12.61
   2   5  11  136.51   12.93
  -3  -5 -11   66.57    5.27
  -3  -5 -11   62.94    6.78
  -3  -5 -11   71.78    7.12
  -3  -5 -11   69.51    7.26
   3   5  11   65.23    8.00
   3   5  11   76.06    7.28
   3   5  11   63.36    7.64
  -4  -5 -11   42.46    4.82
  -4  -5 -11   38.28    4.77
  -4  -5 -11   37.81    3.22
  -4  -5 -11   42.32    5.23
   4   5  11   46.36    5.21
   4   5  11   38.97    5.75
   4   5  11   37.82    5.57
   4   5  11   38.40    3.47
  -5  -5 -11  101.63    9.33
  -5  -5 -11   91.71    9.36
  -5  -5 -11  103.04    9.92
   5   5  11  118.27   10.12
   5   5  11   97.04   10.55
   5   5  11   98.84    8.18
   5   5  11  101.23   10.67
  -6  -5 -11   48.59    6.01
  -6  -5 -11   59.34    5.97
  -6  -5 -11   59.24    6.63
   6   5  11   56.21    7.34
   6   5  11   67.82    6.79
   6   5  11   53.71    5.06
   6   5  11   65.02    7.55
  -2   6  11   14.42    3.09
   1  -6 -11   22.72    3.60
   1  -6 -11   18.04    1.65
  -1   6  11   21.20    3.50
  -1   6  11   20.18    3.65
  -1   6  11   18.54    3.91
   0  -6 -11   33.28    4.40
   0  -6 -11   36.05    4.78
   0  -6 -11   25.88    3.94
   0  -6 -11   28.11    2.46
   0   6  11   30.09    4.49
   0   6  11   35.44    4.42
   0   6  11   29.93    7.39
  -1  -6 -11   12.17    2.69
  -1  -6 -11   11.75    2.72
  -1  -6 -11    9.80    2.37
   1   6  11   11.34    2.80
   1   6  11   11.92    2.59
   1   6  11    9.66    3.01
  -2  -6 -11   42.52    3.45
  -2  -6 -11   47.38    5.37
  -2  -6 -11   39.64    4.95
  -2  -6 -11   46.00    5.40
   2   6  11   39.05    5.92
   2   6  11   51.49    5.40
   2   6  11   41.13    5.62
  -3  -6 -11   50.88    6.06
  -3  -6 -11   64.14    6.70
  -3  -6 -11   56.80    4.57
  -3  -6 -11   61.97    6.68
   3   6  11   53.90    7.16
   3   6  11   54.73    6.94
   3   6  11   69.73    6.72
  -4  -6 -11   40.23    3.30
  -4  -6 -11   43.08    4.89
  -4  -6 -11   38.36    4.86
  -4  -6 -11   42.59    5.33
   4   6  11   47.64    5.35
   4   6  11   40.54    5.81
   4   6  11   37.93    5.71
  -5  -6 -11   58.94    6.12
  -5  -6 -11   61.03    6.75
  -5  -6 -11   59.38    6.43
   5   6  11   53.52    5.05
   5   6  11   60.36    7.36
   5   6  11   56.18    7.33
   5   6  11   69.40    6.92
  -6  -6 -11   74.44    7.21
  -6  -6 -11   67.55    7.83
  -6  -6 -11   79.85    8.17
   6   6  11   68.55    6.43
   6   6  11   82.25    8.85
   6   6  11   91.20    9.79
   1  -7 -11   55.73    6.29
   1  -7 -11   67.86    7.00
   1  -7 -11   57.52    4.57
  -1   7  11   57.61    6.91
  -1   7  11   60.14    5.67
   0  -7 -11  112.24    8.94
   0  -7 -11  111.16   10.68
   0  -7 -11  134.14   11.37
   0   7  11  117.53   11.47
  -1  -7 -11  105.18    9.74
  -1  -7 -11   94.31    9.18
  -1  -7 -11   92.42    7.45
  -1  -7 -11  110.94    9.84
   1   7  11   92.31   10.51
   1   7  11   94.98    9.88
  -2  -7 -11   94.86    7.53
  -2  -7 -11   93.42    9.19
  -2  -7 -11  111.41    9.76
  -2  -7 -11  105.83    9.76
   2   7  11   92.81   10.46
   2   7  11   96.59   10.04
  -3  -7 -11  126.47    9.60
  -3  -7 -11  126.71   12.19
  -3  -7 -11  141.00   11.98
  -3  -7 -11  123.23   11.33
   3   7  11  117.83   12.54
   3   7  11  124.18   12.28
  -4  -7 -11   98.67    8.21
  -4  -7 -11  114.39   10.48
  -4  -7 -11   98.71    9.90
  -4  -7 -11  111.25    9.92
   4   7  11  127.06   10.55
   4   7  11  102.80   11.09
   4   7  11  103.42   12.52
  -5  -7 -11   25.07    3.90
  -5  -7 -11   28.43    3.73
  -5  -7 -11   31.48    4.45
   5   7  11   26.24    4.64
   5   7  11   35.10    4.46
   1  -8 -11   25.34    2.16
   1  -8 -11   23.56    3.76
   1  -8 -11   30.93    4.43
  -1   8  11   30.23    3.31
  -1   8  11   31.30    5.36
  -1   8  11   26.65    4.38
   0  -8 -11   10.17    2.46
   0  -8 -11   13.34    2.87
   0  -8 -11   11.01    1.00
   0   8  11    9.42    2.86
   0   8  11   13.81    3.12
   0   8  11   12.90    2.14
  -1  -8 -11   36.95    4.76
  -1  -8 -11   30.62    4.21
  -1  -8 -11   29.99    2.64
   1   8  11   42.51    6.80
   1   8  11   30.68    4.78
   1   8  11   34.18    3.86
  -2  -8 -11   14.19    2.94
  -2  -8 -11   14.71    2.88
  -2  -8 -11   13.00    1.19
  -2  -8 -11   12.56    2.66
   2   8  11   14.81    2.39
   2   8  11   14.23    3.24
  -3  -8 -11    6.29    2.07
  -3  -8 -11    8.26    2.45
  -3  -8 -11    6.44    0.71
  -3  -8 -11    7.48    2.08
   3   8  11    7.20    1.87
   3   8  11    5.34    1.81
  -4  -8 -11   21.21    3.73
  -4  -8 -11   21.04    3.65
  -4  -8 -11   19.67    1.70
  -4  -8 -11   17.98    3.52
   4   8  11   22.73    4.07
   4   8  11   19.29    2.95
  -5  -8 -11   18.56    2.88
  -5  -8 -11   19.83    3.57
  -5  -8 -11   17.51    3.14
   5   8  11   16.74    2.87
  -1  -9 -11   33.50    4.40
  -1  -9 -11   36.81    4.83
  -1  -9 -11   32.57    2.60
   1   9  11   26.66    4.57
   1   9  11   32.22    3.82
   1   9  11   39.37    4.81
  -2  -9 -11   72.62    9.35
  -2  -9 -11   79.31    7.81
  -2  -9 -11   67.27    5.37
   2   9  11   63.07    6.64
  -3  -9 -11   73.89    5.82
  -3  -9 -11   72.91    7.65
  -3  -9 -11   80.65    7.77
  -3  -9 -11   83.26    8.23
   3   9  11   69.38    7.63
  -2  -1 -12   24.73    2.52
   2   1  12   30.55    4.76
   2   1  12   33.66    4.46
  -3  -1 -12   33.90    3.26
   3   1  12   29.77    5.03
   3   1  12   28.93    5.42
   3   1  12   40.60    4.94
  -1  -2 -12   94.31    7.56
  -1  -2 -12  103.75    7.86
   1   2  12   96.83   10.58
   1   2  12   96.37   10.02
  -2  -2 -12  102.24    7.82
  -2  -2 -12   94.93    7.61
   2   2  12   93.79   10.44
   2   2  12  111.45    9.88
   2   2  12   88.56   10.04
  -3  -2 -12   39.56    3.36
  -4  -2 -12   78.19    6.01
   4   2  12   88.85    8.32
   4   2  12   73.15    8.68
   4   2  12   72.37    6.01
   4   2  12   68.54    8.59
   0  -3 -12   30.36    2.69
   0  -3 -12   30.48    3.04
   0   3  12   36.56    4.69
   0   3  12   30.69    5.72
   0   3  12   37.55    2.85
   0   3  12   29.85    4.66
  -1  -3 -12   39.33    3.50
  -1  -3 -12   35.83    3.22
   1   3  12   46.56    5.36
   1   3  12   36.36    5.72
   1   3  12   37.20    5.35
  -2  -3 -12   52.86    4.97
   2   3  12   71.87    7.18
   2   3  12   61.12    7.73
  -3  -3 -12   51.17    6.17
  -3  -3 -12   48.84    4.18
   3   3  12   56.38    6.92
   3   3  12   45.42    6.59
   3   3  12   60.08    6.35
  -4  -3 -12   44.63    5.47
  -4  -3 -12   39.74    3.48
   4   3  12   49.43    5.65
   4   3  12   41.49    3.54
   4   3  12   37.69    5.85
   4   3  12   43.45    6.11
   0  -4 -12  107.26    8.40
   0  -4 -12  111.69    8.81
   0   4  12  112.63   10.99
   0   4  12  107.93   11.76
  -1  -4 -12   82.89   10.14
  -1  -4 -12   74.23    6.15
   1   4  12   71.80    9.05
   1   4  12   78.32    9.52
   1   4  12   91.00    8.56
  -2  -4 -12   85.75    6.94
  -2  -4 -12   95.19    9.16
   2   4  12  105.68    9.30
   2   4  12   80.11    9.74
   2   4  12   82.72    9.46
  -3  -4 -12   95.43    9.06
  -3  -4 -12   87.03    6.82
  -3  -4 -12   84.44    8.49
   3   4  12   89.15    9.63
   3   4  12   80.71    9.66
  -4  -4 -12   36.83    5.40
  -4  -4 -12   39.73    5.12
  -4  -4 -12   37.67    3.16
  -4  -4 -12   37.19    4.83
   4   4  12   38.12    3.27
   4   4  12   44.18    5.25
   4   4  12   36.64    5.71
  -5  -4 -12   30.28    4.08
  -5  -4 -12   25.83    2.41
  -5  -4 -12   28.59    4.37
  -5  -4 -12   26.41    3.95
   5   4  12   33.08    4.52
   5   4  12   26.18    2.66
   5   4  12   29.14    6.68
   5   4  12   30.36    5.08
   0  -5 -12    8.59    0.90
   0   5  12   10.68    2.67
   0   5  12    7.51    2.51
   0   5  12    8.01    2.99
  -1  -5 -12   17.83    1.57
  -1  -5 -12   17.18    3.31
   1   5  12   16.41    3.51
   1   5  12   20.42    3.38
   1   5  12   16.82    4.00
  -2  -5 -12    7.28    2.34
  -2  -5 -12    7.18    2.25
  -2  -5 -12    7.63    0.89
   2   5  12   10.29    2.56
   2   5  12    9.11    2.81
   2   5  12    7.89    3.03
  -3  -5 -12   22.52    5.08
  -3  -5 -12   20.39    3.44
  -3  -5 -12   19.83    1.84
  -3  -5 -12   20.84    4.73
   3   5  12   20.06    4.04
   3   5  12   25.55    3.82
   3   5  12   19.51    5.42
  -4  -5 -12   31.09    4.33
  -4  -5 -12   33.28    4.33
   4   5  12   28.65    5.07
   4   5  12   27.43    5.81
   4   5  12   37.75    4.83
  -5  -5 -12   20.31    3.18
  -5  -5 -12   16.60    3.18
  -5  -5 -12   18.84    1.71
   5   5  12   18.59    4.07
   5   5  12   19.26    2.05
   5   5  12   20.89    3.66
   5   5  12   17.51    4.06
   0  -6 -12   36.24    3.20
   0   6  12   47.87    5.47
   0   6  12   38.60    6.65
  -1  -6 -12   95.05    9.25
  -1  -6 -12   91.37    7.41
  -1  -6 -12  106.86    9.82
   1   6  12   93.51   10.66
   1   6  12   99.39   10.16
  -2  -6 -12  102.78    8.27
  -2  -6 -12  100.86   10.04
  -2  -6 -12  118.60   13.56
   2   6  12  104.19   10.96
   2   6  12  126.49   10.75
   2   6  12  101.58   11.44
  -3  -6 -12   88.00    6.52
  -3  -6 -12   77.52    8.23
  -3  -6 -12   91.38    8.88
   3   6  12   83.12   10.25
   3   6  12   82.62    9.29
  -4  -6 -12  138.18   12.37
  -4  -6 -12  147.97   12.97
  -4  -6 -12  131.48   12.37
  -4  -6 -12  136.14   10.51
   4   6  12  139.62   13.69
   4   6  12  136.08   14.39
  -1  -7 -12   16.14    1.53
  -1  -7 -12   17.14    3.12
  -1  -7 -12   18.80    3.50
   1   7  12   23.09    3.61
   1   7  12   16.64    3.91
   1   7  12   18.24    3.68
  -2  -7 -12   50.72    5.97
  -2  -7 -12   45.21    5.39
  -2  -7 -12   43.64    3.58
   2   7  12   44.62    6.09
   2   7  12   43.64    6.49
  -3  -7 -12   16.51    1.52
  -3  -7 -12   18.24    3.34
  -3  -7 -12   15.70    3.06
   3   7  12   17.02    3.97
   3   7  12   16.13    3.80
   3   7  12   22.08    3.67
   0   0   0    0.00    0.00
;
loop_
_space_group_symop_operation_xyz
'x, y, z'
'-x, -y, -z'
loop_
_atom_site_label
_atom_site_type_symbol
_atom_site_fract_x
_atom_site_fract_y
_atom_site_fract_z
_atom_site_U_iso_or_equiv
_atom_site_adp_type
_atom_site_occupancy
_atom_site_site_symmetry_order
_atom_site_calc_flag
_atom_site_refinement_flags_posn
_atom_site_refinement_flags_adp
_atom_site_refinement_flags_occupancy
_atom_site_disorder_assembly
_atom_site_disorder_group
Pt1 Pt 0.5000 0.0000 0.5000 0.01992(5) Uani 1 2 d S . P . .
Mn1 Mn 0.5000 0.5000 0.0000 0.01939(9) Uani 1 2 d S . P . .
S1 S 0.16671(7) 0.24650(6) 0.08218(7) 0.02969(11) Uani 1 1 d . . . . .
S2 S 0.40896(8) 0.63399(8) 0.28672(7) 0.03753(13) Uani 1 1 d . . . . .
O1 O 0.2583(2) 0.4018(2) -0.02187(19) 0.0332(3) Uani 1 1 d . . . . .
O2 O 0.3319(2) 0.5695(2) 0.1872(2) 0.0338(3) Uani 1 1 d . . . . .
N1 N 0.1455(4) 0.1482(3) 0.6396(3) 0.0547(6) Uani 1 1 d . . . . .
N2 N 0.5449(3) 0.2803(2) 0.1848(2) 0.0327(4) Uani 1 1 d . . . . .
C1 C 0.2745(3) 0.0953(3) 0.5877(3) 0.0325(5) Uani 1 1 d . . . . .
C2 C 0.5301(3) 0.1783(2) 0.2991(2) 0.0256(4) Uani 1 1 d . . . . .
C3 C -0.0059(4) 0.2262(4) -0.0098(3) 0.0425(6) Uani 1 1 d . . . . .
H3A H 0.0502 0.2072 -0.1051 0.064 Uiso 1 1 calc R U . . .
H3B H -0.0764 0.3208 -0.0345 0.064 Uiso 1 1 calc R U . . .
H3C H -0.0859 0.1394 0.0599 0.064 Uiso 1 1 calc R U . . .
C4 C 0.0243(4) 0.2815(4) 0.2456(3) 0.0469(7) Uani 1 1 d . . . . .
H4A H -0.0520 0.3706 0.2095 0.070 Uiso 1 1 calc R U . . .
H4B H 0.0996 0.3022 0.3070 0.070 Uiso 1 1 calc R U . . .
H4C H -0.0525 0.1907 0.3093 0.070 Uiso 1 1 calc R U . . .
C5 C 0.2392(5) 0.5929(6) 0.4631(4) 0.0677(10) Uani 1 1 d . . . . .
H5A H 0.1254 0.6411 0.4399 0.102 Uiso 1 1 calc R U . . .
H5B H 0.2789 0.6339 0.5323 0.102 Uiso 1 1 calc R U . . .
H5C H 0.2209 0.4813 0.5131 0.102 Uiso 1 1 calc R U . . .
C6 C 0.3754(8) 0.8379(4) 0.2065(6) 0.0814(13) Uani 1 1 d . . . . .
H6A H 0.4131 0.8884 0.2692 0.122 Uiso 1 1 calc R U . . .
H6B H 0.2472 0.8579 0.2060 0.122 Uiso 1 1 calc R U . . .
H6C H 0.4477 0.8786 0.1005 0.122 Uiso 1 1 calc R U . . .
loop_
_atom_site_aniso_label
_atom_site_aniso_U_11
_atom_site_aniso_U_22
_atom_site_aniso_U_33
_atom_site_aniso_U_23
_atom_site_aniso_U_13
_atom_site_aniso_U_12
Pt1 0.02438(7) 0.01456(6) 0.01616(6) 0.00060(4) -0.00514(4) -0.00035(4)
Mn1 0.02014(19) 0.01646(19) 0.01629(18) -0.00022(15) -0.00266(14) -0.00074(14)
S1 0.0244(2) 0.0264(2) 0.0361(3) -0.0084(2) -0.0062(2) -0.00188(19)
S2 0.0329(3) 0.0524(4) 0.0361(3) -0.0247(3) -0.0123(2) 0.0083(2)
O1 0.0282(8) 0.0376(9) 0.0298(8) -0.0056(7) -0.0057(6) -0.0106(6)
O2 0.0299(8) 0.0420(9) 0.0345(8) -0.0213(7) -0.0046(6) 0.0020(7)
N1 0.0517(15) 0.0610(16) 0.0447(13) -0.0182(12) -0.0047(11) 0.0205(12)
N2 0.0327(10) 0.0263(9) 0.0280(9) 0.0026(7) -0.0055(8) 0.0021(7)
C1 0.0362(12) 0.0301(11) 0.0241(10) -0.0034(8) -0.0044(8) 0.0053(9)
C2 0.0280(10) 0.0210(9) 0.0213(9) -0.0002(7) -0.0052(7) 0.0006(7)
C3 0.0349(13) 0.0556(16) 0.0445(14) -0.0255(12) -0.0064(10) -0.0122(11)
C4 0.0476(15) 0.0593(16) 0.0304(12) -0.0155(11) 0.0040(11) -0.0216(14)
C5 0.063(2) 0.106(3) 0.0364(15) -0.0350(18) -0.0053(14) 0.020(2)
C6 0.119(4) 0.0444(18) 0.098(3) -0.031(2) -0.044(3) -0.014(2)
loop_
_atom_type_symbol
_atom_type_description
_atom_type_scat_dispersion_real
_atom_type_scat_dispersion_imag
_atom_type_scat_source
C C 0.0033 0.0016 'International Tables Vol C Tables 4.2.6.8 and 6.1.1.4'
H H 0.0000 0.0000 'International Tables Vol C Tables 4.2.6.8 and 6.1.1.4'
Mn Mn 0.3368 0.7283 'International Tables Vol C Tables 4.2.6.8 and 6.1.1.4'
N N 0.0061 0.0033 'International Tables Vol C Tables 4.2.6.8 and 6.1.1.4'
O O 0.0106 0.0060 'International Tables Vol C Tables 4.2.6.8 and 6.1.1.4'
Pt Pt -1.7033 8.3905 'International Tables Vol C Tables 4.2.6.8 and 6.1.1.4'
S S 0.1246 0.1234 'International Tables Vol C Tables 4.2.6.8 and 6.1.1.4'
loop_
_geom_angle_atom_site_label_1
_geom_angle_atom_site_label_2
_geom_angle_atom_site_label_3
_geom_angle
_geom_angle_site_symmetry_1
_geom_angle_site_symmetry_3
C2 Pt1 C2 180.0 2_656 .
C2 Pt1 C1 89.84(9) 2_656 .
C2 Pt1 C1 90.16(9) . .
C2 Pt1 C1 90.16(9) 2_656 2_656
C2 Pt1 C1 89.84(9) . 2_656
C1 Pt1 C1 180.0 . 2_656
O1 Mn1 O1 180.0 . 2_665
O1 Mn1 O2 90.60(6) . 2_665
O1 Mn1 O2 89.40(6) 2_665 2_665
O1 Mn1 O2 89.40(6) . .
O1 Mn1 O2 90.60(6) 2_665 .
O2 Mn1 O2 180.0 2_665 .
O1 Mn1 N2 90.78(7) . .
O1 Mn1 N2 89.22(7) 2_665 .
O2 Mn1 N2 93.43(7) 2_665 .
O2 Mn1 N2 86.57(7) . .
O1 Mn1 N2 89.22(7) . 2_665
O1 Mn1 N2 90.78(7) 2_665 2_665
O2 Mn1 N2 86.57(7) 2_665 2_665
O2 Mn1 N2 93.43(7) . 2_665
N2 Mn1 N2 180.0 . 2_665
O1 S1 C3 104.62(12) . .
O1 S1 C4 105.29(13) . .
C3 S1 C4 98.58(14) . .
O2 S2 C6 103.92(16) . .
O2 S2 C5 105.00(16) . .
C6 S2 C5 98.3(2) . .
S1 O1 Mn1 127.03(10) . .
S2 O2 Mn1 123.69(10) . .
C2 N2 Mn1 163.19(18) . .
N1 C1 Pt1 179.1(2) . .
N2 C2 Pt1 179.14(19) . .
S1 C3 H3A 109.5 . .
S1 C3 H3B 109.5 . .
H3A C3 H3B 109.5 . .
S1 C3 H3C 109.5 . .
H3A C3 H3C 109.5 . .
H3B C3 H3C 109.5 . .
S1 C4 H4A 109.5 . .
S1 C4 H4B 109.5 . .
H4A C4 H4B 109.5 . .
S1 C4 H4C 109.5 . .
H4A C4 H4C 109.5 . .
H4B C4 H4C 109.5 . .
S2 C5 H5A 109.5 . .
S2 C5 H5B 109.5 . .
H5A C5 H5B 109.5 . .
S2 C5 H5C 109.5 . .
H5A C5 H5C 109.5 . .
H5B C5 H5C 109.5 . .
S2 C6 H6A 109.5 . .
S2 C6 H6B 109.5 . .
H6A C6 H6B 109.5 . .
S2 C6 H6C 109.5 . .
H6A C6 H6C 109.5 . .
H6B C6 H6C 109.5 . .
loop_
_geom_bond_atom_site_label_1
_geom_bond_atom_site_label_2
_geom_bond_distance
_geom_bond_site_symmetry_2
Pt1 C2 1.987(2) 2_656
Pt1 C2 1.987(2) .
Pt1 C1 1.997(2) .
Pt1 C1 1.997(2) 2_656
Mn1 O1 2.1713(15) .
Mn1 O1 2.1713(15) 2_665
Mn1 O2 2.1862(16) 2_665
Mn1 O2 2.1862(16) .
Mn1 N2 2.2097(19) .
Mn1 N2 2.2097(19) 2_665
S1 O1 1.5173(16) .
S1 C3 1.774(3) .
S1 C4 1.778(3) .
S2 O2 1.5064(17) .
S2 C6 1.779(4) .
S2 C5 1.779(3) .
N1 C1 1.140(4) .
N2 C2 1.135(3) .
C3 H3A 0.9700 .
C3 H3B 0.9700 .
C3 H3C 0.9700 .
C4 H4A 0.9700 .
C4 H4B 0.9700 .
C4 H4C 0.9700 .
C5 H5A 0.9700 .
C5 H5B 0.9700 .
C5 H5C 0.9700 .
C6 H6A 0.9700 .
C6 H6B 0.9700 .
C6 H6C 0.9700 .
loop_
_geom_torsion_atom_site_label_1
_geom_torsion_atom_site_label_2
_geom_torsion_atom_site_label_3
_geom_torsion_atom_site_label_4
_geom_torsion
_geom_torsion_site_symmetry_1
_geom_torsion_site_symmetry_2
_geom_torsion_site_symmetry_3
_geom_torsion_site_symmetry_4
C3 S1 O1 Mn1 -173.76(14) . . . .
C4 S1 O1 Mn1 82.87(16) . . . .
C6 S2 O2 Mn1 101.5(2) . . . .
C5 S2 O2 Mn1 -155.77(17) . . . .
