#------------------------------------------------------------------------------
#$Date: 2022-03-07 10:14:33 +0200 (Mon, 07 Mar 2022) $
#$Revision: 273478 $
#$URL: file:///home/coder/svn-repositories/cod/cif/8/10/46/8104650.cif $
#------------------------------------------------------------------------------
#
# This file is available in the Crystallography Open Database (COD),
# http://www.crystallography.net/
#
# All data on this site have been placed in the public domain by the
# contributors.
#
data_8104650
loop_
_publ_author_name
'Ja\'cimovi\'c, \<Zeljko K.'
'Tomi\'c, Zoran D.'
'Giester, Gerald'
'Libowitzky, Eugen'
'Ajanovi\'c, Atifa'
'Kosovi\'c, Milica'
_publ_section_title
;
 The crystal structure of bis[4-bromo-2-(1H-pyrazol-3-yl) phenolato-\k2
 N,O] copper(II), C18H12Br2CuN4O2
;
_journal_issue                   5
_journal_name_full
'Zeitschrift f\"ur Kristallographie - New Crystal Structures'
_journal_page_first              1003
_journal_page_last               1005
_journal_paper_doi               10.1515/ncrs-2021-0191
_journal_volume                  236
_journal_year                    2021
_chemical_formula_moiety         'C18 H12 Br2 Cu N4 O2'
_chemical_formula_sum            'C18 H12 Br2 Cu N4 O2'
_chemical_formula_weight         539.67
_space_group_crystal_system      monoclinic
_space_group_IT_number           14
_space_group_name_Hall           '-P 2ybc'
_space_group_name_H-M_alt        'P 1 21/c 1'
_atom_sites_solution_hydrogens   difmap
_atom_sites_solution_primary     direct
_atom_sites_solution_secondary   difmap
_cell_angle_alpha                90
_cell_angle_beta                 105.639(2)
_cell_angle_gamma                90
_cell_formula_units_Z            2
_cell_length_a                   11.5165(11)
_cell_length_b                   5.4369(5)
_cell_length_c                   14.4872(14)
_cell_measurement_reflns_used    7616
_cell_measurement_temperature    200(2)
_cell_measurement_theta_max      29.18
_cell_measurement_theta_min      2.64
_cell_volume                     873.52(14)
_computing_cell_refinement       'APEX2 (Bruker, 2008)'
_computing_data_collection       'SAINT (Bruker, 2008)'
_computing_data_reduction        'SAINT (Bruker, 2008)'
_computing_molecular_graphics
'ORTEP-3 (Farrugia, 2012), Mercury (Macrae, 2020)'
_computing_publication_material  'PLATON (Spek, 2003), WinGX (Farrugia, 1999)'
_computing_structure_refinement  'SHELXL-2014/6 (Sheldrick, 2014)'
_computing_structure_solution    'SHELXT 2014/5 (Sheldrick, 2014)'
_diffrn_ambient_temperature      200(2)
_diffrn_measured_fraction_theta_full 0.999
_diffrn_measured_fraction_theta_max 0.995
_diffrn_measurement_device_type  'Bruker ApexII CCD'
_diffrn_measurement_method       'phi and omega scans'
_diffrn_radiation_type           MoK\a
_diffrn_radiation_wavelength     0.71073
_diffrn_reflns_av_R_equivalents  0.0312
_diffrn_reflns_av_unetI/netI     0.0174
_diffrn_reflns_Laue_measured_fraction_full 0.999
_diffrn_reflns_Laue_measured_fraction_max 0.995
_diffrn_reflns_limit_h_max       16
_diffrn_reflns_limit_h_min       -16
_diffrn_reflns_limit_k_max       7
_diffrn_reflns_limit_k_min       -7
_diffrn_reflns_limit_l_max       20
_diffrn_reflns_limit_l_min       -20
_diffrn_reflns_number            24890
_diffrn_reflns_point_group_measured_fraction_full 0.999
_diffrn_reflns_point_group_measured_fraction_max 0.995
_diffrn_reflns_theta_full        25.242
_diffrn_reflns_theta_max         30.623
_diffrn_reflns_theta_min         1.836
_exptl_absorpt_coefficient_mu    5.847
_exptl_absorpt_correction_type   "'partial multi scans'"
_exptl_crystal_colour            green
_exptl_crystal_density_diffrn    2.052
_exptl_crystal_description       prism
_exptl_crystal_F_000             526
_exptl_crystal_size_max          0.25
_exptl_crystal_size_mid          0.10
_exptl_crystal_size_min          0.08
_refine_diff_density_max         0.464
_refine_diff_density_min         -0.326
_refine_diff_density_rms         0.068
_refine_ls_extinction_coef       .
_refine_ls_extinction_method     none
_refine_ls_goodness_of_fit_ref   1.053
_refine_ls_hydrogen_treatment    mixed
_refine_ls_matrix_type           full
_refine_ls_number_parameters     128
_refine_ls_number_reflns         2680
_refine_ls_number_restraints     0
_refine_ls_restrained_S_all      1.053
_refine_ls_R_factor_all          0.0330
_refine_ls_R_factor_gt           0.0232
_refine_ls_shift/su_max          0.001
_refine_ls_shift/su_mean         0.000
_refine_ls_structure_factor_coef Fsqd
_refine_ls_weighting_details
;
 w=1/[\s^2^(Fo^2^)+(0.0240P)^2^+0.5488P]
 where P=(Fo^2^+2Fc^2^)/3
;
_refine_ls_weighting_scheme      calc
_refine_ls_wR_factor_gt          0.0528
_refine_ls_wR_factor_ref         0.0559
_reflns_Friedel_coverage         0.000
_reflns_Friedel_fraction_full    .
_reflns_Friedel_fraction_max     .
_reflns_number_gt                2239
_reflns_number_total             2680
_reflns_threshold_expression     'I > 2\s(I)'
_cod_data_source_file            suppl_j_ncrs-2021-0191_suppl.cif
_cod_data_source_block           shelx
_cod_original_sg_symbol_H-M      'P 21/c'
_cod_database_code               8104650
_shelx_space_group_comment
;
The symmetry employed for this shelxl refinement is uniquely defined
by the following loop, which should always be used as a source of
symmetry information in preference to the above space-group names.
They are only intended as comments.
;
_shelxl_version_number           2013-2
_shelx_res_file
;
TITL zeljko2019_1_0m_a.res in P2(1)/c
CELL  0.71073  11.5165   5.4369  14.4872   90.000  105.639   90.000
ZERR     4.00   0.0011   0.0005   0.0014    0.000    0.002    0.000
LATT   1
SYMM  - X, 1/2 + Y, 1/2 - Z
SFAC  C    H    BR   CU   N    O
UNIT  36 24 4 2 8 4
MERG   2
FMAP   2
PLAN   20
ACTA
BOND   $H
LIST   6
L.S.  10
TEMP   -73.00
WGHT    0.024000    0.548800
FVAR       0.45534
BR1   3    0.926824    0.293229    0.293814    11.00000    0.03254    0.03429 =
         0.04555   -0.00506    0.01989    0.00038
CU1   4    0.500000    1.000000    0.500000    10.50000    0.02559    0.01865 =
         0.02281   -0.00383    0.00691   -0.00302
O1    6    0.664063    0.977693    0.495688    11.00000    0.02621    0.02527 =
         0.03634   -0.01011    0.01006   -0.00519
N1    5    0.458659    0.718826    0.416961    11.00000    0.02427    0.02104 =
         0.02236   -0.00270    0.00546   -0.00405
N2    5    0.345782    0.624918    0.390833    11.00000    0.02318    0.02640 =
         0.02765   -0.00517    0.00658   -0.00355
C4    1    0.841064    0.501126    0.358192    11.00000    0.02912    0.02398 =
         0.03092    0.00155    0.01278    0.00172
C1    1    0.715400    0.818355    0.450568    11.00000    0.02761    0.02043 =
         0.02651   -0.00034    0.00820   -0.00223
C9    1    0.341645    0.419862    0.339398    11.00000    0.02858    0.02527 =
         0.02518   -0.00452    0.00400   -0.00641
AFIX   3
H2    2    0.267147    0.337588    0.318514    11.00000   -1.20000
AFIX   0
C3    1    0.900860    0.693941    0.412659    11.00000    0.02543    0.03268 =
         0.05300   -0.00722    0.01378   -0.00511
AFIX   3
H5    2    0.982852    0.716344    0.419171    11.00000   -1.20000
AFIX   0
C2    1    0.839328    0.848054    0.458219    11.00000    0.02775    0.02906 =
         0.04842   -0.01147    0.00995   -0.00846
AFIX   3
H6    2    0.876380    0.989983    0.492321    11.00000   -1.20000
AFIX   0
C7    1    0.527622    0.569628    0.381211    11.00000    0.02733    0.02010 =
         0.01614    0.00038    0.00638   -0.00238
C5    1    0.720546    0.460496    0.349632    11.00000    0.02996    0.02255 =
         0.02250   -0.00127    0.00844   -0.00180
AFIX   3
H4    2    0.682110    0.325447    0.308501    11.00000   -1.20000
AFIX   0
C6    1    0.656049    0.616337    0.395242    11.00000    0.02547    0.01953 =
         0.01876    0.00116    0.00589   -0.00285
C8    1    0.455894    0.375756    0.331601    11.00000    0.03123    0.02446 =
         0.02223   -0.00476    0.00721   -0.00418
AFIX   3
H3    2    0.479263    0.247462    0.295891    11.00000   -1.20000
AFIX   0
H1    2    0.295253    0.703720    0.408918    11.00000    0.03726
HKLF    4

REM  zeljko2019_1_0m_a.res in P2(1)/c
REM R1 =  0.0232 for    2239 Fo > 4sig(Fo)  and  0.0330 for all    2680 data
REM    128 parameters refined using      0 restraints

END

WGHT      0.0240      0.5488

REM Highest difference peak  0.464,  deepest hole -0.326,  1-sigma level  0.068
Q1    1   0.9008  0.3866  0.2593  11.00000  0.05    0.46
Q2    1   0.9758  0.3310  0.3348  11.00000  0.05    0.45
Q3    1   0.8980  0.2087  0.3074  11.00000  0.05    0.39
Q4    1   0.6870  0.5336  0.3732  11.00000  0.05    0.36
Q5    1   0.3991  0.3745  0.3414  11.00000  0.05    0.33
Q6    1   0.7768  0.8182  0.4575  11.00000  0.05    0.32
Q7    1   0.4801  0.4906  0.3420  11.00000  0.05    0.31
Q8    1   0.4766  0.7912  0.4738  11.00000  0.05    0.31
Q9    1   0.7817  0.4959  0.3559  11.00000  0.05    0.31
Q10   1   0.8649  0.5845  0.3919  11.00000  0.05    0.29
Q11   1   0.6003  0.5965  0.3904  11.00000  0.05    0.29
Q12   1   0.6827  0.7008  0.4196  11.00000  0.05    0.28
Q13   1   0.8571  0.7523  0.4404  11.00000  0.05    0.27
Q14   1   0.4241  0.6827  0.4105  11.00000  0.05    0.27
Q15   1   0.6183  0.9507  0.5196  11.00000  0.05    0.27
Q16   1   0.6945  0.6393  0.4389  11.00000  0.05    0.23
Q17   1   0.6962  1.0587  0.5150  11.00000  0.05    0.23
Q18   1   0.3459  0.5209  0.3603  11.00000  0.05    0.23
Q19   1   0.4421  0.3956  0.3034  11.00000  0.05    0.23
Q20   1   0.4990  0.6708  0.3937  11.00000  0.05    0.22
;
_shelx_hkl_file
;
   1   0   0  199.98    4.00
  -1   0   0  188.78    4.00
  -1   0   0  192.78    4.10
   1   0   0  196.78    4.10
  -1   0   0  204.18    4.10
  -2   0   0 2217.58   43.20
  -2   0   0 2183.48   44.10
   2   0   0 2173.78   45.40
  -2   0   0 2253.07   42.70
   2   0   0 2251.37   42.60
  -2   0   0 2131.09   43.70
   2   0   0 2238.08   42.80
   2   0   0 2258.67   43.30
  -2   0   0 2187.98   43.60
  -3   0   0    6.00    0.70
   3   0   0    9.50    1.50
  -3   0   0    7.30    0.90
  -3   0   0    5.40    1.00
   3   0   0    6.30    0.90
  -3   0   0    6.70    0.90
   3   0   0    5.40    0.70
  -3   0   0    8.30    1.20
   3   0   0    9.70    1.30
   4   0   0   11.50    1.00
  -4   0   0   13.50    1.30
   4   0   0   12.40    1.90
  -4   0   0   11.40    1.00
  -4   0   0   12.00    1.20
   4   0   0   13.00    1.20
  -4   0   0   11.50    1.40
   4   0   0   11.50    1.60
  -4   0   0   13.30    1.70
  -5   0   0 5666.63  107.79
   5   0   0 5504.85  107.39
  -5   0   0 5398.56  108.89
   5   0   0 5706.63  107.69
  -5   0   0 5291.17  108.99
   5   0   0 5680.13  108.89
  -5   0   0 5603.94  108.59
   5   0   0 5748.33  108.19
   5   0   0 5540.15  111.29
  -5   0   0 5658.43  107.39
   6   0   0   73.29    4.10
  -6   0   0   68.09    3.20
  -6   0   0   70.09    4.10
   6   0   0   71.19    3.60
  -6   0   0   71.39    3.30
  -6   0   0   72.89    3.60
  -6   0   0   69.69    2.90
   6   0   0   75.79    4.50
   6   0   0   72.49    3.30
   6   0   0   72.49    3.10
  -7   0   0 2219.88   43.90
   7   0   0 2327.07   45.10
  -7   0   0 2184.28   44.60
   7   0   0 2267.87   45.00
  -7   0   0 2218.68   44.40
  -7   0   0 2202.38   45.20
   7   0   0 2247.28   44.70
   7   0   0 2308.57   45.80
  -7   0   0 2048.59   45.30
  -8   0   0  252.37    7.00
   8   0   0  275.37    8.20
   8   0   0  262.47    8.60
  -8   0   0  263.97    7.70
   8   0   0  272.87    8.30
  -8   0   0  257.57    8.70
   8   0   0  256.97    6.90
   8   0   0  274.57    8.70
  -8   0   0  249.88    7.60
   9   0   0  263.27    8.60
  -9   0   0  269.07    8.50
   9   0   0  260.47    7.30
  -9   0   0  262.47    7.50
   9   0   0  260.27    9.20
   9   0   0  282.77    9.40
  -9   0   0  275.47    9.70
   9   0   0  285.97    9.00
  10   0   0   22.70    3.80
  10   0   0   27.80    3.50
 -10   0   0   13.60    3.30
  10   0   0   13.50    4.10
 -10   0   0   21.00    2.50
  10   0   0   22.60    3.80
 -10   0   0   19.90    3.20
  11   0   0   43.40    4.20
  11   0   0   45.20    5.30
 -11   0   0   49.30    5.80
 -11   0   0   57.29    4.90
  11   0   0   49.50    5.60
  11   0   0   52.19    4.60
  12   0   0  373.76   13.40
  12   0   0  389.56   13.50
  12   0   0  383.96   12.70
 -12   0   0  400.96   14.10
 -12   0   0  404.06   13.80
 -13   0   0   33.30    6.50
  13   0   0   42.00    7.20
 -13   0   0   27.50    6.40
  13   0   0   28.00    6.10
  13   0   0   34.70    5.70
 -14   0   0  205.38   12.40
  14   0   0  210.88   13.30
  14   0   0  203.28   11.90
 -14   0   0  208.78   12.70
  15   0   0   34.80    7.50
 -15   0   0   29.70    7.60
  15   0   0   20.20    7.80
 -15   0   0   32.10    7.50
   0  -1   0   -0.80    0.60
   0  -1   0   -0.10    0.50
   0  -1   0    2.90    0.50
   0  -1   0    1.00    0.60
   0  -1   0    1.00    0.50
   0  -1   0    0.60    0.50
   1  -1   0   24.40    1.50
  -1  -1   0   20.70    1.00
  -1  -1   0   23.00    1.30
   1  -1   0   21.80    0.90
  -1  -1   0   23.10    1.50
   1  -1   0   23.10    1.30
   1  -1   0   20.90    1.40
  -1  -1   0   23.00    1.20
  -1  -1   0   22.50    0.90
   1  -1   0   22.30    1.50
   1   1   0   23.50    1.20
  -1   1   0   21.70    1.30
  -1   1   0   23.30    0.90
  -2  -1   0 1024.30   19.90
  -2  -1   0 1031.30   20.80
   2  -1   0 1034.80   20.80
  -2  -1   0 1017.80   20.70
  -2  -1   0 1002.40   20.20
  -2  -1   0 1020.80   20.70
   2  -1   0 1024.80   20.60
   2  -1   0 1031.70   20.80
  -2   1   0 1048.10   19.70
   2   1   0 1042.60   20.70
   2   1   0 1024.10   20.40
  -2   1   0 1063.49   20.20
  -2   1   0  986.30   19.80
  -2   1   0 1023.30   19.90
   2   1   0 1054.09   21.00
  -2   1   0 1025.20   20.80
  -3  -1   0 1897.81   37.60
   3  -1   0 1934.71   38.20
   3  -1   0 1966.30   38.30
   3  -1   0 1936.21   38.10
   3  -1   0 1910.81   38.00
  -3  -1   0 1922.41   38.20
  -3  -1   0 1869.81   38.00
  -3   1   0 1959.20   38.20
  -3   1   0 1924.81   37.30
   3   1   0 1942.11   38.10
   3   1   0 1896.21   37.70
  -3   1   0 1932.61   37.20
   3   1   0 1961.70   38.30
  -4  -1   0 1339.87   27.50
   4  -1   0 1310.47   26.10
   4  -1   0 1358.36   27.70
  -4  -1   0 1354.66   27.20
   4  -1   0 1346.07   27.50
  -4  -1   0 1368.06   27.60
   4  -1   0 1329.77   27.30
  -4  -1   0 1332.47   26.10
   4  -1   0 1384.86   27.70
   4  -1   0 1372.46   26.80
  -4   1   0 1338.07   26.70
  -4   1   0 1349.66   27.30
  -4   1   0 1336.37   26.20
   4   1   0 1368.96   27.80
   4   1   0 1357.76   25.90
   4   1   0 1364.66   27.60
  -4   1   0 1388.86   27.80
  -4   1   0 1341.17   26.60
   4   1   0 1338.17   27.10
  -5  -1   0 1069.69   21.20
  -5  -1   0 1104.39   22.80
   5  -1   0 1060.99   21.10
  -5  -1   0 1101.29   23.10
   5  -1   0 1081.39   23.30
   5  -1   0 1133.29   22.80
   5  -1   0 1113.69   23.20
   5  -1   0 1098.49   22.30
   5  -1   0 1139.29   23.20
  -5  -1   0 1090.09   23.10
   5   1   0 1109.49   23.30
  -5   1   0 1075.19   23.20
   5   1   0 1061.99   21.20
  -5   1   0 1083.09   22.10
  -5   1   0 1110.79   22.70
  -5   1   0 1087.89   22.00
   5   1   0 1107.19   23.20
  -5   1   0 1070.79   21.60
   5   1   0 1092.29   22.60
   6  -1   0  295.87    8.20
  -6  -1   0  279.57    6.20
   6  -1   0  293.27    7.90
  -6  -1   0  289.07    8.10
  -6  -1   0  295.07    8.10
   6  -1   0  285.67    7.40
  -6  -1   0  294.77    8.30
   6  -1   0  281.67    6.20
   6  -1   0  302.77    8.80
   6  -1   0  295.07    8.40
  -6   1   0  291.27    7.80
   6   1   0  289.37    6.20
  -6   1   0  302.77    7.30
  -6   1   0  281.27    7.20
   6   1   0  290.87    7.90
   6   1   0  285.87    8.20
   6   1   0  304.67    8.50
  -6   1   0  286.87    6.80
  -6   1   0  300.07    8.60
   7  -1   0    4.30    2.80
   7  -1   0    5.20    2.00
  -7  -1   0   -2.40    2.20
  -7  -1   0    1.50    2.30
  -7  -1   0    2.60    1.00
   7  -1   0    5.50    2.60
  -7  -1   0   -0.30    2.50
   7  -1   0    3.10    0.80
   7  -1   0    4.90    1.60
   7  -1   0    1.60    2.00
  -7   1   0    1.60    2.10
   7   1   0    4.80    2.40
  -7   1   0    4.00    1.70
   7   1   0   10.00    2.60
  -7   1   0    2.30    1.90
  -7   1   0    4.30    1.30
   7   1   0    2.80    2.00
   7   1   0    2.40    0.90
  -7   1   0    5.80    1.30
   8  -1   0  188.88    4.90
   8  -1   0  188.28    6.30
  -8  -1   0  214.78    8.00
   8  -1   0  213.18    7.90
  -8  -1   0  195.28    5.00
   8  -1   0  211.48    8.40
   8  -1   0  181.38    7.10
   8  -1   0  191.38    6.70
  -8  -1   0  208.58    7.40
  -8  -1   0  198.18    7.40
   8   1   0  201.48    4.90
  -8   1   0  192.58    6.40
  -8   1   0  195.98    5.60
   8   1   0  189.78    8.00
   8   1   0  203.78    7.20
  -8   1   0  213.78    6.90
  -8   1   0  199.08    8.10
   8   1   0  208.38    7.60
  -8   1   0  186.68    5.90
  -9  -1   0  335.17   10.30
   9  -1   0  339.97   10.90
   9  -1   0  340.17    9.80
  -9  -1   0  348.17   11.20
   9  -1   0  346.07   10.90
   9  -1   0  336.07   11.50
   9  -1   0  328.27    9.50
  -9  -1   0  342.37   10.70
  -9   1   0  326.87   11.30
  -9   1   0  349.96    9.80
   9   1   0  326.07   11.20
  -9   1   0  338.67    9.50
  -9   1   0  324.67    8.50
   9   1   0  335.87   10.70
   9   1   0  321.57   10.20
 -10  -1   0  320.17   11.40
  10  -1   0  324.67   11.30
  10  -1   0  317.87   11.00
  10  -1   0  322.67   11.20
  10  -1   0  305.17    9.70
 -10  -1   0  328.27   11.60
 -10  -1   0  326.77   10.60
  10  -1   0  305.27    9.30
 -10   1   0  312.57    9.70
  10   1   0  306.77   10.10
  10   1   0  315.77    9.80
 -10   1   0  332.37   11.80
 -10   1   0  297.97    9.50
  10   1   0  290.87   10.50
  10   1   0  325.07   10.40
  11  -1   0  256.37   11.40
 -11  -1   0  227.68    9.90
 -11  -1   0  236.58    9.40
  11  -1   0  241.48   10.20
  11  -1   0  244.28    8.60
  11  -1   0  251.07   10.70
 -11  -1   0  231.48   10.50
 -11   1   0  234.78    9.80
  11   1   0  240.08    9.80
  11   1   0  245.78   11.20
 -11   1   0  226.88    8.60
  11   1   0  219.58    8.80
  11   1   0  229.98    9.70
 -12  -1   0  110.49    7.70
  12  -1   0  101.59    7.50
 -12  -1   0  100.29    8.00
  12  -1   0  104.39    7.20
 -12  -1   0   84.59    6.50
  12  -1   0  116.79    7.90
  12   1   0   99.59    8.20
 -12   1   0  130.39    9.00
  12   1   0   94.39    6.30
  12   1   0   96.59    7.60
  12   1   0  107.39    7.40
  13  -1   0   25.40    5.90
 -13  -1   0   21.50    5.00
  13  -1   0   17.70    6.80
 -13  -1   0   28.00    5.90
 -13  -1   0   16.80    4.90
  13  -1   0   15.00    6.30
 -13   1   0   24.30    6.90
  13   1   0   31.20    5.50
  13   1   0   18.00    5.60
  14  -1   0    0.40    6.10
  14  -1   0   -3.90    5.50
  14  -1   0    1.60    7.00
 -14  -1   0   13.10    6.70
 -14   1   0   -2.70    6.60
  14   1   0    0.10    6.70
 -14   1   0   -2.70    5.50
  14   1   0    7.90    5.80
  15  -1   0    5.90    7.60
 -15  -1   0    6.20    7.20
  15   1   0   11.30    7.90
  15   1   0    6.00    6.30
 -15   1   0    9.20    6.70
 -15   1   0   -4.70    7.20
   0  -2   0  109.79    3.50
   0  -2   0  114.39    3.80
   0  -2   0  107.49    3.30
   0  -2   0  110.39    3.70
   0  -2   0  105.69    3.40
   0  -2   0  110.89    3.90
  -1  -2   0 3728.13   71.89
  -1  -2   0 3705.23   72.09
  -1  -2   0 3744.53   71.69
  -1  -2   0 3642.04   71.99
   1  -2   0 3743.33   71.89
  -1  -2   0 3777.22   71.69
   1  -2   0 3782.32   72.19
   1  -2   0 3679.43   72.49
   1  -2   0 3756.92   71.99
  -1  -2   0 3555.84   72.49
   1  -2   0 3670.93   72.19
   1  -2   0 3716.83   72.59
   1   2   0 3716.03   71.69
  -1   2   0 3731.33   71.89
   2  -2   0  263.77    6.60
  -2  -2   0  260.67    7.00
   2  -2   0  263.97    7.20
  -2  -2   0  266.27    7.00
  -2  -2   0  255.47    6.70
   2  -2   0  264.77    6.80
  -2  -2   0  262.17    5.90
   2  -2   0  260.17    5.90
   2  -2   0  256.27    7.10
  -2   2   0  268.97    6.90
   2   2   0  262.27    5.90
   2   2   0  253.87    6.40
  -2   2   0  268.37    5.80
   2   2   0  268.07    6.90
   3  -2   0  233.68    6.30
  -3  -2   0  245.58    6.90
   3  -2   0  251.47    7.20
   3  -2   0  248.58    6.80
  -3  -2   0  239.98    5.50
  -3  -2   0  249.08    7.00
  -3  -2   0  242.48    6.80
   3   2   0  233.58    6.80
   3   2   0  258.77    6.50
   3   2   0  251.07    7.20
  -3   2   0  241.88    6.80
   3   2   0  238.88    5.20
  -3   2   0  242.38    6.90
  -3   2   0  245.58    5.40
  -3   2   0  250.57    6.00
   4  -2   0  360.66    9.40
   4  -2   0  360.86    9.30
  -4  -2   0  356.46    9.30
  -4  -2   0  375.06    9.50
   4  -2   0  372.46    9.80
   4  -2   0  358.16    8.80
  -4  -2   0  343.27    7.60
  -4   2   0  372.36    9.60
   4   2   0  361.86    8.70
  -4   2   0  358.16    8.10
  -4   2   0  367.96    9.40
   4   2   0  367.16    9.50
  -4   2   0  362.06    7.80
   4   2   0  364.26    9.60
  -5  -2   0   18.30    2.20
   5  -2   0   18.30    2.30
   5  -2   0   17.90    2.70
  -5  -2   0   20.10    2.40
  -5  -2   0   18.30    2.70
  -5  -2   0   19.90    1.30
   5  -2   0   22.50    2.50
   5   2   0   22.70    2.50
   5   2   0   15.60    2.80
  -5   2   0   23.00    2.90
   5   2   0   21.50    2.40
  -5   2   0   16.90    1.50
  -5   2   0   18.40    0.90
  -5   2   0   19.00    1.40
  -5   2   0   19.40    2.60
   6  -2   0 2523.25   49.10
  -6  -2   0 2499.05   49.80
   6  -2   0 2566.54   50.69
  -6  -2   0 2406.06   48.30
  -6  -2   0 2490.75   50.69
  -6  -2   0 2524.85   50.89
   6  -2   0 2517.15   50.89
   6  -2   0 2485.05   50.89
  -6   2   0 2527.65   50.49
  -6   2   0 2499.85   50.89
   6   2   0 2538.15   49.90
   6   2   0 2517.35   50.69
  -6   2   0 2443.56   47.90
  -6   2   0 2485.75   48.80
   6   2   0 2580.14   51.29
  -6   2   0 2438.56   49.00
   7  -2   0   58.59    4.80
   7  -2   0   60.89    4.50
  -7  -2   0   61.39    4.70
   7  -2   0   70.69    5.10
  -7  -2   0   59.49    4.20
  -7  -2   0   62.89    4.80
   7  -2   0   59.59    3.10
  -7  -2   0   53.19    2.50
  -7   2   0   58.29    4.00
  -7   2   0   61.99    5.00
  -7   2   0   59.99    3.00
   7   2   0   56.39    4.80
  -7   2   0   60.09    2.90
   7   2   0   71.79    5.60
   7   2   0   66.29    4.20
   8  -2   0  811.82   17.90
   8  -2   0  836.42   19.80
  -8  -2   0  837.82   20.40
   8  -2   0  821.62   20.40
   8  -2   0  823.92   20.80
  -8  -2   0  867.41   20.40
   8   2   0  830.32   20.50
   8   2   0  842.62   18.90
  -8   2   0  859.21   20.70
   8   2   0  834.42   20.30
  -8   2   0  810.32   17.90
  -8   2   0  851.51   19.80
  -9  -2   0   -1.80    3.70
   9  -2   0    4.20    3.90
   9  -2   0   -1.50    3.30
  -9  -2   0   -1.80    2.50
  -9  -2   0   -0.30    3.70
   9  -2   0    2.70    4.10
  -9   2   0   -1.80    3.00
   9   2   0    3.80    3.30
   9   2   0    1.50    3.50
   9   2   0   -3.20    4.00
  -9   2   0    3.10    2.40
  -9   2   0    2.30    3.00
  10  -2   0   29.60    5.60
 -10  -2   0   44.20    4.90
  10  -2   0   32.00    5.30
  10  -2   0   44.60    4.90
 -10  -2   0   41.30    5.70
 -10  -2   0   37.80    4.40
  10   2   0   37.90    4.60
 -10   2   0   41.20    6.10
 -10   2   0   35.90    4.50
  10   2   0   36.80    5.60
  10   2   0   37.30    4.30
  11  -2   0  195.68   11.30
  11  -2   0  199.58   10.80
  11  -2   0  222.38    9.40
 -11  -2   0  195.38    9.50
 -11  -2   0  208.98   10.70
 -11  -2   0  218.38   10.20
 -11   2   0  214.98    9.30
 -11   2   0  222.08   11.40
  11   2   0  203.48   11.00
  11   2   0  197.98    9.20
  11   2   0  197.68   10.10
  12  -2   0   -0.60    5.30
 -12  -2   0    7.20    5.70
  12  -2   0    1.60    4.10
 -12  -2   0    7.70    3.80
  12  -2   0    3.30    6.10
  12   2   0   -0.90    4.50
 -12   2   0   -0.30    6.10
  12   2   0    3.60    4.30
 -12   2   0    0.40    4.00
  12   2   0    3.20    4.60
 -13  -2   0  247.18   11.60
 -13  -2   0  271.97   12.30
  13  -2   0  255.77   14.30
  13  -2   0  253.67   13.00
 -13   2   0  260.47   14.10
 -13   2   0  245.48   10.90
  13   2   0  266.97   13.70
  13   2   0  252.57   12.10
  13   2   0  254.47   11.40
 -14  -2   0   -1.10    5.40
 -14  -2   0    1.30    6.80
  14  -2   0    4.90    5.30
  14  -2   0    8.30    6.70
  14   2   0   11.50    4.20
  14   2   0   16.10    7.50
 -14   2   0    6.30    7.50
  15  -2   0   47.70    8.30
 -15  -2   0   54.69    9.30
  15  -2   0   40.90    9.00
  15   2   0   29.40    8.60
  15   2   0   35.30    6.90
 -15   2   0   28.80    6.90
 -15   2   0   31.50    7.70
   0  -3   0   10.50    1.80
   1  -3   0  261.17    7.90
   1  -3   0  256.87    7.20
   1  -3   0  253.47    7.20
  -1  -3   0  254.17    7.60
  -1  -3   0  260.47    7.00
  -1  -3   0  265.17    7.30
  -1  -3   0  253.17    7.50
  -1  -3   0  245.88    6.60
   1  -3   0  256.27    6.80
   1  -3   0  261.57    7.80
   1  -3   0  257.17    6.60
  -1  -3   0  268.47    7.10
  -1   3   0  256.67    7.30
  -1   3   0  254.77    7.20
   1   3   0  256.77    6.90
  -2  -3   0   66.29    3.80
  -2  -3   0   62.99    2.80
  -2  -3   0   63.59    4.10
  -2  -3   0   63.29    3.60
   2   3   0   65.39    2.90
   2   3   0   70.09    3.70
   3  -3   0  977.60   21.70
  -3  -3   0  970.40   19.80
  -3  -3   0  969.10   21.70
  -3  -3   0  979.00   21.50
  -3  -3   0  937.91   21.10
   3  -3   0  979.90   21.20
   3  -3   0  968.90   21.90
   3   3   0  937.81   19.70
  -3   3   0  981.40   21.50
   3   3   0  979.50   21.60
  -3   3   0  972.30   19.60
   3   3   0 1001.30   20.90
   3   3   0  967.10   21.90
  -3   3   0  971.60   21.50
  -4  -3   0  167.38    6.80
   4  -3   0  181.98    6.20
  -4  -3   0  165.98    4.60
  -4  -3   0  180.08    7.10
   4  -3   0  188.58    7.40
   4  -3   0  203.98    7.30
  -4  -3   0  167.18    6.60
   4   3   0  173.98    5.70
   4   3   0  165.68    4.40
  -4   3   0  173.48    4.50
  -4   3   0  212.58    7.10
   4   3   0  166.28    6.20
   4   3   0  173.58    6.80
  -4   3   0  199.88    7.00
   5  -3   0  240.08    7.60
   5  -3   0  254.17    8.80
  -5  -3   0  245.58    8.40
   5  -3   0  232.88    8.80
  -5  -3   0  239.58    5.70
  -5  -3   0  237.08    8.60
   5   3   0  236.38    8.50
  -5   3   0  247.78    8.50
   5   3   0  248.98    7.60
   5   3   0  256.37    9.10
  -5   3   0  238.58    5.80
  -5   3   0  232.18    6.30
  -5   3   0  247.28    8.70
  -6  -3   0    7.60    3.40
   6  -3   0    5.00    2.60
   6  -3   0    7.20    3.00
  -6  -3   0    8.00    3.40
   6  -3   0    9.30    3.40
   6   3   0    8.30    2.80
   6   3   0   10.60    3.50
  -6   3   0   10.90    3.40
   6   3   0    9.40    3.50
  -6   3   0    5.30    3.30
   7  -3   0   99.49    6.80
  -7  -3   0  108.29    7.30
   7  -3   0  115.19    6.20
   7  -3   0  102.59    5.80
  -7  -3   0  101.19    6.00
  -7   3   0  117.99    6.20
   7   3   0  107.79    7.10
   7   3   0   97.39    7.20
  -7   3   0  117.29    7.00
   7   3   0  104.79    6.00
   8  -3   0  261.67   10.40
   8  -3   0  254.27   10.70
   8  -3   0  276.17    9.40
  -8  -3   0  267.97   10.50
   8  -3   0  253.67   10.40
  -8  -3   0  245.38   10.30
   8   3   0  268.97   10.80
   8   3   0  255.97    9.00
  -8   3   0  256.27   10.00
  -8   3   0  261.97   10.60
   8   3   0  253.97   10.40
   9  -3   0   29.40    5.60
   9  -3   0   25.60    5.10
   9  -3   0   25.40    5.50
  -9  -3   0   32.00    5.40
   9  -3   0   31.20    4.50
  -9  -3   0   32.30    5.40
  -9   3   0   39.90    5.20
   9   3   0   34.40    5.40
   9   3   0   21.70    4.20
   9   3   0   23.00    4.00
  -9   3   0   31.00    5.50
 -10  -3   0  127.89    8.70
 -10  -3   0  122.69    8.40
  10  -3   0  120.69    9.00
  10  -3   0  125.79    8.80
  10  -3   0  106.19    7.50
  10  -3   0  122.59    7.90
  10   3   0  124.29    8.50
  10   3   0  108.09    6.70
 -10   3   0  118.69    8.20
 -10   3   0  108.89    7.60
  10   3   0  109.09    8.80
  11  -3   0   89.39    8.80
 -11  -3   0  101.59    8.40
  11  -3   0   87.09    7.40
 -11  -3   0   96.09    8.20
  11  -3   0   95.69    8.60
  11  -3   0   96.39    7.10
  11   3   0  105.29    7.10
 -11   3   0  113.79    9.50
 -11   3   0  114.09    7.90
  11   3   0   91.39    8.00
  11   3   0   80.79    8.00
  12  -3   0   36.70    7.10
 -12  -3   0   47.00    7.50
  12  -3   0   47.70    7.90
 -12  -3   0   58.19    7.70
  12  -3   0   60.19    8.50
  12  -3   0   46.80    6.50
  12   3   0   48.90    6.00
 -12   3   0   53.49    6.90
  12   3   0   49.40    7.80
 -12   3   0   78.09    7.70
 -13  -3   0    6.50    4.50
  13  -3   0   -6.80    7.10
  13  -3   0    3.90    6.80
  13  -3   0    7.70    5.40
 -13  -3   0   -2.50    4.80
  13   3   0    0.50    5.00
 -13   3   0    1.40    3.90
  13   3   0    1.00    5.20
 -13   3   0    1.30    7.50
  14  -3   0    1.60    7.40
 -14  -3   0   -8.10    7.40
  14  -3   0   -5.50    7.80
 -14  -3   0   -3.70    6.20
  14   3   0    0.70    7.40
 -14   3   0   -2.00    5.50
 -14   3   0   -3.10    7.70
  14   3   0    5.20    5.70
   0  -4   0  592.14   15.10
   0  -4   0  558.04   13.90
   0  -4   0  583.84   14.50
   0  -4   0  580.84   13.60
   0  -4   0  572.94   14.10
   0  -4   0  604.34   14.90
   0   4   0  592.24   14.30
   0   4   0  576.34   14.10
   1  -4   0   10.80    3.20
  -1  -4   0    5.10    2.80
  -1  -4   0   17.40    2.60
   1  -4   0    7.60    1.90
  -1  -4   0   12.70    2.90
   1  -4   0   15.00    3.50
   1  -4   0    4.60    2.80
  -1  -4   0    4.70    2.00
   1  -4   0    6.30    2.10
   1   4   0    7.10    2.00
  -1   4   0    5.10    2.50
  -1   4   0   13.60    2.90
   2  -4   0  388.36   11.10
  -2  -4   0  370.96   10.40
   2  -4   0  366.06    9.60
  -2  -4   0  373.06   11.20
  -2  -4   0  391.16   11.20
   2  -4   0  396.46   11.50
   2  -4   0  393.16   11.10
  -2  -4   0  363.16    9.50
   2   4   0  383.56   10.30
  -2   4   0  403.56   11.30
  -2   4   0  381.76    9.20
   2   4   0  404.56    9.90
  -2   4   0  394.66   11.00
  -3  -4   0  202.18    7.40
   3  -4   0  186.98    7.30
   3  -4   0  187.38    5.70
  -3  -4   0  190.78    7.90
   3  -4   0  176.48    8.50
   3  -4   0  181.78    8.30
  -3  -4   0  176.78    7.80
   3   4   0  183.78    6.50
  -3   4   0  192.08    7.90
  -3   4   0  202.98    7.80
  -3   4   0  191.68    5.40
   3   4   0  192.08    7.90
   3   4   0  197.98    5.90
   3   4   0  179.98    8.20
  -4  -4   0  129.69    6.60
   4  -4   0  137.29    6.80
  -4  -4   0  122.99    4.40
   4  -4   0  125.39    6.30
  -4  -4   0  135.49    7.10
   4  -4   0  126.99    6.50
  -4  -4   0  133.89    7.30
   4   4   0  126.29    4.40
   4   4   0  139.09    7.00
   4   4   0  123.49    5.40
   4   4   0  131.79    7.20
  -4   4   0  125.69    6.90
  -4   4   0  121.49    7.00
  -4   4   0  124.29    4.10
  -5  -4   0  363.66   11.50
  -5  -4   0  338.27   11.80
   5  -4   0  372.56   12.60
   5  -4   0  350.46   10.80
   5  -4   0  342.87   11.90
   5   4   0  350.06   11.60
   5   4   0  343.47   12.20
   5   4   0  363.16   10.60
  -5   4   0  369.86   11.30
  -5   4   0  373.06   11.80
  -6  -4   0    1.60    2.70
  -6  -4   0    3.10    4.00
   6  -4   0    6.90    3.10
   6  -4   0   -1.60    2.80
   6  -4   0   10.00    4.50
  -6   4   0    1.80    3.80
   6   4   0    1.30    4.00
  -6   4   0    5.60    4.10
   6   4   0   -2.80    2.70
   6   4   0    1.60    3.20
   7  -4   0  170.88    9.90
  -7  -4   0  164.58    9.30
   7  -4   0  173.48    7.90
   7  -4   0  148.29    8.00
  -7  -4   0  189.78    9.30
  -7   4   0  169.98    9.40
   7   4   0  163.68    8.40
  -7   4   0  178.88    9.20
   7   4   0  167.88    9.30
   7   4   0  167.78    7.90
  -8  -4   0   -9.50    4.50
   8  -4   0    3.90    3.80
  -8  -4   0    4.10    3.40
   8  -4   0    3.10    3.60
   8  -4   0   -1.30    4.60
   8   4   0   -0.90    3.80
  -8   4   0   -0.30    3.50
   8   4   0    4.00    4.80
   8   4   0    3.40    3.50
  -8   4   0   -0.20    3.20
   9  -4   0  145.09    8.50
  -9  -4   0  140.69   10.10
   9  -4   0  185.68    8.80
   9  -4   0  172.98   11.30
  -9  -4   0  168.28   10.20
   9   4   0  163.68   10.40
   9   4   0  167.58    8.60
   9   4   0  153.78    8.90
  -9   4   0  169.28    8.90
  -9   4   0  148.39   10.50
 -10  -4   0   56.09    7.70
 -10  -4   0   75.39    7.90
  10  -4   0   53.69    7.90
  10  -4   0   57.49    5.90
  10  -4   0   57.89    7.40
  10   4   0   61.89    7.70
  10   4   0   60.39    5.20
 -10   4   0   69.39    6.90
 -10   4   0   74.59    7.60
 -11  -4   0   28.80    5.70
 -11  -4   0   13.40    6.80
  11  -4   0   20.70    7.50
  11  -4   0   22.30    6.60
  11   4   0   28.90    7.10
  11   4   0   14.20    5.20
 -11   4   0   13.60    7.20
 -11   4   0   20.90    6.40
  12  -4   0   64.19    9.40
 -12  -4   0   51.19    8.40
  12  -4   0   33.90    7.30
 -12  -4   0   41.00    7.80
  12   4   0   33.70    6.20
 -12   4   0   48.10    7.20
 -12   4   0   46.70    7.50
  12   4   0   44.20    6.70
  13  -4   0    1.20    7.90
 -13  -4   0   -2.50    7.50
 -13  -4   0   -0.20    7.20
 -13   4   0  -22.10    7.20
  13   4   0   -6.00    7.60
 -13   4   0   -0.40    6.50
  13   4   0    0.40    3.80
   0  -5   0    2.50    3.60
   0  -5   0    1.80    3.00
   0  -5   0   -0.30    2.90
   0  -5   0    1.70    2.90
   0   5   0   -4.20    3.00
   0   5   0   -0.70    2.80
  -1  -5   0   17.50    3.90
  -1  -5   0    9.80    3.20
   1  -5   0   11.40    2.90
   1  -5   0   16.80    4.10
  -1  -5   0   11.20    3.70
   1  -5   0   16.00    4.60
   1  -5   0   12.40    2.70
   1  -5   0   15.30    4.30
   1   5   0   12.30    3.90
   1   5   0   11.20    3.00
  -1   5   0   14.10    3.70
   1   5   0   20.80    3.50
   2  -5   0   49.40    5.80
   2  -5   0   47.10    3.70
   2  -5   0   44.10    5.20
  -2  -5   0   47.20    5.00
  -2  -5   0   33.50    4.90
   2  -5   0   47.10    5.00
  -2  -5   0   45.20    4.40
   2   5   0   46.60    4.90
   2   5   0   50.79    5.40
  -2   5   0   42.50    5.10
  -2   5   0   46.40    4.90
   2   5   0   45.10    4.00
   2   5   0   41.00    5.20
   2   5   0   39.90    3.70
  -2   5   0   39.10    3.50
  -3  -5   0   13.00    4.30
  -3  -5   0    2.60    4.00
  -3  -5   0    6.10    3.50
   3  -5   0    6.10    4.90
   3  -5   0    7.70    4.40
   3  -5   0    6.70    3.80
   3   5   0    3.40    4.30
   3   5   0    1.10    2.60
   3   5   0    6.70    4.30
  -3   5   0    9.30    4.20
  -3   5   0   -1.80    3.80
   4  -5   0    4.00    5.00
  -4  -5   0    1.20    4.20
   4  -5   0    2.00    4.30
  -4  -5   0    1.30    3.60
  -4  -5   0   -1.40    4.20
   4  -5   0   -0.70    3.60
   4   5   0   -3.00    4.20
   4   5   0   -4.80    3.40
  -4   5   0   -0.20    2.90
  -4   5   0    1.60    3.00
   4   5   0    0.70    3.10
  -5  -5   0   45.80    5.50
  -5  -5   0   39.10    4.90
   5  -5   0   39.30    4.90
   5  -5   0   29.40    6.30
   5  -5   0   38.30    4.90
  -5   5   0   37.20    5.80
   5   5   0   36.30    6.00
  -5   5   0   39.40    5.80
   5   5   0   42.00    4.90
   5   5   0   35.10    5.70
  -6  -5   0    1.50    4.60
   6  -5   0   -1.10    3.80
  -6  -5   0   11.30    5.40
   6  -5   0    2.00    3.90
   6  -5   0    7.50    3.90
   6   5   0    6.90    5.20
  -6   5   0   -1.80    5.00
   6   5   0   -1.90    4.00
   6   5   0    3.00    4.90
  -6   5   0    3.80    3.60
   7  -5   0   -0.60    5.40
   7  -5   0   -1.10    3.90
  -7  -5   0    3.60    5.50
  -7  -5   0    1.60    4.90
   7  -5   0    9.40    6.00
   7   5   0    3.70    4.30
   7   5   0    6.00    3.80
  -7   5   0   -0.50    5.30
   7   5   0    2.20    5.30
  -7   5   0    2.00    5.40
   8  -5   0   19.20    4.70
   8  -5   0   12.20    6.90
  -8  -5   0   20.60    6.10
   8  -5   0   16.30    6.50
  -8  -5   0   23.80    6.60
   8   5   0   17.60    4.90
  -8   5   0   13.00    4.80
  -8   5   0   20.10    6.50
   8   5   0   23.30    6.30
  -9  -5   0   10.50    4.90
   9  -5   0    7.40    5.20
  -9  -5   0   10.00    6.30
   9  -5   0    0.10    4.40
  -9   5   0    9.20    4.80
   9   5   0    8.40    6.60
   9   5   0   15.10    5.20
  -9   5   0    2.90    6.40
 -10  -5   0   24.90    7.50
 -10  -5   0   25.60    7.30
  10  -5   0   25.40    8.20
  10  -5   0   29.40    7.60
 -10   5   0   21.20    5.60
 -10   5   0   26.70    7.90
  10   5   0   24.40    4.50
  10   5   0   27.40    6.00
 -11  -5   0   -3.90    7.30
 -11  -5   0    0.20    7.30
  11  -5   0   -2.80    6.90
  11  -5   0   -7.70    7.80
  11   5   0   -7.00    7.20
 -11   5   0   -2.90    5.00
  11   5   0   -5.30    5.70
 -11   5   0   15.70    8.10
  12  -5   0    5.00    8.90
 -12  -5   0    7.50    7.90
 -12  -5   0    9.90    8.10
 -12   5   0   -4.20    8.00
  12   5   0    6.00    7.90
 -12   5   0    2.10    5.30
   0  -6   0  109.09    7.40
   0  -6   0  111.89    7.90
   0  -6   0   95.99    7.90
   0   6   0  115.19    7.90
   0   6   0  119.89    8.70
   0   6   0   95.99    6.90
  -1  -6   0    2.10    4.20
  -1  -6   0    1.00    3.70
  -1  -6   0    6.80    5.00
   1  -6   0    7.10    4.70
   1  -6   0   12.80    4.20
  -1   6   0    3.40    4.00
   1   6   0    5.80    4.60
  -1   6   0    2.30    4.00
  -1   6   0    9.60    4.70
   1   6   0    0.00    4.40
   1   6   0   12.70    4.10
  -2  -6   0   13.70    5.40
   2  -6   0    8.60    4.80
  -2  -6   0   13.10    3.90
  -2  -6   0   14.90    4.80
   2  -6   0   14.10    4.60
  -2   6   0   11.60    3.90
   2   6   0   10.30    4.10
  -2   6   0   12.60    4.60
   2   6   0   10.90    5.20
   2   6   0   11.50    3.60
   3  -6   0   69.69    8.00
  -3  -6   0   63.09    6.80
  -3  -6   0   53.09    5.50
  -3  -6   0   62.59    5.90
   3  -6   0   53.79    6.20
   3   6   0   55.39    7.00
   3   6   0   68.89    6.40
  -3   6   0   64.49    6.80
  -3   6   0   59.79    6.00
   3   6   0   56.09    7.20
   4  -6   0   23.90    5.40
  -4  -6   0   19.80    5.00
   4  -6   0   24.00    7.00
  -4  -6   0   20.40    6.10
  -4  -6   0   25.70    6.10
  -4   6   0   24.40    5.00
   4   6   0   16.20    6.00
   4   6   0   22.10    5.10
  -4   6   0   22.70    5.90
  -5  -6   0   41.60    7.00
  -5  -6   0   41.70    6.10
   5  -6   0   41.90    8.10
   5  -6   0   48.70    7.40
   5  -6   0   45.30    6.10
  -5   6   0   61.09    7.50
  -5   6   0   52.59    7.60
   5   6   0   52.89    6.10
   5   6   0   47.80    6.00
   6  -6   0   35.30    5.80
   6  -6   0   32.90    8.30
  -6  -6   0   41.00    7.50
  -6  -6   0   33.20    6.30
   6  -6   0   37.50    7.40
  -6   6   0   39.90    7.40
   6   6   0   29.40    7.10
   6   6   0   37.90    6.00
  -6   6   0   31.70    7.10
   7  -6   0   16.40    7.10
  -7  -6   0    7.60    6.00
  -7  -6   0   14.60    6.80
   7  -6   0    9.70    7.70
  -7   6   0    8.60    6.80
   7   6   0    7.20    5.00
   7   6   0   16.00    7.00
  -7   6   0   10.00    6.90
  -8  -6   0   20.80    7.50
   8  -6   0   20.40    6.40
  -8  -6   0   12.20    6.70
   8   6   0   12.70    7.20
  -8   6   0   19.70    7.60
  -8   6   0   23.40    7.60
   8   6   0   16.00    5.60
  -9  -6   0   55.39    8.40
   9  -6   0   57.19   10.10
   9   6   0   57.79    9.10
  -9   6   0   82.19   10.10
  -9   6   0   51.79    7.30
 -10  -6   0   14.20    5.90
  10  -6   0   12.90    8.90
 -10   6   0   14.00    8.60
 -10   6   0   15.40    8.50
  10   6   0   27.80    8.50
   0  -7   0    0.20    5.80
   0   7   0   -0.20    5.70
  -1  -7   0    2.90    6.20
   1  -7   0   -9.20    5.40
   1   7   0   -3.00    6.10
   1   7   0    2.90    5.60
  -1   7   0   -4.20    5.30
  -1   7   0    9.90    5.90
  -2  -7   0    1.50    5.20
   2  -7   0   -4.30    5.50
   2  -7   0   -1.70    6.90
  -2  -7   0   -2.20    5.90
   2   7   0    8.30    6.70
   2   7   0   -3.60    5.40
  -2   7   0    1.90    5.70
  -3  -7   0    4.00    6.40
  -3  -7   0    8.90    4.50
   3  -7   0    5.80    5.50
   3  -7   0   -3.70    7.20
   3   7   0    1.70    4.10
   3   7   0   -4.80    6.40
  -3   7   0    8.60    6.30
   4  -7   0   -6.70    5.40
  -4  -7   0    1.90    6.20
   4  -7   0    2.60    5.50
   4   7   0    1.10    6.80
  -4   7   0    3.90    6.20
  -4   7   0   -4.40    6.40
   4   7   0    3.00    5.60
   5  -7   0    1.40    7.90
  -5  -7   0   11.70    7.10
  -5   7   0   -1.60    6.90
   5   7   0   -8.10    3.70
   5   7   0    2.00    7.20
  -5   7   0    9.60    6.70
   6  -7   0    5.00    8.50
  -6  -7   0   -0.30    4.90
   6   7   0    0.70    7.70
  -6   7   0    3.40    7.10
  -6   7   0    5.80    7.60
 -16   0   1    0.50    6.80
 -16   0   1  -10.20    7.00
  16   0  -1   -3.30    6.40
  16   0  -1   -2.90    7.90
  15   0  -1    4.10    7.40
 -15   0   1   -2.80    6.80
  15   0  -1    1.40    6.10
 -15   0   1   -5.70    6.00
  14   0  -1    2.90    5.60
  14   0  -1   -3.60    6.50
 -14   0   1    0.70    6.30
 -14   0   1   -8.20    5.60
  13   0  -1   -0.30    4.20
  13   0  -1   -0.70    5.00
 -13   0   1   -0.70    5.20
 -13   0   1   -4.40    5.60
  13   0  -1   13.10    6.40
 -12   0   1   -4.80    4.90
 -12   0   1    5.80    4.80
  12   0  -1   -5.30    4.30
  12   0  -1   -5.50    5.30
  12   0  -1    4.80    4.00
  11   0  -1   -2.80    4.70
 -11   0   1   -6.00    4.10
  11   0  -1   -4.30    3.80
 -11   0   1   -2.30    3.20
 -11   0   1   -2.30    3.90
  11   0  -1    0.10    3.30
  11   0  -1    0.30    3.00
 -10   0   1    1.40    2.50
 -10   0   1    1.10    1.90
 -10   0   1   -0.80    3.80
  10   0  -1   -1.50    4.20
  10   0  -1   -4.20    3.30
 -10   0   1   -2.30    2.30
  10   0  -1    1.70    1.90
  10   0  -1   -1.90    2.80
  10   0  -1   -1.50    2.90
  -9   0   1   -3.20    3.30
   9   0  -1   -0.90    2.50
  -9   0   1    2.70    2.20
   9   0  -1   -1.80    2.50
   9   0  -1   -2.90    2.90
  -9   0   1    0.60    2.10
   9   0  -1   -3.70    2.40
   9   0  -1    0.50    1.50
  -8   0   1    0.70    2.90
   8   0  -1   -1.30    2.10
   8   0  -1   -2.80    2.00
  -8   0   1    1.60    1.90
   8   0  -1   -1.50    1.70
  -8   0   1   -2.70    1.40
   8   0  -1   -1.70    2.10
   8   0  -1   -0.90    1.70
   7   0  -1   -1.10    1.50
  -7   0   1   -1.20    1.20
  -7   0   1   -1.50    1.70
   7   0  -1   -1.60    1.90
  -7   0   1   -1.80    1.40
   7   0  -1    1.60    1.50
   7   0  -1    5.10    1.90
   7   0  -1   -1.10    2.60
   6   0  -1   -1.90    1.00
   6   0  -1    3.50    1.90
  -6   0   1    0.60    2.00
   6   0  -1   -0.10    2.20
   6   0  -1   -0.10    1.00
   6   0  -1    1.20    1.60
  -6   0   1    2.20    1.40
  -6   0   1    0.60    1.20
  -6   0   1   -0.90    1.10
   5   0  -1    0.30    1.00
  -5   0   1    0.20    1.10
   5   0  -1   -0.10    1.40
  -5   0   1   -0.30    1.10
  -5   0   1   -0.90    1.00
   5   0  -1    1.10    0.90
  -5   0   1   -1.80    0.90
   5   0  -1   -0.60    1.30
   5   0  -1    0.80    1.10
   4   0  -1    1.20    1.10
  -4   0   1    2.90    1.40
  -4   0   1   -0.70    0.80
   4   0  -1   -0.90    0.90
   4   0  -1    2.40    1.50
   4   0  -1    0.00    0.60
  -4   0   1    0.90    0.80
  -4   0   1    0.10    1.00
   4   0  -1    1.10    1.10
  -3   0   1   -1.60    1.00
   3   0  -1    0.80    0.70
   3   0  -1   -0.40    0.80
   3   0  -1   -0.30    1.10
  -3   0   1    0.20    0.80
   3   0  -1   -0.40    0.60
  -3   0   1    0.70    0.80
  -3   0   1    0.00    0.60
   3   0  -1    0.20    0.50
   2   0  -1    0.10    0.40
  -2   0   1   -0.10    0.50
   2   0  -1    0.60    0.40
  -2   0   1   -0.10    0.40
   2   0  -1    2.80    0.60
   2   0  -1   -0.50    0.70
  -2   0   1    0.20    0.40
  -2   0   1    0.40    0.60
  -2   0   1   -0.30    0.70
  -1   0   1    0.20    0.20
  -1   0   1    0.00    0.30
  -1   0   1    0.30    0.20
   1   0  -1    0.10    0.20
   1   0  -1    0.00    0.30
  -1   0   1    0.80    0.30
  -1   0   1    0.10    0.30
   1   0  -1    0.00    0.30
   1   0  -1    0.80    0.20
  -1   0  -1    0.40    0.20
   1   0   1    0.10    0.30
   1   0   1    0.30    0.30
  -1   0  -1    0.30    0.30
   1   0   1   -0.20    0.30
   2   0   1    0.50    0.80
  -2   0  -1    1.60    0.50
   2   0   1   -0.50    0.70
   2   0   1    0.30    0.50
   2   0   1    0.90    0.50
   2   0   1   -0.20    0.50
  -2   0  -1    0.50    0.60
   3   0   1    0.80    1.20
   3   0   1   -0.40    0.60
  -3   0  -1    0.80    0.80
   3   0   1    1.90    1.20
  -3   0  -1    1.60    0.90
   3   0   1   -0.20    0.80
  -3   0  -1    0.20    0.90
   4   0   1    0.70    1.50
   4   0   1    0.60    0.80
   4   0   1    0.90    0.80
   4   0   1    1.70    1.40
  -4   0  -1    0.10    0.80
  -4   0  -1   -0.60    1.00
  -4   0  -1    0.90    1.10
  -5   0  -1    0.80    1.20
   5   0   1    0.60    1.00
   5   0   1    0.50    1.10
  -5   0  -1    0.60    1.40
  -5   0  -1    0.50    1.10
   5   0   1    2.70    1.90
   5   0   1    1.30    1.90
   6   0   1    0.00    1.60
   6   0   1    1.10    1.40
  -6   0  -1    1.30    1.50
  -6   0  -1   -0.40    1.90
   6   0   1   -0.80    1.10
   6   0   1   -1.20    1.40
  -6   0  -1   -2.20    1.70
  -6   0  -1   -1.10    1.10
  -7   0  -1    1.40    2.40
   7   0   1    1.10    1.40
   7   0   1   -1.10    1.60
  -7   0  -1   -0.40    1.20
  -7   0  -1   -0.50    1.40
  -7   0  -1   -0.70    1.70
   7   0   1   -1.50    2.70
   7   0   1    2.80    2.30
   7   0   1   -1.00    1.70
   8   0   1    3.20    2.90
  -8   0  -1   -6.00    2.50
   8   0   1    2.00    2.00
  -8   0  -1   -2.10    2.40
   8   0   1   -3.70    3.20
   8   0   1    0.40    2.60
  -8   0  -1    0.90    2.40
  -8   0  -1   -0.10    1.50
   8   0   1    0.60    2.00
   9   0   1    0.70    3.40
  -9   0  -1    4.70    3.30
  -9   0  -1    0.50    2.40
  -9   0  -1    2.70    2.10
   9   0   1   -0.60    1.70
  -9   0  -1   -0.10    2.80
   9   0   1    2.50    3.10
   9   0   1   -5.30    3.70
   9   0   1   -0.30    2.20
  10   0   1   -4.10    3.70
 -10   0  -1   -0.10    1.90
 -10   0  -1   -1.10    3.70
 -10   0  -1    0.90    3.00
  10   0   1    2.70    4.30
  10   0   1   -0.90    3.40
  10   0   1   -0.70    2.40
 -10   0  -1    1.60    2.70
 -11   0  -1    1.10    4.30
  11   0   1    4.60    4.00
 -11   0  -1    1.50    3.00
  11   0   1    0.20    4.90
  11   0   1    1.90    4.30
  12   0   1    3.40    5.70
  12   0   1    4.40    4.50
 -12   0  -1   -4.00    4.60
  12   0   1   -7.10    4.70
 -13   0  -1    4.40    4.10
 -13   0  -1   -1.10    5.50
  13   0   1    1.40    5.00
  13   0   1   -9.90    6.10
  13   0   1   -4.70    3.60
  14   0   1   -0.10    4.20
  14   0   1   -0.90    5.40
  14   0   1    2.80    4.90
 -14   0  -1   -3.90    6.00
 -14   0  -1    0.40    6.30
 -15   0  -1    3.00    6.90
  15   0   1   -1.00    6.70
  15   0   1   -1.20    5.10
 -15  -1   1   44.60    8.20
  15  -1  -1   53.69    9.20
 -15   1   1   54.09    9.10
 -15   1   1   57.19    7.70
  15   1  -1   65.19    7.80
  15   1  -1   45.80    7.20
  14  -1  -1   16.50    7.40
 -14  -1   1    4.90    5.90
  14  -1  -1    1.60    5.30
 -14  -1   1    8.80    4.80
 -14   1   1   10.10    5.90
  14   1  -1    3.80    3.80
  14   1  -1    3.00    7.00
 -14   1   1    3.90    4.90
 -13  -1   1   25.40    4.90
 -13  -1   1   27.90    6.50
  13  -1  -1   27.90    5.70
 -13  -1   1   40.40    6.40
  13  -1  -1   40.90    6.00
  13  -1  -1   31.20    6.30
 -13   1   1   27.90    6.90
  13   1  -1   37.50    5.90
 -13   1   1   36.90    5.90
  13   1  -1   31.80    7.00
 -12  -1   1  135.89    8.80
 -12  -1   1  130.99    9.00
 -12  -1   1  135.29    7.80
  12  -1  -1  143.99    9.60
  12  -1  -1  118.19    7.60
  12  -1  -1  124.69    8.60
  12   1  -1  103.59    8.30
  12   1  -1  131.89    8.30
 -12   1   1  118.69    8.80
 -12   1   1  113.19    6.90
  12   1  -1  127.89    8.30
 -11  -1   1   77.89    5.80
  11  -1  -1   81.99    6.40
  11  -1  -1   72.99    4.90
 -11  -1   1   89.99    6.20
  11  -1  -1   87.29    6.70
  11  -1  -1   98.89    7.00
 -11  -1   1   87.29    6.70
  11   1  -1   90.89    6.30
 -11   1   1   83.99    5.40
  11   1  -1   87.49    6.40
  11   1  -1   81.29    6.20
  11   1  -1   83.59    5.90
 -11   1   1  107.29    7.80
 -10  -1   1  426.66   13.00
  10  -1  -1  409.96   11.80
 -10  -1   1  441.36   13.20
 -10  -1   1  443.16   12.50
  10  -1  -1  435.36   13.90
  10  -1  -1  435.96   12.80
  10  -1  -1  419.86   12.30
  10  -1  -1  417.76   11.50
 -10   1   1  413.76   12.80
  10   1  -1  409.66   12.90
  10   1  -1  409.36   11.40
  10   1  -1  438.76   13.60
 -10   1   1  442.16   11.90
  10   1  -1  415.96   12.10
   9  -1  -1   18.30    3.90
   9  -1  -1   23.70    3.00
  -9  -1   1   26.80    4.10
  -9  -1   1   19.60    3.10
   9  -1  -1   22.80    4.60
   9  -1  -1   27.30    3.20
  -9  -1   1   23.40    3.60
   9  -1  -1   26.40    3.90
   9   1  -1   30.80    3.50
  -9   1   1   19.90    2.30
  -9   1   1   30.00    4.60
  -9   1   1   19.90    3.20
   9   1  -1   21.00    2.90
   9   1  -1   14.50    3.30
   9   1  -1   18.40    3.40
  -8  -1   1  111.29    5.90
  -8  -1   1  121.59    5.80
  -8  -1   1  118.19    6.10
   8  -1  -1  117.49    5.20
   8  -1  -1  106.59    5.00
   8  -1  -1  106.89    5.10
   8  -1  -1  123.49    6.20
   8  -1  -1  110.29    6.70
   8  -1  -1  112.09    3.50
  -8  -1   1  107.89    3.70
   8   1  -1  109.79    6.10
   8   1  -1  118.99    4.90
  -8   1   1  110.39    4.50
   8   1  -1  107.49    6.50
  -8   1   1  118.99    5.30
  -8   1   1  126.19    6.60
   7  -1  -1   61.39    3.70
  -7  -1   1   63.29    2.50
   7  -1  -1   61.49    3.90
   7  -1  -1   64.29    4.70
  -7  -1   1   63.29    4.20
   7  -1  -1   70.59    4.50
  -7  -1   1   62.19    4.20
  -7  -1   1   65.39    4.30
   7  -1  -1   65.39    3.80
   7  -1  -1   58.99    2.20
  -7   1   1   58.19    3.10
   7   1  -1   64.69    4.60
  -7   1   1   60.29    3.80
  -7   1   1   66.59    4.60
   7   1  -1   64.29    3.40
  -7   1   1   60.79    3.20
  -7   1   1   63.39    2.70
   7   1  -1   63.49    4.10
   6  -1  -1  345.77    7.50
  -6  -1   1  355.96    9.30
  -6  -1   1  348.47    7.70
   6  -1  -1  355.86    8.90
   6  -1  -1  379.16    9.60
  -6  -1   1  362.66    9.40
   6  -1  -1  343.97    8.90
  -6  -1   1  356.36    9.20
   6  -1  -1  341.97    9.50
   6  -1  -1  358.56    9.40
   6   1  -1  361.46    8.90
  -6   1   1  349.87    8.20
   6   1  -1  361.36    9.50
  -6   1   1  358.56    9.00
   6   1  -1  353.96    9.50
  -6   1   1  350.16    7.80
  -6   1   1  352.46    9.50
  -6   1   1  351.16    8.70
   5  -1  -1  553.84   12.50
  -5  -1   1  532.15   12.50
   5  -1  -1  521.45   10.80
   5  -1  -1  551.04   12.10
  -5  -1   1  522.95   12.30
   5  -1  -1  535.55   12.70
   5  -1  -1  566.24   12.30
  -5  -1   1  541.25   12.50
  -5  -1   1  526.45   10.90
   5  -1  -1  528.15   12.50
  -5   1   1  535.95   11.90
  -5   1   1  535.75   12.20
  -5   1   1  533.55   10.90
   5   1  -1  554.84   12.90
  -5   1   1  540.15   11.40
  -5   1   1  546.05   12.80
   5   1  -1  535.15   11.80
   5   1  -1  542.35   12.50
   4  -1  -1   62.89    1.70
   4  -1  -1   65.69    2.80
  -4  -1   1   63.59    2.80
   4  -1  -1   65.99    2.70
   4  -1  -1   64.59    3.00
   4  -1  -1   64.49    2.60
  -4  -1   1   62.79    3.00
  -4  -1   1   58.69    2.80
  -4  -1   1   59.89    3.10
  -4  -1   1   60.99    1.80
  -4   1   1   61.79    1.60
  -4   1   1   62.89    2.60
   4   1  -1   63.09    2.60
   4   1  -1   64.99    3.30
   4   1  -1   65.99    3.30
  -4   1   1   60.59    2.00
  -4   1   1   62.29    2.50
  -4   1   1   63.79    2.90
  -3  -1   1  675.23   14.60
   3  -1  -1  675.73   14.40
  -3  -1   1  657.43   14.10
  -3  -1   1  667.73   14.30
   3  -1  -1  681.43   14.30
  -3  -1   1  678.13   14.40
  -3  -1   1  679.03   13.20
   3  -1  -1  678.93   13.90
   3  -1  -1  682.83   14.30
   3  -1  -1  668.13   13.10
  -3   1   1  681.23   14.40
  -3   1   1  675.93   14.20
   3   1  -1  673.03   14.30
   3   1  -1  709.53   14.70
  -3   1   1  663.13   13.90
  -3   1   1  665.43   13.20
   3   1  -1  650.03   13.70
  -2  -1   1  119.29    3.70
   2  -1  -1  122.49    3.50
  -2  -1   1  124.89    3.60
  -2  -1   1  119.59    3.60
  -2  -1   1  116.29    3.30
   2  -1  -1  123.49    3.40
  -2  -1   1  118.29    3.00
   2  -1  -1  122.59    2.70
   2  -1  -1  124.29    3.60
   2  -1  -1  125.69    3.60
  -2  -1   1  119.69    2.70
   2  -1  -1  117.99    3.30
  -2   1   1  118.79    3.40
   2   1  -1  123.99    3.50
  -2   1   1  122.59    3.50
   2   1  -1  116.39    3.00
   2   1  -1  126.29    3.80
  -2   1   1  126.99    3.30
  -2   1   1  123.39    2.50
  -1  -1   1  750.82   15.00
  -1  -1   1  754.82   15.30
   1  -1  -1  758.32   14.80
   1  -1  -1  768.52   15.40
   1  -1  -1  761.22   15.40
  -1  -1   1  755.52   15.20
  -1  -1   1  772.02   15.10
   1  -1  -1  754.92   15.40
  -1  -1   1  752.52   15.40
   1  -1  -1  751.22   14.90
  -1  -1   1  749.62   15.00
  -1   1   1  754.12   15.20
   1   1  -1  750.22   14.90
   1   1  -1  742.13   15.20
  -1   1   1  784.02   14.80
  -1   1   1  764.62   15.30
   1   1  -1  764.22   15.50
   0  -1   1    4.80    0.70
   0  -1   1    4.90    0.70
   0  -1   1    4.10    0.60
   0  -1  -1    4.10    0.90
   0  -1  -1    4.90    0.70
   0  -1  -1    4.40    0.70
   0  -1   1    3.80    0.70
   0  -1   1    3.30    0.70
   0  -1  -1    4.90    0.60
   0  -1   1    4.70    0.80
   0   1  -1    3.60    0.50
   0   1   1    5.70    0.70
   0   1   1    3.60    0.50
   1  -1   1   40.30    1.90
  -1  -1  -1   36.70    1.80
  -1  -1  -1   38.60    1.60
  -1  -1  -1   39.10    1.70
   1  -1   1   37.10    1.60
  -1  -1  -1   42.60    2.00
   1  -1   1   39.40    1.40
   1  -1   1   40.20    1.90
   1   1   1   35.80    1.50
   1   1   1   39.70    1.20
  -1   1  -1   41.50    1.50
  -1   1  -1   38.90    1.20
   1   1   1   38.90    1.00
  -2  -1  -1 1220.38   24.40
   2  -1   1 1220.38   24.40
  -2  -1  -1 1200.08   24.40
   2  -1   1 1239.98   24.40
  -2  -1  -1 1221.48   24.30
   2  -1   1 1228.38   24.30
   2  -1   1 1229.48   24.10
   2  -1   1 1237.98   24.50
  -2  -1  -1 1212.48   23.60
   2   1   1 1230.78   24.40
  -2   1  -1 1216.78   24.50
  -2   1  -1 1220.88   23.90
  -2   1  -1 1171.78   23.60
  -2   1  -1 1221.48   23.80
   2   1   1 1196.18   24.20
   2   1   1 1205.88   23.50
   3  -1   1   82.89    2.10
   3  -1   1   88.29    3.10
  -3  -1  -1   89.69    3.30
  -3  -1  -1   85.99    2.60
   3  -1   1   82.29    3.20
   3  -1   1   87.29    3.40
   3  -1   1   82.49    3.20
  -3  -1  -1   86.69    3.10
   3  -1   1   86.49    3.20
  -3   1  -1   88.49    2.60
  -3   1  -1   88.09    2.20
  -3   1  -1   84.79    3.40
   3   1   1   81.49    2.90
   3   1   1   81.09    3.10
  -4  -1  -1  711.73   15.40
   4  -1   1  702.03   15.40
   4  -1   1  722.13   14.20
  -4  -1  -1  671.63   13.60
   4  -1   1  706.63   15.50
   4  -1   1  696.03   15.40
  -4  -1  -1  704.63   15.40
  -4  -1  -1  687.43   14.70
   4  -1   1  724.23   15.30
  -4   1  -1  701.03   14.10
   4   1   1  688.53   15.30
   4   1   1  701.63   14.00
  -4   1  -1  719.83   15.60
   4   1   1  707.03   15.50
  -4   1  -1  715.83   14.60
   4   1   1  719.23   15.10
  -5  -1  -1   12.40    2.10
   5  -1   1   14.20    2.30
   5  -1   1    9.80    2.30
  -5  -1  -1   12.80    0.90
   5  -1   1    9.10    2.20
   5  -1   1   11.20    1.10
   5  -1   1   13.30    2.00
  -5  -1  -1   13.00    1.80
  -5  -1  -1   12.60    1.80
   5   1   1   11.50    1.70
  -5   1  -1   11.30    1.00
  -5   1  -1   12.50    2.30
  -5   1  -1   12.70    1.40
   5   1   1   14.50    1.80
   5   1   1   11.80    2.40
  -5   1  -1   10.80    1.50
   5   1   1   14.80    1.10
  -6  -1  -1  259.67    5.90
  -6  -1  -1  276.27    7.60
  -6  -1  -1  286.17    8.20
  -6  -1  -1  272.07    8.00
   6  -1   1  278.47    8.00
   6  -1   1  286.37    8.50
   6  -1   1  276.77    8.50
   6  -1   1  262.57    6.80
   6  -1   1  284.77    7.80
   6   1   1  285.17    8.10
  -6   1  -1  263.27    7.40
  -6   1  -1  276.77    6.70
   6   1   1  290.27    8.30
  -6   1  -1  280.97    8.10
   6   1   1  271.67    7.80
  -6   1  -1  276.47    7.10
   6   1   1  267.17    6.20
  -6   1  -1  267.27    6.50
   7  -1   1  153.88    6.60
   7  -1   1  149.19    6.40
  -7  -1  -1  141.59    6.10
  -7  -1  -1  154.08    5.80
   7  -1   1  146.79    5.70
  -7  -1  -1  137.19    3.60
  -7  -1  -1  160.08    6.10
   7  -1   1  133.89    4.60
   7  -1   1  144.79    6.70
   7   1   1  137.29    4.00
   7   1   1  142.39    5.90
  -7   1  -1  134.39    4.40
   7   1   1  140.29    5.40
  -7   1  -1  149.99    5.20
  -7   1  -1  137.39    4.60
  -7   1  -1  144.69    5.80
  -7   1  -1  144.89    5.40
   7   1   1  147.29    6.00
   8  -1   1  167.78    5.60
   8  -1   1  187.18    7.60
  -8  -1  -1  171.28    6.90
   8  -1   1  189.28    8.10
   8  -1   1  177.98    7.80
   8  -1   1  169.68    6.60
  -8  -1  -1  166.88    4.50
  -8  -1  -1  196.18    7.40
   8   1   1  163.08    4.70
   8   1   1  181.28    7.20
   8   1   1  173.48    7.10
  -8   1  -1  177.38    7.80
  -8   1  -1  181.68    6.30
   8   1   1  177.58    6.40
  -8   1  -1  171.18    6.30
  -8   1  -1  180.38    5.50
   9  -1   1  221.58    7.30
   9  -1   1  222.28    7.90
  -9  -1  -1  230.08    8.60
  -9  -1  -1  232.68    8.60
   9  -1   1  235.48    9.20
   9  -1   1  251.07    8.70
  -9  -1  -1  248.28    9.40
   9  -1   1  232.18    8.70
   9   1   1  236.68    8.80
  -9   1  -1  226.78    9.50
   9   1   1  236.48    9.70
  -9   1  -1  229.08    7.80
   9   1   1  228.38    8.60
  -9   1  -1  232.28    7.80
  -9   1  -1  222.38    7.10
  10  -1   1    8.00    4.40
 -10  -1  -1   12.40    3.70
 -10  -1  -1   10.40    3.80
  10  -1   1   10.90    4.70
  10  -1   1    7.70    3.00
  10  -1   1   10.70    4.40
 -10  -1  -1    7.60    4.20
  10   1   1   12.80    4.70
 -10   1  -1   13.30    3.30
 -10   1  -1   12.00    4.60
 -10   1  -1    9.30    3.00
  10   1   1   15.90    4.30
  10   1   1   14.40    3.60
  11  -1   1  154.18    8.00
  11  -1   1  165.88    7.50
  11  -1   1  165.08    8.70
 -11  -1  -1  181.08    8.50
  11  -1   1  170.68    9.60
 -11  -1  -1  153.78    8.10
 -11   1  -1  172.88    7.80
 -11   1  -1  159.88    7.30
  11   1   1  153.28    7.40
  11   1   1  146.09    8.00
  11   1   1  155.68    7.00
  11   1   1  170.98    8.50
 -11   1  -1  173.58    9.80
 -12  -1  -1   10.80    4.30
  12  -1   1   12.60    4.10
  12  -1   1    4.60    5.90
 -12  -1  -1    8.50    4.50
  12  -1   1    0.10    3.60
 -12  -1  -1    9.10    5.50
 -12   1  -1    6.40    5.60
  12   1   1    8.00    5.00
  12   1   1   19.60    6.20
  12   1   1   10.40    4.40
  13  -1   1   47.50    7.60
 -13  -1  -1   26.50    5.40
  13  -1   1   32.70    5.50
 -13  -1  -1   35.70    7.00
  13  -1   1   38.70    5.50
  13   1   1   35.90    5.60
 -13   1  -1   34.90    7.20
  13   1   1   37.80    7.30
  13   1   1   28.80    4.90
  14  -1   1   10.20    7.10
  14  -1   1   23.10    5.20
  14  -1   1   13.30    7.10
 -14  -1  -1   26.10    7.40
  14   1   1   25.30    6.60
  14   1   1   23.90    7.40
 -14   1  -1   28.30    7.50
  15  -1   1   11.90    7.70
  15  -1   1    2.10    6.40
 -15  -1  -1    2.80    7.50
 -15   1  -1    5.50    6.80
  15   1   1    3.70    4.60
 -15   1  -1   -3.30    7.10
  15   1   1   -0.90    7.80
 -15  -2   1   -7.10    7.00
  15  -2  -1    6.80    6.50
  15  -2  -1    3.70    7.90
 -15   2   1   -5.60    7.70
  15   2  -1    0.30    5.40
  15   2  -1    7.10    5.90
 -14  -2   1   19.50    6.00
 -14  -2   1   14.30    7.00
  14  -2  -1   22.30    7.90
  14  -2  -1   15.60    6.50
  14   2  -1    4.10    7.20
  14   2  -1   18.80    5.80
 -14   2   1   12.60    5.50
 -14   2   1   14.60    7.80
  13  -2  -1   66.69    7.30
 -13  -2   1   78.29    8.40
  13  -2  -1   73.59    7.90
 -13  -2   1   75.99    7.40
 -13   2   1   69.99    6.50
  13   2  -1   65.29    6.90
  13   2  -1   70.29    5.80
 -13   2   1   74.99    8.80
 -12  -2   1   22.00    5.30
  12  -2  -1   36.30    6.30
 -12  -2   1   24.50    5.30
 -12  -2   1   33.80    6.60
  12  -2  -1   29.50    6.90
  12  -2  -1   21.10    4.50
  12   2  -1   23.00    5.40
  12   2  -1   27.90    6.50
  12   2  -1   21.50    4.90
 -12   2   1   31.40    6.70
 -12   2   1   16.40    4.70
 -11  -2   1   44.50    5.60
  11  -2  -1   47.40    5.10
 -11  -2   1   51.29    6.40
  11  -2  -1   49.99    6.90
  11  -2  -1   48.40    6.10
 -11  -2   1   45.10    5.80
 -11   2   1   41.50    5.20
  11   2  -1   40.90    5.20
 -11   2   1   46.80    6.70
  11   2  -1   39.50    5.00
  11   2  -1   41.20    4.80
 -10  -2   1   10.50    4.50
  10  -2  -1    8.90    4.30
  10  -2  -1    5.90    4.70
 -10  -2   1   11.30    4.10
 -10  -2   1    8.10    4.10
  10  -2  -1    9.00    3.60
  10   2  -1   11.90    4.80
  10   2  -1    8.60    3.50
 -10   2   1    6.70    3.70
  10   2  -1    8.50    4.20
 -10   2   1    8.50    3.70
  -9  -2   1   27.90    4.10
   9  -2  -1   25.10    4.00
  -9  -2   1   31.70    4.50
   9  -2  -1   28.40    3.70
   9  -2  -1   34.70    4.50
  -9  -2   1   28.30    3.70
   9  -2  -1   29.90    2.90
   9   2  -1   21.80    4.30
  -9   2   1   31.00    3.50
  -9   2   1   28.30    2.50
   9   2  -1   32.80    4.90
   9   2  -1   30.00    3.80
  -9   2   1   38.60    5.20
  -8  -2   1  318.37   10.50
  -8  -2   1  309.67   10.50
   8  -2  -1  324.97   10.60
   8  -2  -1  330.77   11.20
   8  -2  -1  317.07    9.60
  -8  -2   1  316.27   10.20
  -8   2   1  319.27   10.00
  -8   2   1  334.37   11.00
   8   2  -1  323.07   10.30
   8   2  -1  338.97   10.80
   8   2  -1  311.17    9.20
  -8   2   1  306.27    7.90
   7  -2  -1  118.59    6.40
  -7  -2   1  101.59    3.70
   7  -2  -1  126.79    6.60
   7  -2  -1  106.09    4.30
   7  -2  -1  115.39    6.00
  -7  -2   1  106.59    6.10
  -7  -2   1  105.89    6.10
  -7  -2   1  109.89    5.50
   7   2  -1  111.59    6.40
  -7   2   1  104.39    4.30
   7   2  -1  116.59    6.30
   7   2  -1  109.79    4.50
  -7   2   1  113.49    6.40
  -7   2   1  114.19    3.80
  -7   2   1  109.79    5.70
   6  -2  -1  330.97    9.10
  -6  -2   1  318.77    7.50
   6  -2  -1  340.97    9.90
  -6  -2   1  327.47    9.60
  -6  -2   1  324.57    8.80
   6  -2  -1  327.17    8.40
   6  -2  -1  322.57    9.70
  -6  -2   1  343.77    9.80
   6   2  -1  335.97   10.10
  -6   2   1  316.47    9.30
  -6   2   1  331.87    9.30
   6   2  -1  311.87    8.50
  -6   2   1  315.57    8.00
   6   2  -1  309.87    9.10
  -6   2   1  312.37    7.30
  -5  -2   1  113.99    5.10
   5  -2  -1  118.09    4.80
   5  -2  -1  111.99    5.10
  -5  -2   1  111.69    5.10
  -5  -2   1  109.39    3.30
   5  -2  -1   98.29    5.10
  -5  -2   1  114.49    4.30
   5   2  -1  115.69    4.30
  -5   2   1  110.39    3.70
  -5   2   1  109.89    5.10
   5   2  -1  108.49    4.60
   5   2  -1  109.09    4.90
  -5   2   1  109.59    3.00
  -5   2   1  114.49    4.50
  -4  -2   1   49.10    3.40
   4  -2  -1   43.80    3.00
  -4  -2   1   49.99    3.30
   4  -2  -1   43.10    3.00
   4  -2  -1   50.59    3.30
   4  -2  -1   44.90    3.30
  -4  -2   1   40.80    2.00
  -4   2   1   45.80    2.30
   4   2  -1   46.70    2.70
  -4   2   1   45.10    3.10
  -4   2   1   43.20    1.50
   4   2  -1   44.30    3.10
  -4   2   1   50.09    3.40
   4   2  -1   51.79    3.50
   3  -2  -1   31.60    2.70
  -3  -2   1   26.40    2.40
   3  -2  -1   29.70    2.30
  -3  -2   1   26.90    1.90
  -3  -2   1   27.60    2.60
   3  -2  -1   29.80    2.70
  -3   2   1   28.80    1.20
  -3   2   1   26.50    2.10
   3   2  -1   32.00    2.50
   3   2  -1   30.20    2.40
  -3   2   1   27.70    2.00
   3   2  -1   32.60    2.10
  -3   2   1   30.60    2.50
  -2  -2   1   26.40    2.00
   2  -2  -1   28.20    2.10
   2  -2  -1   26.50    2.10
  -2  -2   1   28.10    2.20
   2  -2  -1   22.60    1.20
  -2  -2   1   22.40    1.60
  -2  -2   1   30.40    2.40
  -2  -2   1   25.70    1.70
   2  -2  -1   22.60    2.20
  -2   2   1   25.10    1.10
   2   2  -1   25.60    1.60
  -2   2   1   27.00    2.10
   2   2  -1   25.00    1.90
  -2   2   1   25.80    2.20
   2   2  -1   28.80    2.40
   1  -2  -1   69.99    2.60
  -1  -2   1   73.69    2.60
  -1  -2   1   70.19    2.80
  -1  -2   1   71.69    2.90
   1  -2  -1   77.49    3.30
   1  -2  -1   70.29    2.30
   1  -2  -1   68.69    3.20
   1  -2  -1   74.49    3.50
  -1  -2   1   79.19    3.10
  -1  -2   1   73.79    3.10
  -1  -2   1   71.99    2.90
  -1   2   1   74.19    2.80
  -1   2   1   70.19    2.80
   0  -2  -1  580.74   12.90
   0  -2   1  576.64   12.40
   0  -2   1  578.94   12.60
   0  -2  -1  573.54   12.80
   0  -2   1  581.84   12.70
   0  -2  -1  569.64   12.40
   0  -2  -1  577.74   12.10
   0  -2   1  576.24   12.50
   0  -2   1  581.14   12.40
   0  -2   1  581.44   12.50
   0   2   1  588.24   12.10
   0   2   1  573.54   12.30
   1  -2   1 1068.79   21.70
   1  -2   1 1062.79   21.90
   1  -2   1 1074.89   22.40
  -1  -2  -1 1078.59   22.30
  -1  -2  -1 1086.09   21.40
   1  -2   1 1107.49   22.50
   1  -2   1 1083.79   22.30
  -1  -2  -1 1091.99   22.50
  -1  -2  -1 1070.89   21.90
   1  -2   1 1090.09   21.90
   1   2   1 1091.49   21.70
   1   2   1 1085.89   22.10
  -1   2  -1 1069.49   21.60
   2  -2   1  194.98    5.70
  -2  -2  -1  188.48    5.40
   2  -2   1  194.98    5.90
  -2  -2  -1  185.88    4.30
   2  -2   1  190.68    5.60
   2  -2   1  190.48    5.10
  -2  -2  -1  191.88    5.70
  -2  -2  -1  189.38    5.70
   2   2   1  183.78    4.50
   2   2   1  178.78    5.60
  -2   2  -1  185.78    4.60
  -2   2  -1  198.78    5.70
   2   2   1  189.88    5.40
   3  -2   1    3.00    1.20
   3  -2   1    2.90    1.40
  -3  -2  -1    2.70    0.50
   3  -2   1    2.80    1.20
  -3  -2  -1    4.50    1.90
  -3  -2  -1    3.40    1.60
   3  -2   1    1.60    1.40
  -3  -2  -1    3.00    1.30
   3   2   1    1.40    1.50
  -3   2  -1    2.60    0.60
  -3   2  -1    1.60    0.80
   3   2   1   -0.60    1.70
  -3   2  -1    0.30    1.70
  -3   2  -1    1.80    0.80
   3   2   1    2.70    0.60
   4  -2   1   36.00    3.30
  -4  -2  -1   37.20    3.20
  -4  -2  -1   38.70    3.00
   4  -2   1   42.60    3.30
   4  -2   1   40.90    3.00
   4  -2   1   35.30    2.50
  -4  -2  -1   35.90    1.10
  -4   2  -1   42.60    2.00
   4   2   1   45.10    3.40
  -4   2  -1   33.60    1.60
  -4   2  -1   41.80    3.30
   4   2   1   39.80    2.90
   4   2   1   31.70    2.80
   5  -2   1  118.99    4.70
  -5  -2  -1  101.79    3.70
   5  -2   1  110.29    5.30
  -5  -2  -1  105.19    2.40
   5  -2   1  106.09    5.40
  -5  -2  -1  113.79    4.70
  -5  -2  -1  111.79    5.30
  -5   2  -1  117.89    5.40
   5   2   1  113.49    4.80
  -5   2  -1  108.59    3.10
  -5   2  -1  108.99    3.50
   5   2   1  109.09    4.80
   5   2   1  113.49    5.40
  -6  -2  -1  254.37    7.10
   6  -2   1  262.67    8.50
  -6  -2  -1  244.38    5.50
  -6  -2  -1  278.57    8.80
   6  -2   1  263.27    8.90
   6  -2   1  267.07    8.50
  -6  -2  -1  280.87    8.70
   6   2   1  276.27    8.50
   6   2   1  249.28    8.60
  -6   2  -1  291.27    8.90
   6   2   1  257.87    7.60
  -6   2  -1  252.57    6.00
  -6   2  -1  261.97    7.80
  -6   2  -1  264.77    6.70
   6   2   1  258.97    5.60
  -6   2  -1  257.97    5.90
  -7  -2  -1   31.30    4.00
  -7  -2  -1   25.40    4.00
   7  -2   1   32.40    3.50
   7  -2   1   26.80    4.10
   7  -2   1   36.80    3.90
  -7  -2  -1   28.50    1.60
  -7  -2  -1   22.90    2.90
  -7   2  -1   29.90    3.40
  -7   2  -1   31.10    1.90
   7   2   1   22.90    4.00
   7   2   1   24.60    2.80
  -7   2  -1   35.40    3.80
   7   2   1   24.40    3.80
  -7   2  -1   26.20    2.00
  -7   2  -1   31.10    2.40
  -8  -2  -1   47.10    4.30
   8  -2   1   49.10    5.10
   8  -2   1   51.69    5.30
  -8  -2  -1   42.60    4.90
   8  -2   1   43.00    2.90
   8  -2   1   56.59    4.70
  -8  -2  -1   50.79    4.10
   8   2   1   48.60    4.40
  -8   2  -1   60.49    4.80
   8   2   1   56.99    4.60
   8   2   1   57.79    5.00
  -8   2  -1   55.09    3.70
  -8   2  -1   55.09    5.30
  -9  -2  -1   99.69    6.10
  -9  -2  -1  103.09    6.80
   9  -2   1  108.59    7.40
   9  -2   1  111.79    7.40
   9  -2   1   95.19    6.70
  -9  -2  -1  105.09    7.10
  -9   2  -1  107.79    5.00
  -9   2  -1  108.49    7.40
   9   2   1  105.09    5.60
  -9   2  -1   99.09    6.50
   9   2   1  100.59    7.00
   9   2   1   86.29    6.60
 -10  -2  -1   25.60    4.30
  10  -2   1   24.70    3.70
  10  -2   1   23.80    5.20
  10  -2   1   18.90    5.30
 -10  -2  -1   24.70    4.10
 -10  -2  -1   24.50    4.00
  10   2   1   26.50    5.50
  10   2   1   24.20    4.60
  10   2   1   33.80    4.00
 -10   2  -1   28.90    3.40
 -10   2  -1   28.90    4.50
 -10   2  -1   22.80    5.60
 -11  -2  -1   -2.20    3.20
  11  -2   1    4.80    5.30
 -11  -2  -1   -8.90    4.80
  11  -2   1    1.50    4.00
  11  -2   1   -3.60    5.20
 -11   2  -1   -5.60    3.80
  11   2   1    5.90    3.90
  11   2   1    0.40    3.10
  11   2   1   -2.70    4.00
 -11   2  -1   -0.50    3.90
  12  -2   1    2.70    4.40
  12  -2   1   -6.40    3.80
  12  -2   1   -0.50    4.20
 -12  -2  -1    1.10    4.90
 -12  -2  -1   10.00    5.80
  12   2   1    0.00    5.90
  12   2   1    1.60    3.40
 -12   2  -1   -3.90    6.00
 -12   2  -1    3.30    4.10
  12   2   1    2.50    4.60
  13  -2   1   17.60    7.40
 -13  -2  -1   12.00    6.80
 -13  -2  -1   21.70    6.00
  13  -2   1    9.70    6.50
  13   2   1   24.30    6.00
  13   2   1   22.90    7.20
 -13   2  -1   10.20    7.20
  14  -2   1   29.70    7.40
 -14  -2  -1   16.30    7.50
 -14  -2  -1   27.50    6.70
  14  -2   1   25.90    6.30
  14   2   1   19.00    5.90
  14   2   1   25.10    6.70
 -14   2  -1   26.30    8.30
  15  -2   1   19.00    7.70
 -15  -2  -1    8.60    7.90
  15  -2   1   16.10    8.40
  15   2   1   13.50    5.00
  15   2   1   22.30    8.40
 -15   2  -1   12.80    8.50
 -14  -3   1    2.20    6.40
  14  -3  -1   10.70    6.20
 -14  -3   1    8.70    7.70
  14  -3  -1    6.70    5.20
 -14   3   1   10.70    5.90
 -14   3   1   11.50    8.10
  14   3  -1   10.40    5.70
  14   3  -1    8.30    5.60
  13  -3  -1   43.40    7.70
  13  -3  -1   35.60    8.60
  13  -3  -1   33.10    6.50
 -13  -3   1   36.00    7.10
 -13  -3   1   49.70    8.10
 -13   3   1   37.50    6.40
 -13   3   1   50.29    8.70
  13   3  -1   33.00    7.90
  13   3  -1   41.40    6.00
 -12  -3   1   17.20    6.00
  12  -3  -1    2.50    6.90
 -12  -3   1    9.80    4.70
  12  -3  -1   17.00    5.50
  12  -3  -1   14.20    5.40
  12  -3  -1    8.50    6.20
  12   3  -1   12.70    6.50
 -12   3   1   14.00    5.10
  12   3  -1    6.40    4.60
 -12   3   1   10.00    4.10
  11  -3  -1  188.58   10.40
  11  -3  -1  187.08    9.90
 -11  -3   1  176.38    9.20
  11  -3  -1  182.98    9.80
  11  -3  -1  185.08   10.10
 -11  -3   1  211.28   11.40
 -11   3   1  183.98    9.90
 -11   3   1  191.08   11.70
  11   3  -1  185.48   11.10
  11   3  -1  190.48   10.90
  10  -3  -1    5.80    4.20
 -10  -3   1   11.90    4.90
  10  -3  -1   10.00    4.00
  10  -3  -1    3.30    4.50
  10  -3  -1    8.30    5.70
 -10  -3   1    6.70    5.00
 -10   3   1   13.30    5.70
  10   3  -1    3.20    3.60
  10   3  -1   10.80    3.80
  10   3  -1    8.00    3.70
 -10   3   1   10.30    4.60
  -9  -3   1  174.88    9.30
   9  -3  -1  174.18    9.60
   9  -3  -1  182.98    8.50
  -9  -3   1  171.18    8.20
   9  -3  -1  178.48    9.00
   9  -3  -1  169.48    9.80
   9   3  -1  174.28    9.60
  -9   3   1  177.98    9.80
   9   3  -1  175.78    7.60
  -9   3   1  192.98    8.90
   9   3  -1  169.58    8.10
  -8  -3   1   26.70    4.70
   8  -3  -1   23.70    3.90
  -8  -3   1   20.30    4.60
   8  -3  -1   24.00    3.60
   8  -3  -1   18.00    4.70
   8  -3  -1   19.90    3.90
  -8   3   1   27.20    4.80
   8   3  -1   22.40    2.90
   8   3  -1   28.50    4.80
   8   3  -1   23.70    4.80
  -8   3   1   20.10    4.30
   7  -3  -1  959.50   23.90
  -7  -3   1  968.30   23.60
   7  -3  -1  992.20   22.90
  -7  -3   1 1023.80   23.90
   7  -3  -1 1034.00   23.70
  -7   3   1 1001.50   23.50
   7   3  -1 1007.70   24.30
  -7   3   1 1015.70   23.80
   7   3  -1 1007.70   22.10
   7   3  -1  990.70   23.40
  -6  -3   1  470.85   10.60
  -6  -3   1  492.35   13.60
   6  -3  -1  474.15   13.80
   6  -3  -1  494.25   13.50
   6  -3  -1  485.45   12.70
  -6  -3   1  470.05   13.30
  -6   3   1  483.95   13.20
  -6   3   1  472.35   11.40
   6   3  -1  523.05   14.10
   6   3  -1  478.65   12.80
  -6   3   1  478.25   13.00
   6   3  -1  487.05   12.10
  -6   3   1  468.45   10.10
  -5  -3   1   47.20    2.40
   5  -3  -1   59.49    4.60
   5  -3  -1   58.89    4.80
   5  -3  -1   48.70    3.70
  -5  -3   1   51.29    4.50
  -5  -3   1   62.79    4.70
  -5   3   1   55.49    4.50
  -5   3   1   49.10    2.00
  -5   3   1   59.19    4.00
   5   3  -1   49.20    3.80
   5   3  -1   52.29    1.90
   5   3  -1   57.19    4.30
  -5   3   1   50.99    2.90
   5   3  -1   47.90    3.20
  -4  -3   1 1053.29   23.50
   4  -3  -1 1073.69   23.90
  -4  -3   1 1057.39   23.80
   4  -3  -1 1088.99   23.40
   4  -3  -1 1087.29   24.30
   4   3  -1 1061.49   23.60
   4   3  -1 1098.09   24.40
  -4   3   1 1057.79   21.20
   4   3  -1 1110.19   22.90
  -4   3   1 1078.19   23.70
  -4   3   1 1080.49   23.80
  -3  -3   1  463.95   11.60
   3  -3  -1  437.66   11.90
   3  -3  -1  447.86    9.70
   3  -3  -1  439.26   11.50
  -3  -3   1  451.15   10.30
  -3  -3   1  466.35   11.50
   3  -3  -1  445.96   11.40
  -3  -3   1  459.35   11.80
   3   3  -1  442.56   11.20
  -3   3   1  430.46   10.90
  -3   3   1  455.05   11.40
  -3   3   1  430.06    9.40
   3   3  -1  458.95   10.80
   3   3  -1  481.45   12.30
  -3   3   1  445.36   11.60
   2  -3  -1 2358.96   47.70
  -2  -3   1 2344.37   47.20
   2  -3  -1 2359.76   47.70
   2  -3  -1 2403.66   46.40
  -2  -3   1 2359.86   46.70
   2  -3  -1 2361.76   48.10
  -2  -3   1 2361.86   46.80
  -2  -3   1 2412.16   47.50
  -2  -3   1 2337.87   47.70
  -2  -3   1 2397.56   47.70
  -2   3   1 2357.86   47.40
   2   3  -1 2347.57   48.00
  -2   3   1 2372.46   47.60
   2   3  -1 2388.26   47.00
   2   3  -1 2346.07   47.50
  -1  -3   1  266.17    7.50
   1  -3  -1  289.97    8.40
  -1  -3   1  282.57    7.90
  -1  -3   1  269.67    7.50
   1  -3  -1  280.27    7.20
  -1  -3   1  272.07    7.30
  -1  -3   1  277.07    7.60
  -1  -3   1  272.67    7.60
   1  -3  -1  281.77    8.10
   1  -3  -1  281.87    8.00
   1  -3  -1  273.77    6.70
  -1   3   1  285.07    7.80
  -1   3   1  278.97    7.40
   0  -3  -1  928.41   20.40
   0  -3   1  909.11   19.70
   0  -3   1  913.71   19.60
   0  -3   1  943.91   20.40
   0  -3   1  932.01   20.10
   0  -3  -1  913.91   20.40
   0  -3   1  907.31   19.90
   0  -3  -1  943.71   19.90
   0  -3   1  948.61   19.90
   0  -3  -1  935.01   19.30
   0   3   1  920.91   19.70
   0   3   1  922.41   19.40
  -1  -3  -1  465.65   11.80
   1  -3   1  479.05   11.90
   1  -3   1  493.05   12.10
  -1  -3  -1  477.45   11.70
   1  -3   1  476.25   11.00
   1  -3   1  468.05   11.40
   1  -3   1  491.35   11.10
   1  -3   1  478.45   11.50
  -1  -3  -1  478.65   11.20
   1   3   1  477.85   11.00
   1   3   1  475.65   11.40
  -1   3  -1  480.75   11.70
   2  -3   1   38.30    2.90
   2  -3   1   44.40    3.00
   2  -3   1   40.70    3.60
   2  -3   1   38.80    3.10
  -2  -3  -1   41.30    3.00
  -2  -3  -1   40.80    3.40
   2  -3   1   36.70    2.50
  -2  -3  -1   39.10    3.40
  -2   3  -1   42.10    2.60
   2   3   1   38.50    2.30
   2   3   1   36.40    2.70
  -2   3  -1   41.20    3.30
  -3  -3  -1  734.63   17.40
  -3  -3  -1  766.32   17.50
   3  -3   1  753.92   17.10
   3  -3   1  743.93   17.70
  -3  -3  -1  761.82   17.00
   3  -3   1  743.83   16.60
   3  -3   1  743.53   17.50
  -3  -3  -1  715.23   15.20
   3   3   1  770.02   16.80
  -3   3  -1  742.23   15.20
  -3   3  -1  753.22   17.40
   3   3   1  721.73   15.40
   3   3   1  745.83   17.40
  -3   3  -1  745.83   15.50
  -4  -3  -1  339.27    9.70
   4  -3   1  347.17   10.50
   4  -3   1  329.17    8.80
   4  -3   1  339.87   10.20
  -4  -3  -1  343.27   10.00
  -4  -3  -1  336.77    9.70
   4   3   1  342.27   10.40
   4   3   1  328.47    7.20
  -4   3  -1  322.37    9.60
  -4   3  -1  327.37    7.00
   4   3   1  339.27    9.30
   4   3   1  329.17    9.90
  -4   3  -1  336.17    7.80
   5  -3   1  987.70   23.30
  -5  -3  -1 1008.20   23.10
   5  -3   1  998.00   23.20
  -5  -3  -1 1038.70   23.00
   5  -3   1  979.20   21.90
   5   3   1 1044.70   22.40
   5   3   1 1071.19   24.10
  -5   3  -1 1024.50   22.80
  -5   3  -1  953.20   20.50
  -5   3  -1  997.80   20.60
  -5   3  -1 1017.40   23.20
   5   3   1 1028.00   23.20
   6  -3   1    1.80    2.50
   6  -3   1    5.30    2.30
   6  -3   1    8.00    3.40
  -6  -3  -1    1.30    3.30
  -6  -3  -1    3.10    3.40
  -6   3  -1    8.00    1.50
   6   3   1   10.50    2.80
  -6   3  -1    8.10    3.50
   6   3   1    8.50    3.10
  -6   3  -1    6.20    2.50
   6   3   1    3.90    3.50
   7  -3   1  364.56   12.60
   7  -3   1  361.96   11.60
  -7  -3  -1  369.76   12.00
   7  -3   1  382.46   12.10
  -7  -3  -1  364.46   12.10
   7  -3   1  368.16   10.40
  -7   3  -1  350.86    8.90
   7   3   1  360.76   11.90
  -7   3  -1  386.96   11.90
   7   3   1  373.96   11.00
   7   3   1  361.96   12.20
  -7   3  -1  387.36   12.30
  -8  -3  -1  222.48    9.90
   8  -3   1  218.78    9.80
   8  -3   1  228.38    9.90
   8  -3   1  229.68    8.90
   8  -3   1  223.58   10.50
  -8  -3  -1  217.88    9.00
   8   3   1  235.08   10.20
   8   3   1  207.58    9.80
  -8   3  -1  237.98    9.60
   8   3   1  234.78    8.80
  -8   3  -1  225.48   10.10
  -9  -3  -1  170.18    8.40
  -9  -3  -1  153.68    8.20
   9  -3   1  187.48    9.90
   9  -3   1  179.98    8.50
   9  -3   1  164.08    8.80
   9  -3   1  175.38    9.30
   9   3   1  162.38    8.30
   9   3   1  178.88    7.30
   9   3   1  175.58    9.60
  -9   3  -1  166.08    8.90
  -9   3  -1  189.38    8.80
  10  -3   1  130.59    8.50
  10  -3   1  125.09    8.20
 -10  -3  -1  139.49    8.30
  10  -3   1  119.09    7.50
 -10  -3  -1  120.49    8.50
  10  -3   1  142.39    9.30
  10   3   1  121.19    9.10
  10   3   1  133.99    8.10
  10   3   1  144.59    8.20
 -10   3  -1  131.99    9.00
 -10   3  -1  116.99    7.80
  11  -3   1    6.00    6.10
  11  -3   1   14.70    5.40
 -11  -3  -1    1.50    5.40
  11  -3   1    4.00    5.80
 -11  -3  -1    7.10    6.00
  11   3   1   12.70    4.50
  11   3   1   10.80    5.00
  11   3   1   10.20    5.20
 -11   3  -1   16.90    6.70
 -11   3  -1   11.40    5.00
  12  -3   1  185.98   12.00
  12  -3   1  158.28   10.70
 -12  -3  -1  174.78   11.80
  12  -3   1  156.68   11.10
 -12  -3  -1  173.58   11.40
 -12   3  -1  157.48    8.70
  12   3   1  147.49   10.60
  12   3   1  165.48    9.80
 -12   3  -1  172.58   10.70
 -13  -3  -1   22.70    6.90
  13  -3   1   29.70    8.10
  13  -3   1   22.70    4.90
 -13  -3  -1   25.10    5.90
  13  -3   1   21.40    7.80
  13   3   1   30.10    6.40
 -13   3  -1   20.80    6.20
  13   3   1   11.40    7.50
 -13   3  -1   27.10    8.40
  14  -3   1   18.30    8.10
 -14  -3  -1    3.60    7.70
 -14  -3  -1    3.60    6.70
  14  -3   1    3.10    7.80
  14   3   1    9.10    8.00
  14   3   1   10.10    6.20
 -14   3  -1   11.50    6.20
 -13  -4   1  103.19    9.90
 -13  -4   1  106.99   10.70
  13  -4  -1   65.49    9.90
 -13   4   1   89.49    7.90
 -13   4   1   95.09   10.50
  13   4  -1  109.69   10.50
  12  -4  -1   48.00    8.60
 -12  -4   1   58.79    8.80
 -12  -4   1   60.99    7.10
 -12   4   1   76.89    7.90
  12   4  -1   53.69    8.60
  12   4  -1   60.09    7.20
 -12   4   1   68.59    8.20
  11  -4  -1    7.90    7.10
  11  -4  -1   23.80    6.30
 -11  -4   1   20.60    6.90
  11  -4  -1    9.40    5.30
 -11  -4   1   30.60    7.00
 -11   4   1   15.20    6.10
 -11   4   1   22.20    7.20
  11   4  -1   17.30    6.80
  11   4  -1   29.00    5.20
 -10  -4   1    8.30    4.40
 -10  -4   1   22.50    6.40
  10  -4  -1    6.70    4.70
  10  -4  -1   12.40    5.80
  10  -4  -1    9.30    6.40
  10   4  -1   12.40    6.20
 -10   4   1   14.20    5.90
 -10   4   1   13.80    6.50
  10   4  -1   15.80    4.50
   9  -4  -1   68.09    6.60
   9  -4  -1   67.39    6.10
   9  -4  -1   73.19    6.30
  -9  -4   1   70.89    7.40
  -9  -4   1   63.89    6.10
   9   4  -1   66.49    7.20
   9   4  -1   53.39    6.90
  -9   4   1   73.09    7.50
  -9   4   1   64.99    6.80
   9   4  -1   68.19    5.50
   8  -4  -1  115.29    7.60
  -8  -4   1  113.79    8.10
  -8  -4   1  127.19    8.90
   8  -4  -1  132.69    8.90
   8  -4  -1  124.19    8.80
   8   4  -1  125.29    8.90
   8   4  -1  133.59    7.20
  -8   4   1  136.49    9.30
   8   4  -1  131.39    9.20
  -8   4   1  127.69    7.40
   7  -4  -1  394.16   12.70
  -7  -4   1  407.36   13.50
  -7  -4   1  405.06   13.50
   7  -4  -1  401.36   12.60
   7  -4  -1  405.46   14.10
   7   4  -1  408.56   11.90
  -7   4   1  423.56   12.90
  -7   4   1  420.36   13.00
   7   4  -1  409.16   14.20
   7   4  -1  413.86   13.40
   6  -4  -1  201.78    8.40
   6  -4  -1  207.28    9.90
   6  -4  -1  203.28    8.30
  -6  -4   1  200.58    9.20
  -6  -4   1  193.58    9.00
   6   4  -1  183.48    8.90
  -6   4   1  204.08    9.20
   6   4  -1  194.18    8.60
   6   4  -1  193.38    7.00
  -6   4   1  210.48    9.20
  -5  -4   1  284.17    7.60
  -5  -4   1  292.57   10.20
  -5  -4   1  302.47   10.70
   5  -4  -1  285.77    9.80
   5  -4  -1  288.37    9.90
   5  -4  -1  279.87   10.90
   5   4  -1  309.47   11.20
   5   4  -1  310.87    9.80
   5   4  -1  284.57    9.00
  -5   4   1  290.47    9.80
  -5   4   1  288.17   10.30
  -4  -4   1   27.70    4.20
  -4  -4   1   24.70    3.20
  -4  -4   1   27.50    4.00
  -4  -4   1   28.10    2.40
   4  -4  -1   38.60    4.50
   4  -4  -1   32.00    3.90
   4  -4  -1   41.00    4.30
   4   4  -1   19.50    3.10
   4   4  -1   18.50    3.10
   4   4  -1   25.20    2.30
  -4   4   1   29.50    4.20
   4   4  -1   17.20    3.30
  -4   4   1   29.90    4.10
  -3  -4   1   16.10    2.80
  -3  -4   1   22.90    3.60
   3  -4  -1   18.50    3.40
   3  -4  -1   16.20    3.10
  -3  -4   1   24.00    3.50
   3  -4  -1   18.40    1.90
   3  -4  -1   12.00    2.80
  -3  -4   1   17.10    2.30
   3   4  -1   20.70    3.70
   3   4  -1   18.10    3.80
  -3   4   1   15.60    3.30
   3   4  -1   20.60    2.50
   3   4  -1   19.50    2.30
  -3   4   1   17.70    3.50
  -3   4   1   17.40    1.80
  -2  -4   1  181.58    6.20
   2  -4  -1  186.08    5.80
  -2  -4   1  184.78    7.40
   2  -4  -1  188.98    7.50
   2  -4  -1  192.58    8.20
  -2  -4   1  183.78    6.50
   2  -4  -1  177.88    7.50
  -2  -4   1  189.08    7.00
  -2  -4   1  180.38    7.40
   2   4  -1  192.68    7.40
   2   4  -1  182.48    6.70
   2   4  -1  180.98    6.20
  -2   4   1  185.38    6.90
  -2   4   1  188.98    7.40
   2   4  -1  175.48    7.70
  -1  -4   1  236.48    7.70
  -1  -4   1  222.98    8.00
  -1  -4   1  222.78    7.70
   1  -4  -1  215.38    7.00
   1  -4  -1  245.18    8.30
  -1  -4   1  236.08    7.50
   1  -4  -1  238.78    6.80
  -1  -4   1  232.68    7.90
  -1  -4   1  230.18    7.30
   1  -4  -1  233.18    8.40
  -1   4   1  227.08    7.40
   1   4  -1  222.48    7.80
  -1   4   1  240.48    7.90
   1   4  -1  242.28    7.50
   0  -4   1  441.36   11.90
   0  -4   1  415.56   10.70
   0  -4   1  427.36   11.40
   0  -4   1  403.26   10.90
   0  -4  -1  401.56   10.10
   0  -4  -1  402.06   11.40
   0  -4  -1  405.46   11.70
   0  -4   1  414.56   10.90
   0  -4   1  412.16   11.20
   0  -4  -1  409.36   10.90
   0   4  -1  404.86   11.00
   0   4   1  404.36   10.90
   0   4   1  397.26   10.40
   0   4  -1  418.36   11.20
   1  -4   1  621.74   16.10
   1  -4   1  601.94   14.40
   1  -4   1  610.54   15.40
  -1  -4  -1  633.14   15.40
  -1  -4  -1  610.44   15.80
   1  -4   1  624.44   15.20
   1  -4   1  587.94   14.20
   1  -4   1  601.44   15.00
  -1  -4  -1  647.64   14.50
   1   4   1  606.44   14.20
   1   4   1  660.33   15.40
  -1   4  -1  620.44   15.40
   1   4   1  628.94   14.60
  -1   4  -1  622.64   14.00
  -1   4  -1  604.94   15.30
  -2  -4  -1  294.17    9.90
  -2  -4  -1  286.37    8.80
  -2  -4  -1  311.17    9.80
   2  -4   1  322.07   10.50
   2  -4   1  296.07    9.20
   2  -4   1  302.87    8.20
   2  -4   1  310.17    9.60
   2  -4   1  314.87    9.20
   2   4   1  295.67    9.20
  -2   4  -1  308.37    9.70
   2   4   1  286.97    7.90
  -2   4  -1  299.37    9.20
   2   4   1  281.97    8.10
  -2   4  -1  310.17    8.10
   3  -4   1   43.40    4.70
  -3  -4  -1   44.70    4.50
   3  -4   1   47.00    3.90
   3  -4   1   61.99    5.20
  -3  -4  -1   41.80    3.90
  -3  -4  -1   39.70    4.00
   3   4   1   41.30    3.90
   3   4   1   44.30    3.00
  -3   4  -1   47.80    3.00
  -3   4  -1   46.00    4.40
  -3   4  -1   46.50    4.60
   3   4   1   43.80    3.60
  -4  -4  -1    4.20    3.60
   4  -4   1    6.00    2.70
   4  -4   1    4.00    3.60
   4  -4   1    7.90    3.10
  -4  -4  -1    9.20    3.60
  -4  -4  -1    7.80    3.20
  -4   4  -1    9.40    3.60
  -4   4  -1    5.60    1.60
   4   4   1    0.50    3.40
   4   4   1    8.40    2.80
  -4   4  -1    5.30    2.50
   4   4   1    8.20    3.20
   5  -4   1   30.60    5.20
  -5  -4  -1   30.40    4.40
   5  -4   1   29.60    3.60
  -5  -4  -1   32.20    4.50
   5  -4   1   25.50    4.70
  -5  -4  -1   33.60    4.10
  -5   4  -1   30.60    4.60
  -5   4  -1   22.10    4.50
   5   4   1   27.40    4.00
   5   4   1   28.00    3.90
   5   4   1   30.20    4.10
   6  -4   1  227.98   10.70
  -6  -4  -1  232.58    9.70
  -6  -4  -1  224.48    9.20
   6  -4   1  208.78   10.10
   6  -4   1  234.78    8.90
  -6   4  -1  241.68   10.10
   6   4   1  247.18    9.10
   6   4   1  235.78   10.10
  -6   4  -1  238.88   10.20
   6   4   1  239.38   10.70
   7  -4   1  103.19    7.60
  -7  -4  -1  123.59    7.80
   7  -4   1  107.09    7.30
   7  -4   1  110.39    6.30
  -7  -4  -1  118.89    8.50
   7   4   1  110.69    7.30
   7   4   1  113.49    8.80
  -7   4  -1  106.79    6.90
  -7   4  -1  115.39    7.60
   7   4   1  107.99    7.70
   8  -4   1  144.99    9.50
   8  -4   1  126.19    7.00
   8  -4   1  107.59    8.10
  -8  -4  -1  114.09    8.30
  -8  -4  -1  130.89    9.10
  -8   4  -1  130.79    8.40
   8   4   1  135.59    9.40
  -8   4  -1  135.29    9.50
   8   4   1  122.49    8.00
   8   4   1  130.59    8.00
   9  -4   1   69.49    6.90
  -9  -4  -1   63.39    7.40
  -9  -4  -1   63.09    7.30
   9  -4   1   63.09    7.20
   9  -4   1   34.90    5.80
  -9   4  -1   56.59    7.30
   9   4   1   61.09    6.20
   9   4   1   57.69    7.10
   9   4   1   62.19    6.10
  -9   4  -1   76.49    7.50
 -10  -4  -1   28.90    5.40
 -10  -4  -1   22.40    6.80
  10  -4   1   37.70    6.10
  10  -4   1   32.90    6.80
 -10   4  -1   24.80    6.30
 -10   4  -1   28.10    5.40
  10   4   1   27.70    5.20
  10   4   1   28.70    5.50
  11  -4   1    0.00    4.30
 -11  -4  -1    3.30    4.80
 -11  -4  -1   -0.20    6.40
  11  -4   1    4.40    5.30
 -11   4  -1   -3.60    3.90
  11   4   1   -1.70    6.70
  11   4   1    4.00    5.10
 -11   4  -1    2.90    6.80
 -12  -4  -1   10.40    7.00
  12  -4   1    7.00    7.90
 -12  -4  -1    8.50    5.30
  12  -4   1    7.90    4.90
  12   4   1   -3.20    5.40
 -12   4  -1    6.90    5.70
 -12   4  -1   -7.50    6.00
  12   4   1    0.40    7.20
  13  -4   1    9.50    7.00
 -13  -4  -1   28.10    8.10
  13  -4   1   23.60    8.80
 -13  -4  -1   15.00    8.20
 -13   4  -1   14.20    8.60
  13   4   1   20.70    8.50
 -13   4  -1   24.50    7.30
  13   4   1   22.70    6.50
  12  -5  -1   34.70    9.10
 -12  -5   1   39.80    9.00
 -12   5   1   44.90    9.00
 -12   5   1   41.90    9.30
  12   5  -1   43.10    6.90
 -11  -5   1    0.00    7.10
 -11  -5   1   14.40    7.60
  11  -5  -1   11.40    8.10
 -11   5   1    8.00    7.70
  11   5  -1   13.60    7.60
 -11   5   1   13.80    7.50
 -10  -5   1  133.49   10.30
  10  -5  -1  124.69    9.60
 -10  -5   1  136.69   10.50
 -10   5   1  136.19    9.70
  10   5  -1  126.29   10.20
 -10   5   1  134.49   10.50
  -9  -5   1   42.60    7.40
   9  -5  -1   48.00    8.30
  -9  -5   1   52.09    7.50
   9  -5  -1   40.50    5.90
   9  -5  -1   49.50    7.60
   9   5  -1   37.70    7.30
   9   5  -1   41.90    5.50
  -9   5   1   46.70    7.60
  -9   5   1   32.10    7.50
   8  -5  -1  211.08   11.30
  -8  -5   1  236.28   11.80
   8  -5  -1  225.68   11.60
  -8  -5   1  219.08   12.20
   8  -5  -1  210.88   11.70
   8   5  -1  224.88   11.80
   8   5  -1  240.18   10.00
  -8   5   1  214.88   12.10
  -8   5   1  223.88   12.10
  -7  -5   1   32.90    6.40
   7  -5  -1   21.70    4.80
  -7  -5   1   30.00    5.80
   7  -5  -1   27.20    5.10
   7  -5  -1   28.40    6.60
  -7   5   1   33.80    5.30
   7   5  -1   35.40    4.70
  -7   5   1   27.10    6.00
   7   5  -1   26.80    6.00
   7   5  -1   34.70    5.00
  -6  -5   1   98.29    7.80
   6  -5  -1   98.59    6.90
  -6  -5   1   94.29    6.70
   6  -5  -1  107.39    8.50
   6  -5  -1   95.29    6.80
   6   5  -1  102.39    7.60
   6   5  -1  106.99    7.80
  -6   5   1  102.89    7.70
   6   5  -1   92.49    6.20
  -6   5   1   93.59    7.70
   5  -5  -1  256.07   10.20
   5  -5  -1  258.77   10.40
   5  -5  -1  252.27   10.80
  -5  -5   1  255.77   10.10
  -5  -5   1  254.07   10.50
   5   5  -1  266.37   11.10
  -5   5   1  272.07   11.50
   5   5  -1  254.27   10.70
   5   5  -1  248.58    9.50
  -5   5   1  259.67   10.90
   4  -5  -1   55.99    6.10
   4  -5  -1   61.69    6.80
   4  -5  -1   68.99    5.90
  -4  -5   1   56.09    5.80
  -4  -5   1   51.79    5.20
  -4  -5   1   51.89    6.00
   4   5  -1   61.09    5.10
   4   5  -1   51.99    6.10
  -4   5   1   66.69    5.40
  -4   5   1   51.79    5.60
   4   5  -1   63.79    5.90
  -3  -5   1  441.06   13.70
   3  -5  -1  453.35   13.60
  -3  -5   1  448.66   13.00
  -3  -5   1  447.06   13.40
   3  -5  -1  429.26   13.70
  -3  -5   1  419.16   11.50
   3   5  -1  464.25   14.60
  -3   5   1  427.56   13.10
   3   5  -1  452.95   12.70
  -3   5   1  436.36   13.30
   3   5  -1  438.66   11.70
   3   5  -1  444.46   13.20
   2  -5  -1  177.58    8.20
  -2  -5   1  161.08    8.10
   2  -5  -1  151.68    8.20
  -2  -5   1  162.38    7.40
  -2  -5   1  152.08    8.10
   2  -5  -1  142.49    6.40
  -2  -5   1  159.08    6.70
   2   5  -1  167.28    9.00
  -2   5   1  180.18    8.50
   2   5  -1  154.28    8.30
  -2   5   1  159.28    7.50
   2   5  -1  160.08    6.70
   2   5  -1  163.38    7.60
  -1  -5   1  911.01   21.60
  -1  -5   1  977.40   22.90
   1  -5  -1  968.10   23.20
   1  -5  -1  921.51   21.70
  -1  -5   1  909.71   22.20
   1  -5  -1  944.91   23.60
  -1  -5   1  929.31   22.50
  -1  -5   1  959.60   21.90
  -1  -5   1  954.30   22.30
   1   5  -1  924.71   21.90
  -1   5   1  973.30   22.70
   1   5  -1  956.00   22.30
   1   5  -1  967.80   22.30
  -1   5   1  978.00   22.10
   1   5  -1  986.90   23.50
   0  -5   1   83.19    5.50
   0  -5   1   97.29    6.30
   0  -5  -1   87.89    5.90
   0  -5   1   97.29    6.60
   0  -5   1   79.59    5.30
   0  -5  -1   80.69    6.40
   0  -5  -1   84.19    4.80
   0  -5   1   80.79    5.50
   0  -5   1   81.79    5.70
   0  -5  -1   93.29    6.40
   0   5   1   95.79    6.20
   0   5   1   90.49    6.10
   0   5  -1   86.69    6.10
   0   5  -1   88.19    6.20
   0   5   1   83.99    5.30
  -1  -5  -1   84.29    5.80
   1  -5   1   76.29    6.40
   1  -5   1   95.19    6.40
   1  -5   1   81.59    5.20
  -1  -5  -1   78.69    5.70
  -1  -5  -1   78.99    5.10
   1  -5   1   71.39    5.70
  -1   5  -1   75.29    5.70
   1   5   1   91.69    6.20
   1   5   1   81.89    5.60
  -1   5  -1   88.19    6.40
  -1   5  -1   75.09    4.70
  -1   5  -1   81.69    6.00
   1   5   1   81.49    5.50
  -2  -5  -1  319.67   11.20
   2  -5   1  350.96   12.60
   2  -5   1  345.37   11.10
  -2  -5  -1  338.67   10.30
   2  -5   1  346.37   11.30
  -2  -5  -1  311.57   11.60
   2   5   1  348.37   11.40
   2   5   1  329.47    9.80
  -2   5  -1  342.57    9.20
  -2   5  -1  336.87   11.50
  -2   5  -1  347.57   11.70
  -3  -5  -1  224.28    8.90
  -3  -5  -1  223.78    9.90
   3  -5   1  221.88   10.30
   3  -5   1  243.88   11.00
   3  -5   1  221.58    8.90
  -3  -5  -1  226.88    8.80
   3   5   1  241.58   10.40
  -3   5  -1  222.08    9.80
   3   5   1  231.98    9.40
  -3   5  -1  227.68    9.90
   3   5   1  214.48    9.50
  -4  -5  -1  610.44   16.20
  -4  -5  -1  593.24   17.20
   4  -5   1  568.24   17.00
   4  -5   1  572.64   17.50
  -4  -5  -1  555.34   16.00
   4  -5   1  586.94   15.80
  -4   5  -1  603.04   16.60
   4   5   1  591.04   17.20
   4   5   1  598.94   15.60
  -4   5  -1  603.64   17.20
   4   5   1  597.14   18.10
   5  -5   1   13.60    5.20
  -5  -5  -1    0.50    3.60
  -5  -5  -1    5.60    4.30
   5  -5   1   -1.50    3.40
  -5  -5  -1    3.60    4.70
   5  -5   1   13.20    5.40
   5   5   1    2.60    2.80
  -5   5  -1    3.10    4.80
  -5   5  -1    3.00    3.50
   5   5   1   12.80    5.20
   5   5   1    6.90    3.70
   6  -5   1  414.06   12.80
   6  -5   1  420.46   15.80
  -6  -5  -1  417.76   13.30
  -6  -5  -1  410.26   13.90
   6  -5   1  404.86   15.10
   6   5   1  410.46   12.50
  -6   5  -1  446.26   15.30
   6   5   1  405.06   14.70
  -6   5  -1  445.36   15.00
   6   5   1  409.76   15.50
  -7  -5  -1   49.50    6.00
   7  -5   1   47.00    7.10
   7  -5   1   51.59    6.60
   7  -5   1   42.40    5.10
  -7  -5  -1   44.00    6.40
  -7   5  -1   48.40    5.80
  -7   5  -1   43.10    6.90
   7   5   1   49.00    4.90
   7   5   1   45.90    6.80
   7   5   1   48.00    7.00
   8  -5   1   23.30    7.40
  -8  -5  -1   16.90    4.60
   8  -5   1   14.90    5.00
  -8  -5  -1   17.90    6.50
  -8   5  -1   27.40    6.90
  -8   5  -1   20.30    6.70
   8   5   1   11.20    5.10
   8   5   1   15.30    6.40
   9  -5   1  108.89    9.30
  -9  -5  -1   96.19    9.20
   9  -5   1  107.99    9.80
  -9  -5  -1  112.69    9.80
  -9   5  -1  113.19   10.00
   9   5   1  120.39    9.90
  -9   5  -1  112.89    9.60
   9   5   1  105.09    7.90
 -10  -5  -1   25.20    5.80
  10  -5   1   17.30    5.60
 -10  -5  -1   23.20    6.00
  10  -5   1   18.50    8.40
  10   5   1   23.80    7.90
 -10   5  -1   25.80    7.80
  10   5   1   22.30    4.50
 -10   5  -1   38.90    7.90
  11  -5   1  156.98   12.90
  11  -5   1  155.78   11.50
 -11  -5  -1  195.68   13.70
 -11   5  -1  159.78   12.50
  11   5   1  187.98   10.90
  11   5   1  169.78   12.20
 -11   5  -1  162.28   11.60
  10  -6  -1   10.80    8.90
 -10  -6   1    4.00    5.40
 -10   6   1    0.40    7.80
 -10   6   1   15.90    8.40
  10   6  -1    7.20    7.90
  -9  -6   1   18.00    7.60
   9  -6  -1   15.40    8.60
  -9   6   1   32.80    8.30
   9   6  -1   26.00    7.90
  -9   6   1   25.20    8.10
   8  -6  -1   19.60    8.40
  -8  -6   1   29.10    8.00
  -8  -6   1   24.40    7.30
   8   6  -1   21.40    7.30
  -8   6   1   29.60    7.90
  -8   6   1   23.00    5.90
   7  -6  -1  165.48   10.30
  -7  -6   1  155.08   10.70
  -7  -6   1  145.49    9.90
   7  -6  -1  135.29   10.10
  -7   6   1  126.09   10.00
  -7   6   1  142.69   10.60
   7   6  -1  134.09    9.80
   7   6  -1  138.69    7.80
  -6  -6   1   46.50    6.30
   6  -6  -1   46.90    6.50
  -6  -6   1   46.80    6.70
   6  -6  -1   47.70    6.90
  -6   6   1   44.60    7.20
  -6   6   1   56.49    7.90
   6   6  -1   41.90    7.20
   6   6  -1   51.29    5.10
  -5  -6   1  143.59    9.50
   5  -6  -1  149.59    8.30
  -5  -6   1  151.68   10.90
   5  -6  -1  168.68   10.30
  -5   6   1  154.08    9.40
   5   6  -1  151.98    7.70
   5   6  -1  135.79    9.50
  -5   6   1  157.98   10.30
   4  -6  -1   68.99    8.30
  -4  -6   1   74.99    7.30
   4  -6  -1   61.69    6.70
  -4  -6   1   62.99    7.00
  -4  -6   1   50.99    6.00
  -4   6   1   78.29    7.10
  -4   6   1   79.09    7.60
   4   6  -1   61.49    5.10
   4   6  -1   55.49    7.20
   4   6  -1   74.09    7.50
  -3  -6   1   26.20    4.50
   3  -6  -1   38.80    7.10
  -3  -6   1   31.50    5.00
  -3  -6   1   17.70    5.40
   3  -6  -1   24.80    5.60
   3   6  -1   40.90    6.40
  -3   6   1   25.00    4.70
   3   6  -1   26.50    4.10
   3   6  -1   31.60    5.00
  -3   6   1   31.20    5.40
  -2  -6   1   23.10    5.40
  -2  -6   1   18.40    4.40
  -2  -6   1   19.90    5.00
   2  -6  -1   12.00    5.20
   2  -6  -1   25.00    6.20
  -2   6   1   19.90    4.60
   2   6  -1   36.10    5.20
  -2   6   1   24.20    5.30
   2   6  -1   23.30    5.70
   2   6  -1   17.40    4.10
   1  -6  -1   70.59    7.40
  -1  -6   1   72.99    6.20
   1  -6  -1   69.89    6.10
  -1  -6   1   57.69    5.20
  -1  -6   1   63.59    6.40
  -1   6   1   64.79    6.40
   1   6  -1   76.89    6.60
   1   6  -1   77.59    6.00
   1   6  -1   69.49    6.60
   0  -6  -1  179.68   10.40
   0  -6  -1  168.98    9.40
   0  -6   1  157.08    8.20
   0  -6   1  140.89    8.00
   0  -6   1  188.98    9.70
   0  -6   1  170.98   10.30
   0   6  -1  171.18    9.70
   0   6   1  189.88   10.20
   0   6  -1  167.28    8.80
   0   6  -1  176.28    9.30
   0   6  -1  185.18    9.30
   0   6   1  160.08    8.80
   1  -6   1  268.07   12.40
  -1  -6  -1  257.17   10.80
   1  -6   1  266.37   10.20
  -1  -6  -1  258.07   11.90
   1   6   1  259.47   10.30
  -1   6  -1  273.17   10.30
   1   6   1  265.67   12.00
   1   6   1  250.07   10.00
  -1   6  -1  276.67   11.40
  -1   6  -1  259.47   10.90
   2  -6   1   -5.90    5.50
  -2  -6  -1    0.90    5.30
   2  -6   1    1.20    4.40
   2  -6   1   -2.00    3.40
  -2  -6  -1    6.00    4.60
  -2   6  -1    3.50    4.70
   2   6   1   -7.40    5.30
  -2   6  -1    0.50    3.30
   2   6   1   -0.40    4.90
   2   6   1    9.10    4.90
  -3  -6  -1  103.09    8.10
   3  -6   1   96.89    8.20
   3  -6   1  105.39    7.20
  -3  -6  -1  111.29    8.20
  -3  -6  -1  102.59    7.20
   3  -6   1   93.39    7.70
   3   6   1   96.39    8.50
  -3   6  -1  112.79    8.50
   3   6   1  117.09    8.00
   3   6   1   97.59    7.50
  -3   6  -1  102.99    8.00
  -4  -6  -1   -2.50    4.00
   4  -6   1   -6.00    6.20
   4  -6   1    3.50    4.10
   4  -6   1   -1.70    4.00
  -4  -6  -1   -8.00    5.00
  -4  -6  -1    3.50    5.70
   4   6   1    4.20    5.80
  -4   6  -1   -1.40    3.90
  -4   6  -1    0.50    5.20
   4   6   1   -4.90    4.80
  -5  -6  -1    5.10    4.80
  -5  -6  -1    7.40    4.30
   5  -6   1   10.10    4.60
   5  -6   1    1.90    4.90
   5  -6   1   18.10    7.20
  -5   6  -1   -2.90    5.80
   5   6   1    5.60    3.70
   5   6   1    9.60    6.40
  -5   6  -1    8.30    6.00
   6  -6   1   73.99    9.30
  -6  -6  -1   77.89    7.50
   6  -6   1   79.19    7.60
  -6  -6  -1   96.09    8.90
  -6   6  -1   96.89    9.10
  -6   6  -1   77.19    8.40
   6   6   1   73.69    7.10
   6   6   1   68.89    8.50
   7  -6   1   39.40    9.20
  -7  -6  -1   50.29    8.30
  -7  -6  -1   50.79    7.20
   7  -6   1   53.59    6.80
  -7   6  -1   36.30    7.90
  -7   6  -1   39.80    8.00
   7   6   1   50.79    6.60
   7   6   1   55.29    6.90
   8  -6   1   49.10    8.50
  -8  -6  -1   71.49    8.30
   8  -6   1   50.69    9.50
  -8  -6  -1   43.50    8.50
  -8   6  -1   72.19    9.50
   8   6   1   59.39    7.20
  -8   6  -1   65.89    9.10
   8   6   1   57.69    5.90
   9  -6   1   18.80    9.20
  -9  -6  -1   17.30    6.20
   9  -6   1   11.00    7.80
  -9  -6  -1   34.40    7.80
  -9   6  -1   28.60    6.60
   9   6   1   27.70    6.40
  -9   6  -1   28.40    8.30
   9   6   1   17.00    6.10
  -7  -7   1   25.70    7.50
   7   7  -1   49.60    7.10
  -7   7   1   37.30    8.70
  -7   7   1   42.20    6.90
  -6  -7   1   29.80    7.80
   6  -7  -1   25.10    6.90
  -6   7   1   32.70    8.20
   6   7  -1    9.20    7.30
  -6   7   1   22.30    7.50
   5  -7  -1    2.00    5.60
   5  -7  -1    4.20    5.90
  -5  -7   1   -0.30    4.80
   5   7  -1   -0.80    6.80
  -5   7   1   10.30    5.30
  -4  -7   1  132.29    9.90
   4  -7  -1  132.59   11.40
  -4   7   1  148.89   10.10
   4   7  -1  140.49    9.00
   4   7  -1  148.29   10.60
   3  -7  -1    4.20    5.90
  -3  -7   1   10.70    6.10
   3  -7  -1    7.00    7.60
  -3  -7   1    2.10    4.30
  -3   7   1   16.00    6.30
   3   7  -1    7.80    5.60
   3   7  -1   10.40    5.00
  -2  -7   1  223.38   12.30
   2  -7  -1  203.08   12.00
   2  -7  -1  198.18   11.70
  -2  -7   1  204.98   11.70
  -2   7   1  217.18   12.30
   2   7  -1  214.78    9.90
  -2   7   1  212.48   12.20
   2   7  -1  216.38   11.10
  -1  -7   1    1.60    5.70
   1  -7  -1    4.00    6.10
   1   7  -1   13.60    5.70
   1   7  -1    7.80    4.70
  -1   7   1    8.00    6.10
  -1   7   1    1.30    5.30
   0  -7  -1  102.49    8.90
   0  -7   1  113.69    8.80
   0   7   1  111.19    8.90
   0   7  -1  120.89    8.80
  -1  -7  -1   73.89    7.20
   1  -7   1   49.70    6.80
   1  -7   1   62.19    8.50
  -1   7  -1   58.29    6.10
   1   7   1   57.19    8.30
  -1   7  -1   58.29    6.00
   1   7   1   50.59    7.50
  -2  -7  -1   14.80    6.60
  -2  -7  -1    3.50    5.40
   2  -7   1   15.20    7.40
   2  -7   1   10.20    5.50
   2   7   1    7.10    5.80
  -2   7  -1   -2.90    5.60
   2   7   1   12.20    7.20
  -3  -7  -1  210.08   12.30
  -3  -7  -1  203.48   13.20
   3  -7   1  158.48   12.00
  -3   7  -1  207.18   13.00
   3   7   1  200.18   11.60
   3   7   1  214.08   13.60
   4  -7   1    2.30    7.80
  -4  -7  -1    2.00    4.90
  -4  -7  -1    2.80    6.40
  -4   7  -1    7.20    6.60
  -4   7  -1   13.90    6.70
   4   7   1    8.50    7.10
   4   7   1    4.40    4.50
   5  -7   1  161.48   12.70
  -5  -7  -1  180.98   11.10
  -5   7  -1  188.08   11.50
   5   7   1  212.18   12.00
   5   7   1  223.08   14.20
  -5   7  -1  186.98   13.30
   6  -7   1   -0.90    8.50
  -6  -7  -1   16.20    7.70
  -6   7  -1    2.10    7.40
   6   7   1   -3.40    7.40
   6   7   1    6.50    4.60
  -6   7  -1    4.40    7.30
  16   0  -2   11.30    5.90
 -16   0   2    4.40    7.60
 -16   0   2    9.80    6.60
 -15   0   2   16.30    7.30
 -15   0   2    8.30    4.80
  15   0  -2   10.80    6.30
  15   0  -2   16.20    5.80
  14   0  -2    5.70    4.80
 -14   0   2    8.70    4.20
 -14   0   2    7.10    6.40
  14   0  -2   21.30    5.90
 -13   0   2  341.27   14.10
 -13   0   2  326.17   13.10
  13   0  -2  341.57   12.70
  13   0  -2  331.47   13.00
  12   0  -2   70.09    5.70
  12   0  -2   75.49    6.30
 -12   0   2   52.49    6.00
  12   0  -2   66.49    5.40
  12   0  -2   70.89    7.20
 -12   0   2   60.59    6.90
 -11   0   2  403.96   11.70
  11   0  -2  417.56   12.00
  11   0  -2  409.66   12.70
  11   0  -2  445.36   14.20
 -11   0   2  343.47   11.50
  11   0  -2  412.76   10.90
 -11   0   2  436.26   13.00
  11   0  -2  417.56   12.60
 -11   0   2  437.26   13.90
  10   0  -2   49.99    4.50
 -10   0   2   45.50    4.10
 -10   0   2   48.10    4.60
 -10   0   2   45.20    3.70
  10   0  -2   38.80    3.70
  10   0  -2   46.10    3.60
 -10   0   2   43.70    3.40
  10   0  -2   46.90    4.00
  10   0  -2   62.29    5.90
  -9   0   2  129.19    5.30
  -9   0   2  141.39    7.50
   9   0  -2  127.49    5.20
   9   0  -2  140.49    6.60
   9   0  -2  132.09    5.70
  -9   0   2  138.19    6.60
  -9   0   2  136.89    5.20
   9   0  -2  124.29    6.20
   9   0  -2  132.49    7.50
  -8   0   2 1421.96   30.80
   8   0  -2 1449.55   30.80
   8   0  -2 1420.76   29.90
  -8   0   2 1392.36   29.10
   8   0  -2 1381.76   28.80
  -8   0   2 1388.36   30.00
   8   0  -2 1470.55   29.50
   8   0  -2 1442.36   30.60
  -8   0   2 1436.96   29.40
   7   0  -2   49.99    3.30
   7   0  -2   49.99    3.10
   7   0  -2   54.19    4.10
  -7   0   2   53.49    3.50
  -7   0   2   44.60    2.90
   7   0  -2   45.60    3.50
   7   0  -2   47.80    2.80
  -7   0   2   46.10    2.90
  -7   0   2   62.59    4.20
   6   0  -2 3439.96   67.89
   6   0  -2 3539.05   69.39
  -6   0   2 3533.95   68.29
   6   0  -2 3487.15   68.49
   6   0  -2 3475.95   68.19
  -6   0   2 3411.66   69.09
   6   0  -2 3660.63   69.39
  -6   0   2 3523.95   68.69
  -6   0   2 3520.05   69.29
  -6   0   2 3526.95   68.19
  -5   0   2  118.59    4.10
  -5   0   2  116.39    3.70
   5   0  -2  127.39    4.60
  -5   0   2  117.29    4.30
  -5   0   2  115.39    3.70
   5   0  -2  126.99    3.60
   5   0  -2  122.29    3.80
  -5   0   2  117.09    4.60
   5   0  -2  126.89    3.70
   5   0  -2  128.49    4.50
  -4   0   2 2979.70   56.99
   4   0  -2 2918.71   56.79
   4   0  -2 2951.60   56.99
  -4   0   2 2881.71   56.89
  -4   0   2 2914.51   57.59
  -4   0   2 2949.51   57.69
   4   0  -2 2957.10   57.69
   4   0  -2 3031.50   56.79
   4   0  -2 2927.21   57.59
  -4   0   2 2922.91   57.09
  -3   0   2   35.70    1.60
   3   0  -2   31.40    1.80
   3   0  -2   27.50    1.70
  -3   0   2   31.50    1.90
  -3   0   2   31.60    1.80
   3   0  -2   34.00    1.40
   3   0  -2   30.90    1.50
  -3   0   2   31.70    1.50
  -3   0   2   30.60    1.70
   3   0  -2   31.40    1.40
   2   0  -2 1562.14   30.00
  -2   0   2 1571.74   30.30
  -2   0   2 1541.35   30.80
  -2   0   2 1583.54   30.30
   2   0  -2 1554.64   30.50
  -2   0   2 1551.34   30.70
  -2   0   2 1556.04   30.50
   2   0  -2 1567.94   30.80
   2   0  -2 1575.54   30.30
   1   0  -2 1408.56   27.60
  -1   0   2 1406.96   27.40
   1   0  -2 1419.96   27.20
   1   0  -2 1408.96   27.10
   1   0  -2 1411.66   27.50
  -1   0   2 1410.26   27.50
  -1   0   2 1363.46   27.10
  -1   0   2 1408.06   27.30
   0   0  -2   49.30    1.50
   0   0   2   49.50    1.50
   0   0  -2   47.80    1.40
   0   0   2   47.10    1.50
   0   0   2   50.19    1.50
   0   0  -2   47.80    1.40
   0   0   2   48.30    1.30
   0   0  -2   47.60    1.30
  -1   0  -2 9999.00  186.58
   1   0   2 9777.22  187.38
   1   0   2 9682.73  188.08
   1   0   2 9541.34  186.78
  -1   0  -2 9555.54  188.38
  -1   0  -2 9600.24  187.68
   2   0   2 3828.12   76.79
  -2   0  -2 3838.12   75.39
   2   0   2 3773.82   73.49
   2   0   2 3844.92   74.49
   2   0   2 3863.11   75.29
  -2   0  -2 3842.82   76.09
  -2   0  -2 3761.52   75.49
  -3   0  -2 1466.85   29.70
   3   0   2 1524.75   30.00
   3   0   2 1457.55   29.50
   3   0   2 1503.25   29.70
  -3   0  -2 1518.05   29.80
   3   0   2 1533.05   30.00
   3   0   2 1520.75   29.50
  -4   0  -2   39.80    2.50
   4   0   2   40.50    2.10
   4   0   2   44.40    2.80
   4   0   2   43.30    2.50
  -4   0  -2   37.80    2.30
  -4   0  -2   37.80    2.40
   4   0   2   41.10    2.00
   5   0   2  180.08    5.20
   5   0   2  183.68    5.10
  -5   0  -2  177.88    5.30
   5   0   2  192.38    6.10
   5   0   2  182.58    6.10
  -5   0  -2  179.48    5.60
  -5   0  -2  174.98    5.50
  -6   0  -2 2299.87   46.40
   6   0   2 2303.77   46.80
  -6   0  -2 2276.27   46.30
   6   0   2 2321.67   45.80
   6   0   2 2358.06   46.70
   6   0   2 2320.17   45.90
  -6   0  -2 2317.67   46.10
   7   0   2  275.87    7.50
  -7   0  -2  274.77    7.30
  -7   0  -2  284.67    8.40
   7   0   2  278.47    8.30
  -7   0  -2  275.67    7.90
   7   0   2  276.47    7.70
  -7   0  -2  284.57    8.50
   7   0   2  282.37    9.10
   8   0   2  637.24   15.40
   8   0   2  598.94   14.40
  -8   0  -2  613.44   15.30
   8   0   2  634.14   15.70
  -8   0  -2  587.34   13.80
  -8   0  -2  614.34   14.80
   8   0   2  639.44   16.10
   8   0   2  610.04   14.20
  -8   0  -2  606.14   15.10
   9   0   2  194.58    6.60
   9   0   2  204.38    8.30
  -9   0  -2  202.68    8.30
   9   0   2  187.28    6.80
   9   0   2  194.78    8.40
  -9   0  -2  193.98    7.20
  -9   0  -2  180.28    6.00
   9   0   2  187.28    7.80
  -9   0  -2  193.28    7.20
  10   0   2  488.75   13.40
  10   0   2  498.75   13.90
 -10   0  -2  513.55   14.60
 -10   0  -2  529.45   14.10
  10   0   2  484.25   14.60
 -10   0  -2  522.35   14.50
  10   0   2  522.25   15.40
  11   0   2   35.90    5.30
 -11   0  -2   35.90    4.90
  11   0   2   41.60    4.70
 -11   0  -2   29.90    5.20
 -11   0  -2   40.50    4.40
  11   0   2   35.50    6.00
  12   0   2   21.60    5.40
  12   0   2   19.90    6.30
 -12   0  -2   34.50    5.80
  12   0   2   28.60    4.80
  13   0   2  207.98   11.60
  13   0   2  194.48   11.20
  13   0   2  194.28   12.30
  14   0   2   24.80    7.10
  14   0   2   19.10    6.30
 -14   0  -2   10.90    6.40
  14   0   2   19.50    7.40
 -14   0  -2   28.90    7.30
  15   0   2  153.38   10.80
  15   0   2  196.18   13.00
 -15   0  -2  173.08   12.10
  16  -1  -2   86.39   10.50
 -16  -1   2   66.19    9.10
 -16   1   2   70.39   10.10
  16   1  -2   68.49    9.80
  16   1  -2   65.89    8.00
 -16   1   2   60.09    8.20
 -15  -1   2  100.99    8.40
  15  -1  -2   99.19   10.30
 -15   1   2   98.49    8.60
 -15   1   2  111.49   10.50
  15   1  -2   96.19    8.20
  15   1  -2   81.79    9.70
  14  -1  -2   66.29    8.80
 -14  -1   2   55.59    7.90
 -14  -1   2   77.79    8.20
  14   1  -2   55.89    6.70
 -14   1   2   61.89    7.20
  14   1  -2   72.79    8.70
 -14   1   2   57.89    6.90
 -13  -1   2   14.50    5.90
  13  -1  -2   24.30    5.30
 -13  -1   2   16.10    5.90
 -13  -1   2   24.30    4.80
  13  -1  -2   18.00    6.70
  13   1  -2   15.40    4.90
 -13   1   2   22.10    4.20
  13   1  -2   18.90    5.00
  13   1  -2   11.90    5.00
 -13   1   2   18.90    6.70
  12  -1  -2    5.30    4.30
 -12  -1   2   14.40    5.20
 -12  -1   2    5.80    3.90
 -12  -1   2   14.10    5.20
  12  -1  -2    4.20    4.20
  12   1  -2    9.20    3.40
  12   1  -2    8.20    4.40
 -12   1   2   14.00    3.70
 -12   1   2    9.50    4.30
 -12   1   2    6.10    5.70
  12   1  -2   13.60    5.60
  12   1  -2    9.10    4.30
  11  -1  -2  208.58    9.00
  11  -1  -2  199.68    8.30
 -11  -1   2  223.78   10.00
 -11  -1   2  212.18    9.70
 -11  -1   2  208.68    8.50
  11  -1  -2  238.78   11.10
  11   1  -2  211.98    9.60
 -11   1   2  205.28   10.50
  11   1  -2  217.88   10.30
  11   1  -2  215.68    8.10
 -11   1   2  200.28    8.20
 -11   1   2  207.18    8.70
  11   1  -2  197.08    7.70
 -10  -1   2  361.16   10.90
  10  -1  -2  378.96   11.10
  10  -1  -2  361.36   11.50
  10  -1  -2  370.26   11.20
 -10  -1   2  356.26   11.90
 -10  -1   2  357.66   11.80
  10  -1  -2  362.36   12.50
 -10   1   2  368.76   12.50
  10   1  -2  348.37   10.60
  10   1  -2  366.46   12.20
  10   1  -2  348.37    9.80
 -10   1   2  336.77   10.40
  10   1  -2  340.97   11.20
   9  -1  -2  978.10   22.90
   9  -1  -2  974.10   21.60
   9  -1  -2  901.11   19.30
   9  -1  -2  939.01   21.80
  -9  -1   2  897.71   19.60
  -9  -1   2  967.50   22.20
   9  -1  -2  934.91   20.70
  -9  -1   2  951.10   22.20
   9  -1  -2  942.11   21.60
  -9  -1   2  984.20   21.60
  -9   1   2  906.11   19.60
   9   1  -2  946.01   20.80
  -9   1   2  910.01   21.00
   9   1  -2  929.31   22.10
   9   1  -2  956.90   22.50
  -9   1   2  950.20   22.60
   8  -1  -2  405.96   10.90
   8  -1  -2  380.96   11.80
  -8  -1   2  396.46   10.90
   8  -1  -2  408.16   10.90
   8  -1  -2  384.46   10.20
   8  -1  -2  418.26   11.20
  -8  -1   2  405.96   11.30
   8  -1  -2  379.46    8.90
  -8  -1   2  396.16   11.40
  -8   1   2  398.96    9.10
   8   1  -2  413.66   10.40
   8   1  -2  383.46    9.60
  -8   1   2  400.56   11.70
   8   1  -2  402.56   11.60
  -8   1   2  392.86   10.50
   8   1  -2  402.76   11.70
  -7  -1   2  363.46    8.60
   7  -1  -2  363.46    8.30
  -7  -1   2  356.46   10.00
  -7  -1   2  397.76   10.60
   7  -1  -2  366.96    9.90
   7  -1  -2  390.36   11.00
   7  -1  -2  383.76    9.50
   7  -1  -2  376.56    9.90
  -7  -1   2  390.46   10.40
   7   1  -2  379.56   10.30
   7   1  -2  404.26   10.70
  -7   1   2  373.66    9.60
   7   1  -2  388.16    9.60
  -7   1   2  388.26   10.90
  -7   1   2  375.36    8.40
  -6  -1   2  131.89    3.90
  -6  -1   2  131.19    5.20
   6  -1  -2  136.49    4.70
  -6  -1   2  128.59    4.70
   6  -1  -2  129.09    5.70
   6  -1  -2  144.19    4.80
   6  -1  -2  131.99    4.70
   6  -1  -2  126.19    3.50
  -6  -1   2  131.19    5.40
  -6   1   2  127.99    5.50
  -6   1   2  129.39    4.70
   6   1  -2  122.99    4.40
  -6   1   2  125.49    3.40
  -6   1   2  127.69    4.80
   6   1  -2  140.99    5.30
   6   1  -2  134.29    5.60
  -5  -1   2  134.09    3.70
   5  -1  -2  134.49    3.50
  -5  -1   2  136.09    4.80
  -5  -1   2  138.49    4.70
   5  -1  -2  131.19    5.20
  -5  -1   2  143.09    5.00
   5  -1  -2  142.49    4.80
   5  -1  -2  144.89    4.70
   5  -1  -2  136.09    4.60
  -5   1   2  144.89    5.30
   5   1  -2  139.59    4.00
  -5   1   2  130.59    3.20
   5   1  -2  145.99    5.30
   5   1  -2  138.79    5.10
  -5   1   2  126.59    4.40
  -5   1   2  140.09    4.50
   4  -1  -2 2019.00   38.40
   4  -1  -2 1950.20   39.80
   4  -1  -2 1969.30   39.50
  -4  -1   2 2008.20   39.70
  -4  -1   2 1978.40   40.10
   4  -1  -2 2031.90   39.60
  -4  -1   2 1953.50   38.60
  -4  -1   2 2041.70   39.80
   4  -1  -2 1965.80   39.40
  -4  -1   2 1991.40   39.70
   4   1  -2 1977.00   38.80
   4   1  -2 2038.80   39.60
   4   1  -2 2015.20   40.10
  -4   1   2 1970.70   39.80
  -4   1   2 1978.50   39.50
  -4   1   2 2007.00   39.50
  -3  -1   2 1520.65   29.90
   3  -1  -2 1571.04   31.10
  -3  -1   2 1574.54   31.20
   3  -1  -2 1569.04   30.20
  -3  -1   2 1538.85   31.50
   3  -1  -2 1586.94   31.30
  -3  -1   2 1574.54   31.20
  -3  -1   2 1561.94   30.40
  -3  -1   2 1534.25   31.10
   3  -1  -2 1559.24   31.10
  -3   1   2 1560.74   31.10
   3   1  -2 1580.64   31.00
   3   1  -2 1518.15   30.30
  -3   1   2 1551.94   31.00
  -3   1   2 1587.74   31.30
   3   1  -2 1592.94   31.50
  -2  -1   2 3428.76   67.39
   2  -1  -2 3491.55   66.69
  -2  -1   2 3543.75   67.89
   2  -1  -2 3450.05   66.09
  -2  -1   2 3391.76   68.19
  -2  -1   2 3339.97   67.89
   2  -1  -2 3318.47   65.99
   2  -1  -2 3404.06   69.19
  -2  -1   2 3447.95   66.09
   2   1  -2 3451.65   66.89
  -2   1   2 3335.27   67.39
  -2   1   2 3402.06   67.49
   2   1  -2 3402.36   66.99
   2   1  -2 3443.16   68.29
  -2   1   2 3480.75   67.69
  -1  -1   2 3645.64   72.39
   1  -1  -2 3661.03   71.69
  -1  -1   2 3735.83   72.29
  -1  -1   2 3605.44   72.89
   1  -1  -2 3572.64   72.69
  -1  -1   2 3711.13   71.59
   1  -1  -2 3614.34   70.39
  -1  -1   2 3565.04   73.09
  -1  -1   2 3734.83   70.39
   1   1  -2 3656.03   72.29
  -1   1   2 3719.53   73.29
  -1   1   2 3610.44   71.59
   1   1  -2 3731.23   73.29
  -1   1   2 3678.73   72.49
   1   1  -2 3586.34   72.79
   0  -1   2    8.80    1.10
   0  -1   2   12.00    1.10
   0  -1  -2   11.70    1.20
   0  -1   2    9.40    1.00
   0  -1   2    8.00    1.00
   0  -1   2    7.40    0.70
   0  -1  -2    9.50    1.10
   0  -1   2    9.10    0.80
   0  -1  -2    9.10    0.80
   0   1   2    8.60    1.10
   0   1  -2   10.80    0.90
   0   1   2   10.30    1.00
   0   1  -2    9.00    1.00
   0   1   2   10.10    0.60
   0   1  -2    9.60    0.90
  -1  -1  -2   10.80    1.30
   1  -1   2   11.50    1.20
  -1  -1  -2   12.50    1.20
   1  -1   2    9.60    1.20
  -1  -1  -2   11.00    1.30
   1  -1   2    9.90    1.30
   1  -1   2   10.30    0.70
   1  -1   2   12.30    1.40
  -1   1  -2   11.20    0.80
  -1   1  -2   10.60    1.00
   1   1   2    9.80    0.90
  -1   1  -2   10.80    0.70
   1   1   2   13.50    1.30
   2  -1   2  828.12   17.20
   2  -1   2  835.52   16.60
   2  -1   2  843.22   17.20
  -2  -1  -2  813.22   17.10
  -2  -1  -2  829.82   17.00
   2  -1   2  822.02   17.00
  -2  -1  -2  811.92   15.90
   2  -1   2  816.82   17.00
  -2  -1  -2  820.82   16.90
   2   1   2  835.32   16.90
  -2   1  -2  812.22   17.10
  -2   1  -2  779.12   16.00
  -2   1  -2  832.72   16.60
   2   1   2  827.62   17.00
   2   1   2  819.02   16.10
   2   1   2  817.52   16.00
  -3  -1  -2  765.52   16.20
   3  -1   2  764.22   16.00
   3  -1   2  752.72   16.10
   3  -1   2  770.12   16.20
   3  -1   2  759.72   16.30
  -3  -1  -2  755.22   15.90
   3  -1   2  758.02   15.80
  -3  -1  -2  725.93   15.10
  -3  -1  -2  734.23   15.90
   3   1   2  752.72   16.10
  -3   1  -2  739.53   16.10
  -3   1  -2  762.42   15.50
  -3   1  -2  735.93   14.80
   3   1   2  759.02   15.90
  -4  -1  -2 1559.64   31.60
  -4  -1  -2 1553.54   30.80
   4  -1   2 1589.54   31.50
  -4  -1  -2 1559.24   31.70
   4  -1   2 1567.24   30.40
   4  -1   2 1521.25   31.50
   4  -1   2 1582.14   31.90
   4  -1   2 1551.14   31.60
   4  -1   2 1535.35   31.70
   4   1   2 1540.05   31.60
   4   1   2 1583.94   31.50
   4   1   2 1520.95   30.50
  -4   1  -2 1557.74   30.90
  -4   1  -2 1580.64   31.80
   5  -1   2  460.05   11.50
   5  -1   2  479.65   11.70
   5  -1   2  470.25   11.70
   5  -1   2  458.05    9.80
   5  -1   2  458.95   11.20
  -5  -1  -2  467.15   11.30
  -5  -1  -2  476.35   10.70
  -5  -1  -2  467.05   11.40
   5   1   2  479.25   11.60
  -5   1  -2  452.75   11.40
   5   1   2  479.65   11.40
   5   1   2  460.95   10.00
  -5   1  -2  459.25   10.50
   5   1   2  462.65   11.20
   6  -1   2  735.63   17.30
  -6  -1  -2  737.33   16.50
  -6  -1  -2  715.53   15.10
  -6  -1  -2  753.32   17.20
  -6  -1  -2  787.32   17.40
   6  -1   2  724.13   15.60
   6  -1   2  775.42   17.10
   6  -1   2  772.82   17.60
   6  -1   2  743.03   17.60
  -6   1  -2  790.82   17.60
  -6   1  -2  798.82   16.60
   6   1   2  760.52   16.90
   6   1   2  742.83   17.10
   6   1   2  751.12   15.70
  -6   1  -2  750.62   16.10
   6   1   2  760.12   17.50
   7  -1   2   65.59    3.80
   7  -1   2   73.09    4.60
  -7  -1  -2   58.99    4.00
   7  -1   2   64.59    4.80
   7  -1   2   67.89    4.60
  -7  -1  -2   60.19    2.40
   7  -1   2   64.39    3.10
  -7  -1  -2   67.99    4.70
  -7  -1  -2   71.49    4.30
  -7   1  -2   63.19    3.30
   7   1   2   60.79    4.50
  -7   1  -2   74.59    4.90
  -7   1  -2   74.59    4.10
   7   1   2   63.59    3.00
   7   1   2   65.79    4.50
   7   1   2   73.49    4.90
  -8  -1  -2   33.90    3.50
   8  -1   2   22.50    4.20
  -8  -1  -2   32.10    3.80
   8  -1   2   21.50    4.20
   8  -1   2   21.50    4.00
  -8  -1  -2   23.50    3.20
   8  -1   2   22.40    2.10
   8  -1   2   23.30    3.30
   8   1   2   25.20    3.80
   8   1   2   30.70    3.60
  -8   1  -2   24.00    2.50
  -8   1  -2   22.30    3.10
  -8   1  -2   20.20    3.90
   8   1   2   22.40    4.20
  -8   1  -2   23.90    3.10
   8   1   2   22.40    1.90
   9  -1   2   80.59    6.20
  -9  -1  -2   70.49    5.60
  -9  -1  -2   66.69    5.30
   9  -1   2   72.09    5.20
  -9  -1  -2   65.49    5.00
   9  -1   2   76.49    5.00
   9  -1   2   74.89    5.30
   9   1   2   68.79    4.60
  -9   1  -2   66.29    4.10
  -9   1  -2   68.29    4.60
   9   1   2   68.39    5.50
   9   1   2   77.39    6.10
  -9   1  -2   67.69    4.50
  -9   1  -2   67.99    5.80
  10  -1   2  248.58    8.90
  10  -1   2  238.88   10.50
 -10  -1  -2  257.27    9.70
  10  -1   2  238.28   10.30
 -10  -1  -2  249.08    9.30
  10  -1   2  251.17   10.40
  10   1   2  230.08    8.70
 -10   1  -2  245.88    8.50
  10   1   2  245.48    9.20
 -10   1  -2  246.48    9.00
 -10   1  -2  241.38    9.50
  10   1   2  236.08    9.40
  11  -1   2  118.49    8.10
  11  -1   2  128.39    7.00
 -11  -1  -2  118.39    7.60
 -11  -1  -2  109.29    7.80
  11  -1   2  114.49    8.10
 -11  -1  -2  111.09    7.80
  11  -1   2  120.59    8.40
  11   1   2  114.99    8.20
 -11   1  -2  129.29    7.50
 -11   1  -2  130.39    9.20
  11   1   2  112.59    7.40
  11   1   2  117.89    7.20
 -11   1  -2  112.69    6.50
  11   1   2  115.59    6.50
 -12  -1  -2  105.99    7.40
  12  -1   2  128.29    9.20
  12  -1   2  102.49    8.30
 -12  -1  -2  114.79    8.80
  12  -1   2  122.99    8.70
 -12   1  -2  102.39    6.90
 -12   1  -2  117.39    8.90
  12   1   2  101.99    7.00
  12   1   2  107.29    7.30
  12   1   2  102.69    7.50
  13  -1   2   50.89    7.30
  13  -1   2   48.50    7.50
  13  -1   2   50.59    7.70
 -13  -1  -2   39.50    6.00
 -13  -1  -2   33.80    7.30
  13   1   2   51.59    7.90
  13   1   2   43.30    6.90
 -13   1  -2   37.00    5.80
  13   1   2   41.40    6.10
 -14  -1  -2    8.20    6.90
  14  -1   2   10.90    7.20
  14  -1   2   15.80    5.10
  14  -1   2   -4.20    4.70
  14   1   2    7.70    5.20
 -14   1  -2    6.90    6.80
  14   1   2    9.40    4.80
  15  -1   2    4.10    5.30
  15  -1   2   12.90    7.10
  15  -1   2    2.50    5.30
 -15  -1  -2   17.80    8.00
 -15   1  -2   16.40    7.10
  15   1   2    3.80    7.80
 -15   1  -2   -5.60    6.90
  15   1   2    6.70    6.90
  15  -2  -2   -1.80    5.40
 -15  -2   2   -3.10    7.20
 -15   2   2   -2.70    7.80
  15   2  -2    0.10    7.40
 -14  -2   2   97.19    8.20
  14  -2  -2  100.59   10.40
  14  -2  -2  106.79    9.00
 -14  -2   2  117.09    8.80
 -14   2   2  137.79   11.10
  14   2  -2  116.39    8.80
  14   2  -2  114.39    8.00
 -13  -2   2   20.70    7.30
  13  -2  -2    5.50    6.70
 -13  -2   2   10.10    6.20
  13  -2  -2   14.50    5.80
 -13  -2   2    8.10    5.20
 -13   2   2    7.80    6.80
 -13   2   2    7.20    4.70
  13   2  -2   15.50    5.00
  13   2  -2    6.10    6.40
  13   2  -2   10.10    4.40
  13   2  -2    3.90    5.20
 -13   2   2    5.20    4.40
 -12  -2   2  373.86   14.00
  12  -2  -2  349.07   13.60
 -12  -2   2  344.87   12.80
 -12  -2   2  355.26   13.20
  12  -2  -2  342.97   13.30
  12   2  -2  339.87   12.70
 -12   2   2  370.96   12.40
  12   2  -2  363.86   11.80
  12   2  -2  326.17   12.50
 -12   2   2  342.07   13.10
  11  -2  -2    5.00    4.40
 -11  -2   2    0.00    4.20
 -11  -2   2    2.60    3.40
  11  -2  -2    2.70    3.90
 -11  -2   2    2.00    2.90
 -11   2   2    4.20    5.20
  11   2  -2    2.60    3.50
  11   2  -2    1.80    4.90
  11   2  -2    5.90    4.40
 -11   2   2    4.10    4.00
 -10  -2   2  113.09    7.80
 -10  -2   2  122.39    7.50
  10  -2  -2  101.99    7.80
  10  -2  -2  110.09    6.70
 -10  -2   2  113.89    7.30
  10  -2  -2  103.09    6.30
 -10   2   2  101.39    6.90
  10   2  -2  116.59    6.80
 -10   2   2  108.29    7.60
  10   2  -2  102.19    6.70
  10   2  -2  114.39    6.30
   9  -2  -2    6.60    3.60
  -9  -2   2    1.80    2.60
   9  -2  -2    1.30    3.10
  -9  -2   2    2.90    3.40
   9  -2  -2    3.30    4.10
  -9  -2   2    4.30    3.60
   9  -2  -2    0.30    2.10
  -9   2   2    4.20    3.30
   9   2  -2    3.10    4.00
   9   2  -2    1.60    2.80
   9   2  -2    3.00    3.60
  -9   2   2    0.70    4.00
   8  -2  -2   -0.40    3.40
   8  -2  -2   13.30    3.20
  -8  -2   2    6.60    3.40
   8  -2  -2    7.40    3.40
  -8  -2   2    8.90    3.30
   8  -2  -2   10.10    2.30
  -8  -2   2    3.40    3.20
  -8   2   2    3.50    2.60
  -8   2   2    3.60    3.10
   8   2  -2    8.50    2.60
   8   2  -2    5.60    3.60
   8   2  -2    6.80    2.60
   7  -2  -2 1059.59   23.00
   7  -2  -2 1048.00   23.50
  -7  -2   2 1060.59   23.50
  -7  -2   2  996.50   22.00
  -7  -2   2 1091.39   24.00
   7  -2  -2 1069.49   24.40
   7  -2  -2 1073.69   23.90
  -7  -2   2 1057.39   23.80
   7   2  -2 1066.39   24.40
   7   2  -2 1053.99   22.30
  -7   2   2 1080.49   23.70
   7   2  -2 1066.19   23.80
  -7   2   2 1085.09   24.30
   6  -2  -2  242.88    7.10
  -6  -2   2  240.48    8.00
   6  -2  -2  237.48    7.70
   6  -2  -2  231.08    7.90
   6  -2  -2  246.48    8.30
  -6  -2   2  254.67    8.00
  -6  -2   2  241.58    7.50
  -6  -2   2  241.38    6.50
   6   2  -2  242.38    7.50
   6   2  -2  246.18    8.00
  -6   2   2  226.58    7.30
   6   2  -2  229.68    6.60
  -6   2   2  225.48    6.60
  -6   2   2  247.38    8.20
  -5  -2   2 1530.75   30.50
  -5  -2   2 1537.95   31.40
   5  -2  -2 1506.25   32.00
  -5  -2   2 1507.75   31.80
   5  -2  -2 1565.44   32.00
   5  -2  -2 1531.05   31.60
   5  -2  -2 1560.04   31.40
   5  -2  -2 1547.95   31.80
  -5  -2   2 1485.25   31.80
   5  -2  -2 1487.95   29.50
   5   2  -2 1558.14   31.70
   5   2  -2 1532.65   30.60
  -5   2   2 1480.05   29.40
   5   2  -2 1582.34   32.50
  -5   2   2 1500.75   30.90
  -5   2   2 1531.05   31.90
  -5   2   2 1531.55   31.80
  -4  -2   2  584.84   13.40
   4  -2  -2  574.24   13.20
   4  -2  -2  559.04   13.10
   4  -2  -2  570.94   13.50
  -4  -2   2  544.65   12.10
  -4  -2   2  571.84   11.40
  -4  -2   2  566.34   13.30
   4   2  -2  570.34   12.20
  -4   2   2  555.94   13.20
  -4   2   2  561.44   12.60
  -4   2   2  562.54   13.20
   4   2  -2  582.14   13.70
   4   2  -2  573.44   13.00
  -4   2   2  547.75   10.90
   3  -2  -2  524.15   12.10
  -3  -2   2  513.05   10.90
  -3  -2   2  528.45   12.30
   3  -2  -2  530.15   12.40
   3  -2  -2  518.15   10.50
  -3  -2   2  527.45   12.30
  -3  -2   2  521.55   11.40
   3  -2  -2  528.75   12.10
   3   2  -2  514.45   11.20
   3   2  -2  539.15   12.60
  -3   2   2  526.75   12.20
  -3   2   2  544.85   11.90
  -3   2   2  524.75   10.10
   3   2  -2  525.55   11.90
  -3   2   2  524.15   12.00
   2  -2  -2  345.57    8.80
  -2  -2   2  341.47    8.60
  -2  -2   2  353.26    8.10
  -2  -2   2  350.16    7.90
   2  -2  -2  356.36    8.50
   2  -2  -2  340.77    7.50
  -2  -2   2  355.26    8.40
  -2  -2   2  347.07    7.90
  -2  -2   2  336.17    8.40
  -2   2   2  336.97    8.20
   2   2  -2  354.76    8.70
   2   2  -2  354.26    8.30
  -2   2   2  350.86    8.60
   2   2  -2  331.47    7.70
  -2   2   2  344.47    8.40
  -1  -2   2    7.30    1.10
  -1  -2   2    8.80    1.40
  -1  -2   2    9.00    1.30
   1  -2  -2    8.70    1.10
   1  -2  -2    5.10    1.60
   1  -2  -2    7.90    0.80
  -1  -2   2    7.30    1.30
   1  -2  -2    7.50    1.40
  -1  -2   2    8.10    1.30
  -1  -2   2    6.30    1.50
  -1   2   2    7.00    1.40
   1   2  -2    5.90    1.40
  -1   2   2    9.70    1.20
   0  -2   2 2395.06   47.50
   0  -2   2 2430.86   47.50
   0  -2   2 2427.66   47.40
   0  -2  -2 2423.96   47.80
   0  -2  -2 2435.96   46.70
   0  -2   2 2372.36   47.10
   0  -2   2 2409.36   47.60
   0  -2  -2 2441.66   47.80
   0  -2  -2 2395.26   47.30
   0  -2   2 2382.26   47.30
   0   2   2 2401.76   46.70
   0   2   2 2419.86   47.20
   0   2  -2 2444.26   47.30
  -1  -2  -2   61.59    3.20
   1  -2   2   56.49    2.30
   1  -2   2   58.39    2.80
  -1  -2  -2   55.39    2.70
  -1  -2  -2   56.99    2.40
   1  -2   2   63.89    3.30
   1  -2   2   55.29    2.70
   1   2   2   65.39    3.00
   1   2   2   58.59    2.30
  -1   2  -2   56.29    2.30
   1   2   2   61.29    1.80
  -1   2  -2   57.59    2.10
  -1   2  -2   56.89    2.20
   2  -2   2 2864.21   56.79
   2  -2   2 2915.51   57.09
   2  -2   2 2905.31   57.09
  -2  -2  -2 2953.30   57.09
  -2  -2  -2 2831.92   56.39
  -2  -2  -2 2870.81   56.89
   2  -2   2 2858.91   55.99
   2   2   2 2869.11   55.59
  -2   2  -2 2874.61   55.49
  -2   2  -2 2894.21   55.99
  -2   2  -2 2884.81   56.99
   2   2   2 2970.30   56.69
   2   2   2 2844.12   56.89
  -3  -2  -2  166.78    5.70
  -3  -2  -2  157.98    5.50
  -3  -2  -2  158.18    5.20
   3  -2   2  157.28    5.40
   3  -2   2  163.88    4.60
   3  -2   2  168.08    5.90
   3  -2   2  159.18    5.20
  -3   2  -2  164.78    5.70
   3   2   2  160.38    3.80
  -3   2  -2  162.58    3.80
   3   2   2  158.88    5.30
  -3   2  -2  156.68    3.60
   3   2   2  168.68    5.70
  -3   2  -2  169.38    4.50
  -4  -2  -2  916.31   19.90
   4  -2   2  918.41   20.50
  -4  -2  -2  925.71   20.30
   4  -2   2  914.11   20.00
   4  -2   2  910.81   20.20
  -4  -2  -2  936.71   20.10
   4  -2   2  889.61   18.90
   4  -2   2  908.31   19.60
   4   2   2  931.01   20.10
  -4   2  -2  881.21   17.70
  -4   2  -2  935.31   20.40
   4   2   2  938.61   19.70
  -4   2  -2  871.11   17.50
  -4   2  -2  921.81   18.80
  -5  -2  -2  565.64   12.40
  -5  -2  -2  561.74   14.00
   5  -2   2  582.54   14.30
   5  -2   2  597.44   14.40
  -5  -2  -2  572.44   14.10
   5  -2   2  584.34   13.80
   5   2   2  582.04   14.30
  -5   2  -2  587.44   12.70
  -5   2  -2  546.05   11.20
   5   2   2  581.44   14.50
  -5   2  -2  582.14   14.40
   5   2   2  598.74   13.80
  -6  -2  -2  112.69    5.90
   6  -2   2  106.29    6.20
   6  -2   2  107.49    5.60
  -6  -2  -2  111.99    5.90
  -6  -2  -2  104.69    4.30
   6  -2   2  107.59    5.90
  -6   2  -2  104.99    5.20
   6   2   2  101.49    5.90
   6   2   2   99.39    5.10
  -6   2  -2  103.59    4.10
   6   2   2  108.29    3.20
   6   2   2  106.39    4.80
  -7  -2  -2 1790.12   38.40
  -7  -2  -2 1753.12   36.70
  -7  -2  -2 1815.32   38.50
   7  -2   2 1858.61   38.40
   7  -2   2 1818.42   38.80
   7  -2   2 1783.82   38.00
  -7   2  -2 1815.22   36.50
  -7   2  -2 1830.52   38.60
   7   2   2 1775.72   38.30
   7   2   2 1830.72   38.60
   7   2   2 1756.92   37.40
   8  -2   2   84.79    5.90
   8  -2   2   98.89    6.70
  -8  -2  -2   99.99    7.00
  -8  -2  -2   95.99    6.40
   8  -2   2   93.09    6.40
  -8  -2  -2   90.69    5.50
   8  -2   2  107.59    6.90
  -8   2  -2   95.59    5.30
  -8   2  -2   91.99    4.70
   8   2   2   90.89    5.60
   8   2   2   90.49    6.40
  -8   2  -2  101.89    7.10
   8   2   2   95.19    5.60
   9  -2   2  568.94   15.90
   9  -2   2  541.75   16.20
   9  -2   2  572.64   16.50
   9  -2   2  577.14   15.60
  -9  -2  -2  555.24   15.40
  -9  -2  -2  579.44   16.30
  -9  -2  -2  560.84   14.70
   9   2   2  576.94   15.20
   9   2   2  564.64   16.10
   9   2   2  565.74   15.90
  -9   2  -2  590.04   16.60
  -9   2  -2  564.14   13.90
  -9   2  -2  557.14   15.20
  10  -2   2    6.60    5.00
  10  -2   2    6.10    4.90
  10  -2   2    4.40    4.00
 -10  -2  -2    4.30    4.80
 -10  -2  -2   12.90    4.70
  10   2   2    4.20    5.00
 -10   2  -2    6.50    5.10
 -10   2  -2   10.30    3.90
 -10   2  -2    9.70    3.00
  10   2   2    6.80    4.00
  10   2   2    4.70    4.40
 -11  -2  -2  130.79    9.00
  11  -2   2  124.99    7.70
 -11  -2  -2  148.19    9.80
  11  -2   2  128.39    8.60
 -11   2  -2  129.99    8.60
 -11   2  -2  153.28    8.20
  11   2   2  144.99    8.80
  11   2   2  121.69    8.50
  11   2   2  121.29    8.70
 -12  -2  -2  148.59    9.30
  12  -2   2  146.49   10.00
  12  -2   2  138.69    7.70
 -12  -2  -2  144.59    9.90
  12  -2   2  131.19    9.20
  12   2   2  168.78   10.60
  12   2   2  152.88    9.40
 -12   2  -2  147.29   10.40
  12   2   2  147.19    9.70
 -12   2  -2  144.89    8.50
  13  -2   2   -2.30    6.60
 -13  -2  -2    5.10    6.60
 -13  -2  -2   -0.40    3.80
  13  -2   2    3.30    6.50
  13   2   2   -2.30    4.60
 -13   2  -2   -9.70    6.70
  13   2   2    5.10    5.70
  14  -2   2   81.69    9.90
 -14  -2  -2   69.49    8.20
  14  -2   2   78.49    9.40
 -14  -2  -2   69.49    9.40
  14   2   2   74.79    7.00
 -14   2  -2   88.79    8.50
  14   2   2   69.89    9.40
  14  -3  -2   26.20    7.40
 -14  -3   2   24.00    5.50
  14  -3  -2   17.00    6.70
  14  -3  -2   11.90    8.50
 -14  -3   2   27.60    8.00
  14   3  -2   13.00    5.70
 -14   3   2   17.60    6.20
  14   3  -2   18.80    7.80
 -14   3   2   16.00    8.50
  13  -3  -2   -2.90    4.20
 -13  -3   2  -11.80    6.10
  13  -3  -2   -4.40    5.40
  13  -3  -2   -4.70    7.20
 -13  -3   2    4.00    6.00
  13   3  -2   -1.40    6.80
  13   3  -2   -0.80    5.10
 -13   3   2    1.20    5.40
 -13   3   2   10.00    7.30
  12  -3  -2    7.40    5.90
  12  -3  -2   14.00    5.60
 -12  -3   2    4.30    5.90
  12  -3  -2    5.80    6.80
 -12  -3   2   10.90    5.80
  12   3  -2   -0.20    4.20
  12   3  -2    1.00    4.20
 -12   3   2    9.90    6.50
 -12   3   2    4.50    5.20
  11  -3  -2   73.49    7.10
 -11  -3   2   81.19    7.40
  11  -3  -2   73.29    8.40
 -11  -3   2   70.09    7.40
  11  -3  -2   79.49    7.70
  11   3  -2   69.39    7.50
  11   3  -2   69.99    5.60
  11   3  -2   72.59    6.40
 -11   3   2   82.59    7.10
 -11   3   2   75.29    8.10
  10  -3  -2  100.39    7.50
  10  -3  -2  107.19    7.90
 -10  -3   2  109.49    8.00
 -10  -3   2  113.09    8.00
  10  -3  -2   97.19    6.90
  10  -3  -2  112.79    7.60
 -10  -3   2  108.59    7.80
  10   3  -2  104.39    7.70
 -10   3   2  124.99    8.70
 -10   3   2  125.39    8.40
  10   3  -2  108.69    5.60
  10   3  -2   98.69    7.80
   9  -3  -2  224.48    9.60
   9  -3  -2  211.48    9.60
   9  -3  -2  214.78   10.60
  -9  -3   2  225.78    9.10
  -9  -3   2  220.88   10.10
   9  -3  -2  225.18   10.20
   9   3  -2  220.08    8.10
  -9   3   2  236.88    9.80
   9   3  -2  214.98   10.00
  -9   3   2  236.98   10.60
   9   3  -2  231.88    9.60
  -8  -3   2  111.89    7.50
   8  -3  -2  133.19    8.00
   8  -3  -2  126.59    7.20
  -8  -3   2  109.29    7.50
   8  -3  -2  129.59    7.50
   8   3  -2  119.89    7.60
   8   3  -2  115.89    8.00
  -8   3   2  139.29    7.60
   8   3  -2  115.79    5.90
  -8   3   2  120.59    6.80
  -7  -3   2  347.67    8.80
  -7  -3   2  359.56   11.50
   7  -3  -2  315.97   11.40
  -7  -3   2  373.86   11.60
   7  -3  -2  359.06   11.10
   7  -3  -2  347.37   10.60
   7   3  -2  362.26   11.40
   7   3  -2  361.36    9.70
   7   3  -2  353.06   11.20
  -7   3   2  352.56   11.50
  -7   3   2  326.47   11.10
   6  -3  -2   29.20    3.30
   6  -3  -2   16.10    3.30
  -6   3   2   34.20    3.90
   6   3  -2   21.30    3.70
   5  -3  -2   63.49    4.40
  -5  -3   2   63.39    4.70
  -5  -3   2   64.09    3.40
   5  -3  -2   72.39    5.10
  -5  -3   2   62.79    4.70
   5  -3  -2   60.29    4.50
  -5   3   2   55.49    1.50
  -5   3   2   71.39    4.80
   5   3  -2   59.59    4.80
   5   3  -2   54.89    3.40
   5   3  -2   59.49    4.00
  -5   3   2   60.09    4.50
  -4  -3   2  189.48    6.40
  -4  -3   2  166.48    4.40
   4  -3  -2  142.39    3.70
   4  -3  -2  141.79    6.00
  -4  -3   2  181.28    5.10
  -4  -3   2  181.78    6.60
   4  -3  -2  136.69    6.30
   4  -3  -2  155.28    6.10
   4   3  -2  168.88    6.30
  -4   3   2  145.29    3.50
   4   3  -2  177.38    7.00
   4   3  -2  172.58    5.40
  -4   3   2  133.49    6.20
  -4   3   2  145.79    6.10
  -3  -3   2  543.85   13.10
  -3  -3   2  516.15   13.20
   3  -3  -2  530.55   13.00
   3  -3  -2  547.55   13.60
   3  -3  -2  533.65   13.20
  -3  -3   2  522.55   11.80
  -3  -3   2  514.65   12.60
  -3  -3   2  525.85   12.00
   3  -3  -2  502.95   11.20
  -3   3   2  533.15   12.70
   3   3  -2  533.25   12.60
  -3   3   2  523.75   13.10
  -3   3   2  524.25   10.70
   3   3  -2  536.95   13.60
   3   3  -2  523.85   12.00
  -2  -3   2  645.24   14.10
   2  -3  -2  598.34   14.80
  -2  -3   2  641.34   14.60
  -2  -3   2  655.03   14.30
   2  -3  -2  595.24   15.10
   2  -3  -2  606.34   13.50
  -2  -3   2  640.94   14.00
  -2  -3   2  649.24   14.70
  -2  -3   2  660.23   14.80
  -2   3   2  617.14   14.70
  -2   3   2  607.84   14.20
   2   3  -2  640.44   14.00
   2   3  -2  627.14   14.50
   2   3  -2  619.94   14.90
  -1  -3   2  336.87    9.00
  -1  -3   2  340.37    9.20
   1  -3  -2  355.16    9.50
   1  -3  -2  345.37    8.70
  -1  -3   2  355.26    9.00
   1  -3  -2  330.17    9.20
  -1  -3   2  351.66    8.90
  -1  -3   2  360.36    9.10
  -1  -3   2  343.87    9.00
   1  -3  -2  337.97    7.80
  -1   3   2  332.57    8.40
   1   3  -2  356.26    9.50
  -1   3   2  370.16    9.20
   0  -3   2   80.39    4.40
   0  -3   2   84.79    3.70
   0  -3   2   89.39    4.30
   0  -3  -2   81.39    3.20
   0  -3  -2   79.89    4.60
   0  -3   2   83.59    3.90
   0  -3  -2   76.49    3.80
   0  -3  -2   78.19    4.00
   0  -3   2   82.69    3.90
   0  -3   2   74.99    3.80
   0   3   2   73.09    3.00
   0   3  -2   88.59    4.10
   0   3   2   67.29    3.60
  -1  -3  -2   10.00    1.80
   1  -3   2   12.70    2.10
   1  -3   2   13.70    2.10
   1  -3   2   10.80    1.90
   1  -3   2   11.80    1.90
   1  -3   2   11.90    2.30
  -1  -3  -2   11.70    2.60
  -1  -3  -2   13.30    1.90
   1  -3   2   11.50    2.50
  -1   3  -2   13.20    1.80
   1   3   2    9.90    1.70
  -1   3  -2   11.80    1.70
   1   3   2   11.30    1.40
   1   3   2   13.10    2.00
   2  -3   2   91.79    5.10
   2  -3   2   91.09    4.80
  -2  -3  -2   95.69    5.10
   2  -3   2   85.19    3.80
   2  -3   2   88.29    5.10
  -2  -3  -2   92.79    4.10
  -2  -3  -2   96.09    4.90
  -2   3  -2   93.99    3.50
  -2   3  -2   87.09    4.80
  -2   3  -2   83.49    3.20
   2   3   2   88.09    3.30
   2   3   2   87.69    2.80
   2   3   2   91.09    4.50
   3  -3   2  211.28    7.50
  -3  -3  -2  192.68    6.60
   3  -3   2  192.88    7.00
  -3  -3  -2  191.38    7.10
   3  -3   2  197.98    5.90
  -3  -3  -2  185.88    7.10
   3  -3   2  192.18    7.50
  -3   3  -2  193.78    5.40
  -3   3  -2  189.48    4.80
   3   3   2  193.48    6.70
   3   3   2  183.38    7.10
   3   3   2  194.98    5.00
  -3   3  -2  193.78    7.10
  -4  -3  -2  537.05   13.70
   4  -3   2  536.15   14.20
   4  -3   2  538.75   13.70
   4  -3   2  519.55   12.30
  -4  -3  -2  532.65   14.00
  -4  -3  -2  542.05   13.40
   4  -3   2  530.35   13.70
  -4   3  -2  547.35   11.80
  -4   3  -2  516.15   13.80
   4   3   2  523.45   13.10
   4   3   2  522.05   13.40
   4   3   2  513.95   10.90
  -4   3  -2  504.75   10.60
  -5  -3  -2  231.28    8.70
   5  -3   2  226.38    8.90
   5  -3   2  217.98    8.40
  -5  -3  -2  238.28    7.90
   5  -3   2  222.38    6.90
   5   3   2  246.88    8.60
   5   3   2  240.58    8.70
  -5   3  -2  249.88    6.50
   5   3   2  229.48    8.00
  -5   3  -2  222.68    8.80
  -5   3  -2  227.48    6.30
  -6  -3  -2   78.39    5.30
  -6  -3  -2   86.39    5.70
   6  -3   2   85.39    6.20
   6  -3   2   74.79    4.30
   6  -3   2   87.09    5.60
   6   3   2   85.09    5.30
   6   3   2   83.39    5.90
  -6   3  -2   79.39    5.40
   6   3   2   83.09    6.70
  -6   3  -2   80.79    3.70
   7  -3   2   86.19    6.10
  -7  -3  -2   82.79    6.10
  -7  -3  -2   79.49    6.30
   7  -3   2   71.99    4.60
   7  -3   2   90.09    6.30
   7  -3   2   82.49    6.20
   7   3   2   73.39    5.30
   7   3   2   84.39    5.50
   7   3   2   78.89    6.10
  -7   3  -2   83.69    5.90
  -7   3  -2   69.79    5.40
   8  -3   2   -0.50    4.00
  -8  -3  -2    1.10    4.20
   8  -3   2    0.00    4.40
   8  -3   2    2.60    4.00
  -8  -3  -2    2.10    4.10
   8  -3   2    5.70    2.80
  -8   3  -2   -3.10    3.80
   8   3   2   -2.90    3.70
  -8   3  -2    1.60    2.20
   8   3   2    0.70    3.80
   8   3   2    6.60    4.40
  -8   3  -2    1.00    3.20
  -9  -3  -2   18.20    5.20
   9  -3   2   18.40    5.50
   9  -3   2   16.90    3.50
   9  -3   2   14.40    4.80
  -9  -3  -2   26.30    5.40
   9  -3   2   15.40    5.10
   9   3   2   21.00    3.70
  -9   3  -2   24.90    4.10
  -9   3  -2   25.30    5.90
   9   3   2   17.80    5.50
   9   3   2   14.00    4.70
 -10  -3  -2   25.50    5.90
  10  -3   2   44.30    6.50
  10  -3   2   37.30    5.80
 -10  -3  -2   37.70    6.20
  10  -3   2   32.80    6.70
  10   3   2   32.90    6.30
  10   3   2   27.80    5.30
 -10   3  -2   32.90    6.60
 -10   3  -2   34.70    5.70
  10   3   2   32.40    5.70
  11  -3   2   38.10    7.30
 -11  -3  -2   28.10    6.50
  11  -3   2   27.80    4.80
 -11  -3  -2   27.00    5.20
  11  -3   2   31.90    6.80
 -11   3  -2   33.70    5.90
  11   3   2   35.80    5.90
  11   3   2   30.30    6.90
  11   3   2   27.60    5.90
 -11   3  -2   37.50    7.40
  12  -3   2   55.39    8.80
 -12  -3  -2   50.69    7.90
 -12  -3  -2   54.89    7.80
  12  -3   2   50.59    7.20
  12  -3   2   59.59    8.40
  12   3   2   48.90    6.70
 -12   3  -2   49.50    6.70
 -12   3  -2   56.69    7.30
  12   3   2   45.80    8.10
  13  -3   2   21.40    7.70
  13  -3   2   16.00    6.40
  13  -3   2   24.20    6.40
 -13  -3  -2    9.60    6.90
 -13  -3  -2   16.00    5.80
  13   3   2   18.20    6.40
 -13   3  -2   15.90    8.30
  13   3   2   15.90    7.90
 -13   3  -2   26.40    6.30
  14  -3   2    7.20    8.10
 -14  -3  -2    0.20    7.70
  14  -3   2   -0.20    7.70
 -14  -3  -2    8.70    7.00
  14   3   2   10.40    8.00
  14   3   2    2.50    6.20
 -14   3  -2    5.40    8.20
 -13  -4   2   68.79    9.50
  13  -4  -2   72.29    7.90
 -13  -4   2   69.29    9.20
  13   4  -2   52.49    8.90
 -13   4   2   81.19    8.70
 -13   4   2   79.49   10.10
 -12  -4   2   -3.00    6.80
 -12  -4   2    8.50    6.80
  12  -4  -2    4.00    5.70
  12  -4  -2    5.80    5.10
 -12   4   2    2.40    5.10
 -12   4   2   -1.80    5.80
  12   4  -2    2.10    4.90
 -11  -4   2  131.99   10.00
  11  -4  -2  126.09    8.90
 -11  -4   2  131.89    9.10
  11  -4  -2  106.69    8.50
 -11   4   2  127.79   10.30
 -11   4   2  120.29    9.10
  11   4  -2  137.09    9.70
 -10  -4   2    5.30    4.30
  10  -4  -2   -2.10    5.80
 -10  -4   2   11.40    5.80
  10  -4  -2    6.00    4.80
  10   4  -2   -5.20    3.80
 -10   4   2   -5.10    5.70
 -10   4   2   12.80    5.80
  10   4  -2   -5.60    5.40
  10   4  -2    3.30    3.90
   9  -4  -2    5.40    5.50
   9  -4  -2    0.90    4.30
  -9  -4   2    7.50    5.30
  -9  -4   2   -3.50    4.90
   9   4  -2   12.70    5.60
  -9   4   2    3.90    5.50
  -9   4   2    2.20    5.10
   9   4  -2    4.00    2.60
   9   4  -2    3.40    5.20
   8  -4  -2  136.19    8.90
  -8  -4   2  131.59    9.00
  -8  -4   2  118.39    8.10
   8  -4  -2  122.29    8.10
   8  -4  -2  133.09    8.80
  -8   4   2  126.49    7.70
   8   4  -2  115.09    6.50
   8   4  -2  122.09    8.70
   8   4  -2  131.99    9.20
  -8   4   2  126.69    8.70
   7  -4  -2   25.60    4.30
   7  -4  -2   16.20    4.20
   7  -4  -2   21.80    4.70
  -7  -4   2   29.00    5.10
  -7  -4   2   11.90    4.60
   7   4  -2   13.00    3.60
  -7   4   2   14.40    4.70
   7   4  -2   12.10    3.50
  -7   4   2   20.80    3.90
   7   4  -2   14.40    3.50
   6  -4  -2  378.16   13.10
  -6  -4   2  364.36   12.30
   6  -4  -2  368.36   12.30
   6  -4  -2  366.66   11.70
  -6  -4   2  371.86   12.20
  -6   4   2  391.56   12.40
   6   4  -2  338.07   11.70
   6   4  -2  351.06   12.80
   6   4  -2  361.36   10.40
  -6   4   2  383.06   12.30
  -5  -4   2   24.50    2.50
   5  -4  -2   27.20    4.80
   5  -4  -2   22.30    3.80
  -5  -4   2   34.50    4.50
  -5  -4   2   27.20    3.80
   5  -4  -2   36.10    4.70
  -5   4   2   31.70    3.50
   5   4  -2   28.10    4.40
  -5   4   2   34.80    4.60
   5   4  -2   29.20    3.30
   5   4  -2   24.90    4.50
   4  -4  -2  478.75   14.10
  -4  -4   2  462.95   11.40
  -4  -4   2  453.35   13.00
  -4  -4   2  435.86   13.20
   4  -4  -2  450.45   12.90
   4   4  -2  469.55   12.90
   4   4  -2  458.95   13.20
  -4   4   2  453.05   12.70
  -4   4   2  473.05   12.90
   4   4  -2  454.65   11.70
  -3  -4   2   23.80    3.00
  -3  -4   2   22.00    3.10
  -3  -4   2   25.10    2.70
  -3  -4   2   19.20    3.50
   3  -4  -2   21.40    3.70
   3  -4  -2   30.80    2.40
  -3  -4   2   27.60    3.60
   3  -4  -2   15.40    3.90
  -3   4   2   21.70    1.70
   3   4  -2   22.20    3.60
   3   4  -2   25.20    3.30
   3   4  -2   29.60    3.20
  -3   4   2   29.60    3.20
  -3   4   2   25.30    3.40
   2  -4  -2  204.78    6.50
   2  -4  -2  234.08    8.30
  -2  -4   2  197.88    6.60
  -2  -4   2  213.38    7.60
  -2  -4   2  206.98    7.80
  -2  -4   2  197.48    7.60
   2  -4  -2  192.18    8.50
  -2  -4   2  204.38    7.00
  -2  -4   2  205.28    7.40
   2   4  -2  215.08    7.70
  -2   4   2  203.58    7.70
   2   4  -2  204.98    6.90
   2   4  -2  202.28    8.10
  -2   4   2  197.68    7.10
  -1  -4   2  359.06   10.40
  -1  -4   2  356.76   10.00
  -1  -4   2  353.46   10.20
   1  -4  -2  351.96   10.90
   1  -4  -2  346.77   11.00
   1  -4  -2  341.17    9.40
   1  -4  -2  353.26    8.50
  -1  -4   2  352.36   10.20
  -1  -4   2  360.86   10.20
  -1  -4   2  353.76    9.90
  -1   4   2  369.86    9.90
  -1   4   2  344.77    9.40
   1   4  -2  344.87   10.60
   0  -4   2   29.60    3.40
   0  -4  -2   37.00    3.50
   0  -4   2   31.10    3.30
   0  -4   2   33.50    3.90
   0  -4   2   34.90    3.40
   0  -4  -2   28.60    2.80
   0  -4  -2   34.50    4.20
   0  -4  -2   35.50    4.20
   0  -4   2   34.50    3.30
   0  -4   2   29.90    3.40
   0   4   2   31.40    2.90
   0   4   2   31.00    2.90
   0   4  -2   35.60    3.70
   1  -4   2 1130.19   25.10
  -1  -4  -2 1142.09   25.10
   1  -4   2 1134.59   24.30
   1  -4   2 1136.09   24.30
   1  -4   2 1131.29   24.70
   1  -4   2 1111.49   25.20
   1  -4   2 1149.69   25.70
  -1  -4  -2 1128.19   25.70
  -1  -4  -2 1107.19   24.00
  -1   4  -2 1134.29   24.70
  -1   4  -2 1150.18   23.90
   1   4   2 1077.29   23.50
  -1   4  -2 1156.98   25.40
   1   4   2 1148.39   25.00
   1   4   2 1142.09   24.30
   2  -4   2   18.20    2.90
  -2  -4  -2   18.90    3.60
  -2  -4  -2   17.00    3.80
   2  -4   2   18.00    3.80
   2  -4   2   11.80    3.30
   2  -4   2   18.70    3.90
  -2  -4  -2   18.10    2.80
  -2   4  -2   21.80    2.40
   2   4   2   18.30    2.70
  -2   4  -2   19.10    2.10
  -2   4  -2   13.60    2.40
   2   4   2   18.50    2.00
   2   4   2   17.90    3.50
  -2   4  -2   13.80    3.50
   3  -4   2  281.87    8.60
  -3  -4  -2  293.47   10.00
   3  -4   2  273.47   10.20
   3  -4   2  273.57    9.60
   3  -4   2  288.07   10.50
  -3  -4  -2  287.47    9.00
  -3  -4  -2  280.67    9.90
   3   4   2  278.87    7.40
  -3   4  -2  290.37   10.00
  -3   4  -2  274.67    7.10
   3   4   2  269.87   10.00
   3   4   2  298.47    8.90
  -3   4  -2  280.97    7.60
  -4  -4  -2   43.80    4.00
   4  -4   2   45.30    5.50
  -4  -4  -2   47.70    4.50
   4  -4   2   42.00    5.00
   4  -4   2   49.50    3.80
  -4  -4  -2   47.90    4.50
   4   4   2   61.59    5.00
   4   4   2   47.00    5.00
  -4   4  -2   55.09    3.40
  -4   4  -2   44.50    5.10
  -5  -4  -2   72.29    5.50
  -5  -4  -2   71.99    5.60
   5  -4   2   76.69    6.20
  -5  -4  -2   65.29    5.60
   5  -4   2   69.19    5.60
   5  -4   2   69.59    4.60
   5   4   2   60.49    5.70
  -5   4  -2   65.19    3.60
   5   4   2   73.59    6.30
   5   4   2   68.99    5.30
  -5   4  -2   71.19    6.10
  -5   4  -2   74.29    5.80
  -6  -4  -2  218.58    9.50
   6  -4   2  215.78    9.50
   6  -4   2  205.48    7.70
  -6  -4  -2  221.58   10.10
   6  -4   2  210.28    9.00
   6   4   2  217.48   10.70
   6   4   2  206.38    8.10
  -6   4  -2  233.18   10.20
  -6   4  -2  228.18    9.90
   6   4   2  215.48   10.10
   7  -4   2   10.30    5.50
  -7  -4  -2   18.00    5.00
   7  -4   2   12.90    3.00
   7  -4   2   16.50    5.10
  -7  -4  -2    8.50    4.90
  -7   4  -2   15.90    4.90
  -7   4  -2   19.20    5.20
   7   4   2    5.10    3.50
   7   4   2   11.00    3.70
   7   4   2   11.00    3.20
  -8  -4  -2  159.78    9.80
  -8  -4  -2  156.18    8.60
   8  -4   2  170.48    8.90
   8  -4   2  155.58    9.30
   8   4   2  148.19    8.70
   8   4   2  157.98    8.90
   8   4   2  158.48   10.00
  -8   4  -2  166.98    8.60
  -8   4  -2  160.48   10.30
  -9  -4  -2    6.60    4.10
   9  -4   2    9.80    5.80
  -9  -4  -2   11.70    6.10
   9  -4   2    1.90    4.50
  -9   4  -2    5.60    3.90
  -9   4  -2   -3.20    5.50
   9   4   2    5.90    5.30
   9   4   2    2.30    5.60
   9   4   2   -3.10    4.60
  10  -4   2   54.59    7.80
 -10  -4  -2   70.29    8.30
  10  -4   2   58.09    8.70
 -10  -4  -2   64.59    7.90
  10   4   2   52.29    7.70
 -10   4  -2   74.19    7.80
 -10   4  -2   73.19    7.20
  10   4   2   63.99    6.70
  11  -4   2    2.90    6.30
 -11  -4  -2    3.80    6.90
  11  -4   2    2.10    5.30
 -11  -4  -2   15.70    7.00
  11   4   2    6.50    4.00
 -11   4  -2   10.80    7.30
  11   4   2    0.40    6.80
 -11   4  -2    1.10    6.10
 -12  -4  -2    2.30    5.10
  12  -4   2    1.40    7.80
 -12  -4  -2    6.40    7.50
  12  -4   2    0.10    6.60
 -12   4  -2    5.00    7.80
  12   4   2   -7.30    7.20
 -12   4  -2    6.20    4.70
  12   4   2    2.80    5.90
  13  -4   2   33.90    9.50
  13  -4   2   26.20    7.90
 -13  -4  -2   27.20    6.50
 -13  -4  -2   30.30    8.70
  13   4   2   33.20    8.90
 -13   4  -2   23.20    7.20
 -13   4  -2   27.10    9.30
  13   4   2   38.00    7.20
 -12  -5   2    4.20    5.40
 -12  -5   2   16.80    8.00
  12  -5  -2   -4.60    5.70
 -12   5   2    4.10    7.50
  12   5  -2   17.60    8.10
 -12   5   2    1.20    8.00
  11  -5  -2   -0.50    7.60
 -11  -5   2   -3.30    4.70
 -11  -5   2    4.30    7.30
  11   5  -2   -0.20    7.10
 -11   5   2   -0.40    7.30
 -11   5   2    6.20    7.70
 -10  -5   2    0.10    6.50
  10  -5  -2   -6.70    5.20
  10  -5  -2    4.00    7.30
 -10  -5   2    7.10    6.60
 -10   5   2   -1.70    6.70
 -10   5   2   -3.10    6.80
  10   5  -2    2.70    6.70
  -9  -5   2   12.30    6.20
   9  -5  -2   12.50    5.30
   9  -5  -2   21.60    7.40
  -9  -5   2   10.30    4.80
   9   5  -2    9.40    6.40
  -9   5   2    5.40    4.60
  -9   5   2    6.10    4.90
  -8  -5   2   18.70    4.80
  -8  -5   2   18.10    4.70
   8  -5  -2   11.80    5.20
   8  -5  -2   27.20    6.80
   8   5  -2   27.70    6.30
  -8   5   2   23.80    6.40
   8   5  -2   18.50    4.30
  -8   5   2   16.80    6.20
   7  -5  -2    2.10    4.50
  -7  -5   2    5.20    5.10
   7  -5  -2    2.60    5.80
  -7  -5   2    6.10    5.60
  -7   5   2    1.40    5.20
   7   5  -2    6.30    5.20
  -7   5   2    4.70    3.90
   7   5  -2    3.80    3.70
   7   5  -2    7.30    5.10
   6  -5  -2   -2.60    4.40
  -6  -5   2    2.80    5.00
   6  -5  -2    5.70    5.50
  -6  -5   2    1.10    4.60
  -6   5   2    1.80    4.70
  -6   5   2   -1.50    4.50
   6   5  -2   -0.60    4.70
   6   5  -2    2.20    4.70
   6   5  -2    0.50    3.50
  -5  -5   2   -6.30    4.00
   5  -5  -2    1.40    4.20
   5  -5  -2    9.00    5.30
  -5  -5   2    2.50    3.30
   5   5  -2    3.40    3.20
  -5   5   2   -5.00    3.90
  -5   5   2   -3.50    4.30
   5   5  -2   -5.50    4.30
   5   5  -2   -1.40    3.30
   4  -5  -2    2.00    4.00
   4  -5  -2   -2.00    3.20
  -4  -5   2    1.60    2.40
  -4  -5   2   -3.20    3.80
  -4  -5   2   -2.70    4.10
   4   5  -2   -0.90    3.20
   4   5  -2   -1.70    4.00
   4   5  -2    4.20    4.20
  -4   5   2   -0.60    3.80
  -4   5   2    1.70    4.20
  -3  -5   2  111.79    7.50
   3  -5  -2  109.59    7.70
   3  -5  -2  114.49    7.80
  -3  -5   2   97.19    5.60
  -3  -5   2  111.99    7.10
  -3  -5   2  101.99    7.20
  -3   5   2  100.29    6.80
   3   5  -2  109.69    5.70
   3   5  -2  103.69    7.90
   3   5  -2  110.99    7.50
   3   5  -2  113.69    6.50
  -3   5   2  104.39    7.00
   2  -5  -2   42.50    5.30
  -2  -5   2   39.50    4.70
  -2  -5   2   44.70    4.60
   2  -5  -2   47.50    5.90
  -2  -5   2   52.09    4.90
  -2  -5   2   44.80    4.10
  -2  -5   2   46.20    4.90
   2  -5  -2   42.80    3.60
  -2  -5   2   36.30    4.20
   2   5  -2   49.10    4.20
  -2   5   2   41.00    5.00
   2   5  -2   45.70    4.50
  -2   5   2   42.00    4.40
   2   5  -2   39.50    4.90
   2   5  -2   45.90    5.20
   1  -5  -2   28.60    3.60
  -1  -5   2   31.00    4.20
  -1  -5   2   30.00    4.20
  -1  -5   2   29.80    4.40
   1  -5  -2   23.50    4.00
  -1  -5   2   23.20    4.40
   1  -5  -2   17.90    4.60
  -1  -5   2   28.90    3.30
  -1  -5   2   21.50    3.80
  -1   5   2   29.10    4.20
   1   5  -2   20.30    4.20
   1   5  -2   27.50    3.90
  -1   5   2   29.00    3.60
   0  -5   2   30.50    3.60
   0  -5   2   34.30    4.50
   0  -5   2   36.10    4.20
   0  -5  -2   31.80    5.10
   0  -5   2   37.70    5.00
   0  -5  -2   42.40    4.30
   0  -5  -2   33.00    3.10
   0  -5   2   37.70    3.90
   0  -5   2   45.00    5.00
   0   5  -2   32.50    4.20
   0   5  -2   36.50    4.60
   0   5   2   39.90    4.30
   0   5   2   35.30    3.80
   0   5   2   32.60    4.90
   0   5  -2   38.60    3.90
   1  -5   2   11.10    3.80
   1  -5   2   15.50    3.60
   1  -5   2    8.70    4.10
  -1  -5  -2   13.00    3.80
  -1  -5  -2   11.20    4.30
  -1  -5  -2   17.90    3.40
   1  -5   2    7.40    2.90
   1  -5   2   15.10    4.50
   1   5   2    6.10    3.90
  -1   5  -2    6.00    3.70
  -1   5  -2    9.10    2.80
  -1   5  -2   11.00    3.30
   1   5   2    8.00    3.00
  -1   5  -2   12.50    4.00
   2  -5   2   34.50    4.30
  -2  -5  -2   33.90    5.20
  -2  -5  -2   34.00    3.80
   2  -5   2   39.20    5.50
  -2  -5  -2   34.60    4.90
   2  -5   2   34.10    4.70
   2  -5   2   34.90    4.40
  -2   5  -2   31.30    3.20
  -2   5  -2   34.40    5.10
  -2   5  -2   25.80    4.60
   2   5   2   35.10    4.90
   2   5   2   32.80    3.40
  -2   5  -2   37.30    3.60
  -2   5  -2   34.30    4.40
  -3  -5  -2   20.90    3.80
   3  -5   2   20.30    5.10
  -3  -5  -2   20.50    4.80
   3  -5   2   15.20    3.60
  -3  -5  -2   15.50    3.80
   3  -5   2    9.30    3.80
  -3   5  -2   19.80    4.80
  -3   5  -2   18.50    4.80
   3   5   2   16.70    3.90
   3   5   2   17.40    4.50
  -4  -5  -2   59.79    6.50
   4  -5   2   57.79    5.50
  -4  -5  -2   68.19    6.40
  -4  -5  -2   62.69    5.50
   4  -5   2   63.69    6.80
   4  -5   2   66.19    7.10
   4   5   2   60.69    5.80
  -4   5  -2   63.39    5.60
   4   5   2   69.19    6.70
  -4   5  -2   57.49    6.30
   4   5   2   60.29    5.70
   5  -5   2   30.90    4.80
  -5  -5  -2   28.20    5.80
  -5  -5  -2   26.50    4.80
   5  -5   2   22.60    6.20
   5  -5   2   33.10    6.10
  -5  -5  -2   23.80    5.50
  -5   5  -2   24.10    5.80
  -5   5  -2   32.50    4.80
   5   5   2   24.30    5.90
   5   5   2   32.10    4.80
   5   5   2   26.00    5.10
   6  -5   2   -6.10    5.80
   6  -5   2    3.50    5.60
  -6  -5  -2   -0.70    4.50
  -6  -5  -2    6.50    5.50
  -6   5  -2    5.90    5.60
   6   5   2   -2.70    4.50
   6   5   2    4.30    5.50
   6   5   2    0.30    3.80
  -6   5  -2   -1.10    5.10
  -7  -5  -2    3.10    6.10
  -7  -5  -2   19.60    5.60
   7  -5   2    3.20    6.40
   7  -5   2    5.50    4.40
   7   5   2    0.80    4.00
  -7   5  -2    4.80    5.60
  -7   5  -2    7.80    6.10
   7   5   2    7.70    4.90
  -8  -5  -2   11.10    6.50
  -8  -5  -2    3.70    5.90
   8  -5   2    0.30    5.00
   8  -5   2    1.50    6.50
   8   5   2    7.70    3.90
   8   5   2   -1.30    6.00
  -8   5  -2   11.80    6.30
  -8   5  -2    1.50    6.30
   9  -5   2    7.90    7.60
  -9  -5  -2   -0.80    4.70
  -9  -5  -2    2.80    6.30
   9  -5   2   -1.70    4.80
  -9   5  -2    7.60    6.60
  -9   5  -2    3.30    6.80
   9   5   2    3.80    6.80
   9   5   2    8.70    5.60
 -10  -5  -2   -0.90    4.60
 -10  -5  -2  -14.50    6.90
  10  -5   2    1.00    8.00
 -10   5  -2    4.70    5.30
 -10   5  -2   -5.30    6.80
  10   5   2    3.50    3.90
  10   5   2    1.80    7.20
 -11  -5  -2    2.30    7.20
 -11  -5  -2   -3.70    7.50
  11  -5   2   -3.30    7.50
  11  -5   2    5.50    8.70
 -11   5  -2    0.60    7.90
 -11   5  -2  -11.30    7.10
  11   5   2   -2.70    7.70
  11   5   2   -5.20    5.70
  10  -6  -2   10.90    9.00
 -10  -6   2   16.80    7.80
 -10   6   2   18.10    8.50
 -10   6   2   11.90    8.30
  10   6  -2   10.90    8.00
  -9  -6   2   15.10    7.50
   9  -6  -2   13.10    6.70
  -9   6   2   22.80    8.10
   9   6  -2   28.00    7.70
  -9   6   2   25.60    8.10
  -8  -6   2   41.70    7.90
   8  -6  -2   41.60    6.80
  -8  -6   2   44.30    8.40
   8  -6  -2   63.99    9.70
  -8   6   2   61.89    8.60
  -8   6   2   43.50    8.30
   8   6  -2   59.19    8.10
   7  -6  -2   14.10    5.80
   7  -6  -2   28.30    7.90
  -7  -6   2   26.10    6.70
  -7  -6   2   19.50    7.10
  -7   6   2   29.30    7.30
   7   6  -2   12.90    6.40
  -7   6   2   21.00    6.90
  -6  -6   2   51.49    7.60
  -6  -6   2   53.09    7.20
   6  -6  -2   47.60    6.70
   6  -6  -2   56.19    8.60
   6   6  -2   57.89    7.50
  -6   6   2   71.09    7.80
  -6   6   2   54.59    6.60
   6   6  -2   46.90    5.70
   5  -6  -2   93.99    9.40
  -5  -6   2  109.29    8.70
   5  -6  -2   83.39    7.60
  -5  -6   2   91.19    6.90
   5   6  -2   88.19    6.60
  -5   6   2   94.29    8.00
   5   6  -2  115.69    7.90
  -5   6   2  112.99    8.80
  -4  -6   2   43.30    5.40
   4  -6  -2   38.80    6.30
   4  -6  -2   41.10    7.50
  -4  -6   2   35.50    4.70
   4   6  -2   40.20    5.30
   4   6  -2   38.00    6.60
  -4   6   2   37.90    5.80
   4   6  -2   50.19    6.50
  -4   6   2   44.00    6.70
  -3  -6   2   36.80    6.00
   3  -6  -2   20.10    6.60
   3  -6  -2   34.10    6.10
  -3  -6   2   18.30    4.80
  -3  -6   2   26.10    5.50
   3   6  -2   24.10    4.90
  -3   6   2   36.40    5.90
   3   6  -2   23.50    5.80
  -3   6   2   26.30    4.60
   3   6  -2   26.40    5.80
   2  -6  -2   33.80    5.30
  -2  -6   2   34.70    5.60
  -2  -6   2   28.30    5.30
  -2  -6   2   31.10    5.00
  -2  -6   2   34.80    4.60
   2  -6  -2   34.10    6.10
  -2   6   2   35.80    5.70
   2   6  -2   37.60    5.00
   2   6  -2   49.10    5.50
   2   6  -2   29.00    5.40
  -1  -6   2   22.80    4.80
  -1  -6   2   20.50    4.30
   1  -6  -2   30.40    5.90
  -1  -6   2   15.80    5.10
  -1  -6   2   21.90    3.90
   1   6  -2   19.80    4.90
  -1   6   2   24.90    5.10
  -1   6   2   22.20    4.30
   1   6  -2   24.60    4.60
   1   6  -2   23.00    4.60
   1   6  -2   21.20    4.80
   1   6  -2   24.60    5.20
   0  -6  -2  111.79    8.30
   0  -6   2  108.49    8.10
   0  -6   2  106.39    7.40
   0  -6   2  118.89    8.20
   0  -6   2  104.89    6.90
   0  -6  -2  112.39    7.40
   0   6  -2   95.39    7.00
   0   6   2  102.59    6.90
   0   6   2  111.39    8.10
   0   6  -2  127.09    8.30
   0   6  -2  102.39    6.60
   0   6  -2  101.59    8.00
   1  -6   2  146.09   10.10
  -1  -6  -2  143.39    9.30
   1  -6   2  127.99    8.60
  -1  -6  -2  145.49    8.70
   1  -6   2  155.78    8.70
   1   6   2  142.99    8.10
  -1   6  -2  138.29    7.80
  -1   6  -2  119.69    8.10
   2  -6   2   10.00    4.30
  -2  -6  -2    9.60    5.70
  -2  -6  -2    8.40    4.80
   2  -6   2    9.60    5.80
   2  -6   2    7.30    3.90
   2   6   2   18.50    6.10
   2   6   2   13.40    5.30
  -2   6  -2    8.20    5.10
  -2   6  -2    4.40    5.00
   3  -6   2   40.90    6.80
   3  -6   2   21.10    4.70
  -3  -6  -2   28.30    6.30
  -3  -6  -2   35.20    6.20
   3  -6   2   30.60    7.00
   3   6   2   23.50    5.60
   3   6   2   27.50    7.20
  -3   6  -2   30.30    6.10
  -3   6  -2   27.00    6.10
   3   6   2   28.40    6.60
  -4  -6  -2    9.20    5.90
   4  -6   2   24.50    7.30
  -4  -6  -2   15.50    6.00
  -4  -6  -2   25.70    5.70
   4  -6   2   31.40    6.80
   4   6   2   24.90    5.20
   4   6   2   27.30    5.80
  -4   6  -2   20.10    6.30
  -4   6  -2   28.80    6.50
  -5  -6  -2   16.20    6.40
   5  -6   2   30.70    7.30
  -5  -6  -2   22.50    6.20
  -5  -6  -2   25.90    6.60
   5  -6   2   15.70    5.50
   5   6   2   29.80    6.00
  -5   6  -2   31.10    7.00
   5   6   2   11.70    6.40
  -5   6  -2   20.80    6.70
  -6  -6  -2   63.89    7.20
   6  -6   2   57.79    7.60
  -6  -6  -2   64.79    8.30
   6  -6   2   53.29    8.50
  -6   6  -2   62.19    8.30
   6   6   2   58.09    5.90
  -6   6  -2   56.79    8.40
   6   6   2   70.39    8.70
   7  -6   2   16.80    8.60
   7  -6   2   27.00    7.70
  -7  -6  -2   26.10    6.40
  -7  -6  -2   25.80    7.60
  -7   6  -2   30.20    7.70
   7   6   2   31.50    6.40
  -7   6  -2   19.80    7.60
   7   6   2   17.80    7.30
  -8  -6  -2    5.90    6.20
   8  -6   2    9.80    5.60
   8  -6   2    6.40    8.60
   8   6   2   14.70    7.60
  -8   6  -2   14.30    7.70
   8   6   2    2.80    5.90
  -8   6  -2    4.10    7.40
  -9  -6  -2   24.70    7.50
   9  -6   2   10.60    8.00
   9  -6   2   -5.10    8.50
   9   6   2   16.10    8.20
   9   6   2   12.60    6.30
  -9   6  -2    2.00    5.70
  -9   6  -2    4.40    5.90
   7  -7  -2    6.90    8.40
  -7  -7   2   -4.40    6.20
  -7   7   2   -1.20    7.20
   7   7  -2   -2.90    7.30
  -7   7   2   -3.90    7.50
   6  -7  -2   -4.60    8.40
   6  -7  -2    4.70    4.50
  -6  -7   2   -1.80    6.00
   6   7  -2    1.10    6.90
  -6   7   2    0.60    7.40
  -5  -7   2   14.60    7.20
  -5  -7   2    2.70    5.80
   5  -7  -2    0.80    6.10
   5  -7  -2    2.90    7.90
   5   7  -2   -5.70    6.40
  -5   7   2   -2.90    6.80
  -4  -7   2    6.60    6.40
   4  -7  -2    3.50    7.60
   4  -7  -2   21.20    6.80
   4   7  -2   -6.20    6.20
  -4   7   2    6.10    6.70
   3  -7  -2   28.20    8.10
  -3  -7   2   22.00    6.40
   3  -7  -2   22.20    6.90
   3   7  -2   26.80    5.70
   3   7  -2   19.70    6.70
  -3   7   2   18.60    6.50
  -2  -7   2   -5.00    5.50
  -2  -7   2    3.50    5.30
   2  -7  -2    1.00    6.20
   2   7  -2    4.70    6.00
  -2   7   2    4.40    5.80
  -2   7   2   -5.60    5.90
   2   7  -2    2.90    5.10
  -1  -7   2   11.20    5.70
   1  -7  -2   20.30    5.40
  -1   7   2   22.20    7.40
  -1   7   2   13.40    6.50
   1   7  -2   11.60    6.40
   1   7  -2   16.70    5.70
   0  -7  -2   12.90    6.70
   0  -7   2    2.70    6.10
   0  -7   2    0.10    5.20
   0   7   2    8.50    6.20
   0   7  -2    4.90    5.40
   0   7  -2    0.70    5.30
   0   7  -2    1.30    5.70
  -1  -7  -2   23.60    7.20
   1  -7   2   12.40    5.50
   1  -7   2   11.50    6.90
   1   7   2   15.40    5.40
   1   7   2   20.60    6.60
  -1   7  -2   15.20    6.00
  -2  -7  -2   11.20    5.20
  -2  -7  -2   -3.70    5.30
   2  -7   2    7.30    7.00
  -2   7  -2   -2.40    5.80
   2   7   2   -0.60    4.30
   2   7   2    6.30    5.10
  -2   7  -2    0.20    5.80
   3  -7   2   -1.70    5.00
  -3  -7  -2   -0.20    6.00
  -3  -7  -2   -9.10    6.50
  -3   7  -2    1.00    6.20
   3   7   2    4.00    5.10
  -3   7  -2   -1.30    6.30
   3   7   2   -1.80    5.90
   4  -7   2    8.90    7.40
  -4  -7  -2   10.90    5.10
   4  -7   2   19.60    8.30
  -4  -7  -2   21.20    7.70
  -4   7  -2   10.10    7.00
  -4   7  -2   26.20    7.40
   4   7   2    3.80    7.50
   4   7   2    2.70    6.30
   5  -7   2   -7.40    7.90
   5  -7   2   15.20    7.70
  -5  -7  -2   16.20    7.20
   5   7   2   -0.10    4.40
  -5   7  -2    8.40    5.40
  -5   7  -2   14.70    7.70
   5   7   2   10.40    7.90
  -6  -7  -2    9.20    7.70
   6  -7   2    3.60    7.60
   6  -7   2    5.50    8.90
  -6   7  -2    8.70    5.90
   6   7   2   14.00    6.80
  -6   7  -2    2.60    7.70
   6   7   2    5.50    5.80
  16   0  -3    1.40    7.70
 -16   0   3   -0.40    7.30
 -16   0   3    6.10    6.70
 -15   0   3   -4.20    5.70
  15   0  -3   -0.70    7.20
 -15   0   3    5.70    7.10
 -14   0   3    1.90    6.40
  14   0  -3   -1.20    5.00
 -14   0   3    4.30    5.40
  14   0  -3   -5.40    6.50
 -13   0   3    3.50    4.90
 -13   0   3   -5.20    5.60
  13   0  -3   -6.70    5.60
  13   0  -3    0.70    4.60
  12   0  -3   -1.80    2.80
 -12   0   3   -4.40    4.10
  12   0  -3    3.70    5.30
 -12   0   3    0.30    5.10
  12   0  -3   -1.10    3.10
  12   0  -3    0.30    3.80
  11   0  -3   -0.40    2.70
 -11   0   3   -5.10    2.90
 -11   0   3   -0.60    3.50
 -11   0   3   -0.70    2.50
  11   0  -3    1.20    3.50
  11   0  -3    0.10    3.10
  11   0  -3   -3.30    3.40
 -11   0   3    1.50    4.50
  11   0  -3    0.10    2.30
 -10   0   3   -1.50    3.20
 -10   0   3   -0.80    2.70
  10   0  -3    5.10    4.10
  10   0  -3   -0.30    2.40
  10   0  -3   -2.80    3.20
  10   0  -3    0.70    2.00
  10   0  -3   -1.80    3.10
 -10   0   3    2.80    2.30
 -10   0   3    1.20    4.10
  -9   0   3   -2.10    1.90
  -9   0   3   -1.30    1.90
   9   0  -3    1.80    3.60
  -9   0   3   -0.40    1.90
   9   0  -3   -0.50    2.00
  -9   0   3   -2.10    3.40
   9   0  -3   -0.90    2.50
   9   0  -3   -1.90    1.70
   9   0  -3    2.10    3.00
  -8   0   3    1.90    1.70
   8   0  -3    2.20    2.00
  -8   0   3    1.60    3.10
   8   0  -3   -2.10    3.00
   8   0  -3   -0.30    2.50
  -8   0   3    1.80    2.20
   8   0  -3    1.20    1.70
  -8   0   3    0.90    1.70
   8   0  -3   -3.10    2.20
   7   0  -3    1.80    1.80
  -7   0   3   -0.10    1.50
  -7   0   3    0.80    2.50
  -7   0   3    2.40    2.00
   7   0  -3    0.20    1.50
   7   0  -3    1.60    1.90
   7   0  -3    0.90    1.40
   7   0  -3    0.50    1.30
  -7   0   3   -0.80    1.40
   6   0  -3    0.60    1.10
   6   0  -3   -1.90    1.90
  -6   0   3    0.90    1.60
  -6   0   3   -0.50    1.20
   6   0  -3    1.40    1.20
   6   0  -3   -0.10    1.10
   6   0  -3    1.30    2.20
  -6   0   3    0.20    1.10
  -6   0   3    0.90    1.40
  -5   0   3    0.90    1.20
   5   0  -3   -0.10    0.80
  -5   0   3   -0.20    1.90
   5   0  -3    0.20    1.20
  -5   0   3    1.10    1.30
   5   0  -3   -0.20    0.80
   5   0  -3   -0.20    0.80
  -5   0   3    0.50    1.00
   5   0  -3    0.60    1.70
  -5   0   3   -1.40    1.00
   4   0  -3   -3.10    1.40
  -4   0   3    0.10    1.00
  -4   0   3    2.10    1.70
  -4   0   3    0.80    1.30
   4   0  -3   -0.20    0.60
   4   0  -3    0.80    1.40
   4   0  -3   -1.50    0.80
  -4   0   3    0.90    1.20
  -4   0   3    1.50    0.90
   4   0  -3    0.20    0.90
   3   0  -3    0.00    1.10
  -3   0   3    1.60    0.80
  -3   0   3    1.50    0.80
   3   0  -3    0.80    0.90
   3   0  -3    0.40    0.60
   3   0  -3   -0.20    0.80
  -3   0   3   -0.50    0.80
  -3   0   3   -0.50    0.90
  -3   0   3    2.10    1.10
   2   0  -3   -0.40    1.00
   2   0  -3    0.00    0.70
  -2   0   3   -0.10    0.60
  -2   0   3    0.40    1.10
   2   0  -3    0.90    0.80
  -2   0   3    0.40    0.90
  -2   0   3   -1.40    1.10
   1   0  -3    0.10    0.60
   1   0  -3    1.20    0.60
  -1   0   3    1.00    0.90
   1   0  -3    0.00    0.50
  -1   0   3    1.30    0.80
   1   0  -3   -0.10    0.50
  -1   0   3    0.70    0.70
  -1   0   3   -0.20    0.60
  -1   0   3    0.10    0.30
   0   0   3    0.20    0.70
   0   0   3    0.80    0.60
   0   0  -3   -0.70    0.60
   0   0  -3    0.30    0.40
   0   0  -3   -0.20    0.60
   0   0   3    0.20    0.60
   0   0  -3    0.70    0.70
   0   0   3   -0.50    0.60
  -1   0  -3   -0.40    0.80
   1   0   3    0.20    0.90
   1   0   3    0.80    0.60
  -1   0  -3    1.00    0.80
   1   0   3    0.10    0.70
   1   0   3    0.00    0.60
  -1   0  -3    0.80    0.50
   1   0   3    0.90    0.50
  -2   0  -3    1.20    0.90
  -2   0  -3   -0.20    0.70
   2   0   3   -0.60    0.70
   2   0   3   -1.20    0.90
   2   0   3   -0.90    1.20
   2   0   3    0.20    0.80
  -2   0  -3   -0.60    1.00
   3   0   3   -0.60    1.10
  -3   0  -3    4.80    1.30
   3   0   3    0.50    0.80
  -3   0  -3    0.00    1.00
   3   0   3    1.20    1.50
   3   0   3    1.10    1.20
  -3   0  -3    0.00    0.90
  -4   0  -3    0.10    1.30
   4   0   3    1.20    1.60
  -4   0  -3    9.00    1.70
   4   0   3    0.30    0.80
   4   0   3    1.40    1.80
   4   0   3   -0.30    1.20
   4   0   3   -0.30    1.00
   5   0   3    1.20    2.10
  -5   0  -3   -0.40    1.50
  -5   0  -3   -0.90    1.50
   5   0   3   -0.10    1.20
   5   0   3    0.70    1.40
   5   0   3    0.60    2.00
  -5   0  -3   -1.30    1.70
   6   0   3    0.80    1.70
   6   0   3   -3.40    2.40
   6   0   3   -2.80    1.80
   6   0   3   -1.40    1.20
  -6   0  -3   -0.30    2.10
  -6   0  -3    0.60    1.90
  -6   0  -3    0.50    1.90
   7   0   3    0.50    2.10
   7   0   3    0.20    1.50
  -7   0  -3   -2.90    2.50
  -7   0  -3   -4.20    2.00
  -7   0  -3    4.60    2.50
   7   0   3   -0.80    1.80
   7   0   3   -0.20    2.80
  -8   0  -3    0.80    2.90
   8   0   3    1.30    3.50
  -8   0  -3    2.50    3.00
   8   0   3   -2.70    2.00
   8   0   3    0.60    1.80
   8   0   3   -0.30    3.30
  -8   0  -3    1.90    2.40
  -9   0  -3   -0.60    3.30
  -9   0  -3   -1.60    2.80
   9   0   3   -0.60    1.90
   9   0   3   -7.30    3.60
   9   0   3    0.30    3.60
  -9   0  -3   -0.20    1.90
   9   0   3    1.40    2.40
   9   0   3   -0.30    2.70
  -9   0  -3    1.40    3.40
  10   0   3    0.80    2.90
 -10   0  -3    1.10    3.70
 -10   0  -3    1.90    3.80
 -10   0  -3   -2.60    3.00
  10   0   3    3.50    4.40
  10   0   3    1.40    3.20
 -11   0  -3   -2.70    4.30
  11   0   3   -3.00    4.90
  11   0   3    3.50    5.00
  11   0   3    0.30    4.50
 -11   0  -3    3.50    4.30
 -11   0  -3   -4.30    3.20
 -12   0  -3    1.40    4.80
  12   0   3   -8.90    5.60
 -12   0  -3    0.40    3.50
  12   0   3  -12.70    5.10
  12   0   3   -0.80    5.10
  13   0   3    7.00    6.30
 -13   0  -3   -2.70    5.20
  13   0   3   -6.50    6.10
  13   0   3    4.00    5.80
  14   0   3   -0.10    4.80
  14   0   3   10.70    7.20
  14   0   3   -6.20    6.00
  15   0   3    0.40    7.00
  15   0   3   -0.40    5.20
 -15   0  -3   -6.20    7.20
  15   0   3   -2.90    7.30
  16  -1  -3   -1.40    5.50
 -16  -1   3    3.00   11.30
 -16  -1   3   -2.60    7.00
 -16   1   3   -4.50    7.90
 -16   1   3    0.50    7.10
  16   1  -3    2.80    5.60
 -15  -1   3    3.30    6.50
  15  -1  -3   16.80    8.00
 -15  -1   3  -10.50    6.50
  15   1  -3   -5.50    5.20
 -15   1   3   -3.00    7.20
  15   1  -3    2.90    7.20
 -15   1   3   -1.00    5.50
 -14  -1   3   86.39    8.60
  14  -1  -3   77.69    9.10
 -14  -1   3   67.79    7.80
 -14   1   3   68.09    7.30
  14   1  -3   62.79    5.70
 -14   1   3   69.89    7.00
  14   1  -3   69.69    8.60
  13  -1  -3   34.90    5.80
 -13  -1   3   40.10    6.70
 -13  -1   3   39.20    5.30
 -13  -1   3   44.20    7.00
  13  -1  -3   34.80    5.40
  13   1  -3   39.00    5.80
  13   1  -3   37.20    7.00
 -13   1   3   30.20    5.40
  13   1  -3   52.89    5.60
 -13   1   3   45.60    6.10
  12  -1  -3  120.79    8.80
 -12  -1   3  111.89    7.40
 -12  -1   3  134.59    8.50
 -12  -1   3  134.59    8.70
  12  -1  -3  110.69    7.60
  12   1  -3  127.09    6.80
 -12   1   3  119.89    7.10
  12   1  -3  111.79    8.40
 -12   1   3  122.69    7.80
  12   1  -3  117.29    7.20
  12   1  -3  114.09    7.40
 -12   1   3  123.79    8.30
 -11  -1   3  113.19    7.70
  11  -1  -3  100.29    6.80
  11  -1  -3   91.99    7.50
 -11  -1   3   93.19    6.80
 -11  -1   3   81.29    5.90
  11  -1  -3   96.49    6.70
  11   1  -3   85.19    5.80
 -11   1   3   86.89    6.10
  11   1  -3   84.99    5.60
 -11   1   3   85.69    7.30
  11   1  -3   91.29    7.20
 -11   1   3   93.29    6.50
  11   1  -3   87.59    6.60
  10  -1  -3    3.30    3.10
  10  -1  -3   -1.80    2.90
  10  -1  -3    2.30    3.10
 -10  -1   3    4.10    3.10
 -10  -1   3    3.10    4.10
 -10  -1   3    1.40    3.60
 -10   1   3    2.00    2.90
  10   1  -3    0.30    2.70
  10   1  -3    4.10    4.30
  10   1  -3    9.80    3.90
 -10   1   3    6.80    4.40
 -10   1   3    4.80    3.00
  10   1  -3    2.70    2.10
  10   1  -3    6.90    2.10
  -9  -1   3  240.58    9.50
  -9  -1   3  247.48    9.10
   9  -1  -3  251.87    8.90
   9  -1  -3  262.87    9.30
   9  -1  -3  247.38    6.70
  -9  -1   3  250.37    7.00
   9  -1  -3  279.77    8.70
  -9  -1   3  267.37    8.60
   9   1  -3  243.38    7.90
   9   1  -3  266.07    9.80
  -9   1   3  240.78    6.60
   9   1  -3  250.57    8.00
   9   1  -3  246.18    8.80
  -9   1   3  259.37    8.20
   9   1  -3  245.08    7.20
  -9   1   3  262.57    8.50
  -9   1   3  266.57   10.00
  -8  -1   3    8.00    2.10
  -8  -1   3    7.60    2.70
   8  -1  -3    9.70    1.50
  -8  -1   3   15.00    3.30
   8  -1  -3   11.40    2.60
   8  -1  -3   10.30    3.60
  -8  -1   3   -0.70    3.20
   8  -1  -3   11.20    2.80
  -8   1   3    7.90    2.00
   8   1  -3    6.10    3.30
   8   1  -3   10.30    3.30
  -8   1   3   13.20    2.40
  -8   1   3    8.00    1.50
   8   1  -3   12.00    2.50
   8   1  -3    9.40    1.60
   8   1  -3    5.10    2.30
  -8   1   3    9.80    3.50
  -7  -1   3  446.56   12.00
   7  -1  -3  440.36   11.90
   7  -1  -3  472.55   11.30
  -7  -1   3  444.76   11.40
  -7  -1   3  425.86   10.20
  -7  -1   3  450.05   11.60
   7  -1  -3  422.56    9.80
   7  -1  -3  430.86   11.70
   7   1  -3  469.05   12.30
  -7   1   3  464.95   11.30
   7   1  -3  455.25   12.00
  -7   1   3  447.16   11.80
  -7   1   3  429.46    9.60
   7   1  -3  442.36   10.50
  -7   1   3  447.36   10.60
   7   1  -3  447.56    9.90
  -6  -1   3 1076.99   23.40
   6  -1  -3 1110.49   23.40
  -6  -1   3 1087.89   23.20
   6  -1  -3 1053.59   21.60
   6  -1  -3 1071.69   22.70
  -6  -1   3 1071.59   22.00
  -6  -1   3 1091.59   23.00
   6  -1  -3 1045.00   23.40
  -6   1   3 1121.09   23.90
  -6   1   3 1088.99   22.90
   6   1  -3 1080.89   22.00
  -6   1   3 1056.99   22.10
   6   1  -3 1047.60   21.40
  -6   1   3 1072.69   23.40
   6   1  -3 1062.09   23.20
   6   1  -3 1073.49   23.70
   5  -1  -3 1112.99   23.10
  -5  -1   3 1105.39   22.90
   5  -1  -3 1070.09   21.70
   5  -1  -3 1066.79   22.50
  -5  -1   3 1110.69   23.00
   5  -1  -3 1095.59   23.30
  -5  -1   3 1103.39   22.00
  -5  -1   3 1110.99   23.20
  -5   1   3 1077.49   22.80
   5   1  -3 1100.79   22.90
  -5   1   3 1051.89   23.10
  -5   1   3 1071.09   21.90
   5   1  -3 1084.49   22.50
  -5   1   3 1066.09   22.80
   5   1  -3 1073.09   21.80
   5   1  -3 1086.69   23.40
  -4  -1   3  411.06    9.10
  -4  -1   3  426.56    9.90
   4  -1  -3  419.06    9.90
   4  -1  -3  405.06    9.50
  -4  -1   3  402.16   10.10
  -4  -1   3  411.86   10.00
   4  -1  -3  418.06    8.80
   4  -1  -3  422.46   10.00
  -4  -1   3  424.06    9.90
   4   1  -3  412.76    8.70
   4   1  -3  405.96    9.50
  -4   1   3  415.66    8.80
   4   1  -3  429.86   10.40
  -4   1   3  407.46    9.80
  -4   1   3  405.16    9.70
  -4   1   3  409.06    9.70
   4   1  -3  407.36    9.60
  -3  -1   3   14.10    1.80
   3  -1  -3   16.50    1.60
   3  -1  -3   15.10    1.50
  -3  -1   3   14.70    1.30
  -3  -1   3   13.90    1.70
   3  -1  -3   14.70    1.60
  -3  -1   3   14.80    1.50
   3  -1  -3   13.90    1.10
  -3  -1   3   14.60    1.00
   3  -1  -3   14.10    0.60
  -3  -1   3   16.90    1.70
  -3  -1   3   14.20    1.40
  -3   1   3   15.70    1.70
   3   1  -3   15.00    1.90
   3   1  -3   14.60    1.60
   3   1  -3   14.20    0.50
  -3   1   3   15.60    1.00
   3   1  -3   14.00    1.50
  -3   1   3   12.30    1.30
  -3   1   3   17.90    1.90
   3   1  -3   13.90    0.90
   2  -1  -3  299.77    6.00
  -2  -1   3  293.97    7.10
  -2  -1   3  291.97    6.10
  -2  -1   3  301.57    6.60
  -2  -1   3  308.97    6.90
  -2  -1   3  302.77    7.40
  -2  -1   3  298.57    7.20
   2  -1  -3  311.77    7.40
   2  -1  -3  305.37    7.20
  -2  -1   3  288.17    6.90
   2  -1  -3  300.77    6.60
   2  -1  -3  305.77    7.10
  -2   1   3  301.67    7.20
   2   1  -3  307.57    6.70
  -2   1   3  295.77    5.80
  -2   1   3  289.97    6.90
   2   1  -3  297.17    6.00
  -2   1   3  299.87    7.20
   2   1  -3  300.07    6.90
   2   1  -3  305.57    7.40
  -1  -1   3  793.02   15.90
  -1  -1   3  791.82   16.40
   1  -1  -3  810.62   16.50
  -1  -1   3  801.82   16.60
   1  -1  -3  798.02   15.70
  -1  -1   3  788.22   16.50
  -1  -1   3  801.42   16.30
   1  -1  -3  795.52   16.20
   1   1  -3  811.12   16.30
  -1   1   3  807.72   16.70
  -1   1   3  793.82   16.10
  -1   1   3  799.82   16.50
   1   1  -3  806.92   15.70
   1   1  -3  802.22   16.50
   0  -1   3 7939.11  155.58
   0  -1   3 7988.30  155.88
   0  -1   3 7939.51  156.38
   0  -1  -3 7803.32  154.08
   0  -1   3 7795.82  155.48
   0  -1  -3 7828.52  155.98
   0  -1   3 7887.11  156.48
   0  -1  -3 7942.01  155.68
   0   1   3 7805.42  154.78
   0   1   3 7794.32  155.58
   0   1  -3 8113.99  156.38
   0   1  -3 8009.90  154.48
   0   1   3 7899.71  152.88
   0   1  -3 7750.82  154.78
   1  -1   3 1233.78   24.00
  -1  -1  -3 1244.88   24.80
  -1  -1  -3 1241.38   24.80
   1  -1   3 1240.38   24.90
  -1  -1  -3 1235.88   24.60
   1  -1   3 1227.18   24.60
   1  -1   3 1239.08   23.90
   1  -1   3 1226.38   24.90
   1  -1   3 1213.48   24.00
   1  -1   3 1235.58   25.00
   1   1   3 1232.08   24.70
   1   1   3 1235.88   24.40
  -1   1  -3 1233.58   24.50
  -1   1  -3 1262.07   24.00
  -1   1  -3 1209.48   24.20
   2  -1   3  106.59    3.90
  -2  -1  -3   96.99    3.30
   2  -1   3  105.79    3.60
   2  -1   3  100.99    2.90
   2  -1   3   99.59    3.60
   2  -1   3  100.39    3.60
  -2  -1  -3  110.19    3.60
  -2  -1  -3   96.79    2.30
  -2   1  -3   98.39    3.20
   2   1   3  104.29    2.40
  -2   1  -3   98.89    2.70
   2   1   3  102.39    3.40
   2   1   3   98.89    3.50
   2   1   3  102.49    2.80
  -3  -1  -3  191.48    5.50
   3  -1   3  190.58    5.70
  -3  -1  -3  185.38    4.40
   3  -1   3  181.88    5.60
   3  -1   3  187.38    5.30
  -3  -1  -3  185.88    5.50
  -3  -1  -3  189.78    5.30
   3  -1   3  194.28    5.10
   3  -1   3  192.08    5.70
   3   1   3  193.98    5.60
  -3   1  -3  189.08    5.60
   3   1   3  195.28    4.00
  -3   1  -3  183.78    4.40
  -3   1  -3  184.48    5.00
   3   1   3  182.48    5.30
   4  -1   3    1.70    1.10
   4  -1   3    0.60    0.30
  -4  -1  -3    0.10    1.00
   4  -1   3   -0.30    1.90
   4  -1   3    1.80    1.50
   4  -1   3   -1.90    1.80
  -4  -1  -3    1.30    1.30
   4  -1   3    0.60    1.70
  -4  -1  -3    1.70    1.30
   4   1   3    1.40    1.80
  -4   1  -3    2.80    1.80
  -4   1  -3   -0.70    1.30
   4   1   3   -3.40    1.70
  -4   1  -3    2.30    0.90
   5  -1   3  968.50   20.70
   5  -1   3  943.01   20.30
   5  -1   3  915.51   20.50
   5  -1   3  970.40   21.00
  -5  -1  -3  972.30   20.70
   5  -1   3  910.41   18.60
   5  -1   3  960.10   21.10
  -5  -1  -3  924.11   20.60
  -5  -1  -3  909.81   19.50
   5   1   3  938.21   20.60
  -5   1  -3  943.91   19.90
   5   1   3  942.21   19.40
   5   1   3  985.10   20.60
  -5   1  -3  929.71   20.60
   5   1   3  966.70   20.60
   6  -1   3  301.67    9.10
   6  -1   3  290.17    7.00
   6  -1   3  316.07    9.60
   6  -1   3  336.07    9.70
  -6  -1  -3  304.27    9.20
   6  -1   3  305.87    8.90
  -6  -1  -3  317.67    9.20
  -6  -1  -3  320.87    8.30
   6   1   3  309.87    9.30
   6   1   3  309.47    8.70
  -6   1  -3  309.07    9.20
   6   1   3  322.27    9.00
  -6   1  -3  319.77    8.50
   6   1   3  301.47    7.60
   7  -1   3  303.77    9.10
  -7  -1  -3  290.57    8.30
   7  -1   3  300.57    9.30
   7  -1   3  292.77    9.60
  -7  -1  -3  289.57    8.90
   7  -1   3  280.97    7.10
  -7  -1  -3  302.17    9.40
   7  -1   3  296.37    9.30
   7   1   3  302.47    9.10
  -7   1  -3  302.67    8.60
   7   1   3  296.77    8.80
  -7   1  -3  299.17    9.60
  -7   1  -3  300.07    8.10
   7   1   3  282.87    7.50
   7   1   3  296.87    8.90
   8  -1   3   29.60    3.70
   8  -1   3   27.50    4.40
   8  -1   3   33.40    3.80
   8  -1   3   27.40    4.40
  -8  -1  -3   28.90    3.40
  -8  -1  -3   34.30    4.20
   8  -1   3   26.20    2.20
  -8  -1  -3   28.90    4.20
   8   1   3   27.60    2.30
   8   1   3   36.10    3.70
  -8   1  -3   33.20    3.00
   8   1   3   28.90    3.60
   8   1   3   39.30    3.70
  -8   1  -3   37.40    3.70
  -8   1  -3   32.50    4.30
   9  -1   3   23.60    3.70
  -9  -1  -3   24.30    4.20
   9  -1   3   25.40    4.90
   9  -1   3   25.60    4.80
   9  -1   3   22.50    4.70
  -9  -1  -3   28.50    4.60
  -9  -1  -3   31.90    4.30
   9   1   3   25.60    3.80
  -9   1  -3   30.40    4.80
  -9   1  -3   23.90    3.20
   9   1   3   29.30    3.70
  -9   1  -3   30.60    3.70
  -9   1  -3   29.60    3.10
   9   1   3   24.20    3.60
  10  -1   3    9.80    3.50
 -10  -1  -3    7.40    4.50
 -10  -1  -3    7.60    3.60
  10  -1   3    7.20    3.50
 -10  -1  -3   11.10    4.10
  10  -1   3   15.20    4.90
  10  -1   3    4.90    3.50
 -10   1  -3    4.90    3.10
 -10   1  -3    7.10    4.60
 -10   1  -3    8.00    3.60
  10   1   3    9.70    4.50
  10   1   3    5.20    4.70
  10   1   3    6.90    3.20
  11  -1   3   -4.10    5.00
 -11  -1  -3   -5.10    4.00
  11  -1   3    0.00    3.60
  11  -1   3   -0.60    5.00
  11  -1   3   -0.20    3.60
 -11  -1  -3   -1.00    4.30
  11   1   3    1.20    5.20
  11   1   3   -3.20    4.70
 -11   1  -3   -3.40    3.70
 -11   1  -3    3.20    3.20
 -11   1  -3    6.80    5.20
  12  -1   3  113.29    8.90
  12  -1   3   85.19    8.10
 -12  -1  -3  102.29    7.60
  12  -1   3  102.99    8.60
 -12  -1  -3   98.79    8.40
  12   1   3  103.09    6.80
  12   1   3   95.79    7.50
  12   1   3   89.89    7.80
 -12   1  -3   95.79    7.10
 -12   1  -3  110.19    8.70
  13  -1   3    6.10    6.40
 -13  -1  -3    3.10    6.60
 -13  -1  -3   -0.90    4.80
  13  -1   3    2.70    6.50
  13  -1   3   -0.10    4.50
 -13   1  -3   15.10    5.30
  13   1   3    8.90    6.70
  13   1   3    0.20    5.90
  13   1   3    3.90    5.50
 -13   1  -3    4.30    6.30
  14  -1   3   22.00    7.60
  14  -1   3   24.50    7.50
 -14  -1  -3   29.00    6.10
  14  -1   3   30.30    7.70
  14   1   3   20.60    7.00
 -14   1  -3   33.10    7.70
  14   1   3   31.90    6.80
  14   1   3   37.50    6.30
 -15  -2   3   -3.50    7.00
  15  -2  -3    4.80    8.00
 -15   2   3    4.50    8.10
  15   2  -3    6.80    7.50
 -14  -2   3   -7.20    6.40
  14  -2  -3    4.60    5.60
 -14  -2   3   -0.70    5.10
  14  -2  -3   -0.70    5.10
  14   2  -3    0.80    4.50
 -14   2   3   -2.00    7.00
  14   2  -3    9.90    6.90
  13  -2  -3   31.00    6.00
 -13  -2   3   22.00    6.30
 -13  -2   3   32.60    5.90
 -13  -2   3   32.10    6.90
  13  -2  -3   25.20    7.40
  13   2  -3   30.60    4.10
 -13   2   3   39.40    5.80
  13   2  -3   27.30    5.50
  13   2  -3   36.00    6.50
  13   2  -3   28.20    5.10
 -13   2   3   38.90    7.70
 -12  -2   3   75.09    7.40
  12  -2  -3   66.39    6.70
 -12  -2   3   77.19    6.90
  12  -2  -3   64.19    8.00
 -12  -2   3   76.69    7.30
 -12   2   3   65.19    6.10
  12   2  -3   79.89    5.80
  12   2  -3   72.39    6.30
  12   2  -3   69.89    7.50
 -12   2   3   70.79    6.20
 -12   2   3   68.89    8.10
  12   2  -3   74.59    6.10
  11  -2  -3   80.49    6.50
 -11  -2   3   81.59    6.90
 -11  -2   3   83.09    7.20
  11  -2  -3   80.59    7.80
 -11  -2   3   85.59    6.60
  11   2  -3   85.09    7.10
  11   2  -3   75.89    5.40
  11   2  -3   74.99    7.00
 -11   2   3   89.99    6.50
 -11   2   3   91.79    7.90
 -11   2   3   86.99    5.90
 -10  -2   3   12.50    4.40
 -10  -2   3    6.00    3.90
  10  -2  -3    3.90    2.90
  10  -2  -3   15.60    4.20
  10  -2  -3    9.10    3.60
 -10  -2   3    7.90    4.40
 -10   2   3    8.10    3.50
  10   2  -3    7.20    3.10
  10   2  -3    9.90    4.60
 -10   2   3    6.70    3.70
  10   2  -3    3.80    4.10
  -9  -2   3  207.58    8.80
   9  -2  -3  190.18    9.30
  -9  -2   3  208.38    8.20
   9  -2  -3  198.48    7.80
  -9  -2   3  200.98    8.50
   9  -2  -3  201.48    8.60
  -9   2   3  189.98    8.10
   9   2  -3  207.08    8.50
   9   2  -3  208.68    7.00
   9   2  -3  197.38    8.90
  -9   2   3  210.48    8.50
   8  -2  -3   48.80    4.50
  -8  -2   3   44.00    4.50
  -8  -2   3   37.30    4.50
   8  -2  -3   40.40    4.20
   8  -2  -3   43.60    3.80
  -8  -2   3   46.70    4.50
  -8   2   3   41.20    3.70
   8   2  -3   43.70    3.30
   8   2  -3   48.20    4.70
   8   2  -3   45.50    4.20
  -8   2   3   44.70    4.20
   7  -2  -3  137.29    3.50
   7  -2  -3  147.89    7.10
  -7  -2   3  153.38    6.80
  -7  -2   3  148.59    6.60
   7  -2  -3  143.99    5.90
  -7  -2   3  135.79    5.80
  -7  -2   3  123.99    5.00
   7  -2  -3  138.59    6.40
  -7   2   3  142.19    6.40
  -7   2   3  132.39    6.10
   7   2  -3  139.19    7.00
   7   2  -3  139.19    4.90
   7   2  -3  127.29    6.50
   6  -2  -3  274.67    8.70
  -6  -2   3  286.77    8.40
  -6  -2   3  273.07    8.10
  -6  -2   3  265.97    7.50
  -6  -2   3  265.87    8.20
   6  -2  -3  278.57    8.70
   6  -2  -3  280.87    8.20
   6  -2  -3  279.17    6.20
   6   2  -3  291.67    9.20
  -6   2   3  280.67    8.50
  -6   2   3  276.17    8.20
   6   2  -3  284.87    8.60
   6   2  -3  272.97    7.10
   5  -2  -3  581.64   14.20
  -5  -2   3  589.44   14.10
   5  -2  -3  573.24   13.90
  -5  -2   3  571.84   13.10
   5  -2  -3  620.54   14.10
  -5  -2   3  572.04   11.70
   5  -2  -3  584.64   12.20
  -5  -2   3  606.84   14.40
   5  -2  -3  607.74   14.30
  -5   2   3  606.14   14.10
  -5   2   3  608.94   14.40
   5   2  -3  616.04   14.80
   5   2  -3  599.94   13.80
   5   2  -3  582.74   12.70
  -5   2   3  590.44   14.10
   4  -2  -3  785.82   17.30
  -4  -2   3  771.12   16.60
  -4  -2   3  766.22   17.40
  -4  -2   3  767.62   15.70
   4  -2  -3  773.62   15.10
  -4  -2   3  770.32   17.40
   4  -2  -3  780.42   17.50
   4  -2  -3  770.92   15.80
   4   2  -3  799.02   16.90
  -4   2   3  774.02   17.20
  -4   2   3  798.72   17.40
   4   2  -3  767.52   16.00
   4   2  -3  808.12   17.90
  -4   2   3  768.92   16.90
  -3  -2   3    1.20    0.90
  -3  -2   3    1.70    1.30
   3  -2  -3    1.50    1.90
  -3  -2   3    2.60    1.80
   3  -2  -3    2.50    1.20
   3  -2  -3    5.10    1.80
  -3  -2   3    0.60    1.30
   3  -2  -3    2.50    0.80
  -3   2   3    2.10    1.00
   3   2  -3    3.30    1.80
  -3   2   3    3.20    1.60
   3   2  -3    2.40    0.90
  -3   2   3    1.50    1.70
   3   2  -3    3.30    1.10
  -2  -2   3    0.00    1.30
   2  -2  -3    1.90    0.80
  -2  -2   3    1.90    1.50
  -2  -2   3    0.60    1.30
  -2  -2   3    0.10    1.00
  -2  -2   3    0.60    1.10
   2  -2  -3    0.00    1.10
  -2  -2   3    2.10    1.60
   2  -2  -3    0.70    1.70
   2  -2  -3    0.50    1.00
  -2   2   3    1.50    1.30
   2   2  -3    0.40    0.80
   2   2  -3    1.30    1.50
   2   2  -3    3.90    1.20
  -2   2   3    1.70    1.50
  -2   2   3    1.50    1.20
  -1  -2   3   49.90    2.90
   1  -2  -3   49.20    3.20
   1  -2  -3   52.69    2.80
   1  -2  -3   49.80    2.30
  -1  -2   3   48.00    2.50
  -1  -2   3   45.70    2.80
  -1  -2   3   47.30    2.70
  -1  -2   3   46.90    2.40
  -1  -2   3   46.40    2.40
   1  -2  -3   50.29    1.60
  -1   2   3   49.70    2.20
  -1   2   3   51.59    2.80
   1   2  -3   45.40    2.50
   1   2  -3   49.10    2.50
   0  -2  -3  957.80   20.20
   0  -2  -3  942.81   19.70
   0  -2   3  934.41   19.70
   0  -2   3  948.01   19.90
   0  -2   3  945.21   19.20
   0  -2   3  947.11   20.10
   0  -2   3  956.70   20.00
   0  -2  -3  940.11   19.00
   0   2  -3  942.51   19.30
   0   2   3  958.60   19.90
   0   2  -3  964.80   19.60
   0   2  -3  959.00   19.60
   0   2   3  951.10   19.60
   0   2   3  942.31   18.80
   1  -2   3    5.40    1.60
   1  -2   3    6.60    1.90
   1  -2   3    6.40    1.10
  -1  -2  -3    5.30    1.40
  -1  -2  -3    3.40    1.60
  -1  -2  -3    7.00    1.90
   1  -2   3    5.20    1.30
  -1  -2  -3    4.00    1.10
  -1   2  -3    5.00    1.10
  -1   2  -3    6.90    1.10
  -1   2  -3    4.70    1.00
   1   2   3    5.60    0.60
   1   2   3    4.40    1.20
   1   2   3    5.70    1.70
  -2  -2  -3 1104.09   22.60
  -2  -2  -3 1095.89   23.10
   2  -2   3 1070.09   21.80
   2  -2   3 1098.29   23.20
   2  -2   3 1079.99   23.20
  -2  -2  -3 1084.39   22.80
  -2  -2  -3 1075.09   23.10
   2  -2   3 1121.09   23.40
  -2   2  -3 1067.09   21.70
   2   2   3 1126.29   22.90
  -2   2  -3 1102.59   22.30
   2   2   3 1108.29   23.20
  -2   2  -3 1109.39   21.60
   2   2   3 1082.09   21.90
   3  -2   3  246.98    7.30
  -3  -2  -3  237.98    7.20
  -3  -2  -3  248.38    6.90
  -3  -2  -3  269.17    7.40
  -3  -2  -3  250.07    7.50
   3  -2   3  255.97    7.40
   3  -2   3  245.98    5.90
   3  -2   3  258.27    7.80
   3   2   3  242.08    5.60
  -3   2  -3  243.18    5.00
   3   2   3  241.98    7.10
  -3   2  -3  238.88    5.00
  -3   2  -3  239.28    7.40
  -3   2  -3  240.38    5.40
   3   2   3  244.78    7.30
  -3   2  -3  236.28    6.30
   4  -2   3   54.89    2.60
   4  -2   3   58.29    3.30
  -4  -2  -3   56.79    3.80
   4  -2   3   55.49    3.60
   4  -2   3   57.49    3.80
  -4  -2  -3   55.99    4.10
  -4  -2  -3   55.39    3.80
   4  -2   3   55.49    4.20
  -4  -2  -3   55.69    3.80
   4   2   3   50.89    3.60
  -4   2  -3   58.99    4.20
   4   2   3   55.69    3.90
  -4   2  -3   60.79    3.00
  -4   2  -3   57.39    1.80
   5  -2   3    8.00    2.00
   5  -2   3    5.20    2.80
   5  -2   3    6.10    2.90
  -5  -2  -3    7.90    2.80
  -5  -2  -3    8.90    2.20
   5  -2   3    2.80    2.10
   5  -2   3    5.40    2.10
  -5  -2  -3    7.30    1.40
   5  -2   3    5.90    1.40
  -5   2  -3    8.00    1.80
  -5   2  -3    8.80    2.80
   5   2   3    7.80    2.10
   5   2   3   10.30    2.90
   6  -2   3   14.80    3.40
  -6  -2  -3   14.30    3.30
  -6  -2  -3   11.70    1.90
  -6  -2  -3   14.60    3.40
   6  -2   3   11.60    2.80
  -6  -2  -3   13.10    3.30
   6  -2   3   15.60    3.00
   6  -2   3   14.40    3.00
  -6   2  -3   13.30    3.30
   6   2   3   15.50    2.50
   6   2   3   14.60    1.70
  -6   2  -3   14.40    2.30
   6   2   3   13.30    3.10
   6   2   3   13.60    3.40
   7  -2   3  552.64   14.90
  -7  -2  -3  533.05   12.80
  -7  -2  -3  566.54   14.90
  -7  -2  -3  568.94   15.20
   7  -2   3  558.94   14.70
   7  -2   3  566.84   15.40
  -7  -2  -3  561.94   15.00
   7  -2   3  567.64   15.20
   7   2   3  548.25   14.50
  -7   2  -3  538.65   13.20
   7   2   3  546.25   14.30
  -7   2  -3  553.14   14.80
   7   2   3  543.85   14.50
  -8  -2  -3   24.20    4.50
  -8  -2  -3   29.00    3.90
   8  -2   3   22.80    4.20
   8  -2   3   28.40    5.00
  -8  -2  -3   32.20    4.00
   8  -2   3   27.80    5.00
   8  -2   3   31.60    3.80
   8   2   3   32.60    4.30
  -8   2  -3   29.40    3.30
  -8   2  -3   28.10    4.90
   8   2   3   26.40    4.20
   8   2   3   30.60    4.80
   9  -2   3   21.60    4.90
  -9  -2  -3   17.90    4.90
   9  -2   3   14.00    4.40
  -9  -2  -3   22.40    5.20
   9  -2   3   23.60    5.20
   9  -2   3   26.10    5.30
   9   2   3   14.10    4.90
  -9   2  -3   21.00    4.10
  -9   2  -3   24.80    5.30
  -9   2  -3   19.00    3.30
   9   2   3   23.60    4.70
   9   2   3   29.00    3.90
  10  -2   3   48.50    4.80
  10  -2   3   70.59    6.80
  10  -2   3   40.90    5.30
  10  -2   3   45.10    6.60
 -10  -2  -3   53.49    6.20
 -10  -2  -3   61.29    6.70
  10   2   3   53.49    6.00
 -10   2  -3   52.79    6.70
  10   2   3   48.70    6.40
  10   2   3   43.40    5.30
 -10   2  -3   53.89    5.40
 -10   2  -3   52.29    4.60
  11  -2   3   -2.10    5.50
 -11  -2  -3    6.20    5.10
  11  -2   3   -6.90    3.90
 -11  -2  -3    4.90    5.40
  11  -2   3    1.60    4.50
  11  -2   3   -0.30    5.40
 -11   2  -3    0.10    3.60
 -11   2  -3   -1.00    5.90
  11   2   3    3.40    5.80
  11   2   3    4.80    4.10
  11   2   3    1.50    4.80
 -11   2  -3    4.20    4.20
  12  -2   3    9.20    5.00
  12  -2   3    7.20    6.10
 -12  -2  -3   -0.20    5.20
  12  -2   3    7.50    6.60
 -12  -2  -3    5.90    4.50
 -12   2  -3    9.10    6.70
  12   2   3   -3.60    5.30
 -12   2  -3    6.30    4.50
  12   2   3    6.50    6.60
 -13  -2  -3    3.40    5.90
  13  -2   3   -1.80    6.70
 -13  -2  -3   -0.50    6.60
  13  -2   3   -1.10    6.50
  13   2   3    0.40    4.10
  13   2   3    2.70    4.90
 -13   2  -3   -2.80    6.90
 -14  -2  -3    6.00    6.30
 -14  -2  -3   -5.20    7.20
  14  -2   3   -7.50    7.00
  14  -2   3   -2.60    4.90
  14   2   3   21.50    8.20
  14   2   3    7.20    6.60
 -14   2  -3   16.20    7.80
  15  -3  -3   76.39    9.10
 -15  -3   3   77.89    8.80
  15  -3  -3   57.59   10.70
  15  -3  -3   80.49    9.20
 -15  -3   3   65.99    9.90
 -15   3   3   87.19   10.10
  15   3  -3   82.49   10.30
 -15   3   3   74.49    8.80
  14  -3  -3   13.60    6.80
  14  -3  -3   14.00    6.90
  14  -3  -3    0.10    8.10
 -14  -3   3   -1.70    6.10
 -14  -3   3    7.50    5.20
  14   3  -3    6.10    5.60
 -14   3   3    1.90    7.90
  14   3  -3   -7.60    7.10
 -14   3   3    6.90    6.00
 -13  -3   3   65.19    7.90
  13  -3  -3   44.80    7.40
 -13  -3   3   63.69    8.30
  13  -3  -3   64.69    7.90
  13  -3  -3   87.79   10.40
  13   3  -3   42.20    8.10
 -13   3   3   65.19    7.40
 -13   3   3   69.39    9.20
  13   3  -3   61.99    6.80
  12  -3  -3   68.29    7.50
  12  -3  -3   86.29    8.30
 -12  -3   3   64.49    7.90
  12  -3  -3   91.29    9.60
 -12  -3   3   91.39    8.30
  12   3  -3   84.29    8.30
 -12   3   3   77.29    8.60
 -12   3   3   80.59    7.30
 -11  -3   3    5.60    5.30
  11  -3  -3   16.60    5.70
 -11  -3   3    8.80    5.30
  11  -3  -3   14.70    5.40
  11  -3  -3   17.50    5.10
 -11  -3   3   10.20    4.50
 -11   3   3   10.70    5.00
  11   3  -3   11.50    4.20
 -11   3   3   14.10    6.10
  11   3  -3    9.30    3.70
  11   3  -3   15.00    4.50
  10  -3  -3  439.76   14.80
 -10  -3   3  423.96   13.80
  10  -3  -3  433.46   15.70
 -10  -3   3  447.56   14.60
  10  -3  -3  455.45   14.80
  10   3  -3  434.66   14.70
 -10   3   3  430.26   14.10
  10   3  -3  428.96   11.60
 -10   3   3  435.16   14.20
  10   3  -3  441.26   15.20
  -9  -3   3   16.60    4.70
  -9  -3   3   12.30    3.50
   9  -3  -3    8.30    4.90
   9  -3  -3   18.00    4.80
   9  -3  -3    7.30    4.20
   9   3  -3   16.50    3.20
  -9   3   3   16.80    4.60
  -9   3   3    3.90    3.50
   9   3  -3   14.00    4.70
   9   3  -3   13.00    4.70
   8  -3  -3  472.55   13.90
  -8  -3   3  463.75   13.40
  -8  -3   3  457.95   11.40
   8  -3  -3  457.05   14.20
  -8  -3   3  475.55   14.20
   8   3  -3  465.55   13.70
  -8   3   3  463.75   14.30
   8   3  -3  464.05   14.60
   8   3  -3  461.55   11.80
  -8   3   3  492.45   14.00
  -7  -3   3   29.60    2.90
  -7  -3   3   26.00    4.30
   7  -3  -3   21.60    4.20
  -7  -3   3   20.30    4.00
   7  -3  -3   18.70    3.90
  -7   3   3   12.70    4.20
  -7   3   3   12.30    3.90
   7   3  -3   21.10    2.80
   7   3  -3   28.90    3.70
   7   3  -3   20.60    4.10
   6  -3  -3  782.62   19.40
  -6  -3   3  801.12   19.40
  -6  -3   3  769.22   17.30
   6  -3  -3  787.02   19.00
  -6  -3   3  768.02   19.20
   6   3  -3  813.12   18.60
   6   3  -3  806.22   17.30
   6   3  -3  796.72   19.80
  -6   3   3  775.52   19.10
  -6   3   3  814.22   19.30
  -5  -3   3  265.27    7.40
   5  -3  -3  274.47    8.80
  -5  -3   3  261.17    8.80
  -5  -3   3  268.27    9.10
   5  -3  -3  275.47    8.70
  -5  -3   3  253.67    6.20
   5   3  -3  267.27    9.30
   5   3  -3  247.08    6.80
  -5   3   3  274.67    8.80
  -5   3   3  270.87    8.90
   5   3  -3  270.67    8.60
   4  -3  -3   27.40    3.30
   4  -3  -3   29.70    3.20
  -4  -3   3   29.10    3.50
   4  -3  -3   29.70    1.60
  -4  -3   3   30.10    2.60
  -4  -3   3   34.20    2.30
  -4  -3   3   35.10    3.70
   4   3  -3   32.40    2.50
  -4   3   3   30.70    3.40
  -4   3   3   23.50    3.10
   4   3  -3   37.60    3.80
   4   3  -3   36.00    3.00
  -3  -3   3  841.52   17.80
   3  -3  -3  824.02   17.30
  -3  -3   3  843.12   18.30
  -3  -3   3  855.31   19.10
   3  -3  -3  833.02   19.40
  -3  -3   3  826.22   19.10
   3  -3  -3  840.72   19.10
  -3  -3   3  827.62   17.90
   3   3  -3  835.42   17.80
  -3   3   3  828.82   18.50
   3   3  -3  837.92   18.50
   3   3  -3  865.51   19.50
  -3   3   3  861.01   19.00
  -3   3   3  819.22   16.40
  -2  -3   3   85.69    4.00
  -2  -3   3   79.79    4.10
  -2  -3   3   79.99    3.90
   2  -3  -3   77.29    4.70
   2  -3  -3   76.79    3.50
   2  -3  -3   78.89    5.00
  -2  -3   3   84.09    3.80
  -2  -3   3   84.39    4.30
  -2  -3   3   85.29    4.70
  -2   3   3   83.49    4.50
   2   3  -3   96.99    4.80
   2   3  -3   89.09    3.40
  -2   3   3   76.49    4.10
   2   3  -3   92.49    4.10
   1  -3  -3 2137.79   43.80
  -1  -3   3 2113.79   43.00
  -1  -3   3 2141.69   43.20
  -1  -3   3 2195.08   43.40
   1  -3  -3 2130.89   41.70
   1  -3  -3 2112.79   43.70
  -1  -3   3 2160.18   43.30
  -1  -3   3 2191.38   43.40
  -1  -3   3 2143.09   42.90
   1  -3  -3 2132.09   42.80
  -1   3   3 2103.19   42.40
   1   3  -3 2148.58   43.40
  -1   3   3 2165.48   43.20
   0  -3   3    1.60    1.80
   0  -3  -3    1.00    1.30
   0  -3   3   -0.20    1.80
   0  -3   3    0.60    1.50
   0  -3   3   -1.50    1.50
   0  -3  -3    1.70    1.30
   0  -3  -3   -0.60    2.20
   0  -3   3    1.20    2.00
   0  -3   3    0.40    1.90
   0   3  -3    0.80    1.60
   0   3   3    1.10    1.00
   0   3   3   -1.90    2.00
   0   3  -3    2.10    1.60
   0   3  -3    0.90    1.50
   0   3   3   -0.10    1.60
  -1  -3  -3  229.78    6.40
   1  -3   3  245.18    7.70
   1  -3   3  238.88    6.50
   1  -3   3  233.58    7.20
   1  -3   3  246.98    7.80
  -1  -3  -3  237.38    7.50
  -1  -3  -3  237.38    7.30
   1   3   3  230.78    7.30
  -1   3  -3  239.38    6.20
  -1   3  -3  235.28    6.60
  -1   3  -3  245.48    6.60
   1   3   3  235.28    6.50
   1   3   3  228.98    5.60
   2  -3   3  127.99    4.40
   2  -3   3  124.29    6.00
  -2  -3  -3  132.99    5.70
  -2  -3  -3  131.59    5.90
   2  -3   3  127.69    5.70
   2  -3   3  134.39    6.10
  -2  -3  -3  137.19    5.30
  -2   3  -3  128.49    4.50
  -2   3  -3  136.59    4.20
   2   3   3  124.09    3.20
  -2   3  -3  127.49    5.30
   2   3   3  129.89    4.30
   2   3   3  130.99    5.10
  -2   3  -3  128.99    4.10
   3  -3   3    9.00    2.40
   3  -3   3   13.70    3.20
   3  -3   3    8.50    1.90
  -3  -3  -3   16.40    2.60
   3  -3   3    9.20    2.80
  -3  -3  -3   13.80    3.00
  -3  -3  -3    8.20    2.90
   3   3   3   12.10    2.90
   3   3   3   11.80    1.60
  -3   3  -3   11.20    1.90
  -3   3  -3    8.20    1.10
   3   3   3   10.50    2.90
  -3   3  -3   10.30    1.40
  -3   3  -3   10.00    2.30
   3   3   3   10.20    0.70
  -4  -3  -3  586.94   14.70
   4  -3   3  575.44   15.20
   4  -3   3  590.34   14.80
  -4  -3  -3  557.94   14.50
   4  -3   3  561.44   12.90
   4  -3   3  589.14   15.40
  -4  -3  -3  576.34   14.20
   4   3   3  605.84   14.50
  -4   3  -3  571.94   11.80
  -4   3  -3  553.14   11.70
   4   3   3  603.54   15.00
  -4   3  -3  575.64   15.00
  -4   3  -3  593.44   13.00
  -4   3  -3  551.14   11.70
   4   3   3  561.04   11.90
  -5  -3  -3   19.00    4.00
   5  -3   3   23.00    2.60
   5  -3   3   23.70    4.30
   5  -3   3   25.40    3.80
  -5  -3  -3   20.90    3.00
   5  -3   3   18.20    4.00
  -5  -3  -3   27.40    3.90
  -5   3  -3   23.60    4.10
  -5   3  -3   27.80    2.50
   5   3   3   28.40    3.40
   5   3   3   21.50    3.00
  -6  -3  -3  591.74   15.60
   6  -3   3  550.24   15.40
  -6  -3  -3  587.94   15.50
   6  -3   3  560.94   13.50
   6  -3   3  571.84   16.30
   6   3   3  565.14   15.10
  -6   3  -3  581.04   13.30
   6   3   3  571.04   16.00
   6   3   3  580.64   14.60
  -6   3  -3  575.04   15.90
  -7  -3  -3   14.40    4.20
   7  -3   3    9.50    4.50
   7  -3   3    4.60    3.00
  -7  -3  -3   12.80    3.40
   7  -3   3   14.80    3.70
   7  -3   3   12.20    2.40
   7   3   3   14.70    3.30
  -7   3  -3   13.40    4.60
   7   3   3   13.10    3.00
  -7   3  -3   18.10    3.10
   7   3   3   11.30    4.30
   8  -3   3  235.78    9.80
  -8  -3  -3  250.37   10.80
   8  -3   3  211.58   10.80
  -8  -3  -3  237.78   10.40
   8  -3   3  231.48   10.70
  -8   3  -3  244.28   10.90
   8   3   3  239.18    9.50
  -8   3  -3  231.98    9.00
  -8   3  -3  248.38    7.70
   8   3   3  237.88    9.60
   8   3   3  235.18   10.40
  -9  -3  -3   59.19    6.60
   9  -3   3   51.19    7.00
  -9  -3  -3   52.89    6.50
   9  -3   3   59.09    6.20
   9  -3   3   49.40    5.20
  -9   3  -3   42.10    6.40
   9   3   3   46.90    4.70
  -9   3  -3   63.39    6.30
   9   3   3   46.00    5.90
   9   3   3   50.59    6.70
  10  -3   3   -2.00    5.00
  10  -3   3   -4.60    5.00
  10  -3   3    1.50    5.90
 -10  -3  -3    2.80    5.50
 -10  -3  -3    2.30    5.30
  10   3   3    6.30    4.70
 -10   3  -3   -6.50    4.50
  10   3   3    2.80    4.70
  10   3   3   17.10    5.90
 -10   3  -3    8.00    6.00
 -11  -3  -3  185.08   11.80
  11  -3   3  180.98   11.50
 -11  -3  -3  173.28   10.10
  11  -3   3  190.98   10.90
  11  -3   3  196.68   11.60
  11   3   3  200.68   10.80
  11   3   3  185.18   11.00
  11   3   3  180.08   12.00
 -11   3  -3  213.68   12.70
 -11   3  -3  181.88   10.40
  12  -3   3   -8.30    7.00
 -12  -3  -3   -4.00    6.40
 -12  -3  -3   -1.50    6.20
  12  -3   3    5.60    6.60
  12  -3   3    4.00    5.90
 -12   3  -3    9.00    7.50
  12   3   3    1.40    5.60
 -12   3  -3    1.00    5.30
  12   3   3   -1.80    6.80
 -13  -3  -3  105.49   10.30
  13  -3   3   85.09   10.30
 -13  -3  -3  108.59   10.00
  13  -3   3   85.99    9.00
  13   3   3   91.29    8.50
 -13   3  -3   95.79    8.90
  13   3   3   88.69    9.90
 -13   3  -3   88.09    8.20
  14  -4  -3   20.80    8.00
 -14  -4   3   26.70    8.80
 -14   4   3   13.40    8.70
 -14   4   3   12.60    7.10
  14   4  -3   14.00    7.00
  14   4  -3   29.90    8.80
  13  -4  -3   13.50    7.50
 -13  -4   3   18.00    7.90
 -13  -4   3   11.60    7.20
  13  -4  -3    6.00    6.50
 -13   4   3   10.90    6.90
  13   4  -3   13.50    6.40
 -13   4   3    6.10    7.80
  13   4  -3    9.40    7.70
 -12  -4   3  111.19    9.90
  12  -4  -3  140.79   10.60
  12  -4  -3  106.29    9.20
 -12  -4   3  134.59   10.20
 -12   4   3  117.09    9.40
  12   4  -3  135.29   10.30
 -12   4   3  116.49   10.50
  11  -4  -3  139.19   10.30
  11  -4  -3  158.98   10.90
 -11  -4   3  151.18   10.20
 -11  -4   3  161.38    9.70
 -11   4   3  151.28    9.90
 -11   4   3  165.28   11.20
  11   4  -3  175.18   11.50
  10  -4  -3   35.30    6.80
 -10  -4   3   37.70    6.70
 -10  -4   3   22.20    6.50
  10  -4  -3   42.10    6.40
 -10   4   3   44.00    5.50
  10   4  -3   35.10    5.20
 -10   4   3   42.80    7.20
   9  -4  -3   17.90    5.00
  -9  -4   3   18.40    4.40
  -9  -4   3   19.20    5.70
   9  -4  -3   21.10    5.90
   9   4  -3   17.10    3.60
   9   4  -3   16.30    4.20
  -9   4   3   28.00    6.20
  -9   4   3   25.30    5.70
   9   4  -3   17.80    4.20
   8  -4  -3   12.10    4.10
  -8  -4   3   22.40    5.40
   8  -4  -3   19.50    4.90
  -8  -4   3   20.30    5.30
  -8   4   3   23.90    5.30
   8   4  -3   11.40    3.30
   8   4  -3   14.80    3.80
   8   4  -3   15.60    3.90
  -8   4   3   12.30    5.30
   7  -4  -3  249.58    9.70
   7  -4  -3  311.87   11.00
  -7  -4   3  285.07   11.30
  -7  -4   3  263.57   10.00
   7   4  -3  287.97    8.90
  -7   4   3  295.07   10.40
   7   4  -3  271.97   11.50
  -7   4   3  298.27   11.30
   7   4  -3  300.07   10.90
   6  -4  -3  523.05   14.80
  -6  -4   3  517.35   15.20
  -6  -4   3  505.05   15.00
   6  -4  -3  511.55   15.60
  -6  -4   3  503.15   12.70
   6   4  -3  507.95   12.80
   6   4  -3  533.15   14.60
  -6   4   3  514.35   15.00
   6   4  -3  508.95   15.60
  -6   4   3  513.75   14.80
  -5  -4   3  301.37   10.80
  -5  -4   3  290.27   10.60
   5  -4  -3  332.07   11.70
  -5  -4   3  292.37    8.60
   5  -4  -3  301.57   10.50
   5   4  -3  309.57    8.70
   5   4  -3  295.67   11.10
  -5   4   3  305.67   10.80
  -5   4   3  298.07   10.20
   5   4  -3  303.37   10.20
  -4  -4   3  459.25   13.10
  -4  -4   3  447.16   11.70
  -4  -4   3  446.76   11.20
   4  -4  -3  461.75   13.30
  -4  -4   3  472.15   13.40
   4  -4  -3  461.75   13.80
   4   4  -3  487.75   13.90
   4   4  -3  470.05   12.80
   4   4  -3  470.35   11.60
  -4   4   3  448.86   12.70
  -4   4   3  447.66   13.20
  -3  -4   3  286.27    8.60
  -3  -4   3  301.17   10.00
  -3  -4   3  313.87    9.00
   3  -4  -3  295.87   10.20
  -3  -4   3  305.87    9.80
   3  -4  -3  322.57   10.80
   3  -4  -3  306.67    7.90
   3   4  -3  295.67    9.40
  -3   4   3  307.27    9.50
   3   4  -3  305.97    8.60
  -3   4   3  297.37    9.10
   3   4  -3  302.07   10.20
  -2  -4   3   14.20    3.30
   2  -4  -3   16.90    2.30
  -2  -4   3   19.10    3.00
  -2  -4   3   20.40    3.00
   2  -4  -3   14.80    3.00
  -2  -4   3   13.70    2.50
   2  -4  -3   22.20    3.20
  -2  -4   3   17.90    3.40
  -2  -4   3   17.10    3.00
   2   4  -3   20.60    3.40
  -2   4   3   21.20    3.50
  -2   4   3   18.30    2.70
   2   4  -3   15.80    3.00
   2   4  -3   17.40    2.70
   1  -4  -3   89.89    5.90
   1  -4  -3   78.09    3.40
  -1  -4   3   83.29    5.30
  -1  -4   3   82.09    5.20
  -1  -4   3   81.39    5.00
   1  -4  -3   82.59    4.60
  -1  -4   3   87.09    5.30
  -1  -4   3   85.49    5.20
  -1  -4   3   73.89    4.50
   1  -4  -3   91.49    6.20
  -1   4   3   74.39    4.00
  -1   4   3   89.39    5.30
   1   4  -3   75.49    5.20
   0  -4   3  222.48    7.80
   0  -4  -3  236.68    9.00
   0  -4  -3  232.08    6.60
   0  -4  -3  226.68    7.70
   0  -4   3  231.88    8.50
   0  -4   3  245.08    7.90
   0  -4   3  230.08    7.70
   0  -4   3  222.78    7.50
   0  -4   3  252.17    8.40
   0   4  -3  238.78    7.50
   0   4   3  217.18    6.60
   0   4  -3  235.68    7.90
   0   4  -3  227.48    7.20
   0   4   3  242.08    7.60
   0   4   3  222.48    7.70
   1  -4   3  507.25   13.70
   1  -4   3  513.75   14.00
   1  -4   3  509.85   13.50
  -1  -4  -3  506.85   14.20
  -1  -4  -3  514.55   13.50
  -1  -4  -3  507.25   12.20
   1  -4   3  504.25   12.60
   1   4   3  518.25   13.60
  -1   4  -3  525.65   12.50
  -1   4  -3  493.35   12.00
   1   4   3  498.55   12.50
  -1   4  -3  524.15   12.90
  -2  -4  -3  315.97   10.70
   2  -4   3  330.77    9.10
  -2  -4  -3  303.27    9.00
   2  -4   3  316.77    9.80
   2  -4   3  341.47   11.10
   2  -4   3  310.67   10.80
  -2  -4  -3  338.87   10.50
  -2   4  -3  310.17    8.70
  -2   4  -3  326.17   10.70
  -2   4  -3  337.27    8.90
  -2   4  -3  323.17    8.20
   2   4   3  326.87   10.20
   2   4   3  305.37    8.50
  -3  -4  -3  444.96   13.20
   3  -4   3  434.06   12.90
  -3  -4  -3  456.85   13.40
  -3  -4  -3  465.45   12.20
   3  -4   3  462.05   13.20
   3  -4   3  425.76   11.40
   3  -4   3  449.36   13.20
   3   4   3  418.66   11.90
   3   4   3  466.05   13.40
  -3   4  -3  459.35   13.50
  -3   4  -3  450.25   11.00
  -3   4  -3  456.55   11.10
   4  -4   3   69.19    6.20
  -4  -4  -3   72.69    5.10
   4  -4   3   73.79    6.00
   4  -4   3   69.89    4.40
   4  -4   3   67.19    5.40
  -4  -4  -3   65.59    5.70
  -4  -4  -3   77.29    5.60
  -4   4  -3   70.09    6.00
  -4   4  -3   64.09    4.00
   4   4   3   68.79    5.70
   4   4   3   79.99    5.60
  -5  -4  -3    2.70    2.60
   5  -4   3    3.10    4.40
   5  -4   3    1.00    2.20
  -5  -4  -3    2.80    3.00
  -5  -4  -3    7.60    3.00
   5  -4   3    0.60    4.10
  -5   4  -3    2.60    2.10
  -5   4  -3    4.80    4.20
   5   4   3    0.20    3.80
   5   4   3   -0.90    4.00
   6  -4   3   43.00    4.90
   6  -4   3   51.69    6.50
  -6  -4  -3   40.20    4.50
  -6  -4  -3   52.69    6.00
   6  -4   3   41.50    4.60
  -6   4  -3   34.40    5.60
   6   4   3   45.20    5.20
   6   4   3   41.10    5.70
   6   4   3   37.20    4.80
  -7  -4  -3   37.60    5.60
   7  -4   3   48.30    6.40
  -7  -4  -3   45.00    5.40
   7  -4   3   46.40    6.90
   7   4   3   44.40    5.20
  -7   4  -3   53.69    6.20
   7   4   3   31.60    5.90
   7   4   3   43.30    5.50
  -7   4  -3   53.59    6.70
  -8  -4  -3  330.17   12.10
  -8  -4  -3  343.17   13.60
   8  -4   3  318.97   14.30
   8  -4   3  352.16   14.00
  -8   4  -3  356.36   13.50
  -8   4  -3  323.57   13.60
   8   4   3  310.77   11.00
   8   4   3  354.56   12.50
   8   4   3  332.67   12.70
   9  -4   3   26.60    6.50
  -9  -4  -3   17.60    6.20
  -9  -4  -3   23.50    6.50
   9  -4   3   29.30    7.40
  -9   4  -3   33.10    6.90
   9   4   3   30.20    5.80
   9   4   3   31.00    6.10
   9   4   3   39.90    6.80
  -9   4  -3   28.20    6.20
 -10  -4  -3   18.30    5.30
  10  -4   3    5.70    6.40
  10  -4   3   14.30    7.60
 -10  -4  -3    4.70    6.40
 -10   4  -3   16.90    4.70
  10   4   3   12.10    5.70
 -10   4  -3   12.30    5.40
  10   4   3    3.60    6.70
 -11  -4  -3    8.30    7.10
  11  -4   3   21.80    6.30
 -11  -4  -3    9.20    5.20
  11  -4   3   10.80    6.90
 -11   4  -3   16.40    7.60
  11   4   3   14.40    7.50
 -11   4  -3   12.90    6.30
  11   4   3   14.00    4.60
 -12  -4  -3    0.60    7.30
  12  -4   3    6.20    8.30
  12  -4   3   -5.00    7.00
 -12  -4  -3   -0.70    7.20
  12   4   3    1.30    6.00
 -12   4  -3    3.20    7.90
  12   4   3   13.40    8.00
 -12   4  -3   -2.00    4.50
  12  -5  -3   18.70    7.80
  12  -5  -3   13.10    8.40
 -12  -5   3   23.00    6.10
 -12   5   3    9.20    8.20
 -12   5   3    4.80    7.80
  12   5  -3   10.50    5.70
  11  -5  -3   73.39    9.80
 -11  -5   3   52.79    7.00
  11  -5  -3   48.70    7.50
 -11  -5   3   71.69    9.10
  11   5  -3   69.99    8.70
 -11   5   3   70.79    9.40
 -11   5   3   77.49    7.70
  10  -5  -3    8.70    5.30
 -10  -5   3   -8.80    6.20
 -10  -5   3    8.90    6.80
  10  -5  -3   12.20    5.90
 -10   5   3    6.50    7.10
 -10   5   3   13.40    6.90
  10   5  -3   13.50    6.50
   9  -5  -3  335.07   15.60
   9  -5  -3  353.56   13.90
  -9  -5   3  340.47   14.60
  -9  -5   3  313.77   14.50
  -9   5   3  349.07   15.00
   9   5  -3  312.87   14.00
  -9   5   3  345.07   15.00
  -8  -5   3   29.50    6.60
   8  -5  -3   35.70    5.00
  -8  -5   3   41.50    7.00
   8  -5  -3   49.00    6.30
  -8   5   3   46.00    7.20
   8   5  -3   52.29    6.90
  -8   5   3   51.79    7.40
  -7  -5   3  137.39    9.60
   7  -5  -3  141.49    9.50
  -7  -5   3  123.39    8.20
   7  -5  -3  129.49    8.90
   7   5  -3  129.99    8.50
  -7   5   3  139.09    9.70
  -7   5   3  130.79    8.90
   7   5  -3  135.29    7.00
   7   5  -3  136.89   10.10
  -6  -5   3    2.90    4.60
   6  -5  -3    0.30    4.40
  -6  -5   3   -4.40    4.60
   6  -5  -3    2.20    3.90
   6   5  -3    6.60    3.30
  -6   5   3    1.00    4.50
   6   5  -3   -1.40    4.40
  -6   5   3   -2.30    4.70
   6   5  -3   -2.70    4.50
  -5  -5   3   18.80    5.20
   5  -5  -3   30.60    5.40
  -5  -5   3   22.70    4.90
   5  -5  -3   12.30    5.30
   5   5  -3   28.90    4.00
   5   5  -3   31.20    5.30
  -5   5   3   36.10    5.70
  -5   5   3   23.70    4.70
   5   5  -3   26.70    5.00
  -4  -5   3  229.38    8.20
   4  -5  -3  209.08    9.60
   4  -5  -3  234.98   10.20
  -4  -5   3  218.98    9.10
  -4  -5   3  207.08    8.70
   4   5  -3  233.38    9.60
  -4   5   3  249.88    9.60
   4   5  -3  238.98   10.70
   4   5  -3  238.78    8.40
  -4   5   3  234.78   10.50
  -3  -5   3   21.10    4.20
   3  -5  -3   18.80    5.10
   3  -5  -3   27.10    5.10
  -3  -5   3   24.40    3.50
  -3  -5   3   21.60    4.40
  -3  -5   3   14.30    4.30
  -3  -5   3   19.50    3.50
  -3   5   3   14.20    4.40
   3   5  -3   19.40    4.30
  -3   5   3   22.60    3.90
   3   5  -3   22.10    4.60
   3   5  -3   20.60    3.60
  -2  -5   3  340.87   10.80
  -2  -5   3  342.37   11.00
  -2  -5   3  364.16   11.30
   2  -5  -3  353.76   12.20
   2  -5  -3  335.67   12.60
  -2  -5   3  336.57   11.60
  -2  -5   3  327.17   10.90
  -2  -5   3  356.86   11.20
  -2   5   3  352.76   11.70
   2   5  -3  346.57   11.20
   2   5  -3  334.47   11.70
  -2   5   3  330.57   10.30
   2   5  -3  334.17   10.00
  -1  -5   3  155.18    7.90
  -1  -5   3  138.69    6.50
   1  -5  -3  136.19    6.50
  -1  -5   3  137.59    7.20
  -1  -5   3  153.38    7.30
  -1  -5   3  151.38    7.60
   1  -5  -3  147.79    8.50
  -1  -5   3  128.09    7.70
  -1   5   3  141.09    6.10
   1   5  -3  159.28    7.80
  -1   5   3  149.29    6.70
   0  -5   3  584.14   15.90
   0  -5  -3  565.14   15.00
   0  -5   3  526.45   15.10
   0  -5   3  552.24   14.70
   0  -5   3  568.94   15.30
   0  -5  -3  556.54   16.20
   0  -5   3  560.74   14.70
   0  -5   3  539.45   14.60
   0   5  -3  568.44   14.20
   0   5  -3  581.04   14.40
   0   5  -3  541.65   15.10
   0   5  -3  561.44   15.60
   0   5   3  560.54   15.20
   0   5   3  549.45   14.70
   1  -5   3    0.50    2.90
  -1  -5  -3   -2.90    4.10
   1  -5   3    2.90    4.00
  -1  -5  -3   -1.30    2.20
  -1  -5  -3   -1.10    3.40
   1  -5   3   -0.20    3.70
   1  -5   3   -0.60    4.00
  -1   5  -3   -0.30    2.70
   1   5   3    0.80    2.80
  -1   5  -3    1.10    2.50
  -1   5  -3    2.10    3.90
  -1   5  -3    0.50    2.70
   1   5   3   -6.40    2.40
  -2  -5  -3   55.39    5.60
  -2  -5  -3   61.99    5.40
   2  -5   3   59.79    6.40
  -2  -5  -3   66.49    4.60
   2  -5   3   66.39    5.60
   2  -5   3   58.59    5.60
   2  -5   3   63.99    4.80
  -2   5  -3   63.59    4.80
   2   5   3   74.69    6.00
   2   5   3   56.39    4.70
  -2   5  -3   72.49    6.40
   3  -5   3  275.87    9.80
  -3  -5  -3  289.47   11.30
   3  -5   3  256.47   11.50
  -3  -5  -3  264.67   11.20
   3  -5   3  281.27   10.30
  -3  -5  -3  288.77    9.60
   3  -5   3  283.57   12.00
  -3   5  -3  279.77    8.50
  -3   5  -3  286.37   11.50
   3   5   3  290.27   10.70
   3   5   3  274.87   11.60
   4  -5   3   20.40    3.50
   4  -5   3   11.30    5.40
  -4  -5  -3   17.40    4.00
   4  -5   3    6.60    4.20
  -4  -5  -3   16.50    5.30
  -4  -5  -3    5.70    4.70
  -4   5  -3    7.60    5.10
   4   5   3   18.00    5.40
   4   5   3   12.60    4.80
  -4   5  -3   16.70    5.10
   5  -5   3  637.34   18.60
  -5  -5  -3  594.34   18.40
   5  -5   3  571.64   17.70
  -5  -5  -3  606.64   17.40
  -5  -5  -3  620.04   17.20
   5   5   3  626.04   19.30
   5   5   3  627.14   17.40
   5   5   3  589.54   17.50
  -5   5  -3  616.74   18.70
  -5   5  -3  614.94   18.30
   6  -5   3    9.50    4.40
  -6  -5  -3    1.20    4.60
   6  -5   3   -5.30    4.30
  -6  -5  -3    8.10    5.90
   6   5   3    8.10    3.70
  -6   5  -3    5.10    5.50
   6   5   3    2.30    4.00
  -6   5  -3    7.10    5.70
   6   5   3    4.30    5.60
   7  -5   3  209.98   13.20
  -7  -5  -3  180.88   10.80
  -7  -5  -3  182.08   10.20
   7  -5   3  179.68   12.00
  -7   5  -3  188.48   12.10
   7   5   3  195.08   11.90
   7   5   3  203.88   10.60
  -7   5  -3  175.48   11.60
   8  -5   3   17.80    5.90
  -8  -5  -3   10.70    6.80
   8  -5   3   15.10    5.20
  -8  -5  -3    9.50    6.00
  -8   5  -3   23.70    7.10
  -8   5  -3   18.60    6.90
   8   5   3   18.10    5.10
   8   5   3    6.40    5.50
  -9  -5  -3   68.39    8.40
   9  -5   3   66.09    9.70
  -9  -5  -3   74.89    9.20
   9   5   3   70.09    8.90
  -9   5  -3   85.79    9.50
   9   5   3   58.69    7.30
  -9   5  -3   65.99    8.60
  10  -5   3  118.99   11.80
 -10  -5  -3  123.59   11.20
 -10  -5  -3  102.79    8.60
  10   5   3  122.59   10.90
  10   5   3  108.09    8.70
 -10   5  -3  115.69   11.10
 -10   5  -3  113.69   10.50
 -11  -5  -3   -1.40    7.80
  11  -5   3    4.50    8.90
 -11  -5  -3    1.40    5.20
  11  -5   3  -13.40    7.20
  11   5   3    6.00    7.90
  11   5   3    2.40    6.20
 -11   5  -3    1.00    7.40
 -11   5  -3    3.00    7.90
  10  -6  -3   43.20    9.60
 -10  -6   3   44.80    8.80
 -10   6   3   48.10    9.20
  10   6  -3   37.30    8.30
 -10   6   3   47.40    9.20
   9  -6  -3    8.00    8.20
   9  -6  -3   12.70    6.60
  -9  -6   3   11.20    5.40
  -9   6   3   -0.40    7.20
   9   6  -3    0.20    6.80
  -9   6   3   14.80    7.70
   8  -6  -3   24.90    6.80
   8  -6  -3   15.50    5.90
  -8  -6   3   16.00    7.50
  -8  -6   3   24.60    5.40
  -8   6   3   14.90    7.10
   8   6  -3   25.90    5.50
  -8   6   3   28.60    7.70
   7  -6  -3   14.80    7.50
   7  -6  -3    9.60    4.50
  -7  -6   3   10.50    6.30
  -7  -6   3   25.10    5.50
  -7   6   3   20.60    7.10
   7   6  -3   17.00    4.80
  -7   6   3   21.70    6.70
   6  -6  -3   99.79    8.50
  -6  -6   3  118.39    8.90
   6  -6  -3  113.89   10.10
  -6  -6   3  128.79    9.70
  -6   6   3  106.89    8.70
  -6   6   3  106.19    9.20
   6   6  -3  113.59    8.70
  -5  -6   3  215.88   11.00
  -5  -6   3  212.48   11.80
   5  -6  -3  193.68   11.40
   5  -6  -3  181.68   10.90
  -5   6   3  192.88   10.50
  -5   6   3  197.98   12.00
   5   6  -3  187.78   10.70
   4  -6  -3   50.79    7.80
   4  -6  -3   50.89    6.80
  -4  -6   3   50.89    5.80
  -4  -6   3   42.40    6.20
   4   6  -3   38.50    6.50
   4   6  -3   53.09    6.50
  -4   6   3   51.69    7.00
   4   6  -3   53.79    5.40
  -4   6   3   48.50    5.90
   3  -6  -3  167.78    9.10
  -3  -6   3  178.28    9.40
   3  -6  -3  182.38   12.00
  -3  -6   3  175.08   10.50
  -3   6   3  176.98    9.00
   3   6  -3  179.68    9.90
   3   6  -3  177.08    7.70
   3   6  -3  180.28   10.50
  -2  -6   3    3.70    4.50
   2  -6  -3   -1.50    5.60
   2  -6  -3   -1.10    5.20
  -2  -6   3   12.00    4.40
  -2  -6   3    5.30    4.00
  -2  -6   3    2.70    3.80
  -2  -6   3   -0.70    4.30
   2   6  -3    4.00    4.60
   2   6  -3    3.70    4.00
   2   6  -3    1.90    3.70
   2   6  -3   -0.40    4.50
   2   6  -3    5.90    4.20
  -2   6   3   -5.80    4.50
  -1  -6   3   13.70    4.40
  -1  -6   3   12.20    4.50
   1  -6  -3   15.10    5.70
  -1  -6   3   19.20    5.20
  -1  -6   3   17.20    4.80
  -1  -6   3    9.40    4.10
  -1  -6   3   16.20    4.70
   1   6  -3   15.70    4.70
   1   6  -3   24.40    4.70
   1   6  -3   20.40    4.50
  -1   6   3   15.00    4.70
   1   6  -3   19.50    4.80
   1   6  -3   10.80    4.40
   1   6  -3   24.70    5.20
   1   6  -3   17.70    4.20
  -1   6   3   10.00    5.40
   0  -6  -3   76.09    6.20
   0  -6  -3   84.79    7.60
   0  -6   3   82.39    6.20
   0  -6   3   89.19    6.90
   0  -6   3   73.99    7.10
   0  -6   3   63.09    5.90
   0   6  -3   76.89    6.80
   0   6  -3   77.09    5.70
   0   6   3   94.89    7.80
   0   6  -3   73.49    6.90
   0   6  -3   67.69    5.50
   0   6   3   72.49    6.10
   1  -6   3  138.19    8.20
   1  -6   3  149.69    9.30
   1  -6   3  151.78   10.40
  -1  -6  -3  159.28   10.70
   1  -6   3  135.49    8.50
  -1  -6  -3  148.99    8.90
  -1   6  -3  157.78    9.90
  -1   6  -3  162.38    9.80
   1   6   3  143.79    8.40
   2  -6   3  281.97   11.50
   2  -6   3  316.17   12.30
  -2  -6  -3  270.07   12.00
   2  -6   3  310.87   13.40
  -2  -6  -3  275.17   13.10
   2   6   3  323.87   13.80
   2   6   3  284.87   12.40
  -2   6  -3  304.67   12.80
  -2   6  -3  312.27   13.00
   3  -6   3    9.50    4.70
  -3  -6  -3   24.10    5.80
  -3  -6  -3   18.80    6.50
   3  -6   3   -1.70    6.30
   3   6   3   22.30    6.60
   3   6   3    8.50    4.00
  -3   6  -3   15.10    5.90
  -3   6  -3   11.40    6.00
  -4  -6  -3   37.40    7.00
   4  -6   3   28.10    5.50
   4  -6   3   43.60    6.40
  -4  -6  -3   20.70    6.50
   4   6   3   25.70    5.50
  -4   6  -3   27.70    6.90
  -4   6  -3   35.00    6.70
   4   6   3   27.80    6.20
   5  -6   3    4.40    4.90
  -5  -6  -3   19.60    6.60
  -5  -6  -3   11.10    6.40
   5  -6   3   12.20    5.40
   5   6   3    7.00    4.30
  -5   6  -3   14.50    6.60
  -5   6  -3   -1.00    6.40
   5   6   3   14.30    6.60
   6  -6   3   27.80    6.40
  -6  -6  -3   28.40    5.90
   6  -6   3   27.90    6.10
   6   6   3   18.40    6.30
  -6   6  -3   22.40    7.60
   6   6   3   32.60    7.50
  -6   6  -3   30.20    7.50
  -7  -6  -3   20.10    6.10
   7  -6   3   27.20    8.90
  -7  -6  -3   24.60    6.10
   7  -6   3   13.80    7.70
   7   6   3   34.70    8.10
  -7   6  -3   29.00    8.10
  -7   6  -3   19.00    7.50
   7   6   3   36.30    5.40
  -8  -6  -3   24.30    8.10
   8  -6   3   31.40    9.30
  -8  -6  -3   32.50    7.00
  -8   6  -3   20.90    6.20
   8   6   3   23.20    8.20
   8   6   3   18.80    6.80
  -8   6  -3   26.80    8.60
   9  -6   3   37.70    9.00
   9  -6   3   30.00   10.00
  -9  -6  -3   23.10    7.50
   9   6   3   33.00    9.10
   9   6   3   37.30    5.80
  -9   6  -3   35.90    7.00
  -9   6  -3   35.00    9.00
   7  -7  -3   -0.30    6.40
  -7  -7   3   -2.30    6.50
   7  -7  -3   -0.10    8.40
   7   7  -3    2.20    6.90
  -7   7   3   11.70    7.80
  -6  -7   3   64.19    8.30
   6  -7  -3   82.19   10.90
   6  -7  -3   73.59    8.70
   6   7  -3   78.99    8.80
  -6   7   3  105.89   10.20
  -5  -7   3   16.50    7.40
   5  -7  -3   16.50    6.90
  -5  -7   3   25.20    6.50
   5  -7  -3   24.50    8.70
  -5   7   3   20.00    7.20
   5   7  -3   13.10    6.80
   4  -7  -3    1.60    6.40
  -4  -7   3   -5.30    6.00
  -4  -7   3    0.20    5.40
   4  -7  -3   12.50    8.00
  -4   7   3   -3.20    6.20
   4   7  -3    2.80    6.00
   4   7  -3    4.40    6.20
   3  -7  -3  144.49   10.60
  -3  -7   3  179.28   11.80
   3   7  -3  156.48   10.80
  -3   7   3  183.88   11.30
  -3   7   3  180.48   11.70
   3   7  -3  164.98   11.30
  -2  -7   3    7.40    5.30
   2  -7  -3   15.70    6.80
  -2   7   3    5.60    5.70
  -2   7   3   11.10    6.70
   2   7  -3    1.00    5.30
   2   7  -3   11.20    5.80
  -1  -7   3  119.49    8.50
   1  -7  -3  133.39   10.20
   1   7  -3  160.68   10.00
  -1   7   3  142.79   10.20
   1   7  -3  126.19    9.20
   0  -7  -3   -6.20    4.40
   0  -7   3   -1.90    4.30
   0   7  -3    2.80    3.80
   0   7  -3   -4.00    5.10
   0   7   3   -0.80    6.00
   1  -7   3   58.59    8.30
  -1  -7  -3   74.39    8.70
   1  -7   3   48.30    7.50
   1   7   3   60.99    7.90
   1   7   3   67.59    7.50
  -1   7  -3   63.19    7.60
  -1   7  -3   72.49    8.00
   2  -7   3   23.30    7.20
  -2  -7  -3   12.70    6.00
   2  -7   3   30.00    7.60
  -2  -7  -3   15.70    7.40
  -2   7  -3   13.70    6.50
   2   7   3   17.30    5.90
   2   7   3   15.40    6.80
  -2   7  -3   26.50    6.80
   3  -7   3    3.70    5.30
  -3  -7  -3    4.20    6.20
   3  -7   3    0.00    6.70
  -3  -7  -3   13.50    7.10
  -3   7  -3    8.60    6.80
   3   7   3    8.30    4.70
  -3   7  -3    8.50    6.70
   3   7   3    9.80    5.40
   4  -7   3   50.49    9.20
  -4  -7  -3   64.49    7.50
  -4  -7  -3   71.39    8.60
   4  -7   3   57.69    7.30
   4   7   3   60.79    7.60
  -4   7  -3   59.99    8.70
   4   7   3   77.79    8.50
  -4   7  -3   59.49    7.20
   5  -7   3   13.70    6.10
  -5  -7  -3   10.30    7.40
   5  -7   3    8.70    8.50
  -5   7  -3    9.00    5.50
   5   7   3   17.00    6.90
   5   7   3   18.60    6.30
  -5   7  -3    3.40    7.40
  16   0  -4    2.90    7.80
 -16   0   4   10.90    8.00
 -16   0   4    6.90    6.40
 -15   0   4   33.60    8.20
 -15   0   4   34.60    6.80
  15   0  -4   31.50    6.20
  14   0  -4   93.09    7.80
 -14   0   4   75.09    7.60
 -14   0   4   78.89    8.60
 -13   0   4   42.30    5.90
 -13   0   4   52.69    7.20
  13   0  -4   39.90    6.70
  13   0  -4   42.70    5.50
  13   0  -4   33.00    5.40
  12   0  -4  732.43   20.00
 -12   0   4  761.92   19.60
  12   0  -4  800.62   21.10
 -12   0   4  711.23   20.70
  12   0  -4  744.03   19.00
  11   0  -4   31.30    3.50
  11   0  -4   34.20    3.50
 -11   0   4   30.60    4.60
 -11   0   4   29.90    5.40
  11   0  -4   31.70    4.50
 -11   0   4   25.00    3.20
  11   0  -4   30.10    3.20
  11   0  -4   37.20    4.90
 -11   0   4   35.70    3.60
  10   0  -4 1251.07   26.80
 -10   0   4 1266.97   29.40
  10   0  -4 1323.27   29.30
 -10   0   4 1267.47   28.20
  10   0  -4 1315.47   29.40
 -10   0   4 1251.87   27.30
  10   0  -4 1282.27   27.80
  10   0  -4 1264.07   27.00
  -9   0   4    2.30    2.10
   9   0  -4    0.20    1.90
  -9   0   4   -1.00    2.50
  -9   0   4    2.00    2.30
   9   0  -4    1.00    3.10
  -9   0   4   -1.40    2.60
   9   0  -4   -0.70    2.40
   9   0  -4    3.50    2.60
   9   0  -4   -1.80    1.80
   8   0  -4  142.09    4.80
   8   0  -4  132.69    5.00
  -8   0   4  134.29    5.40
  -8   0   4  147.69    6.20
   8   0  -4  149.19    5.50
  -8   0   4  149.99    5.90
   8   0  -4  149.69    6.20
  -8   0   4  140.79    5.10
   8   0  -4  146.99    6.90
   7   0  -4  715.13   16.50
  -7   0   4  644.84   15.50
   7   0  -4  669.83   14.90
  -7   0   4  680.13   15.10
   7   0  -4  734.43   16.60
  -7   0   4  673.13   15.30
  -7   0   4  660.73   16.40
   7   0  -4  682.23   14.70
   7   0  -4  690.23   15.10
   6   0  -4  396.76   10.50
   6   0  -4  398.06    9.20
  -6   0   4  396.96    9.40
  -6   0   4  405.06   10.70
   6   0  -4  399.36   10.40
   6   0  -4  395.26    9.40
  -6   0   4  399.06    9.70
  -6   0   4  396.46    9.70
   6   0  -4  396.76    8.90
   5   0  -4 3374.66   65.39
  -5   0   4 3366.96   66.89
   5   0  -4 3394.76   65.89
   5   0  -4 3377.46   67.09
  -5   0   4 3405.16   66.29
   5   0  -4 3496.15   66.69
  -5   0   4 3339.67   65.89
  -5   0   4 3402.26   66.09
   4   0  -4  418.46   10.20
   4   0  -4  422.16    9.70
   4   0  -4  407.36    9.30
  -4   0   4  403.36    9.30
   4   0  -4  413.66    8.70
  -4   0   4  419.56   10.20
  -4   0   4  412.36    9.70
  -4   0   4  407.56    9.90
  -3   0   4 2739.93   53.29
   3   0  -4 2672.83   52.39
   3   0  -4 2670.23   52.49
  -3   0   4 2641.34   52.69
  -3   0   4 2717.23   52.99
   3   0  -4 2761.62   53.29
  -3   0   4 2689.03   52.29
   2   0  -4   47.40    2.60
  -2   0   4   40.90    2.40
  -2   0   4   48.40    2.30
  -2   0   4   43.40    1.80
   2   0  -4   41.80    2.10
  -2   0   4   49.50    2.50
   2   0  -4   42.00    1.80
   2   0  -4   44.70    1.80
   1   0  -4  100.29    3.30
  -1   0   4   99.59    3.20
  -1   0   4  100.19    2.60
   1   0  -4  102.99    3.10
  -1   0   4  100.49    3.30
   1   0  -4  101.89    2.80
   0   0  -4   81.89    2.70
   0   0   4   85.39    2.80
   0   0   4   78.19    2.90
   0   0  -4   85.89    2.70
   0   0  -4   80.49    2.70
   0   0  -4   85.09    2.30
   0   0   4   84.29    2.80
   0   0   4   82.99    2.50
   1   0   4  366.46    8.10
   1   0   4  353.46    8.10
  -1   0  -4  361.76    7.60
  -1   0  -4  366.16    8.10
   1   0   4  364.16    8.00
  -1   0  -4  363.96    8.00
   1   0   4  364.76    8.00
   1   0   4  360.86    7.70
   2   0   4 3134.69   61.09
   2   0   4 3192.28   61.39
  -2   0  -4 3167.78   61.19
  -2   0  -4 3138.69   61.29
   2   0   4 3136.69   60.99
   2   0   4 3187.48   61.39
   3   0   4  383.56    8.90
   3   0   4  380.26    9.10
  -3   0  -4  382.76    8.90
  -3   0  -4  392.46    8.90
   3   0   4  393.66    9.20
   3   0   4  395.56    8.80
  -3   0  -4  387.46    9.20
   4   0   4 1472.75   29.60
   4   0   4 1477.25   30.10
  -4   0  -4 1462.75   30.00
  -4   0  -4 1467.45   30.10
   4   0   4 1480.55   30.40
   4   0   4 1492.25   30.10
  -4   0  -4 1505.55   29.80
   5   0   4   36.60    2.40
   5   0   4   45.10    3.20
   5   0   4   36.40    2.40
   5   0   4   37.10    3.10
  -5   0  -4   41.20    2.90
   5   0   4   39.40    2.90
  -5   0  -4   40.50    3.20
   6   0   4   73.19    4.10
  -6   0  -4   74.29    4.40
   6   0   4   82.19    3.80
   6   0   4   87.49    5.30
  -6   0  -4   84.89    4.30
   6   0   4   85.69    4.50
  -6   0  -4   75.29    4.00
   7   0   4  533.85   13.70
   7   0   4  495.15   12.00
  -7   0  -4  489.05   12.70
   7   0   4  525.05   12.80
  -7   0  -4  518.65   13.00
  -7   0  -4  528.05   13.10
   7   0   4  511.45   13.30
  -8   0  -4   41.40    4.20
  -8   0  -4   51.99    4.40
   8   0   4   39.70    3.00
   8   0   4   46.70    4.90
  -8   0  -4   44.20    3.90
   8   0   4   48.10    3.80
   8   0   4   44.90    4.20
   9   0   4  820.02   20.50
   9   0   4  813.62   20.10
  -9   0  -4  803.82   19.40
   9   0   4  789.02   20.20
  -9   0  -4  845.12   20.20
  -9   0  -4  804.12   19.70
   9   0   4  788.52   18.70
 -10   0  -4    0.40    4.10
  10   0   4    5.70    4.60
 -10   0  -4    8.70    4.00
  10   0   4    6.00    4.70
  10   0   4    7.50    4.70
 -10   0  -4    0.80    3.50
  11   0   4  335.67   11.90
 -11   0  -4  332.67   11.60
 -11   0  -4  343.67   12.30
  11   0   4  343.17   12.00
 -11   0  -4  352.46   12.90
  11   0   4  348.47   13.20
 -12   0  -4    8.50    4.80
  12   0   4    2.10    6.00
  12   0   4   -1.80    5.40
 -12   0  -4    5.00    5.30
  12   0   4   -4.10    5.60
  13   0   4   17.90    6.90
  13   0   4   22.40    6.60
  13   0   4   24.10    6.90
 -13   0  -4   17.20    6.00
  14   0   4   69.49    9.00
  14   0   4   39.70    8.00
  14   0   4   66.79    8.40
 -16  -1   4    4.40    6.90
  16  -1  -4    9.10    8.30
 -16  -1   4   10.70    7.80
 -16   1   4   10.30    8.20
  16   1  -4    3.30    7.80
 -15  -1   4   93.99    9.70
 -15  -1   4   94.09    9.00
  15  -1  -4   82.69    9.80
 -15   1   4   74.59    7.50
  15   1  -4   97.79    9.70
 -15   1   4   99.39   10.20
 -14  -1   4  102.79    9.20
  14  -1  -4  109.39    9.90
 -14  -1   4  102.69    8.80
  14   1  -4  110.09    8.50
 -14   1   4   91.39    9.60
  14   1  -4   89.79    7.00
 -14   1   4  101.49    7.50
  14   1  -4  109.29    9.60
  13  -1  -4  176.88   11.80
 -13  -1   4  178.18   11.40
 -13  -1   4  149.09    8.70
 -13  -1   4  160.48    8.50
 -13   1   4  164.48   11.80
  13   1  -4  163.78    8.60
  13   1  -4  168.88   10.10
 -13   1   4  181.08    8.60
 -13   1   4  157.38    9.00
  13   1  -4  172.68   11.40
  13   1  -4  160.48    8.50
  12  -1  -4   21.40    4.50
  12  -1  -4   16.90    5.90
 -12  -1   4   24.20    5.80
 -12  -1   4   20.50    4.30
 -12  -1   4   18.90    5.10
  12  -1  -4   22.00    4.10
 -12   1   4   17.50    4.30
 -12   1   4   25.50    4.20
  12   1  -4   14.40    5.40
  12   1  -4   23.10    3.90
  12   1  -4   19.30    4.90
 -12   1   4   28.20    6.40
  12   1  -4   14.50    3.90
  11  -1  -4   19.30    3.80
 -11  -1   4   30.80    5.10
 -11  -1   4   31.70    4.20
  11  -1  -4   24.60    4.40
  11  -1  -4   18.00    4.20
 -11  -1   4   21.60    5.40
  11   1  -4   21.60    3.00
  11   1  -4   24.10    3.80
  11   1  -4   21.10    3.90
 -11   1   4   30.40    4.30
 -11   1   4   22.60    4.00
  11   1  -4   23.00    5.20
 -11   1   4   23.40    5.70
 -10  -1   4  222.38    9.00
 -10  -1   4  191.38    7.40
 -10  -1   4  225.58    9.80
  10  -1  -4  217.38    8.90
  10  -1  -4  217.08    8.90
  10  -1  -4  224.28    8.00
 -10   1   4  221.58    8.30
  10   1  -4  203.08    8.50
  10   1  -4  218.28    7.80
 -10   1   4  214.98    7.90
 -10   1   4  210.18    8.80
  10   1  -4  211.28    6.90
  10   1  -4  193.98    9.20
  -9  -1   4  396.96   11.30
   9  -1  -4  407.46   12.10
   9  -1  -4  399.06   11.00
  -9  -1   4  415.36   12.60
   9  -1  -4  417.36   12.70
  -9  -1   4  404.56   11.50
  -9  -1   4  396.56   10.10
   9  -1  -4  386.26    9.50
   9   1  -4  401.86   12.00
  -9   1   4  417.26   12.70
   9   1  -4  413.06   12.30
  -9   1   4  407.86   10.80
   9   1  -4  382.66    9.40
   9   1  -4  396.06   10.80
  -9   1   4  413.16   11.30
  -9   1   4  374.06    9.30
   9   1  -4  402.26   10.30
  -8  -1   4 1266.67   27.70
  -8  -1   4 1235.28   26.30
  -8  -1   4 1306.87   27.50
   8  -1  -4 1308.27   28.50
  -8  -1   4 1307.27   28.50
   8  -1  -4 1243.98   28.00
   8  -1  -4 1282.37   27.00
   8   1  -4 1216.68   25.50
   8   1  -4 1258.77   27.90
  -8   1   4 1278.57   27.30
  -8   1   4 1275.47   28.40
   8   1  -4 1295.27   28.60
   8   1  -4 1249.57   26.80
  -8   1   4 1272.87   26.60
   8   1  -4 1255.27   26.20
   7  -1  -4  871.61   20.20
  -7  -1   4  873.91   19.40
   7  -1  -4  859.11   20.00
  -7  -1   4  878.41   20.20
  -7  -1   4  867.71   18.50
  -7  -1   4  857.01   19.60
   7  -1  -4  864.01   18.90
   7  -1  -4  852.71   18.00
   7   1  -4  862.51   18.20
  -7   1   4  842.62   18.40
  -7   1   4  888.41   20.20
   7   1  -4  884.71   20.50
   7   1  -4  853.11   19.70
  -7   1   4  879.41   19.40
   7   1  -4  860.41   18.90
   7   1  -4  845.72   17.50
   6  -1  -4  352.76    9.90
  -6  -1   4  354.66   10.00
  -6  -1   4  353.26    8.70
   6  -1  -4  350.46   10.00
  -6  -1   4  362.76    9.50
  -6  -1   4  357.76    9.40
   6  -1  -4  361.16    9.10
   6  -1  -4  355.86    8.30
   6   1  -4  354.36    9.10
   6   1  -4  356.46    9.40
   6   1  -4  376.36   10.50
  -6   1   4  354.46    9.20
  -6   1   4  384.56   10.20
  -6   1   4  353.96    8.40
   6   1  -4  356.46    8.20
   6   1  -4  353.66    7.50
   5  -1  -4  426.06    9.30
   5  -1  -4  413.16    9.80
  -5  -1   4  431.36   10.40
  -5  -1   4  411.56    9.60
  -5  -1   4  416.06   10.30
   5  -1  -4  426.06   10.60
  -5  -1   4  404.46   10.50
   5  -1  -4  414.16   10.60
   5   1  -4  422.86   10.10
  -5   1   4  407.86    9.10
  -5   1   4  403.96   10.60
   5   1  -4  429.76   10.00
   5   1  -4  429.96   10.90
  -5   1   4  419.36   10.30
   5   1  -4  401.66    8.20
   5   1  -4  413.66    8.90
   4  -1  -4  117.69    4.50
  -4  -1   4  107.39    4.10
  -4  -1   4  102.89    3.80
   4  -1  -4  105.29    2.60
   4  -1  -4  106.09    3.80
  -4  -1   4  105.59    3.70
   4  -1  -4  104.89    3.30
  -4  -1   4  105.99    4.10
   4  -1  -4   95.89    4.20
  -4   1   4  109.79    4.40
  -4   1   4  107.49    4.10
   4   1  -4  104.39    2.70
   4   1  -4  107.29    3.90
  -4   1   4  108.69    2.90
  -4   1   4  111.69    4.30
   4   1  -4  110.89    3.70
   4   1  -4  112.39    4.40
   3  -1  -4  995.20   20.50
  -3  -1   4 1011.60   20.70
   3  -1  -4  977.60   19.40
   3  -1  -4 1015.90   21.10
  -3  -1   4 1020.20   20.60
  -3  -1   4 1009.90   20.80
  -3  -1   4  999.40   20.40
  -3  -1   4  992.10   20.80
  -3  -1   4  988.10   21.30
   3  -1  -4 1000.90   20.70
   3  -1  -4  983.90   20.10
  -3   1   4  992.90   20.80
   3   1  -4 1007.20   21.20
   3   1  -4  996.50   20.20
   3   1  -4  975.70   20.50
   3   1  -4  969.50   19.10
  -3   1   4 1000.10   20.70
  -3   1   4 1004.10   20.80
  -3   1   4  984.20   19.40
  -2  -1   4 2191.78   42.70
  -2  -1   4 2148.89   42.30
   2  -1  -4 2163.58   42.70
   2  -1  -4 2152.18   42.30
   2  -1  -4 2166.68   42.30
  -2  -1   4 2155.38   41.60
  -2  -1   4 2176.88   42.80
  -2  -1   4 2167.78   43.20
  -2  -1   4 2180.38   42.60
   2  -1  -4 2165.68   43.10
  -2   1   4 2193.18   42.90
  -2   1   4 2193.58   43.00
  -2   1   4 2152.48   42.50
   2   1  -4 2198.48   42.60
   2   1  -4 2128.39   42.00
   2   1  -4 2185.18   43.10
  -1  -1   4  925.51   18.90
  -1  -1   4  949.40   19.50
   1  -1  -4  959.50   19.50
   1  -1  -4  950.40   18.70
  -1  -1   4  955.10   19.50
   1  -1  -4  938.41   19.20
  -1  -1   4  943.11   19.60
  -1  -1   4  949.90   19.40
   1   1  -4  952.40   19.50
   1   1  -4  919.51   18.30
  -1   1   4  938.41   19.20
  -1   1   4  936.51   19.50
   1   1  -4  950.30   19.30
  -1   1   4  965.00   19.80
  -1   1   4  944.81   19.00
   1   1  -4  960.00   19.30
   0  -1   4 6671.33  135.19
   0  -1   4 6783.82  132.69
   0  -1  -4 6863.11  134.19
   0  -1   4 6613.94  132.09
   0  -1   4 6822.02  133.79
   0  -1   4 6792.82  133.69
   0  -1  -4 6879.41  133.99
   0  -1  -4 6871.51  133.39
   0   1  -4 6971.50  130.79
   0   1   4 6611.84  134.69
   0   1  -4 6768.22  129.49
   0   1  -4 6831.72  133.79
   0   1  -4 6786.62  135.69
   0   1   4 6785.62  135.39
   0   1   4 6831.62  133.99
   0   1   4 6774.02  132.59
   1  -1   4  399.26    8.60
   1  -1   4  412.76    9.60
   1  -1   4  408.06    9.50
   1  -1   4  399.66    9.00
  -1  -1  -4  402.66    9.20
   1  -1   4  401.76    8.10
  -1  -1  -4  410.56    9.30
  -1  -1  -4  404.36    9.10
   1  -1   4  393.16    9.30
   1   1   4  405.86    8.40
  -1   1  -4  399.86    8.40
   1   1   4  399.16    9.10
  -1   1  -4  411.16    9.10
  -1   1  -4  392.96    8.70
   1   1   4  394.16    8.90
   2  -1   4   32.40    2.30
   2  -1   4   36.30    2.60
  -2  -1  -4   31.20    2.10
   2  -1   4   31.90    1.70
   2  -1   4   32.60    2.40
  -2  -1  -4   29.90    1.20
   2  -1   4   29.20    1.20
  -2  -1  -4   31.50    2.20
   2  -1   4   29.30    0.80
   2  -1   4   32.90    2.50
  -2  -1  -4   30.30    2.00
   2   1   4   28.40    1.80
  -2   1  -4   32.60    1.90
   2   1   4   30.90    1.40
   2   1   4   38.00    2.30
  -2   1  -4   31.60    1.70
   2   1   4   34.20    2.30
   3  -1   4  251.57    6.90
  -3  -1  -4  253.37    6.70
   3  -1   4  254.57    7.10
  -3  -1  -4  254.37    6.60
   3  -1   4  251.77    7.20
   3  -1   4  249.58    6.90
   3  -1   4  255.97    6.30
  -3  -1  -4  249.28    5.70
  -3   1  -4  242.98    5.80
  -3   1  -4  254.77    7.10
   3   1   4  245.88    5.50
  -3   1  -4  251.27    6.40
   3   1   4  255.17    6.90
   3   1   4  253.37    6.80
   4  -1   4  479.55   11.40
   4  -1   4  461.85   11.10
  -4  -1  -4  475.85   11.50
   4  -1   4  470.85    9.30
  -4  -1  -4  465.95   10.30
   4  -1   4  485.95   11.70
  -4  -1  -4  478.35   11.80
   4  -1   4  497.95   12.20
   4  -1   4  490.45   11.70
   4   1   4  493.15    9.90
  -4   1  -4  474.85   11.10
   4   1   4  490.05   11.70
  -4   1  -4  470.35   10.30
   4   1   4  479.25   11.40
  -4   1  -4  495.75   11.80
   5  -1   4 1338.77   28.40
  -5  -1  -4 1303.97   26.70
   5  -1   4 1325.97   27.70
   5  -1   4 1281.07   25.50
   5  -1   4 1297.07   27.40
   5  -1   4 1322.27   28.20
  -5  -1  -4 1327.87   28.00
  -5  -1  -4 1320.57   27.90
   5  -1   4 1345.07   27.90
  -5   1  -4 1294.47   26.30
   5   1   4 1319.87   26.90
   5   1   4 1323.27   27.80
   5   1   4 1323.47   27.80
  -5   1  -4 1318.87   28.00
  -5   1  -4 1332.77   27.30
  -6  -1  -4  567.64   14.20
  -6  -1  -4  602.24   14.70
   6  -1   4  551.44   11.90
   6  -1   4  578.14   14.30
   6  -1   4  602.04   14.00
  -6  -1  -4  572.14   13.10
   6  -1   4  558.34   14.70
   6  -1   4  575.84   14.10
   6  -1   4  585.04   14.60
  -6   1  -4  585.44   13.60
   6   1   4  580.64   13.10
   6   1   4  579.54   14.30
  -6   1  -4  572.34   14.50
   6   1   4  593.54   14.20
   6   1   4  588.84   14.50
  -7  -1  -4  213.98    8.10
   7  -1   4  195.78    7.20
   7  -1   4  204.58    8.50
   7  -1   4  207.78    7.90
   7  -1   4  197.68    7.10
  -7  -1  -4  214.68    8.20
   7  -1   4  200.18    5.20
  -7  -1  -4  206.08    6.60
  -7   1  -4  225.98    7.50
   7   1   4  201.68    6.30
   7   1   4  205.38    8.10
   7   1   4  210.68    7.40
  -7   1  -4  195.88    7.30
   7   1   4  205.58    7.30
  -8  -1  -4   89.59    6.40
   8  -1   4   98.49    6.70
   8  -1   4   90.29    6.40
  -8  -1  -4   84.49    5.60
   8  -1   4   84.59    5.50
   8  -1   4   86.69    5.80
  -8  -1  -4  100.19    6.30
   8   1   4   88.69    5.80
  -8   1  -4   99.39    5.90
  -8   1  -4   87.79    4.90
   8   1   4   88.79    5.50
  -8   1  -4   94.39    6.50
   8   1   4   95.69    6.40
   8   1   4   84.79    4.40
   9  -1   4   -1.20    3.90
  -9  -1  -4    4.40    4.00
   9  -1   4   -0.60    3.30
   9  -1   4    4.00    4.20
  -9  -1  -4    0.60    3.70
   9  -1   4    3.60    4.30
  -9  -1  -4   -1.50    2.80
  -9   1  -4   -0.10    2.50
  -9   1  -4   -1.10    3.30
  -9   1  -4    1.10    3.80
   9   1   4    2.30    2.80
   9   1   4    5.60    4.30
   9   1   4   -1.50    3.80
  10  -1   4    3.80    4.80
 -10  -1  -4    4.50    4.60
  10  -1   4    3.10    3.60
 -10  -1  -4    1.10    4.00
 -10  -1  -4    9.20    4.70
  10  -1   4    3.10    4.60
  10  -1   4    1.30    4.80
  10   1   4    3.50    3.10
  10   1   4    4.40    4.50
 -10   1  -4    2.10    3.10
  10   1   4    3.30    4.80
 -10   1  -4    1.40    3.80
 -10   1  -4   -2.10    4.50
  11  -1   4  152.98   10.00
  11  -1   4  148.19    8.80
 -11  -1  -4  169.48    9.40
 -11  -1  -4  143.89    8.50
  11  -1   4  156.88   10.30
  11  -1   4  136.39    9.00
  11   1   4  152.38   10.20
 -11   1  -4  138.69   10.10
  11   1   4  138.29    7.90
 -11   1  -4  157.98    9.00
  12  -1   4   61.49    7.70
  12  -1   4   62.09    7.70
 -12  -1  -4   60.49    6.70
  12  -1   4   69.59    6.60
  12   1   4   66.59    7.00
  12   1   4   57.29    7.70
  12   1   4   51.79    7.10
 -12   1  -4   56.69    6.40
 -12   1  -4   68.89    7.70
  13  -1   4   53.79    7.80
 -13  -1  -4   49.90    6.70
 -13  -1  -4   58.19    8.80
  13  -1   4   36.00    7.70
  13  -1   4   47.00    8.00
  13   1   4   47.50    8.00
  13   1   4   48.50    6.10
 -13   1  -4   48.10    6.60
 -13   1  -4   46.10    7.60
  13   1   4   35.40    6.70
  14  -1   4   18.50    7.60
  14  -1   4   18.20    7.60
 -14  -1  -4   21.90    8.10
  14  -1   4   22.10    7.50
 -14   1  -4   16.60    7.20
  14   1   4   25.90    7.40
  14   1   4   10.60    5.30
  14   1   4   26.10    5.40
  15  -2  -4   18.00    6.40
 -15  -2   4   16.30    5.60
 -15   2   4   15.90    8.30
  15   2  -4   14.20    7.80
 -14  -2   4    4.70    5.20
 -14  -2   4   -7.30    5.90
 -14  -2   4    3.60    6.40
  14  -2  -4   -5.80    7.10
 -14   2   4   -4.50    7.20
  14   2  -4   -8.30    4.50
  14   2  -4   -2.30    4.50
 -14   2   4    3.40    5.00
  13  -2  -4  216.08   10.70
 -13  -2   4  213.38   10.70
 -13  -2   4  200.08   11.70
  13  -2  -4  187.18   12.90
 -13  -2   4  185.38   11.60
  13   2  -4  198.28    9.70
  13   2  -4  210.98   12.30
  13   2  -4  207.98   11.90
 -13   2   4  200.28   10.30
 -13   2   4  207.78   12.90
 -12  -2   4   44.80    5.00
  12  -2  -4   37.70    7.00
  12  -2  -4   39.80    5.60
 -12  -2   4   45.50    6.60
 -12  -2   4   46.00    6.50
  12   2  -4   32.50    6.50
  12   2  -4   38.90    6.20
 -12   2   4   32.50    6.90
 -12   2   4   34.10    5.50
  12   2  -4   42.40    5.10
  12   2  -4   42.40    4.60
  11  -2  -4  620.74   19.00
 -11  -2   4  660.73   18.10
 -11  -2   4  630.14   18.20
  11  -2  -4  614.54   17.10
  11  -2  -4  592.34   17.10
 -11  -2   4  632.94   17.50
  11   2  -4  632.74   18.10
 -11   2   4  634.84   18.90
  11   2  -4  613.14   15.50
 -11   2   4  630.54   17.20
 -11   2   4  622.64   15.70
  11   2  -4  603.84   17.80
  11   2  -4  644.24   16.60
  10  -2  -4   10.00    3.50
  10  -2  -4   13.50    5.00
  10  -2  -4   16.00    4.10
 -10  -2   4   10.10    4.40
 -10  -2   4   12.80    4.50
 -10  -2   4    8.20    3.90
 -10   2   4   16.70    4.20
 -10   2   4   11.60    2.80
  10   2  -4   12.80    2.90
  10   2  -4    5.80    4.40
  10   2  -4   12.20    3.70
  10   2  -4   17.00    3.70
 -10   2   4   15.50    5.00
  -9  -2   4   89.99    6.30
   9  -2  -4   96.59    7.10
  -9  -2   4  100.99    7.10
   9  -2  -4  100.49    6.20
   9  -2  -4   91.49    6.00
  -9  -2   4   94.39    5.60
   9   2  -4   88.79    4.80
  -9   2   4  101.19    5.20
   9   2  -4   89.89    6.30
  -9   2   4   94.69    6.20
   9   2  -4   98.69    5.20
   9   2  -4   96.09    7.40
  -9   2   4   99.89    5.60
   8  -2  -4   -2.10    2.80
  -8  -2   4    1.00    2.20
   8  -2  -4    3.40    2.60
  -8  -2   4    2.50    1.50
  -8  -2   4   -1.50    3.00
  -8  -2   4   -1.00    2.20
   8  -2  -4   -0.40    2.60
  -8  -2   4   -0.60    3.30
   8  -2  -4    1.10    1.20
   8   2  -4   -1.50    3.30
  -8   2   4    1.50    3.50
  -8   2   4    4.60    1.70
   8   2  -4   -1.10    3.30
   8   2  -4    2.80    2.80
  -8   2   4    0.70    3.00
   8   2  -4    3.60    1.90
  -7  -2   4   12.60    3.30
   7  -2  -4   14.50    1.50
  -7  -2   4   18.50    3.40
   7  -2  -4   13.70    3.60
  -7  -2   4   16.00    2.60
  -7  -2   4   11.20    1.70
  -7  -2   4   12.70    3.30
   7  -2  -4   11.70    3.00
   7  -2  -4   13.60    2.90
   7   2  -4   17.40    3.00
  -7   2   4   13.40    3.10
   7   2  -4   12.70    2.70
  -7   2   4   15.30    3.60
  -7   2   4   12.00    1.60
   7   2  -4   13.00    1.90
   7   2  -4   14.20    2.70
   6  -2  -4 1316.17   28.50
  -6  -2   4 1322.37   28.30
   6  -2  -4 1307.17   27.80
   6  -2  -4 1306.97   26.00
  -6  -2   4 1321.97   28.30
   6  -2  -4 1305.07   28.10
  -6  -2   4 1328.77   28.20
  -6  -2   4 1286.37   27.20
  -6  -2   4 1273.47   25.20
   6   2  -4 1314.67   27.60
  -6   2   4 1284.77   27.90
   6   2  -4 1271.07   26.20
   6   2  -4 1332.47   28.80
   6   2  -4 1327.77   27.80
  -6   2   4 1316.07   28.30
  -6   2   4 1297.97   26.00
   5  -2  -4  198.28    6.80
  -5  -2   4  196.78    6.10
   5  -2  -4  205.88    5.10
  -5  -2   4  180.78    4.60
   5  -2  -4  200.78    6.70
  -5  -2   4  185.88    6.30
   5  -2  -4  199.78    6.50
  -5  -2   4  192.68    6.80
   5   2  -4  192.98    5.00
  -5   2   4  200.78    6.70
  -5   2   4  193.88    6.80
   5   2  -4  181.88    7.10
   5   2  -4  187.88    6.30
   5   2  -4  193.28    6.30
  -5   2   4  188.38    4.50
  -4  -2   4 1457.55   29.90
  -4  -2   4 1505.95   31.40
   4  -2  -4 1523.45   31.70
   4  -2  -4 1540.25   30.10
   4  -2  -4 1565.24   31.60
  -4  -2   4 1508.25   31.40
  -4  -2   4 1532.75   30.90
   4  -2  -4 1531.65   31.50
   4   2  -4 1524.55   31.90
  -4   2   4 1485.25   29.00
   4   2  -4 1497.75   29.70
   4   2  -4 1525.55   30.80
  -4   2   4 1512.95   31.40
   4   2  -4 1513.35   31.00
  -4   2   4 1491.75   31.20
   3  -2  -4  562.24   13.40
   3  -2  -4  584.04   12.60
   3  -2  -4  585.64   13.70
  -3  -2   4  585.84   13.60
  -3  -2   4  579.44   13.20
  -3  -2   4  568.24   12.60
  -3  -2   4  584.74   13.60
  -3  -2   4  580.14   12.00
   3   2  -4  575.24   11.90
  -3   2   4  601.64   13.60
   3   2  -4  606.74   13.30
   3   2  -4  592.64   13.90
  -3   2   4  580.34   13.20
   3   2  -4  585.24   12.80
  -2  -2   4  780.22   17.40
  -2  -2   4  811.12   17.40
   2  -2  -4  824.72   17.60
   2  -2  -4  771.12   17.30
  -2  -2   4  787.42   16.30
  -2  -2   4  784.42   17.10
  -2  -2   4  791.12   17.30
  -2  -2   4  799.02   16.90
   2  -2  -4  789.62   15.80
   2  -2  -4  792.02   16.60
  -2   2   4  793.12   17.30
  -2   2   4  780.42   16.60
   2   2  -4  776.92   17.30
   2   2  -4  782.92   16.40
   2   2  -4  819.02   17.00
   1  -2  -4  715.23   15.40
   1  -2  -4  751.02   16.20
  -1  -2   4  726.13   15.80
   1  -2  -4  709.03   14.80
   1  -2  -4  728.03   14.30
  -1  -2   4  714.93   15.90
  -1  -2   4  736.23   16.00
  -1  -2   4  724.53   16.00
   1  -2  -4  736.73   15.60
  -1  -2   4  711.93   15.80
  -1  -2   4  731.33   15.30
  -1   2   4  707.53   14.90
  -1   2   4  722.73   15.80
   1   2  -4  730.63   15.60
   1   2  -4  725.43   14.90
   1   2  -4  729.23   15.80
   1   2  -4  734.93   15.50
   0  -2  -4    3.80    1.50
   0  -2  -4    2.80    1.40
   0  -2   4    2.20    1.70
   0  -2  -4    3.50    0.90
   0  -2   4    4.00    1.00
   0  -2   4    4.60    1.40
   0  -2   4    5.00    1.80
   0  -2  -4    4.30    1.20
   0  -2   4    4.60    1.10
   0  -2   4    3.00    1.70
   0  -2  -4    3.90    1.70
   0   2  -4    3.20    1.30
   0   2   4    3.60    0.90
   0   2   4    3.40    1.70
   0   2  -4    3.90    1.20
   0   2  -4    3.10    1.10
   0   2   4    3.80    1.40
  -1  -2  -4 1642.14   33.40
   1  -2   4 1631.54   33.70
   1  -2   4 1659.43   33.60
  -1  -2  -4 1654.03   33.00
  -1  -2  -4 1641.74   33.60
   1  -2   4 1623.94   32.00
   1  -2   4 1612.14   33.40
  -1   2  -4 1652.23   32.90
   1   2   4 1618.94   32.70
   1   2   4 1655.53   33.30
  -1   2  -4 1669.13   32.40
  -1   2  -4 1652.23   32.50
   2  -2   4    1.30    1.80
   2  -2   4    4.80    0.80
  -2  -2  -4    6.00    1.60
  -2  -2  -4    1.80    1.90
   2  -2   4    4.50    2.10
   2  -2   4    3.30    2.00
  -2  -2  -4    2.30    1.70
   2   2   4    1.70    1.90
  -2   2  -4    4.90    1.60
  -2   2  -4    5.10    1.10
  -2   2  -4    4.70    0.80
   2   2   4    6.50    2.00
   2   2   4    2.80    1.20
   3  -2   4 1704.63   35.00
  -3  -2  -4 1696.23   34.80
  -3  -2  -4 1687.43   35.10
   3  -2   4 1662.33   33.10
   3  -2   4 1761.22   35.40
   3  -2   4 1702.53   35.40
  -3  -2  -4 1703.63   34.90
  -3   2  -4 1651.03   33.90
   3   2   4 1763.02   35.10
  -3   2  -4 1687.23   35.20
   3   2   4 1647.84   33.20
   3   2   4 1681.73   34.70
   4  -2   4   25.70    3.10
   4  -2   4   24.20    3.30
   4  -2   4   24.20    3.30
  -4  -2  -4   20.50    2.60
  -4  -2  -4   25.40    3.10
  -4  -2  -4   23.70    3.00
   4  -2   4   22.50    1.60
   4  -2   4   25.10    2.30
   4  -2   4   24.60    2.70
   4   2   4   22.60    3.00
   4   2   4   20.60    3.10
  -4   2  -4   18.70    3.10
  -4   2  -4   25.80    2.40
  -4   2  -4   20.80    1.40
   4   2   4   21.80    1.60
   5  -2   4  567.04   14.70
   5  -2   4  576.74   13.60
   5  -2   4  576.04   15.00
  -5  -2  -4  612.24   14.90
   5  -2   4  557.74   12.30
   5  -2   4  576.44   14.40
  -5  -2  -4  556.04   11.90
  -5  -2  -4  562.04   14.20
   5  -2   4  563.84   14.40
   5   2   4  597.54   14.40
   5   2   4  574.24   14.20
  -5   2  -4  586.34   14.80
  -5   2  -4  585.44   13.30
  -5   2  -4  557.74   11.80
   6  -2   4  120.99    7.20
  -6  -2  -4  117.99    5.80
   6  -2   4  129.89    7.00
  -6  -2  -4  127.69    4.20
   6  -2   4  121.59    5.90
   6  -2   4  132.79    6.40
  -6  -2  -4  129.59    6.80
   6  -2   4  105.89    5.90
   6   2   4  123.99    5.80
   6   2   4  121.59    6.40
  -6   2  -4  124.09    6.80
   6   2   4  123.99    4.50
  -6   2  -4  133.39    5.40
   6   2   4  119.79    6.50
  -7  -2  -4  107.99    6.60
   7  -2   4   93.49    6.30
  -7  -2  -4  106.99    6.10
   7  -2   4   95.49    6.60
   7  -2   4  101.19    6.80
   7  -2   4   98.49    5.30
  -7   2  -4   98.99    7.10
   7   2   4  104.19    7.00
  -7   2  -4  111.19    5.40
   7   2   4  100.49    5.60
   7   2   4  106.39    6.70
   8  -2   4  719.83   19.50
  -8  -2  -4  719.23   18.90
   8  -2   4  704.53   18.70
  -8  -2  -4  720.03   18.90
   8  -2   4  750.22   18.60
   8  -2   4  743.53   18.80
   8   2   4  725.13   18.20
  -8   2  -4  687.93   16.90
   8   2   4  720.43   18.70
   8   2   4  696.73   18.50
  -8   2  -4  690.73   18.30
   9  -2   4   80.59    6.30
   9  -2   4   87.49    6.70
   9  -2   4   82.59    7.40
   9  -2   4   81.99    6.60
  -9  -2  -4   81.09    6.70
  -9  -2  -4   91.89    7.10
  -9   2  -4   90.79    7.20
  -9   2  -4   85.79    5.90
   9   2   4   82.19    6.40
   9   2   4   89.39    7.10
   9   2   4   89.49    7.00
  10  -2   4  237.18   11.00
 -10  -2  -4  246.28   10.30
  10  -2   4  232.98   11.10
  10  -2   4  261.87   12.30
  10  -2   4  238.98   12.20
 -10  -2  -4  268.57   11.70
 -10   2  -4  281.47   12.30
 -10   2  -4  243.88   10.20
  10   2   4  239.18   11.50
  10   2   4  252.77   10.90
 -10   2  -4  244.78    9.40
  11  -2   4    2.50    3.50
 -11  -2  -4    2.50    5.60
 -11  -2  -4   -1.70    5.20
  11  -2   4   -3.30    6.00
  11  -2   4    4.50    5.50
  11  -2   4   -3.30    4.00
 -11   2  -4    0.90    5.90
  11   2   4   -1.50    4.90
  11   2   4    3.40    5.80
 -11   2  -4    4.00    4.20
 -11   2  -4   -3.40    3.80
  12  -2   4   72.69    7.40
 -12  -2  -4   70.59    8.40
 -12  -2  -4   58.49    7.50
  12  -2   4   60.19    6.70
  12  -2   4   62.69    8.40
  12  -2   4   61.99    6.60
 -12   2  -4   50.79    7.00
  12   2   4   78.99    6.70
 -12   2  -4   77.79    8.80
  12   2   4   82.09    8.60
 -13  -2  -4   51.29    6.80
  13  -2   4   46.60    8.70
  13  -2   4   46.20    8.10
 -13  -2  -4   40.50    7.20
  13   2   4   42.40    6.60
 -13   2  -4   39.90    6.70
  13   2   4   38.70    5.80
 -14  -2  -4    3.80    6.60
  14  -2   4   -1.00    7.20
 -14  -2  -4   -2.70    5.50
  14  -2   4   -3.00    7.50
  14   2   4   -0.90    7.80
  14   2   4   -1.50    6.70
 -14   2  -4   -3.20    7.30
 -15  -3   4   22.50    8.20
  15  -3  -4   28.60    7.30
  15  -3  -4   19.30    7.60
 -15   3   4   37.70    7.40
  15   3  -4   18.00    6.30
 -15   3   4   15.20    6.60
  15   3  -4   20.10    8.30
 -14  -3   4   23.90    6.90
  14  -3  -4   14.00    6.90
  14  -3  -4   27.00    6.90
 -14  -3   4   31.50    8.10
  14  -3  -4   35.80    7.40
  14   3  -4   28.20    8.20
  14   3  -4   19.90    6.10
 -14   3   4   33.90    8.70
 -14   3   4   37.00    5.50
 -13  -3   4   44.40    6.30
  13  -3  -4   39.40    7.00
 -13  -3   4   43.60    7.10
  13  -3  -4   45.70    7.20
  13  -3  -4   45.30    7.60
  13   3  -4   53.19    6.50
  13   3  -4   48.20    6.40
 -13   3   4   52.79    7.10
 -13   3   4   43.60    8.50
 -12  -3   4    2.60    4.00
 -12  -3   4   16.70    6.30
 -12  -3   4    3.50    4.90
  12  -3  -4    1.60    5.90
  12  -3  -4   16.40    5.80
  12  -3  -4   12.10    7.00
 -12   3   4   23.70    5.90
  12   3  -4   10.50    5.20
  12   3  -4    5.20    6.30
 -12   3   4   22.40    6.90
  11  -3  -4   -2.80    5.10
  11  -3  -4   -4.90    5.90
 -11  -3   4   -2.90    5.10
  11  -3  -4   -4.50    4.70
 -11  -3   4    0.80    4.50
 -11  -3   4    3.50    5.10
  11   3  -4   -1.30    3.70
 -11   3   4    3.60    5.70
  11   3  -4    3.00    5.30
 -11   3   4    9.70    3.80
  11   3  -4    2.80    3.30
  10  -3  -4    3.00    4.00
  10  -3  -4    1.10    4.80
 -10  -3   4   14.00    5.10
  10  -3  -4    4.60    4.80
 -10  -3   4   15.70    5.20
  10   3  -4   17.90    5.20
 -10   3   4   12.20    5.50
  10   3  -4    8.00    3.00
  10   3  -4   11.70    5.10
 -10   3   4    6.90    4.60
  -9  -3   4  250.37   10.70
   9  -3  -4  249.38   10.50
   9  -3  -4  260.07   10.80
  -9  -3   4  248.48   10.40
   9   3  -4  239.48    7.70
   9   3  -4  241.88   10.30
  -9   3   4  256.47   10.30
  -9   3   4  249.48   10.90
   9   3  -4  246.98   10.20
   8  -3  -4  122.59    7.60
  -8  -3   4  131.69    7.80
  -8  -3   4  144.39    8.10
   8  -3  -4  117.89    7.80
   8   3  -4  133.79    5.30
   8   3  -4  128.89    7.60
  -8   3   4  133.09    6.60
  -8   3   4  134.69    8.10
   8   3  -4  136.89    7.30
  -7  -3   4  335.17    9.60
  -7  -3   4  327.17   11.20
   7  -3  -4  330.37   10.50
  -7  -3   4  330.07   11.20
   7  -3  -4  357.76   11.40
   7   3  -4  336.57    8.90
   7   3  -4  317.27   10.80
  -7   3   4  330.97   11.20
   7   3  -4  326.17   10.70
  -7   3   4  349.96   11.10
   6  -3  -4  222.78    8.40
  -6  -3   4  218.68    8.30
  -6  -3   4  203.58    6.80
   6  -3  -4  209.88    8.50
  -6  -3   4  211.98    8.30
  -6   3   4  201.38    7.60
   6   3  -4  210.98    8.00
   6   3  -4  197.58    7.70
  -6   3   4  196.48    8.10
   6   3  -4  203.18    6.00
  -5  -3   4  111.99    3.80
   5  -3  -4  108.49    6.60
   5  -3  -4  109.69    2.70
  -5  -3   4  118.29    6.20
  -5  -3   4  114.99    6.30
  -5  -3   4  120.29    5.00
   5  -3  -4  111.59    6.10
  -5   3   4  124.69    6.20
  -5   3   4  109.19    6.00
   5   3  -4  119.09    4.20
   5   3  -4  118.99    5.80
   5   3  -4  130.89    5.70
   4  -3  -4  166.08    7.00
   4  -3  -4  170.58    6.90
   4  -3  -4  166.78    4.50
  -4  -3   4  171.98    5.20
  -4  -3   4  173.58    7.00
  -4  -3   4  167.38    6.80
  -4  -3   4  166.38    6.00
   4   3  -4  176.38    7.20
   4   3  -4  174.38    5.10
  -4   3   4  174.68    6.50
  -4   3   4  178.28    6.90
   4   3  -4  179.38    6.20
  -3  -3   4    8.40    2.70
   3  -3  -4    8.80    2.70
  -3  -3   4   11.00    2.40
  -3  -3   4    7.40    1.90
   3  -3  -4   11.00    1.70
  -3  -3   4    9.30    1.90
   3  -3  -4   14.20    3.10
  -3  -3   4   10.50    2.70
  -3   3   4   11.10    2.30
   3   3  -4   15.80    2.60
   3   3  -4    7.70    2.10
   3   3  -4    8.20    1.50
   3   3  -4   10.10    2.70
  -3   3   4    6.80    2.60
  -2  -3   4  763.42   17.10
  -2  -3   4  761.12   17.30
  -2  -3   4  764.82   17.60
  -2  -3   4  751.32   16.60
   2  -3  -4  767.92   17.90
   2  -3  -4  749.13   16.50
  -2  -3   4  801.52   17.70
   2  -3  -4  762.62   17.90
  -2   3   4  765.82   17.40
  -2   3   4  747.33   16.60
   2   3  -4  788.42   17.10
   2   3  -4  762.82   16.70
   2   3  -4  743.93   17.40
  -1  -3   4  672.43   15.90
  -1  -3   4  679.13   15.60
  -1  -3   4  692.73   15.20
  -1  -3   4  714.83   16.20
  -1  -3   4  699.93   16.10
  -1  -3   4  706.23   16.10
   1  -3  -4  679.23   14.10
   1  -3  -4  690.23   15.50
   1  -3  -4  699.63   16.40
  -1   3   4  686.63   15.80
  -1   3   4  674.73   14.90
   1   3  -4  719.13   15.50
   1   3  -4  703.23   16.00
   0  -3  -4  247.18    8.20
   0  -3  -4  242.48    6.20
   0  -3   4  258.27    7.90
   0  -3   4  255.37    6.70
   0  -3   4  253.27    7.70
   0  -3  -4  252.87    7.50
   0  -3   4  261.57    7.70
   0  -3   4  269.17    7.70
   0   3  -4  250.77    6.90
   0   3   4  238.78    6.00
   0   3   4  241.98    7.70
   0   3   4  256.67    7.30
   0   3  -4  250.47    7.10
   0   3  -4  240.58    6.90
  -1  -3  -4  232.88    7.80
   1  -3   4  229.88    7.60
   1  -3   4  216.68    6.10
   1  -3   4  222.38    7.20
  -1  -3  -4  223.48    7.30
  -1  -3  -4  213.38    6.10
   1  -3   4  218.78    7.30
   1   3   4  223.68    6.40
  -1   3  -4  218.38    6.60
  -1   3  -4  234.18    6.30
   1   3   4  235.88    7.40
  -1   3  -4  220.08    6.10
   1   3   4  214.78    5.00
  -2  -3  -4   33.60    3.70
  -2  -3  -4   35.20    3.60
  -2  -3  -4   38.50    3.10
   2  -3   4   29.00    2.20
   2  -3   4   28.30    3.00
   2  -3   4   23.50    3.30
   2  -3   4   31.50    3.80
  -2   3  -4   28.80    2.10
  -2   3  -4   32.90    2.70
   2   3   4   27.50    2.30
   2   3   4   26.40    3.20
  -2   3  -4   30.00    2.30
   3  -3   4   37.20    4.10
   3  -3   4   26.30    3.80
   3  -3   4   28.70    2.30
  -3  -3  -4   24.40    3.60
  -3  -3  -4   33.50    3.20
   3  -3   4   31.20    3.70
  -3  -3  -4   29.40    3.70
  -3   3  -4   31.50    2.10
   3   3   4   28.10    2.00
  -3   3  -4   35.80    2.50
   3   3   4   31.10    3.10
   3   3   4   32.10    3.80
  -3   3  -4   30.50    1.80
  -3   3  -4   31.50    4.00
  -4  -3  -4  159.88    6.50
   4  -3   4  165.58    7.80
  -4  -3  -4  175.58    6.80
   4  -3   4  154.98    7.60
   4  -3   4  155.58    4.90
   4  -3   4  164.18    6.60
  -4  -3  -4  164.08    7.40
   4   3   4  160.88    4.40
  -4   3  -4  159.78    7.50
   4   3   4  165.18    7.40
  -4   3  -4  168.48    5.70
  -4   3  -4  162.38    4.20
   4   3   4  163.78    7.10
   5  -3   4  136.19    7.90
   5  -3   4  135.49    4.90
   5  -3   4  138.69    7.30
  -5  -3  -4  142.99    7.00
   5  -3   4  144.19    7.90
  -5  -3  -4  150.08    7.30
  -5  -3  -4  148.89    7.60
   5   3   4  154.98    7.20
  -5   3  -4  157.08    5.60
  -5   3  -4  154.88    7.00
   5   3   4  134.29    6.50
   6  -3   4  358.76    9.50
   6  -3   4  392.06   12.10
   6  -3   4  356.76   11.80
  -6  -3  -4  398.76   12.20
  -6  -3  -4  383.66   12.50
   6  -3   4  373.16   12.90
  -6   3  -4  394.46   12.70
  -6   3  -4  376.86   10.00
   6   3   4  392.86   12.40
   6   3   4  400.06   11.90
   7  -3   4   27.30    4.00
  -7  -3  -4   23.90    4.80
  -7  -3  -4   33.10    5.00
   7  -3   4   21.10    5.20
   7  -3   4   26.50    5.20
   7   3   4   30.60    5.10
  -7   3  -4   28.70    5.20
   7   3   4   25.80    4.80
   7   3   4   18.60    4.40
  -7   3  -4   26.80    3.20
  -8  -3  -4   65.09    6.50
   8  -3   4   80.99    7.20
   8  -3   4   80.69    6.20
   8  -3   4   72.29    7.20
  -8  -3  -4   75.19    7.00
   8   3   4   77.29    5.90
   8   3   4   75.59    5.90
  -8   3  -4   75.79    5.20
   8   3   4   69.59    6.10
  -8   3  -4   78.69    7.20
   9  -3   4    0.10    5.00
  -9  -3  -4   -4.60    5.00
   9  -3   4   -0.40    4.50
  -9  -3  -4   -0.20    5.00
   9  -3   4    5.60    5.80
   9   3   4    1.60    5.20
  -9   3  -4    0.60    3.30
   9   3   4    3.00    4.50
  -9   3  -4    1.60    4.30
  -9   3  -4    1.10    3.80
   9   3   4    3.90    3.40
 -10  -3  -4   19.10    6.30
 -10  -3  -4   17.70    6.20
  10  -3   4   16.80    5.90
  10  -3   4   15.80    6.60
  10  -3   4   17.90    5.50
 -10   3  -4   18.40    5.50
 -10   3  -4   25.00    6.90
  10   3   4   22.10    5.50
  10   3   4   18.90    6.40
  10   3   4   12.50    5.10
 -11  -3  -4   19.20    6.70
 -11  -3  -4   18.40    5.20
  11  -3   4   28.50    5.30
  11  -3   4   31.20    7.70
  11  -3   4   19.90    6.20
  11   3   4    9.20    5.30
 -11   3  -4   25.00    7.40
  11   3   4   12.70    6.00
 -11   3  -4   30.90    6.10
  11   3   4   19.70    7.00
 -12  -3  -4   -0.10    7.00
  12  -3   4   12.30    7.80
  12  -3   4   -4.40    5.90
  12  -3   4    5.50    6.30
 -12  -3  -4    8.10    6.60
  12   3   4    7.50    7.40
  12   3   4   10.00    6.20
 -12   3  -4   -2.30    7.40
 -12   3  -4    3.50    5.60
  13  -3   4   28.00    6.20
  13  -3   4   32.20    9.10
 -13  -3  -4   42.70    6.70
 -13  -3  -4   27.60    8.40
 -13   3  -4   20.30    7.50
  13   3   4   26.20    8.40
 -13   3  -4   51.29    9.70
  13   3   4   27.00    7.20
  14  -4  -4    5.50    7.20
  14  -4  -4    0.20    7.00
 -14  -4   4   13.40    6.00
 -14   4   4   11.80    8.60
 -14   4   4   14.10    7.40
  14   4  -4   11.40    6.60
  14   4  -4    6.90    7.60
  13  -4  -4   22.30    5.80
 -13  -4   4   28.40    6.30
 -13  -4   4   23.60    7.40
  13  -4  -4   22.50    7.30
 -13   4   4   39.70    7.80
  13   4  -4   27.70    8.00
  13   4  -4   11.40    6.50
 -13   4   4   31.80    8.60
 -12  -4   4  119.89    9.90
  12  -4  -4  134.49    9.30
 -12  -4   4  139.69    9.80
  12   4  -4  138.89   10.30
 -12   4   4  124.39    9.80
 -12   4   4  143.69   11.20
  12   4  -4  136.39    9.30
 -11  -4   4    1.60    6.20
  11  -4  -4   11.40    6.50
  11  -4  -4   12.70    6.20
 -11  -4   4   10.40    6.00
 -11   4   4   11.30    6.10
 -11   4   4    0.40    6.40
  11   4  -4    8.80    6.30
  11   4  -4    5.50    5.30
 -10  -4   4  132.69    8.60
  10  -4  -4  145.09    9.60
  10  -4  -4  155.98   10.90
 -10  -4   4  144.79   10.40
 -10   4   4  149.29   10.80
 -10   4   4  133.19    9.20
  10   4  -4  141.49    9.90
  -9  -4   4   11.60    5.30
  -9  -4   4    9.40    5.10
   9  -4  -4   10.10    5.50
   9  -4  -4    0.20    4.70
  -9   4   4    0.30    3.40
   9   4  -4   -0.40    3.40
   9   4  -4   -0.90    4.80
  -9   4   4    1.50    5.30
  -8  -4   4   91.69    7.50
  -8  -4   4   97.99    7.50
   8  -4  -4   93.59    6.80
   8  -4  -4   80.19    7.00
  -8   4   4   90.59    7.40
   8   4  -4   86.89    6.10
   8   4  -4   83.59    7.30
  -8   4   4   92.89    7.30
  -7  -4   4  582.04   17.10
  -7  -4   4  630.54   17.40
   7  -4  -4  621.74   17.30
   7  -4  -4  607.24   17.10
   7   4  -4  618.74   17.90
  -7   4   4  618.54   17.20
   7   4  -4  592.84   16.50
   7   4  -4  593.34   14.40
  -7   4   4  603.84   17.20
   6  -4  -4  157.98    9.20
  -6  -4   4  159.18    6.50
  -6  -4   4  166.68    8.60
  -6  -4   4  170.78    8.80
   6  -4  -4  159.48    8.40
  -6   4   4  175.98    7.80
   6   4  -4  158.88    6.10
  -6   4   4  165.08    8.40
   6   4  -4  160.68    7.90
   6   4  -4  169.98    8.90
   5  -4  -4  559.84   15.80
  -5  -4   4  575.54   15.50
  -5  -4   4  577.34   15.90
  -5  -4   4  581.84   14.30
   5  -4  -4  566.64   15.80
   5   4  -4  572.24   16.30
   5   4  -4  592.34   14.70
   5   4  -4  576.44   13.60
  -5   4   4  599.74   15.60
  -5   4   4  569.94   15.30
  -4  -4   4    2.00    2.50
  -4  -4   4   -3.20    2.30
   4  -4  -4   -2.10    3.60
   4  -4  -4    0.00    3.50
  -4  -4   4    1.80    3.40
  -4  -4   4    1.40    2.00
   4   4  -4   -2.20    3.10
   4   4  -4   -5.10    2.70
  -4   4   4   -2.60    3.30
   4   4  -4   -1.30    2.00
  -4   4   4    3.30    2.10
   3  -4  -4  146.79    8.00
   3  -4  -4  158.68    5.60
   3  -4  -4  143.59    6.80
  -3  -4   4  159.98    6.10
  -3  -4   4  155.78    6.60
  -3  -4   4  154.98    7.20
  -3  -4   4  166.78    7.50
  -3  -4   4  160.48    6.30
   3   4  -4  157.98    6.00
  -3   4   4  159.38    7.30
   3   4  -4  155.68    5.60
  -3   4   4  151.28    6.40
   3   4  -4  167.98    6.80
  -2  -4   4   45.30    3.90
  -2  -4   4   46.10    4.10
  -2  -4   4   50.29    4.50
   2  -4  -4   42.60    4.80
  -2  -4   4   45.00    4.10
   2  -4  -4   46.20    3.30
   2  -4  -4   45.80    4.90
  -2  -4   4   45.70    3.80
  -2  -4   4   54.99    4.60
  -2   4   4   44.10    3.50
   2   4  -4   46.70    3.80
   2   4  -4   49.20    4.40
   2   4  -4   50.99    3.70
  -2   4   4   55.19    4.50
   1  -4  -4  644.64   15.50
  -1  -4   4  657.53   16.10
  -1  -4   4  658.73   15.40
  -1  -4   4  659.43   16.40
   1  -4  -4  658.93   17.10
   1  -4  -4  633.84   13.90
  -1  -4   4  650.33   16.30
  -1  -4   4  659.43   16.10
  -1  -4   4  638.34   15.70
  -1   4   4  663.33   16.00
   1   4  -4  680.33   15.60
   1   4  -4  654.43   16.20
  -1   4   4  660.23   14.70
  -1   4   4  640.44   16.20
   0  -4   4  477.05   12.60
   0  -4   4  479.65   13.00
   0  -4   4  474.35   13.00
   0  -4   4  489.85   13.30
   0  -4  -4  462.35   12.50
   0  -4   4  449.66   11.70
   0  -4   4  475.75   12.30
   0  -4  -4  485.65   13.70
   0   4  -4  462.35   12.00
   0   4   4  491.25   13.10
   0   4  -4  468.45   12.30
   0   4  -4  465.85   11.80
   0   4   4  478.85   12.20
   0   4   4  454.05   10.70
  -1  -4  -4   42.80    3.30
   1  -4   4   37.00    3.90
   1  -4   4   43.50    4.00
   1  -4   4   32.10    3.30
  -1  -4  -4   31.00    4.40
  -1  -4  -4   34.60    4.10
   1  -4   4   37.40    4.30
   1   4   4   42.10    3.40
  -1   4  -4   36.50    3.40
   1   4   4   45.90    4.50
  -1   4  -4   32.90    3.40
  -1   4  -4   35.60    3.00
   2  -4   4  435.26   12.80
  -2  -4  -4  398.86   11.90
  -2  -4  -4  396.46   10.70
   2  -4   4  417.96   12.40
   2  -4   4  386.16   10.40
   2  -4   4  399.86   12.10
  -2  -4  -4  426.16   12.40
  -2   4  -4  398.06   10.10
  -2   4  -4  402.66   10.50
  -2   4  -4  398.66    9.80
   2   4   4  399.46   11.50
   2   4   4  387.26   10.40
  -2   4  -4  414.56   12.60
  -3  -4  -4  101.39    5.70
   3  -4   4  108.29    7.50
   3  -4   4  103.99    4.60
  -3  -4  -4  106.29    6.10
   3  -4   4  116.49    6.10
   3  -4   4  109.29    7.00
  -3  -4  -4  102.09    7.20
   3   4   4  102.89    6.70
  -3   4  -4   93.19    6.00
   3   4   4  107.69    5.90
  -3   4  -4   97.89    4.40
  -3   4  -4   86.39    4.40
   3   4   4  107.59    4.30
  -4  -4  -4   80.39    6.10
   4  -4   4   83.69    4.30
   4  -4   4   82.99    6.70
   4  -4   4   76.49    5.60
  -4  -4  -4   90.49    5.70
   4  -4   4   84.39    6.20
  -4  -4  -4   83.29    6.00
  -4   4  -4   86.39    4.70
  -4   4  -4   80.59    6.60
   4   4   4   88.49    6.70
   4   4   4   87.69    5.90
   5  -4   4   37.90    4.80
   5  -4   4   29.40    4.40
  -5  -4  -4   29.50    4.60
  -5  -4  -4   22.80    4.80
   5  -4   4   27.40    4.90
  -5  -4  -4   35.70    5.40
   5   4   4   29.20    4.80
  -5   4  -4   26.00    3.10
  -5   4  -4   39.00    5.50
   5   4   4   22.30    4.90
  -6  -4  -4   81.99    7.10
   6  -4   4   71.79    7.40
  -6  -4  -4   78.19    6.50
   6  -4   4   73.49    7.10
  -6   4  -4   78.39    7.10
   6   4   4   75.99    6.20
   6   4   4   84.99    6.30
   6   4   4   81.59    5.70
  -6   4  -4   84.69    4.90
   7  -4   4  177.38   10.90
   7  -4   4  174.48    9.60
  -7  -4  -4  174.28   10.40
  -7  -4  -4  174.78    8.60
   7   4   4  180.48   10.40
   7   4   4  178.28    9.50
  -7   4  -4  182.58   10.60
   7   4   4  181.18    9.50
  -8  -4  -4    7.10    6.00
   8  -4   4   10.20    6.60
  -8  -4  -4    4.50    5.30
   8  -4   4    8.10    4.40
   8   4   4   12.40    4.20
   8   4   4   10.30    4.40
  -8   4  -4    0.80    5.70
   8   4   4    2.30    5.00
  -8   4  -4    8.20    3.90
  -9  -4  -4   25.80    6.50
   9  -4   4    4.90    7.00
   9  -4   4   13.40    4.80
  -9  -4  -4   14.00    4.90
   9   4   4   11.60    5.60
  -9   4  -4   16.50    6.10
   9   4   4   15.20    6.30
  -9   4  -4    1.90    6.30
 -10  -4  -4    9.80    6.70
  10  -4   4   14.70    5.10
 -10  -4  -4   14.10    7.10
  10  -4   4   13.60    7.80
 -10   4  -4   13.40    4.70
  10   4   4   13.40    4.50
  10   4   4   14.40    7.20
 -10   4  -4   19.20    7.30
 -11  -4  -4   72.39    9.20
  11  -4   4   59.39    8.60
  11  -4   4   62.59    8.00
 -11  -4  -4   44.50    6.80
 -11   4  -4   54.09    8.00
  11   4   4   63.59    6.40
 -11   4  -4   56.59    9.20
  11   4   4   67.09    9.30
  12  -4   4   24.40    9.50
  12  -4   4   20.00    7.80
 -12  -4  -4   28.30    8.40
 -12  -4  -4   24.00    8.20
  12   4   4   25.60    8.60
 -12   4  -4   27.40    7.40
  12   4   4   18.80    6.90
 -12   4  -4   18.80    8.50
 -12  -5   4   -5.80    7.30
  12  -5  -4   11.00    8.00
  12  -5  -4    6.00    6.70
 -12   5   4   -1.70    5.50
  12   5  -4   -0.90    7.30
  12   5  -4    0.90    6.80
 -12   5   4    2.20    7.70
  11  -5  -4   -1.50    6.20
 -11  -5   4    9.40    7.30
  11  -5  -4   -1.60    5.20
 -11  -5   4    1.60    7.00
  11   5  -4   -8.50    4.40
  11   5  -4    3.00    4.40
 -11   5   4   -1.70    7.00
 -11   5   4   -3.40    5.00
  10  -5  -4  -14.80    6.60
  10  -5  -4    8.90    6.20
 -10  -5   4   -1.50    6.40
 -10  -5   4    3.40    6.50
 -10   5   4   -5.30    6.40
  10   5  -4    1.90    6.10
 -10   5   4    2.70    4.80
   9  -5  -4    0.00    4.80
  -9  -5   4    5.80    6.10
  -9  -5   4    4.50    6.30
   9  -5  -4   -1.60    5.60
   9   5  -4    6.00    5.90
  -9   5   4    4.10    4.70
  -9   5   4    2.70    6.30
  -8  -5   4   -3.60    5.60
  -8  -5   4   10.10    6.10
   8  -5  -4   11.10    5.70
   8  -5  -4    4.30    6.40
  -8   5   4    7.70    4.30
  -8   5   4    5.30    4.10
   8   5  -4    9.30    5.40
   7  -5  -4    6.40    5.80
  -7  -5   4   13.50    5.60
   7  -5  -4    0.80    3.80
  -7  -5   4   10.80    4.10
  -7   5   4   13.90    5.40
   7   5  -4   -1.10    4.70
   7   5  -4    7.20    3.90
  -7   5   4    3.10    5.40
   6  -5  -4   10.80    5.60
  -6  -5   4    4.70    5.10
  -6  -5   4   14.20    5.20
   6  -5  -4   11.40    5.00
  -6   5   4   10.20    5.00
   6   5  -4    6.60    3.60
  -6   5   4   13.30    5.00
   6   5  -4    6.00    4.60
   5  -5  -4   11.50    5.40
   5  -5  -4   11.50    4.90
  -5  -5   4   11.90    4.80
  -5  -5   4   14.50    5.00
  -5  -5   4   11.90    3.20
  -5   5   4    9.60    5.00
   5   5  -4   14.70    3.30
  -5   5   4    6.20    4.20
   5   5  -4    6.80    4.20
   5   5  -4   11.60    4.70
   4  -5  -4    2.90    3.20
  -4  -5   4    0.20    4.30
  -4  -5   4   -1.80    3.00
  -4  -5   4    0.00    4.10
   4  -5  -4   -0.10    4.90
   4   5  -4   -0.20    2.80
  -4   5   4   -2.30    4.10
   4   5  -4   -2.30    3.60
  -4   5   4   -1.60    3.50
   4   5  -4   -7.30    3.80
  -3  -5   4   18.00    4.70
   3  -5  -4   10.30    3.50
  -3  -5   4   13.70    3.30
  -3  -5   4   14.50    3.60
   3  -5  -4   24.80    5.30
  -3  -5   4    8.90    3.40
   3   5  -4    8.80    3.10
   3   5  -4    9.70    4.10
   3   5  -4   11.40    3.80
  -3   5   4   13.90    3.40
   3   5  -4    9.20    4.00
  -3   5   4   14.20    4.40
  -2  -5   4   29.80    4.30
  -2  -5   4   26.90    4.10
  -2  -5   4   24.10    4.60
   2  -5  -4   33.00    5.40
   2  -5  -4   27.60    3.80
   2  -5  -4   30.30    5.50
  -2  -5   4   26.00    4.10
  -2  -5   4   27.30    4.60
  -2  -5   4   32.10    4.50
   2   5  -4   28.00    4.10
   2   5  -4   29.70    4.20
  -2   5   4   24.50    3.40
   2   5  -4   30.30    4.60
   2   5  -4   27.40    3.70
  -2   5   4   28.70    4.60
   1  -5  -4    5.20    3.20
  -1  -5   4    7.70    3.80
  -1  -5   4    5.30    3.20
  -1  -5   4    0.70    3.50
  -1  -5   4   -2.30    3.40
  -1  -5   4   -0.60    3.40
  -1  -5   4    3.50    3.80
   1  -5  -4    8.30    4.60
  -1   5   4    4.10    4.20
   1   5  -4    4.90    3.30
   1   5  -4    2.70    2.40
   1   5  -4    1.00    3.30
   1   5  -4    4.00    3.20
  -1   5   4    2.70    3.60
   0  -5  -4   -2.00    3.20
   0  -5   4   -1.60    3.70
   0  -5  -4    6.20    4.50
   0  -5   4    2.00    2.80
   0  -5   4    4.00    3.00
   0  -5   4    0.00    3.30
   0  -5   4    4.90    4.10
   0   5   4   -1.90    3.90
   0   5  -4    5.00    3.00
   0   5  -4    4.10    3.00
   0   5   4    3.10    3.20
   0   5  -4    0.30    3.10
   1  -5   4   10.80    4.30
  -1  -5  -4   18.90    4.40
   1  -5   4   13.00    4.50
   1  -5   4   15.00    4.70
   1  -5   4   10.20    3.00
  -1  -5  -4    4.30    3.30
  -1   5  -4    5.50    2.70
  -1   5  -4   13.70    3.10
  -1   5  -4   12.40    3.30
   1   5   4   14.20    3.50
  -1   5  -4    9.40    4.50
   1   5   4    6.50    3.00
  -2  -5  -4   -1.90    4.00
  -2  -5  -4    0.00    4.50
   2  -5   4    2.30    2.80
   2  -5   4   -5.10    4.20
  -2  -5  -4    1.50    3.20
   2  -5   4   -1.00    3.00
   2  -5   4    3.20    4.20
  -2   5  -4    2.00    4.50
  -2   5  -4    5.00    2.80
   2   5   4    2.40    4.20
   3  -5   4   -3.40    4.30
   3  -5   4   -1.80    3.30
  -3  -5  -4   -5.20    4.50
  -3  -5  -4    2.40    3.60
  -3  -5  -4   -2.10    3.00
   3  -5   4   -1.30    3.30
  -3   5  -4   -1.60    4.60
   3   5   4    3.00    4.70
  -3   5  -4   -5.90    2.60
   3   5   4   -1.50    4.20
  -4  -5  -4    0.00    4.60
   4  -5   4    3.50    3.50
  -4  -5  -4   -0.20    3.50
   4  -5   4    0.30    3.50
  -4  -5  -4   -2.10    4.80
   4  -5   4   -5.70    5.20
  -4   5  -4   -4.70    4.80
   4   5   4    3.90    5.00
   4   5   4   -2.60    4.50
  -5  -5  -4    2.30    5.20
   5  -5   4    3.20    5.90
   5  -5   4    2.50    5.50
  -5  -5  -4   -2.40    3.70
  -5  -5  -4    1.00    4.20
   5   5   4   -1.80    3.70
   5   5   4    1.30    3.50
  -5   5  -4    0.20    5.40
  -6  -5  -4   27.20    6.60
   6  -5   4   18.50    5.50
  -6  -5  -4   29.40    5.60
   6  -5   4   25.70    6.70
   6   5   4   27.40    6.00
  -6   5  -4   18.00    4.60
   6   5   4   26.80    6.40
  -6   5  -4   31.60    7.00
   7  -5   4    4.10    7.00
  -7  -5  -4    5.80    5.50
  -7  -5  -4    9.00    6.40
   7  -5   4    3.00    6.40
   7   5   4    5.20    6.20
  -7   5  -4    9.20    4.70
  -7   5  -4    8.20    6.70
   7   5   4   -1.70    5.40
  -8  -5  -4    5.00    5.80
  -8  -5  -4   -4.60    4.50
   8  -5   4    3.90    5.40
   8  -5   4    0.50    4.70
   8   5   4    1.10    5.80
  -8   5  -4    3.50    4.60
   8   5   4    6.10    4.70
  -8   5  -4    4.40    5.00
   9  -5   4  -14.10    7.60
  -9  -5  -4    1.90    7.00
  -9  -5  -4    6.80    6.50
  -9   5  -4   10.70    7.60
   9   5   4   -3.90    4.80
   9   5   4   -5.40    4.10
  -9   5  -4   -1.00    6.70
 -10  -5  -4   -9.40    7.60
 -10  -5  -4    4.20    7.10
  10  -5   4   -3.40    7.50
  10  -5   4  -10.90    8.30
  10   5   4   -2.00    7.70
 -10   5  -4    9.50    7.50
 -10   5  -4    0.40    7.70
  10   5   4   -4.50    6.10
  10  -6  -4    2.30    5.90
 -10  -6   4   10.90    7.70
  10  -6  -4    5.20    6.90
 -10   6   4    4.90    7.70
  10   6  -4  -12.40    6.50
 -10   6   4    2.20    7.90
  10   6  -4   -1.80    6.80
  -9  -6   4   12.00    7.50
  -9  -6   4   12.20    7.60
   9  -6  -4   18.50    7.00
   9  -6  -4    0.90    7.90
   9   6  -4    2.30    6.70
   9   6  -4    9.60    6.80
  -9   6   4    9.00    7.40
  -9   6   4   12.60    5.90
   8  -6  -4   27.90    7.10
   8  -6  -4   29.70    8.20
  -8  -6   4   25.00    7.80
  -8  -6   4   23.50    7.30
   8   6  -4   34.60    7.30
  -8   6   4   34.90    7.60
  -8   6   4   18.10    7.50
   8   6  -4   30.00    6.80
  -7  -6   4   77.69    8.80
   7  -6  -4   74.89    9.40
  -7  -6   4   78.49    8.50
   7  -6  -4   79.99    8.30
   7   6  -4   72.89    7.60
  -7   6   4  100.19    9.50
  -7   6   4   81.39    8.20
   6  -6  -4   20.20    7.40
  -6  -6   4   45.40    7.30
   6  -6  -4   24.30    6.50
  -6  -6   4   34.20    6.80
  -6   6   4   16.30    5.90
  -6   6   4   24.70    7.00
   6   6  -4   16.60    5.80
   6   6  -4   27.20    6.40
   5  -6  -4   51.99    8.20
  -5  -6   4   51.79    6.90
   5  -6  -4   33.30    6.90
  -5  -6   4   55.89    6.30
  -5   6   4   56.19    7.50
   5   6  -4   49.10    6.40
   5   6  -4   41.80    6.60
  -5   6   4   57.89    6.70
  -4  -6   4   35.50    5.20
  -4  -6   4   33.20    6.10
   4  -6  -4   43.30    6.90
   4  -6  -4   52.69    7.90
   4   6  -4   39.70    5.00
  -4   6   4   41.10    6.70
   4   6  -4   34.10    5.10
   4   6  -4   50.19    6.20
  -3  -6   4   30.20    6.00
  -3  -6   4   24.60    5.50
  -3  -6   4   15.80    4.40
   3  -6  -4   18.10    6.60
   3  -6  -4   40.50    6.80
  -3   6   4   19.20    5.70
   3   6  -4   29.30    5.50
   3   6  -4   24.70    5.50
   3   6  -4   34.30    7.70
   3   6  -4   25.80    5.40
   2  -6  -4   76.69    7.80
  -2  -6   4   76.09    6.60
  -2  -6   4   69.59    6.60
  -2  -6   4   82.99    5.90
  -2  -6   4   73.29    6.30
  -2  -6   4   69.89    6.10
  -2   6   4   74.49    7.50
   2   6  -4   74.09    6.00
   2   6  -4   71.89    6.10
   2   6  -4   76.89    6.10
  -2   6   4   82.69    6.90
   2   6  -4   76.09    6.40
   2   6  -4   80.09    6.00
   2   6  -4   78.49    6.60
  -1  -6   4   80.09    7.00
  -1  -6   4   80.39    6.40
  -1  -6   4   77.89    6.80
  -1  -6   4   80.29    6.80
   1  -6  -4   84.59    8.00
  -1  -6   4   75.49    6.40
  -1  -6   4   87.29    6.80
  -1   6   4   72.19    6.40
   1   6  -4   79.29    6.10
   1   6  -4   67.99    6.20
   1   6  -4   86.59    7.10
  -1   6   4   86.59    7.80
   1   6  -4   67.59    6.20
   1   6  -4   81.69    6.10
   1   6  -4   85.89    6.20
   1   6  -4   67.49    6.30
   0  -6  -4  133.49    8.10
   0  -6  -4  148.09    9.70
   0  -6   4  127.29    8.50
   0  -6   4  130.49    8.70
   0  -6   4  138.99    7.70
   0  -6   4  123.79    7.60
   0   6  -4  133.59    8.30
   0   6  -4  124.99    7.50
   0   6  -4  128.09    9.10
   0   6  -4  135.99    9.60
   0   6   4  156.58    9.40
   0   6   4  135.59    8.20
  -1  -6  -4  119.19    9.20
  -1  -6  -4  115.49    8.00
   1  -6   4  134.89    9.10
   1  -6   4  102.19    7.20
   1  -6   4  110.19    8.60
   1   6   4  114.59    7.60
  -1   6  -4  121.29    8.70
  -1   6  -4  116.79    8.20
  -2  -6  -4   54.79    6.70
   2  -6   4   41.70    5.40
  -2  -6  -4   43.80    7.10
   2  -6   4   44.10    7.10
   2  -6   4   44.60    7.30
   2   6   4   47.30    7.70
   2   6   4   55.49    7.00
  -2   6  -4   44.80    7.10
  -2   6  -4   37.40    5.20
   3  -6   4    6.80    6.40
   3  -6   4   23.80    6.90
  -3  -6  -4   14.60    6.10
  -3  -6  -4   15.70    6.40
   3   6   4   14.00    5.90
  -3   6  -4    6.30    5.80
  -3   6  -4   19.50    6.40
   3   6   4    3.70    6.20
   4  -6   4   47.70    7.90
   4  -6   4   38.60    7.90
  -4  -6  -4   40.80    7.10
  -4  -6  -4   58.39    7.80
  -4   6  -4   37.80    5.80
   4   6   4   32.40    6.50
   4   6   4   31.30    5.80
  -4   6  -4   32.80    7.30
  -5  -6  -4   75.89    8.50
   5  -6   4   82.79    9.50
   5  -6   4   68.09    9.10
   5   6   4   77.99    8.00
   5   6   4   90.29    9.10
  -5   6  -4   86.49    8.90
  -5   6  -4   90.29    9.20
   6  -6   4   73.09    9.50
   6  -6   4   58.09    7.70
   6   6   4   74.69    8.10
  -6   6  -4   83.19    9.40
  -6   6  -4   66.19    8.80
   6   6   4   71.99    9.10
   7  -6   4   40.20    9.40
  -7  -6  -4   29.10    8.30
   7  -6   4   38.30    6.90
  -7   6  -4   31.00    6.20
  -7   6  -4   48.50    9.00
   7   6   4   39.40    8.60
   7   6   4   22.10    7.00
   8  -6   4   14.00    6.90
  -8  -6  -4    5.80    5.80
  -8  -6  -4    2.90    6.30
   8   6   4    5.30    4.90
  -8   6  -4    1.80    5.40
  -8   6  -4    9.30    6.00
   8   6   4    9.30    7.90
   7  -7  -4  -10.10    6.70
  -7  -7   4    5.70    7.00
   7   7  -4    2.60    4.80
  -7   7   4  -12.10    7.30
  -6  -7   4    2.10    6.50
   6  -7  -4   -4.10    8.10
  -6  -7   4   14.30    7.30
   6  -7  -4    1.90    6.80
  -6   7   4   11.00    7.50
   6   7  -4    4.60    5.10
   6   7  -4   -3.30    6.20
  -5  -7   4    8.70    6.30
   5  -7  -4   11.60    8.20
   5  -7  -4   -1.50    6.70
  -5  -7   4    2.00    4.90
   5   7  -4   -3.00    5.90
   5   7  -4   -0.40    6.20
  -5   7   4   -4.70    4.50
  -4  -7   4    8.80    5.80
   4  -7  -4   -3.40    6.60
  -4  -7   4    1.70    6.20
   4   7  -4   -7.70    5.70
  -4   7   4    2.70    6.40
   3  -7  -4   12.80    6.90
  -3  -7   4   16.20    6.30
  -3  -7   4   10.30    5.60
   3   7  -4    9.60    5.90
  -3   7   4   14.30    6.40
  -3   7   4    8.20    6.90
   3   7  -4   11.80    5.50
   2  -7  -4    8.20    6.90
  -2  -7   4    2.70    5.50
  -2  -7   4   14.20    4.10
  -2   7   4    3.10    5.70
   2   7  -4    0.30    3.80
  -2   7   4   14.00    6.90
   1  -7  -4   -1.40    4.70
  -1  -7   4    6.40    5.50
  -1   7   4   -1.80    6.40
   0  -7   4    0.50    4.20
   0  -7   4   12.00    6.20
   0  -7  -4    7.90    7.10
   0   7  -4    3.50    5.50
   0   7  -4    4.10    5.80
   0   7   4    8.40    6.60
  -1  -7  -4   34.40    7.90
   1  -7   4   33.40    6.00
   1  -7   4   38.60    7.60
  -1   7  -4   53.19    7.80
   1   7   4   31.20    7.40
  -1   7  -4   33.50    5.50
   1   7   4   34.50    6.40
  -2  -7  -4   20.10    6.00
   2  -7   4    6.80    7.10
   2  -7   4   14.20    7.00
  -2  -7  -4   16.80    6.30
  -2   7  -4   26.60    6.90
  -2   7  -4   24.30    7.20
   2   7   4   15.30    6.70
   2   7   4   24.20    6.10
  -3  -7  -4   11.70    7.30
  -3  -7  -4   -6.00    6.00
   3  -7   4    3.20    7.10
   3  -7   4  -10.30    7.10
  -3   7  -4    0.50    6.70
   3   7   4   -3.50    5.10
  -3   7  -4    4.30    6.40
   3   7   4   -1.70    6.70
   4  -7   4    0.30    7.40
  -4  -7  -4   11.50    7.50
   4  -7   4   -5.90    7.60
  -4  -7  -4    1.50    6.50
  -4   7  -4    7.10    7.30
  -4   7  -4   -5.80    6.80
   4   7   4   -5.00    5.10
   4   7   4   -0.60    6.40
   5  -7   4   19.50    9.20
  -5  -7  -4   12.10    7.70
  -5  -7  -4   11.90    7.70
   5  -7   4   24.50    8.70
   5   7   4   21.30    5.60
  -5   7  -4   17.60    6.20
  -5   7  -4    9.80    7.50
   5   7   4   19.00    6.40
  16   0  -5   -3.90    7.70
 -16   0   5   -0.40    6.20
 -16   0   5   10.10    8.30
  15   0  -5    0.60    7.10
 -15   0   5   -6.70    7.00
 -15   0   5   -1.00    5.60
 -14   0   5    3.40    5.20
  14   0  -5   -5.50    6.20
 -14   0   5  -13.10    6.20
  13   0  -5   -1.00    4.20
  13   0  -5   -2.60    4.00
 -13   0   5    2.20    4.60
 -13   0   5    1.40    4.10
 -12   0   5   -4.40    3.90
 -12   0   5    1.90    5.50
  12   0  -5   -1.80    5.00
  12   0  -5   -0.20    4.20
 -11   0   5   -6.20    4.70
 -11   0   5    0.40    2.90
 -11   0   5   -0.20    3.50
  11   0  -5   -5.50    3.00
  11   0  -5    1.40    2.70
  11   0  -5   -3.90    3.70
 -11   0   5   -0.20    2.50
  10   0  -5   -1.40    2.00
 -10   0   5    0.60    3.10
 -10   0   5    0.50    3.40
 -10   0   5    4.00    3.10
  10   0  -5    4.50    4.00
  10   0  -5    1.00    3.60
 -10   0   5    2.40    2.30
  10   0  -5   -1.60    2.30
  -9   0   5    3.80    3.90
  -9   0   5   -0.30    2.10
  -9   0   5    0.60    2.70
   9   0  -5   -2.80    3.20
  -9   0   5   -1.40    2.40
   9   0  -5    1.90    2.10
   9   0  -5    0.00    3.40
   9   0  -5    0.20    2.10
   8   0  -5    0.20    2.90
   8   0  -5   -5.30    2.70
  -8   0   5   -1.60    1.50
  -8   0   5    0.50    1.70
  -8   0   5    0.30    2.20
  -8   0   5    2.20    2.50
   8   0  -5    0.50    1.30
   8   0  -5    1.50    1.80
  -7   0   5    1.30    2.10
  -7   0   5   -0.80    2.80
  -7   0   5    0.10    1.50
   7   0  -5   -0.20    2.60
   7   0  -5    2.80    2.60
  -7   0   5   -0.30    1.80
   7   0  -5   -0.70    1.30
   7   0  -5    1.20    1.70
   6   0  -5    2.30    1.70
   6   0  -5   -2.60    2.20
   6   0  -5   -0.70    1.00
  -6   0   5    2.10    1.40
   6   0  -5    1.70    1.60
  -6   0   5    2.90    2.50
  -6   0   5   -0.20    1.80
  -6   0   5   -1.30    1.40
   5   0  -5   -0.70    1.90
  -5   0   5    0.80    1.30
   5   0  -5    2.50    1.40
   5   0  -5    0.90    0.90
   5   0  -5    1.80    1.10
  -5   0   5    1.30    1.30
  -5   0   5   -0.80    1.50
   4   0  -5   -0.70    1.40
  -4   0   5    8.80    2.20
   4   0  -5   -1.40    1.30
  -4   0   5   -1.50    1.60
   4   0  -5   -0.60    1.70
  -4   0   5    3.40    1.70
  -4   0   5    1.00    1.10
  -3   0   5   -0.40    0.90
   3   0  -5    0.40    1.00
  -3   0   5   -1.10    0.90
  -3   0   5    4.50    1.30
  -3   0   5   -0.40    1.60
   3   0  -5   -0.20    0.90
   3   0  -5   -0.70    1.00
   3   0  -5   -2.00    1.20
  -2   0   5    0.10    1.30
   2   0  -5    0.90    0.90
   2   0  -5    1.10    0.80
  -2   0   5   -0.20    0.80
   2   0  -5    0.10    1.30
   2   0  -5    0.70    0.90
  -2   0   5    0.40    1.50
  -2   0   5   -0.20    1.20
  -2   0   5    0.90    0.50
  -1   0   5   -2.20    1.30
  -1   0   5    0.80    0.70
  -1   0   5   -0.30    0.80
   1   0  -5    0.20    0.80
   1   0  -5    0.60    0.70
   1   0  -5    0.90    0.90
  -1   0   5    1.40    0.80
   1   0  -5   -1.20    1.10
   0   0  -5    0.10    0.70
   0   0   5   -0.20    1.00
   0   0   5   -0.50    0.90
   0   0  -5    0.60    0.70
   0   0  -5    0.00    0.60
   0   0   5   -0.60    0.90
   0   0  -5    0.00    0.80
   0   0   5   -1.40    1.20
  -1   0  -5   -0.10    0.70
   1   0   5    0.00    0.90
  -1   0  -5   -0.30    1.10
   1   0   5    0.90    0.70
  -1   0  -5   -1.30    0.80
   1   0   5   -0.80    1.30
   1   0   5    0.60    1.10
   1   0   5   -1.10    1.20
   2   0   5   -1.50    1.50
  -2   0  -5    2.00    1.40
   2   0   5   -0.70    0.80
  -2   0  -5    0.90    1.20
   2   0   5    0.50    0.90
  -2   0  -5   -0.10    0.80
   2   0   5   -1.10    1.00
  -3   0  -5    0.50    1.60
   3   0   5   -1.80    1.10
   3   0   5   -1.00    1.50
   3   0   5   -0.90    1.30
  -3   0  -5    0.10    1.30
   3   0   5    1.40    1.20
  -3   0  -5    1.60    1.40
  -4   0  -5   -0.50    1.40
   4   0   5    0.50    1.20
   4   0   5    2.00    1.60
  -4   0  -5    2.90    1.90
   4   0   5   -0.30    1.80
  -4   0  -5    1.40    1.40
   4   0   5    0.00    2.20
   5   0   5    1.30    2.10
   5   0   5   -1.50    2.50
  -5   0  -5    3.00    1.90
   5   0   5    2.40    1.60
   5   0   5    2.40    1.50
  -5   0  -5    1.80    2.20
   6   0   5   -1.50    1.50
  -6   0  -5   -1.40    2.00
   6   0   5   -1.10    1.30
   6   0   5    2.20    2.10
   6   0   5   -2.70    1.50
   6   0   5   -3.20    2.40
  -6   0  -5   -2.70    2.50
  -7   0  -5    6.90    2.80
   7   0   5   -1.80    2.50
   7   0   5    3.30    3.10
  -7   0  -5   -1.80    2.90
  -7   0  -5   -2.40    2.40
   7   0   5   -3.10    1.80
   7   0   5   -5.50    3.30
  -8   0  -5    2.30    3.10
   8   0   5   -1.50    3.60
  -8   0  -5    0.70    3.50
   8   0   5   -0.90    2.60
   8   0   5   -0.90    2.60
   8   0   5    0.70    2.00
  -8   0  -5    1.20    3.00
  -9   0  -5    0.00    4.00
  -9   0  -5    0.40    3.30
   9   0   5    1.10    2.90
  -9   0  -5    1.60    3.30
   9   0   5    5.10    4.30
   9   0   5    1.50    4.10
  10   0   5   -0.20    4.70
  10   0   5   -0.50    4.80
 -10   0  -5   -1.80    3.90
  10   0   5   13.30    5.10
 -10   0  -5   -2.00    3.50
 -10   0  -5    1.00    4.50
 -11   0  -5    1.50    5.10
  11   0   5   -3.10    5.20
 -11   0  -5   -0.70    4.00
  11   0   5    1.20    3.50
 -11   0  -5   -1.80    4.10
  11   0   5    4.80    5.60
  12   0   5   -3.50    3.90
  12   0   5   -3.00    5.80
  12   0   5    7.30    6.10
 -12   0  -5   -6.80    5.30
  13   0   5   -3.20    6.40
  13   0   5   -0.20    6.50
 -13   0  -5    2.90    5.90
  13   0   5    5.10    6.60
  14   0   5   -5.10    4.80
  14   0   5    9.40    7.20
  14   0   5   -1.60    7.10
 -16  -1   5   14.60    8.20
  16  -1  -5    8.80    6.00
 -16  -1   5    9.00    6.90
 -16   1   5    4.90    6.10
  16   1  -5    6.20    5.50
 -15  -1   5    4.40    7.40
 -15  -1   5    0.60    6.10
  15  -1  -5    5.20    7.50
 -15   1   5   -4.90    7.30
  15   1  -5    5.10    5.20
 -14  -1   5    4.70    4.30
  14  -1  -5   -1.10    6.80
 -14  -1   5   -1.40    6.60
  14   1  -5   14.80    5.10
  14   1  -5    1.80    5.20
 -14   1   5    2.50    6.80
 -14   1   5    5.40    4.60
 -13  -1   5  130.19    8.80
 -13  -1   5  173.38   13.20
  13  -1  -5  158.88   10.40
 -13  -1   5  171.78   11.40
 -13   1   5  152.58    8.60
 -13   1   5  149.09   10.20
  13   1  -5  141.79    7.90
  13   1  -5  147.29    7.90
 -13   1   5  143.79    8.30
  13   1  -5  134.19    9.00
  13   1  -5  141.79   10.00
 -12  -1   5   45.20    5.00
  12  -1  -5   36.80    5.00
 -12  -1   5   48.60    6.80
  12  -1  -5   41.20    5.30
  12  -1  -5   45.90    6.80
 -12  -1   5   35.20    5.70
 -12   1   5   42.80    4.80
  12   1  -5   42.10    6.50
  12   1  -5   35.90    5.70
  12   1  -5   46.30    3.90
  12   1  -5   50.39    4.80
 -12   1   5   42.50    4.90
 -12   1   5   44.40    6.90
  11  -1  -5   56.69    5.50
 -11  -1   5   55.19    5.70
  11  -1  -5   58.09    5.60
  11  -1  -5   60.99    4.70
 -11  -1   5   61.89    5.70
 -11  -1   5   64.49    5.20
 -11   1   5   70.89    5.30
  11   1  -5   56.79    6.00
  11   1  -5   45.50    5.80
  11   1  -5   56.99    4.60
  11   1  -5   55.79    4.40
 -11   1   5   67.69    7.00
 -11   1   5   61.59    4.80
 -10  -1   5    4.20    2.70
  10  -1  -5    2.90    3.00
  10  -1  -5    3.20    1.90
 -10  -1   5    5.80    4.40
  10  -1  -5    7.90    3.60
 -10  -1   5    6.40    2.40
  10  -1  -5    4.70    2.70
 -10  -1   5    5.20    3.20
  10   1  -5    2.90    3.80
  10   1  -5    2.50    4.00
 -10   1   5   -0.10    4.30
 -10   1   5    8.10    3.30
 -10   1   5    4.90    2.70
  10   1  -5    6.60    2.60
  10   1  -5    3.20    2.90
   9  -1  -5    1.70    2.40
   9  -1  -5    1.20    1.80
  -9  -1   5    0.90    3.00
  -9  -1   5    0.40    2.60
   9  -1  -5   -4.40    3.50
  -9  -1   5   -0.40    3.80
  -9  -1   5   -1.40    2.10
   9  -1  -5   -2.90    3.00
   9   1  -5    1.70    2.00
  -9   1   5   -1.10    2.20
   9   1  -5   -2.10    2.30
  -9   1   5   -2.20    3.70
   9   1  -5    0.00    2.50
   9   1  -5    4.30    3.80
  -9   1   5    2.80    2.90
   8  -1  -5  937.21   19.40
   8  -1  -5  903.11   21.50
  -8  -1   5  921.41   21.90
  -8  -1   5  863.61   19.70
  -8  -1   5  915.21   20.90
  -8  -1   5  903.61   20.60
   8  -1  -5  918.91   20.10
   8  -1  -5  886.11   21.30
  -8   1   5  887.31   21.30
   8   1  -5  879.01   18.30
   8   1  -5  888.81   19.20
  -8   1   5  928.71   20.80
   8   1  -5  914.31   21.10
  -8   1   5  929.91   19.80
   8   1  -5  902.71   20.10
   8   1  -5  947.11   22.00
   7  -1  -5  117.99    6.10
  -7  -1   5  117.19    6.40
   7  -1  -5  125.09    4.80
  -7  -1   5  123.19    4.90
  -7  -1   5  122.99    5.40
  -7  -1   5  115.19    5.60
   7  -1  -5  123.49    6.20
   7  -1  -5  114.39    4.20
   7   1  -5  116.89    5.70
   7   1  -5  119.89    5.20
  -7   1   5  122.29    4.60
  -7   1   5  128.19    5.60
   7   1  -5  109.89    5.10
   7   1  -5  113.69    3.10
  -7   1   5  115.49    5.50
   7   1  -5  124.39    4.00
   6  -1  -5  851.71   18.60
   6  -1  -5  900.71   20.10
   6  -1  -5  870.41   19.70
  -6  -1   5  858.51   19.20
  -6  -1   5  862.21   19.90
  -6  -1   5  863.31   18.60
  -6  -1   5  886.71   19.30
   6  -1  -5  870.81   18.20
  -6   1   5  840.82   19.20
  -6   1   5  851.71   18.00
   6   1  -5  893.51   20.20
   6   1  -5  844.92   16.60
   6   1  -5  870.11   19.20
   6   1  -5  846.62   18.80
  -6   1   5  877.61   19.80
  -5  -1   5  392.06   10.20
   5  -1  -5  379.56   10.20
   5  -1  -5  388.56    9.10
   5  -1  -5  395.96   10.50
  -5  -1   5  394.96    9.90
  -5  -1   5  416.76    9.70
   5  -1  -5  387.76    9.50
  -5  -1   5  400.76   10.00
   5   1  -5  391.16    9.70
   5   1  -5  397.56   10.80
  -5   1   5  393.16   10.10
  -5   1   5  387.66    8.70
   5   1  -5  380.06    8.20
   5   1  -5  393.86    9.70
  -5   1   5  385.36    9.90
   4  -1  -5   21.70    1.90
   4  -1  -5   21.90    2.50
  -4  -1   5   18.00    2.20
  -4  -1   5   18.00    2.30
   4  -1  -5   20.40    1.30
   4  -1  -5   23.20    2.10
  -4  -1   5   25.00    2.30
   4  -1  -5   18.60    2.30
  -4  -1   5   17.80    2.20
  -4   1   5   21.70    2.50
   4   1  -5   20.80    2.20
  -4   1   5   20.90    1.30
  -4   1   5   24.80    2.60
   4   1  -5   17.50    2.50
   4   1  -5   17.50    1.90
  -3  -1   5  482.85   11.30
  -3  -1   5  488.05   11.30
   3  -1  -5  513.65   12.10
  -3  -1   5  489.85   12.00
  -3  -1   5  516.85   11.40
   3  -1  -5  490.15   10.20
   3  -1  -5  490.45   10.90
  -3  -1   5  491.75    9.70
   3   1  -5  498.55   12.00
  -3   1   5  498.15   11.60
  -3   1   5  500.35   11.40
  -3   1   5  499.35   10.10
   3   1  -5  511.55   11.30
  -3   1   5  492.85   11.60
   3   1  -5  482.65   10.70
  -2  -1   5  245.98    5.60
   2  -1  -5  254.87    7.00
   2  -1  -5  254.27    6.40
  -2  -1   5  247.18    7.00
  -2  -1   5  261.87    6.70
  -2  -1   5  257.27    6.60
   2  -1  -5  252.77    6.70
  -2  -1   5  250.47    6.60
   2  -1  -5  251.17    5.70
  -2   1   5  250.97    6.70
  -2   1   5  250.67    6.50
   2   1  -5  248.48    5.60
   2   1  -5  253.27    6.50
  -2   1   5  256.97    6.80
   2   1  -5  264.97    6.60
   2   1  -5  259.67    6.90
   1  -1  -5  883.21   17.90
   1  -1  -5  878.61   18.40
   1  -1  -5  891.91   18.60
  -1  -1   5  885.21   17.50
  -1  -1   5  879.41   18.90
  -1  -1   5  901.81   18.80
  -1  -1   5  889.41   18.70
  -1  -1   5  884.11   18.60
   1   1  -5  893.71   18.40
   1   1  -5  909.21   18.50
  -1   1   5  882.11   18.80
  -1   1   5  896.41   18.30
   1   1  -5  890.11   18.70
  -1   1   5  905.41   19.00
  -1   1   5  888.31   18.10
   1   1  -5  869.51   17.10
   0  -1  -5 1180.38   23.90
   0  -1  -5 1137.39   23.80
   0  -1   5 1160.48   23.20
   0  -1   5 1163.98   24.10
   0  -1   5 1176.78   24.10
   0  -1   5 1143.99   23.80
   0  -1  -5 1163.28   23.50
   0   1   5 1150.28   23.70
   0   1  -5 1194.78   23.60
   0   1  -5 1199.28   23.80
   0   1   5 1170.78   23.90
   0   1  -5 1153.58   23.60
   0   1   5 1188.18   24.30
  -1  -1  -5 2298.37   44.50
  -1  -1  -5 2311.77   44.70
   1  -1   5 2263.27   45.00
   1  -1   5 2253.97   43.80
  -1  -1  -5 2277.77   44.80
   1  -1   5 2248.08   44.90
   1  -1   5 2201.38   44.20
   1  -1   5 2241.88   44.40
  -1   1  -5 2229.98   44.20
  -1   1  -5 2270.47   44.00
   1   1   5 2278.97   44.00
   1   1   5 2275.67   44.70
  -1   1  -5 2278.17   44.60
   1   1   5 2264.97   44.50
   2  -1   5   18.20    2.20
  -2  -1  -5   14.20    1.70
  -2  -1  -5   16.40    1.70
  -2  -1  -5   14.40    1.80
   2  -1   5   14.80    1.10
   2  -1   5   13.30    1.10
   2  -1   5   13.30    2.00
   2  -1   5   17.50    2.40
   2   1   5   12.40    1.80
   2   1   5   15.70    1.60
  -2   1  -5   16.40    2.00
  -2   1  -5   14.20    1.50
   2   1   5   14.90    1.80
   2   1   5   17.60    1.40
  -3  -1  -5    7.20    2.10
   3  -1   5    8.20    1.40
   3  -1   5    8.40    2.20
   3  -1   5    8.40    0.80
   3  -1   5    4.90    1.90
   3  -1   5    7.50    2.20
  -3  -1  -5    6.10    1.70
  -3  -1  -5    6.40    1.10
  -3  -1  -5    7.20    2.00
   3   1   5    8.60    2.30
   3   1   5    6.90    1.00
  -3   1  -5   10.90    1.40
   3   1   5    5.60    1.90
  -3   1  -5    6.80    2.00
  -3   1  -5    8.00    1.50
   3   1   5    9.60    1.40
   4  -1   5  208.18    4.60
   4  -1   5  226.48    6.70
   4  -1   5  217.78    6.90
   4  -1   5  223.98    6.30
   4  -1   5  215.58    6.80
  -4  -1  -5  202.18    5.50
  -4  -1  -5  214.88    6.60
  -4   1  -5  217.18    6.50
   4   1   5  216.88    6.70
  -4   1  -5  212.88    5.60
   4   1   5  215.48    5.20
   4   1   5  230.08    6.70
  -4   1  -5  213.98    6.90
   5  -1   5  171.48    3.90
  -5  -1  -5  168.68    5.10
   5  -1   5  171.48    7.00
   5  -1   5  164.38    6.20
  -5  -1  -5  168.08    6.10
   5  -1   5  185.88    7.20
  -5  -1  -5  179.78    6.30
   5  -1   5  166.18    6.10
   5  -1   5  169.78    5.80
   5   1   5  174.48    6.40
  -5   1  -5  177.08    5.70
   5   1   5  167.98    5.30
   5   1   5  173.68    6.80
  -5   1  -5  170.98    6.50
  -5   1  -5  168.88    5.10
   6  -1   5 1080.69   24.30
  -6  -1  -5 1067.09   22.70
   6  -1   5 1006.70   21.10
   6  -1   5 1108.09   23.90
  -6  -1  -5 1081.29   24.10
  -6  -1  -5 1096.49   24.20
   6  -1   5 1095.99   24.50
   6  -1   5 1115.59   23.70
   6  -1   5 1112.89   24.30
   6  -1   5 1055.19   21.20
   6   1   5 1070.89   22.90
   6   1   5 1087.09   24.00
  -6   1  -5 1067.39   23.30
   6   1   5 1084.59   24.00
   6   1   5 1072.49   23.60
  -6   1  -5 1101.59   24.20
   7  -1   5  148.59    6.80
   7  -1   5  138.69    6.90
  -7  -1  -5  140.09    5.50
   7  -1   5  140.29    7.10
  -7  -1  -5  137.29    6.40
  -7  -1  -5  143.59    6.50
   7  -1   5  130.09    7.60
  -7   1  -5  153.88    6.80
   7   1   5  151.88    7.30
   7   1   5  149.19    6.50
  -7   1  -5  148.09    7.30
   7   1   5  146.09    6.10
   7   1   5  143.79    6.20
  -8  -1  -5   25.00    3.20
   8  -1   5   31.70    4.50
   8  -1   5   26.90    4.00
  -8  -1  -5   26.80    4.60
   8  -1   5   33.00    4.30
   8  -1   5   24.40    4.90
  -8  -1  -5   30.00    4.50
   8   1   5   29.80    4.70
  -8   1  -5   24.60    4.50
   8   1   5   37.00    4.80
  -8   1  -5   31.60    3.50
   8   1   5   26.70    3.00
   8   1   5   28.60    3.40
  -8   1  -5   28.10    3.90
   9  -1   5   15.90    4.10
  -9  -1  -5   13.10    4.20
   9  -1   5    6.90    4.70
  -9  -1  -5   14.20    3.70
   9  -1   5   19.70    4.00
  -9  -1  -5   14.70    3.60
   9  -1   5   11.30    4.40
  -9   1  -5    6.70    3.90
  -9   1  -5   12.90    3.20
   9   1   5   17.70    4.60
   9   1   5   11.90    3.20
   9   1   5    3.90    4.40
  -9   1  -5   15.00    4.40
 -10  -1  -5   56.39    6.50
  10  -1   5   48.00    5.90
  10  -1   5   66.29    7.00
  10  -1   5   65.09    5.80
  10  -1   5   72.49    6.10
 -10  -1  -5   73.39    6.60
  10   1   5   57.89    6.50
  10   1   5   57.69    5.40
 -10   1  -5   56.19    5.90
 -10   1  -5   51.89    6.20
 -10   1  -5   56.09    4.80
  11  -1   5   62.79    6.80
  11  -1   5   56.89    6.10
  11  -1   5   64.69    7.10
 -11  -1  -5   62.79    7.30
  11  -1   5   72.19    7.70
 -11  -1  -5   54.69    6.50
  11   1   5   53.69    7.10
  11   1   5   55.59    6.80
 -11   1  -5   60.89    6.40
 -11   1  -5   64.69    7.10
  12  -1   5   43.80    7.80
  12  -1   5   48.40    6.30
  12  -1   5   48.60    7.40
 -12  -1  -5   49.70    7.40
 -12  -1  -5   53.19    6.80
  12   1   5   41.50    5.60
 -12   1  -5   53.49    7.30
  12   1   5   47.50    7.10
 -12   1  -5   49.80    6.60
  12   1   5   51.09    6.20
  13  -1   5   52.69    8.30
  13  -1   5   50.19    6.80
  13  -1   5   61.49    8.30
  13   1   5   56.89    8.00
 -13   1  -5   41.80    7.00
  13   1   5   57.89    8.40
  13   1   5   50.69    7.50
 -13   1  -5   55.69    7.90
  14  -1   5    5.70    5.40
  14  -1   5    0.40    7.80
  14  -1   5    1.10    7.00
 -14  -1  -5   -1.20    7.50
  14   1   5  -11.70    6.30
  14   1   5    1.90    5.00
  14   1   5    5.60    7.10
  15  -2  -5    1.20    8.40
 -15  -2   5   22.60    7.80
 -15  -2   5   28.00    7.80
 -15   2   5   24.60    8.60
  15   2  -5   18.50    6.00
 -14  -2   5    7.60    6.70
 -14  -2   5    1.00    5.20
  14  -2  -5    1.80    5.40
 -14  -2   5    6.60    6.50
 -14   2   5    2.80    7.30
  14   2  -5    6.90    4.80
 -14   2   5    6.10    5.10
  14   2  -5    5.60    6.80
  13  -2  -5    1.30    4.70
 -13  -2   5    3.50    4.20
 -13  -2   5   -0.80    4.90
  13  -2  -5    3.30    4.90
 -13  -2   5   -2.10    5.90
  13   2  -5    6.60    4.60
  13   2  -5    1.50    6.00
  13   2  -5   -7.70    5.20
 -13   2   5    5.90    6.70
 -13   2   5   11.90    5.20
 -12  -2   5   85.09    6.90
  12  -2  -5   69.49    7.00
  12  -2  -5   77.59    6.40
 -12  -2   5   91.69    7.00
 -12  -2   5   78.39    7.70
  12   2  -5   81.29    7.80
 -12   2   5   88.89    7.30
  12   2  -5   95.89    8.10
  12   2  -5   87.59    6.40
 -12   2   5   88.09    7.00
 -11  -2   5   38.60    6.20
  11  -2  -5   48.30    5.40
 -11  -2   5   48.00    6.10
  11  -2  -5   55.99    5.60
  11  -2  -5   51.29    6.90
 -11  -2   5   71.79    6.10
  11   2  -5   55.99    6.70
 -11   2   5   58.29    5.90
 -11   2   5   47.90    6.70
  11   2  -5   64.29    5.60
  11   2  -5   51.09    6.40
 -10  -2   5  127.49    7.70
  10  -2  -5  121.19    7.70
  10  -2  -5  131.49    9.10
 -10  -2   5  117.09    8.40
  10  -2  -5  118.59    7.40
 -10  -2   5  123.29    8.10
  10   2  -5  135.69    9.00
  10   2  -5  134.79    7.40
  10   2  -5  120.09    6.90
 -10   2   5  122.79    8.90
  10   2  -5  124.39    5.50
 -10   2   5  129.29    5.60
 -10   2   5  124.69    6.60
   9  -2  -5   19.90    3.90
  -9  -2   5   31.30    4.80
  -9  -2   5   21.50    3.70
   9  -2  -5   24.90    4.00
   9  -2  -5    9.50    4.40
  -9  -2   5   28.10    4.20
  -9   2   5   16.30    4.10
  -9   2   5   27.80    5.00
   9   2  -5   21.30    4.80
  -9   2   5   28.10    3.10
   9   2  -5   26.70    3.90
   9   2  -5   19.70    2.50
   9   2  -5   24.70    4.50
   8  -2  -5   25.50    2.10
  -8  -2   5   33.00    3.70
   8  -2  -5   31.90    4.10
  -8  -2   5   27.20    3.40
  -8  -2   5   30.00    4.30
  -8  -2   5   26.00    3.30
  -8  -2   5   23.30    2.60
   8  -2  -5   35.40    3.80
   8  -2  -5   19.50    4.30
   8   2  -5   32.90    4.30
   8   2  -5   29.60    2.40
   8   2  -5   28.20    3.70
  -8   2   5   25.80    2.30
  -8   2   5   31.20    3.50
  -8   2   5   19.10    4.30
   8   2  -5   33.00    4.70
  -7  -2   5    0.10    2.30
   7  -2  -5   -1.50    1.10
  -7  -2   5   -0.80    1.50
  -7  -2   5   -1.30    3.00
   7  -2  -5    3.20    2.70
   7  -2  -5   -0.80    3.10
  -7  -2   5   -2.60    2.80
  -7  -2   5   -0.30    2.80
   7  -2  -5    1.10    2.60
   7   2  -5   -0.30    1.20
  -7   2   5   -2.70    3.10
   7   2  -5    6.90    3.10
   7   2  -5    1.10    2.20
  -7   2   5    0.50    2.00
  -7   2   5    0.00    1.30
   7   2  -5   -4.40    2.40
   6  -2  -5   31.90    3.40
  -6  -2   5   27.10    1.70
  -6  -2   5   31.10    3.70
  -6  -2   5   29.00    3.60
  -6  -2   5   31.70    3.10
   6  -2  -5   33.90    3.20
  -6  -2   5   24.60    2.30
   6  -2  -5   26.30    3.60
  -6  -2   5   31.50    3.60
   6  -2  -5   29.70    2.10
  -6   2   5   30.90    3.80
  -6   2   5   27.60    1.70
   6   2  -5   30.60    2.80
   6   2  -5   29.30    3.80
   6   2  -5   32.10    3.40
   6   2  -5   29.10    2.00
  -6   2   5   26.80    3.00
   5  -2  -5  144.99    6.20
  -5  -2   5  142.39    5.50
  -5  -2   5  139.09    5.40
   5  -2  -5  140.19    6.00
  -5  -2   5  143.19    5.50
   5  -2  -5  140.79    5.30
  -5  -2   5  134.29    4.10
   5  -2  -5  144.09    4.40
  -5   2   5  151.58    6.10
   5   2  -5  142.79    5.90
  -5   2   5  141.99    5.90
   5   2  -5  142.49    5.20
   5   2  -5  138.59    3.70
  -5   2   5  138.99    3.30
   5   2  -5  136.39    5.10
  -4  -2   5  535.25   11.90
   4  -2  -5  540.65   13.00
  -4  -2   5  551.34   13.20
  -4  -2   5  528.75   12.90
   4  -2  -5  543.45   13.50
   4  -2  -5  535.35   11.90
  -4  -2   5  548.15   12.70
   4  -2  -5  539.45   12.80
  -4   2   5  516.85   12.60
   4   2  -5  529.75   12.50
  -4   2   5  538.45   13.10
   4   2  -5  522.85   12.10
   4   2  -5  543.75   13.50
   4   2  -5  515.35   10.90
   3  -2  -5  479.25   10.80
  -3  -2   5  468.85   11.60
   3  -2  -5  482.75   11.70
  -3  -2   5  471.55   11.40
   3  -2  -5  459.45    9.40
  -3  -2   5  458.95    9.80
   3  -2  -5  470.75   11.70
  -3  -2   5  466.35   11.50
  -3  -2   5  461.55   10.80
   3   2  -5  461.25   11.60
  -3   2   5  470.35   11.10
   3   2  -5  457.85   10.50
   3   2  -5  480.35   11.20
   3   2  -5  466.45    9.60
  -3   2   5  468.85   11.60
   2  -2  -5  508.85   11.60
   2  -2  -5  496.65   10.60
  -2  -2   5  497.05   12.20
  -2  -2   5  504.95   12.00
  -2  -2   5  524.85   11.90
   2  -2  -5  515.05   12.30
  -2  -2   5  508.35   12.00
  -2  -2   5  509.45   11.00
   2   2  -5  499.05   10.90
  -2   2   5  491.55   11.30
   2   2  -5  518.85   11.80
  -2   2   5  514.85   12.10
   2   2  -5  517.65   12.20
   1  -2  -5    1.00    0.60
  -1  -2   5    2.70    1.40
  -1  -2   5    1.10    1.20
   1  -2  -5    1.50    1.60
   1  -2  -5    0.30    1.00
  -1  -2   5    0.00    1.80
  -1  -2   5   -0.60    1.80
   1  -2  -5    0.30    1.90
  -1  -2   5    1.20    1.50
  -1   2   5    3.00    1.10
   1   2  -5    1.60    1.10
   1   2  -5    1.70    1.10
  -1   2   5    1.70    1.70
  -1   2   5    0.60    1.70
   1   2  -5    0.00    1.40
   1   2  -5    1.00    0.70
   0  -2   5    8.60    1.40
   0  -2   5   10.10    2.20
   0  -2   5    8.40    1.60
   0  -2  -5    6.50    2.10
   0  -2  -5    8.00    2.00
   0  -2  -5   11.40    1.60
   0  -2   5   11.70    1.90
   0   2   5    9.20    1.00
   0   2   5    9.80    1.70
   0   2  -5    8.10    1.50
   0   2  -5   14.40    1.80
   0   2  -5   12.40    1.90
   0   2   5    9.10    1.90
   1  -2   5  314.77    8.70
   1  -2   5  306.87    8.50
   1  -2   5  308.37    8.60
  -1  -2  -5  308.67    8.30
  -1  -2  -5  316.77    8.10
  -1  -2  -5  313.07    8.60
   1  -2   5  310.67    7.40
  -1  -2  -5  322.37    8.60
   1   2   5  308.07    7.80
  -1   2  -5  312.07    8.10
  -1   2  -5  313.47    7.40
  -1   2  -5  313.67    7.50
   1   2   5  313.67    8.40
   2  -2   5  223.98    7.20
  -2  -2  -5  217.38    6.70
   2  -2   5  209.38    7.00
   2  -2   5  224.18    7.40
   2  -2   5  207.98    4.60
  -2  -2  -5  224.18    7.00
  -2  -2  -5  212.68    6.90
   2   2   5  214.18    6.60
  -2   2  -5  213.08    5.50
   2   2   5  217.78    6.50
  -2   2  -5  212.28    5.00
   2   2   5  215.08    4.90
   2   2   5  222.48    5.80
  -2   2  -5  212.78    6.00
  -3  -2  -5  213.28    7.00
   3  -2   5  198.28    4.70
   3  -2   5  214.58    7.60
  -3  -2  -5  219.18    7.30
  -3  -2  -5  229.38    6.90
   3  -2   5  203.08    6.60
   3  -2   5  214.68    7.60
   3  -2   5  225.78    7.40
  -3   2  -5  210.28    7.30
  -3   2  -5  213.48    5.40
   3   2   5  203.78    4.40
   3   2   5  216.68    5.50
   3   2   5  216.28    7.10
   3   2   5  214.88    7.20
  -3   2  -5  225.38    6.50
   4  -2   5  190.18    5.70
   4  -2   5  177.58    4.40
   4  -2   5  181.48    7.30
   4  -2   5  171.88    7.00
   4  -2   5  189.08    7.10
  -4  -2  -5  177.78    6.60
  -4  -2  -5  191.48    7.00
   4  -2   5  173.88    7.50
  -4  -2  -5  184.88    7.20
  -4   2  -5  170.68    4.60
   4   2   5  191.68    7.10
  -4   2  -5  167.28    5.90
   4   2   5  174.08    4.80
  -4   2  -5  181.08    6.60
   4   2   5  189.08    6.40
   5  -2   5   41.90    4.40
   5  -2   5   43.20    2.30
  -5  -2  -5   51.49    4.40
  -5  -2  -5   41.00    2.10
   5  -2   5   49.30    3.40
   5  -2   5   55.59    5.00
  -5  -2  -5   50.29    4.60
   5  -2   5   46.50    4.20
   5  -2   5   49.99    4.60
  -5   2  -5   45.30    4.40
   5   2   5   43.30    3.70
  -5   2  -5   51.99    3.60
   5   2   5   48.40    3.80
  -5   2  -5   40.30    2.20
   6  -2   5   11.00    3.30
   6  -2   5   11.40    3.00
   6  -2   5    9.30    1.60
   6  -2   5    9.50    4.00
  -6  -2  -5   14.90    3.70
  -6  -2  -5   14.50    3.00
   6  -2   5   11.80    2.80
   6  -2   5    8.30    3.60
   6   2   5    7.90    2.60
  -6   2  -5    8.80    2.70
   6   2   5    9.00    2.10
  -6   2  -5   12.40    2.90
   6   2   5   15.30    3.70
   7  -2   5    5.30    3.80
   7  -2   5    1.20    4.10
  -7  -2  -5    8.40    3.90
   7  -2   5    1.60    3.10
  -7  -2  -5   -4.90    3.60
   7  -2   5   -3.50    3.60
   7   2   5    3.70    2.70
  -7   2  -5    1.00    2.80
   7   2   5    2.00    1.90
   7   2   5   -0.60    3.10
  -7   2  -5   -0.10    3.60
   7   2   5    4.20    3.90
   8  -2   5   37.70    5.40
  -8  -2  -5   36.20    5.40
   8  -2   5   39.90    4.70
   8  -2   5   29.00    5.60
   8  -2   5   28.30    5.50
  -8  -2  -5   32.60    5.30
   8   2   5   29.60    4.90
   8   2   5   35.10    5.30
  -8   2  -5   38.60    4.20
   8   2   5   30.90    3.80
  -8   2  -5   33.50    4.50
   9  -2   5  117.19    8.10
   9  -2   5  113.69    7.70
   9  -2   5  128.49    8.20
  -9  -2  -5  129.89    8.50
  -9  -2  -5  136.59    8.90
   9  -2   5  111.09    8.40
   9   2   5  114.29    7.60
   9   2   5  113.09    7.50
  -9   2  -5  130.59    7.20
   9   2   5  131.49    8.90
  -9   2  -5  149.09    9.60
 -10  -2  -5   30.00    6.10
  10  -2   5   27.50    6.80
  10  -2   5   25.90    4.50
  10  -2   5   21.00    5.50
 -10  -2  -5   25.40    6.10
  10  -2   5   28.10    5.20
 -10   2  -5   28.00    4.70
  10   2   5   37.90    6.50
  10   2   5   31.50    5.90
 -10   2  -5   36.00    6.50
 -10   2  -5   30.90    4.90
 -11  -2  -5   17.40    6.10
  11  -2   5   15.40    5.60
 -11  -2  -5   21.30    6.50
  11  -2   5   23.40    7.00
  11  -2   5   24.20    7.20
  11  -2   5    9.90    5.70
 -11   2  -5   15.40    4.90
 -11   2  -5   16.80    6.50
  11   2   5   15.40    6.40
  11   2   5   15.90    5.70
 -11   2  -5   12.70    4.60
 -12  -2  -5   -3.70    6.60
  12  -2   5    2.30    5.10
  12  -2   5   -9.10    6.90
  12  -2   5   -0.80    6.50
 -12  -2  -5    7.20    6.20
  12  -2   5    3.90    5.90
  12   2   5    5.60    4.50
 -12   2  -5    7.50    7.00
  12   2   5   -0.20    6.60
 -13  -2  -5    5.60    6.60
 -13  -2  -5    4.20    7.30
  13  -2   5    8.10    7.70
 -13   2  -5    3.80    7.40
  13   2   5   15.70    6.90
  13   2   5    5.00    5.20
  15  -3  -5   15.00    9.10
 -15  -3   5   13.50    8.00
  15  -3  -5   -0.80    7.40
 -15   3   5    6.20    6.10
  15   3  -5   21.70    8.20
 -15   3   5    9.20    6.70
  15   3  -5   12.50    6.10
 -14  -3   5  124.29    8.90
  14  -3  -5  119.69    9.30
 -14  -3   5  126.29   10.80
  14  -3  -5  125.69    9.40
  14  -3  -5  115.09   11.70
  14   3  -5  118.69   10.40
 -14   3   5  106.49    9.20
  14   3  -5  105.99    8.50
 -14   3   5  117.49    9.40
  13  -3  -5   12.00    5.10
  13  -3  -5    3.10    7.60
 -13  -3   5   21.10    6.30
 -13  -3   5    8.30    5.80
 -13  -3   5   29.10    7.30
  13  -3  -5   24.70    6.20
 -13   3   5   25.80    6.00
 -13   3   5   10.90    6.00
  13   3  -5   13.30    5.60
  13   3  -5   11.40    6.80
  12  -3  -5  126.39   10.60
  12  -3  -5  127.79    8.80
 -12  -3   5  119.39    8.20
 -12  -3   5  133.39    9.70
  12  -3  -5  114.19    9.50
  12   3  -5  142.59    9.40
  12   3  -5  131.29    9.40
 -12   3   5  152.88   10.20
 -12   3   5  130.19    9.40
  11  -3  -5   66.09    6.90
 -11  -3   5   80.39    6.70
  11  -3  -5   78.59    8.00
 -11  -3   5   74.59    7.30
  11  -3  -5   66.09    8.10
 -11   3   5   61.59    6.80
  11   3  -5   79.19    7.50
 -11   3   5   66.39    7.80
  11   3  -5   64.99    7.40
  11   3  -5   77.39    6.70
  10  -3  -5    6.20    3.50
  10  -3  -5    5.40    3.80
  10  -3  -5    1.70    3.20
 -10  -3   5    8.10    5.00
 -10  -3   5    7.90    4.80
  10   3  -5    2.50    4.20
  10   3  -5   12.10    5.10
 -10   3   5    8.70    5.40
  10   3  -5   -2.00    4.70
 -10   3   5    0.70    4.50
  -9  -3   5  385.56   13.10
   9  -3  -5  359.46   12.60
   9  -3  -5  396.46   13.50
  -9  -3   5  354.16   10.80
  -9  -3   5  366.36   12.70
  -9   3   5  398.86   13.40
  -9   3   5  368.36   12.70
   9   3  -5  360.86   13.40
   9   3  -5  381.46   11.50
   9   3  -5  373.06   12.60
  -8  -3   5   88.09    5.40
   8  -3  -5   86.19    6.50
  -8  -3   5  101.99    6.70
   8  -3  -5   99.39    6.60
  -8  -3   5   87.69    6.50
  -8   3   5  104.19    6.70
   8   3  -5   82.79    5.90
   8   3  -5   88.49    4.20
   8   3  -5   88.39    5.60
   8   3  -5   97.49    7.80
  -8   3   5  109.69    7.20
   7  -3  -5  705.83   18.00
   7  -3  -5  735.93   18.80
  -7  -3   5  695.13   17.00
  -7  -3   5  744.93   18.60
  -7  -3   5  722.13   18.50
  -7   3   5  719.93   18.00
   7   3  -5  701.73   17.30
  -7   3   5  712.33   18.30
   7   3  -5  727.03   18.70
   7   3  -5  731.33   17.80
  -6  -3   5    9.00    2.60
  -6  -3   5    7.50    1.30
   6  -3  -5    5.60    3.60
  -6  -3   5    3.40    3.40
  -6  -3   5    9.70    2.70
   6  -3  -5    5.60    1.80
   6  -3  -5    8.30    2.60
   6   3  -5    3.80    3.40
  -6   3   5    5.50    3.40
   6   3  -5   11.40    3.20
  -6   3   5    6.70    2.60
   6   3  -5    8.20    2.00
   6   3  -5    7.60    2.30
  -5  -3   5  473.25   11.00
   5  -3  -5  503.55   13.40
   5  -3  -5  463.95   10.10
   5  -3  -5  464.65   11.20
  -5  -3   5  489.55   13.30
  -5  -3   5  509.65   13.40
  -5  -3   5  475.95   12.30
   5  -3  -5  463.85   12.90
  -5   3   5  501.15   12.90
   5   3  -5  502.55   13.70
  -5   3   5  472.65   13.10
   5   3  -5  483.25   12.40
   5   3  -5  470.55   10.80
   5   3  -5  499.25   12.30
   4  -3  -5  209.18    5.70
  -4  -3   5  217.18    7.30
  -4  -3   5  216.38    8.00
   4  -3  -5  221.18    6.50
  -4  -3   5  231.38    8.10
   4  -3  -5  229.28    8.20
  -4  -3   5  215.28    6.60
   4  -3  -5  229.88    8.30
   4   3  -5  229.18    7.80
   4   3  -5  227.78    5.90
  -4   3   5  212.28    7.90
   4   3  -5  213.58    6.80
  -4   3   5  224.88    7.50
   4   3  -5  229.88    7.60
   3  -3  -5    2.80    1.40
  -3  -3   5    4.30    1.40
  -3  -3   5    4.20    2.30
   3  -3  -5    3.70    2.80
   3  -3  -5    4.10    2.70
  -3  -3   5    4.60    2.70
  -3  -3   5    4.80    2.70
  -3  -3   5    4.20    1.80
   3  -3  -5    1.60    1.90
   3   3  -5    1.90    1.20
   3   3  -5   -1.20    2.30
   3   3  -5    1.40    1.70
  -3   3   5    0.60    2.10
  -3   3   5    5.90    2.60
   3   3  -5    4.80    2.50
  -2  -3   5  971.00   21.00
   2  -3  -5  923.01   21.20
  -2  -3   5  895.21   20.50
  -2  -3   5  938.41   20.80
  -2  -3   5  916.01   20.40
  -2  -3   5  937.61   19.80
   2  -3  -5  901.41   19.70
   2   3  -5  916.81   19.50
   2   3  -5  925.11   20.80
  -2   3   5  921.81   20.50
  -2   3   5  921.21   19.70
   2   3  -5  926.91   20.20
  -1  -3   5   58.19    4.10
  -1  -3   5   59.89    4.00
   1  -3  -5   55.89    2.10
  -1  -3   5   52.49    3.70
  -1  -3   5   60.39    4.20
   1  -3  -5   55.29    4.20
   1  -3  -5   60.49    3.80
  -1   3   5   54.99    2.70
  -1   3   5   54.29    3.90
  -1   3   5   60.09    3.90
   1   3  -5   53.79    2.90
   1   3  -5   59.29    3.60
   1   3  -5   55.59    3.70
   1   3  -5   56.49    3.90
   0  -3  -5 1138.09   24.10
   0  -3   5 1096.89   22.80
   0  -3   5 1111.89   24.10
   0  -3   5 1089.39   24.50
   0  -3  -5 1123.29   24.80
   0  -3  -5 1104.79   22.60
   0  -3   5 1124.19   24.40
   0  -3   5 1105.49   24.10
   0   3  -5 1127.09   23.60
   0   3   5 1077.19   22.20
   0   3  -5 1119.99   23.30
   0   3  -5 1127.39   23.80
   0   3   5 1115.59   24.30
   0   3   5 1131.09   23.80
   1  -3   5    0.10    2.40
  -1  -3  -5   -0.20    1.40
   1  -3   5    2.40    1.20
  -1  -3  -5   -0.40    1.70
   1  -3   5    0.90    2.60
  -1  -3  -5    0.60    1.80
   1  -3   5    2.30    2.70
  -1   3  -5    2.70    1.70
   1   3   5    2.40    0.50
  -1   3  -5    1.60    1.40
   1   3   5   -0.90    1.70
   1   3   5    2.20    1.90
  -1   3  -5    2.20    2.10
   2  -3   5  382.76    9.10
  -2  -3  -5  402.76   10.20
  -2  -3  -5  412.96   11.60
   2  -3   5  399.96   11.20
   2  -3   5  414.76   11.20
   2  -3   5  409.76   11.80
  -2  -3  -5  408.86   10.80
  -2  -3  -5  414.46   11.50
  -2   3  -5  399.06   10.30
   2   3   5  415.66   10.00
  -2   3  -5  401.76    9.30
  -2   3  -5  400.66    9.50
   2   3   5  393.46   11.00
   3  -3   5  246.18    9.00
  -3  -3  -5  240.98    8.60
   3  -3   5  222.78    8.10
  -3  -3  -5  237.68    8.60
  -3  -3  -5  239.88    8.20
   3  -3   5  216.78    5.80
  -3  -3  -5  226.48    7.50
   3  -3   5  240.88    8.70
  -3   3  -5  237.58    8.80
   3   3   5  243.08    7.70
  -3   3  -5  236.68    6.90
   3   3   5  229.28    6.40
  -3   3  -5  238.78    6.10
   3   3   5  238.58    8.60
  -3   3  -5  220.78    5.30
  -4  -3  -5   34.60    4.10
  -4  -3  -5   42.30    4.00
  -4  -3  -5   43.10    4.50
   4  -3   5   33.50    4.50
  -4  -3  -5   33.40    3.80
   4  -3   5   41.20    4.10
   4  -3   5   41.40    4.40
   4  -3   5   34.30    2.30
  -4   3  -5   44.70    3.50
   4   3   5   49.20    4.80
   4   3   5   38.30    2.60
   4   3   5   38.90    4.30
  -4   3  -5   44.40    4.70
  -4   3  -5   38.00    2.30
  -5  -3  -5  491.55   13.80
   5  -3   5  454.75   14.40
   5  -3   5  455.35   13.20
  -5  -3  -5  501.05   14.50
  -5  -3  -5  498.35   13.60
   5  -3   5  490.35   14.80
   5   3   5  508.45   13.60
  -5   3  -5  496.65   12.20
   5   3   5  464.55   13.40
  -5   3  -5  480.15   13.80
  -6  -3  -5    3.00    3.70
   6  -3   5    4.90    3.40
   6  -3   5    0.60    4.20
   6  -3   5    5.30    2.80
  -6  -3  -5   -0.90    3.90
   6   3   5    2.40    4.00
   6   3   5    0.20    2.70
  -6   3  -5    6.10    2.00
  -6   3  -5    2.00    4.10
  -7  -3  -5  318.27   12.30
  -7  -3  -5  328.07   12.00
   7  -3   5  339.87   12.20
   7  -3   5  334.17   12.70
  -7   3  -5  343.17    9.90
   7   3   5  328.07   12.10
   7   3   5  334.87   11.60
   7   3   5  335.17   12.20
  -7   3  -5  312.47   12.30
  -8  -3  -5    1.10    4.70
   8  -3   5    4.00    3.70
   8  -3   5   -3.20    5.00
   8  -3   5   -1.00    5.40
  -8  -3  -5    4.20    3.70
   8   3   5   -4.00    3.00
  -8   3  -5    5.30    3.20
  -8   3  -5   -2.70    3.60
   8   3   5    2.00    3.40
   8   3   5    2.80    3.10
   9  -3   5  133.99    8.40
  -9  -3  -5  111.39    8.20
  -9  -3  -5  140.79    9.80
   9  -3   5  136.89   10.00
   9  -3   5  114.99    8.10
  -9   3  -5  117.79    7.00
   9   3   5  133.19    9.00
   9   3   5  129.09    9.20
  -9   3  -5  138.89    9.50
   9   3   5  121.39    8.10
  10  -3   5   53.89    7.30
 -10  -3  -5   36.60    7.00
  10  -3   5   48.90    6.30
 -10  -3  -5   48.30    7.50
  10  -3   5   36.00    6.10
  10   3   5   31.40    5.80
  10   3   5   35.00    7.20
 -10   3  -5   47.20    6.50
 -10   3  -5   42.10    7.50
  10   3   5   43.90    6.60
 -11  -3  -5    5.20    6.50
  11  -3   5   23.20    6.50
 -11  -3  -5    6.80    6.70
  11  -3   5   17.80    7.70
 -11   3  -5    8.80    5.70
 -11   3  -5    3.90    7.00
  11   3   5    8.20    6.90
  11   3   5    8.60    6.10
  12  -3   5   45.40    7.80
 -12  -3  -5   60.59    7.30
  12  -3   5   56.19    7.70
 -12  -3  -5   59.49    8.70
  12   3   5   55.69    7.70
 -12   3  -5   50.39    6.90
 -12   3  -5   53.09    7.30
  12   3   5   61.49    9.00
 -13  -3  -5   -5.50    7.50
 -13  -3  -5    0.40    5.10
  13  -3   5   -8.20    8.30
  13   3   5    7.50    8.00
 -13   3  -5    5.10    8.50
  13   3   5    1.70    6.60
 -14  -4   5    2.00    7.80
  14  -4  -5   -0.80    5.10
  14  -4  -5   15.60    7.60
  14   4  -5    5.30    5.60
  14   4  -5    7.10    6.70
 -14   4   5    7.80    8.60
 -14   4   5    4.30    7.20
  13  -4  -5   19.50    7.50
 -13  -4   5   17.60    7.30
 -13  -4   5    8.20    7.20
  13  -4  -5    9.90    7.00
  13   4  -5    5.50    7.20
  13   4  -5   13.00    6.40
 -13   4   5    9.10    8.20
 -13   4   5    4.50    7.00
 -12  -4   5   44.50    8.00
  12  -4  -5   34.60    7.40
 -12  -4   5   54.69    8.00
  12  -4  -5   28.20    7.50
 -12   4   5   24.00    7.20
 -12   4   5   40.60    8.40
  12   4  -5   48.10    6.40
  12   4  -5   42.50    5.60
 -11  -4   5  173.78   11.50
 -11  -4   5  151.98   10.30
  11  -4  -5  156.78    9.60
  11  -4  -5  155.18   10.60
 -11   4   5  162.48   11.00
 -11   4   5  163.38    9.60
  11   4  -5  154.98   10.40
  11   4  -5  163.28   11.00
  10  -4  -5  139.49    9.60
 -10  -4   5  116.89    8.10
  10  -4  -5  113.49    9.10
 -10  -4   5  124.49    9.20
 -10   4   5  105.69    8.50
  10   4  -5  109.59    8.20
 -10   4   5  118.09    8.40
  10   4  -5  106.69    8.00
  -9  -4   5   98.59    8.00
  -9  -4   5   91.69    7.80
   9  -4  -5   93.69    8.20
   9  -4  -5  102.19    8.10
   9   4  -5   85.69    7.00
   9   4  -5   90.59    7.10
  -9   4   5   94.59    8.10
  -9   4   5   93.69    6.90
   9   4  -5   98.89    6.80
   8  -4  -5    4.50    3.70
  -8  -4   5    3.60    4.60
   8  -4  -5   -4.60    4.60
  -8  -4   5    0.30    4.60
  -8   4   5   -3.20    4.50
  -8   4   5    0.20    4.70
   8   4  -5    3.60    4.30
   8   4  -5    8.40    4.80
   8   4  -5    5.30    3.10
  -7  -4   5   49.10    5.70
  -7  -4   5   36.20    5.50
   7  -4  -5   47.00    6.10
  -7  -4   5   33.70    3.90
   7  -4  -5   36.20    5.60
   7   4  -5   42.80    4.30
   7   4  -5   43.50    5.80
  -7   4   5   43.70    5.60
  -7   4   5   43.30    5.70
   7   4  -5   38.60    5.00
  -6  -4   5  141.99    6.80
   6  -4  -5  150.08    8.80
   6  -4  -5  153.28    8.50
  -6  -4   5  147.99    8.40
  -6  -4   5  148.29    8.40
   6   4  -5  156.08    8.70
  -6   4   5  152.88    8.40
  -6   4   5  149.69    7.00
   6   4  -5  145.79    6.00
   6   4  -5  149.79    7.40
   6   4  -5  148.29    6.80
  -5  -4   5  273.07    9.20
  -5  -4   5  281.37    8.10
   5  -4  -5  282.27   10.10
   5  -4  -5  288.37   10.60
  -5  -4   5  273.27   10.40
  -5  -4   5  285.87   10.60
   5   4  -5  271.77   10.70
  -5   4   5  259.37    9.60
   5   4  -5  262.47    9.70
  -5   4   5  271.47   10.40
   5   4  -5  284.97    7.70
   5   4  -5  294.97    9.50
   4  -4  -5  488.75   14.60
  -4  -4   5  495.85   12.50
  -4  -4   5  508.55   13.30
  -4  -4   5  509.95   14.30
  -4  -4   5  511.25   14.20
   4  -4  -5  490.15   14.10
   4   4  -5  508.25   13.20
   4   4  -5  482.95   14.30
  -4   4   5  496.25   13.30
   4   4  -5  490.15   11.80
  -4   4   5  491.55   13.60
   4   4  -5  492.05   13.00
  -3  -4   5  197.48    8.20
  -3  -4   5  180.68    6.50
  -3  -4   5  194.48    7.70
  -3  -4   5  197.18    8.20
   3  -4  -5  189.38    8.00
   3  -4  -5  194.28    6.40
   3  -4  -5  185.68    8.70
  -3  -4   5  183.88    7.20
   3   4  -5  196.08    7.70
   3   4  -5  191.18    6.10
  -3   4   5  174.88    8.00
   3   4  -5  190.58    7.00
   3   4  -5  201.58    8.30
  -3   4   5  195.98    7.50
   2  -4  -5  731.83   18.70
   2  -4  -5  707.33   16.70
  -2  -4   5  722.53   17.90
  -2  -4   5  739.73   17.70
  -2  -4   5  726.43   18.00
  -2  -4   5  720.03   17.80
  -2  -4   5  723.23   17.00
   2   4  -5  718.63   16.70
   2   4  -5  734.13   17.00
   2   4  -5  728.33   17.90
  -2   4   5  735.43   16.70
  -2   4   5  749.53   17.90
  -1  -4   5   12.70    3.10
  -1  -4   5   11.80    2.50
  -1  -4   5   14.60    3.40
  -1  -4   5   20.00    3.70
  -1  -4   5   11.30    3.50
   1  -4  -5   14.70    3.10
  -1  -4   5   14.80    3.50
   1  -4  -5   13.10    3.90
   1   4  -5   16.60    3.10
   1   4  -5   15.80    3.30
   1   4  -5   14.60    2.60
   1   4  -5   15.50    3.10
  -1   4   5   13.60    2.40
  -1   4   5   14.20    2.60
  -1   4   5   14.90    3.00
   0  -4   5   90.79    6.00
   0  -4  -5   76.39    3.70
   0  -4   5   90.59    4.40
   0  -4   5   86.79    5.80
   0  -4   5   93.39    6.00
   0  -4  -5   86.49    5.60
   0  -4  -5   84.69    5.60
   0  -4   5   84.59    4.80
   0   4   5   89.99    5.30
   0   4  -5   81.99    5.30
   0   4  -5   91.79    5.00
   0   4  -5   89.69    4.90
   0   4   5   81.99    5.30
  -1  -4  -5  126.59    4.80
   1  -4   5  128.29    7.10
   1  -4   5  111.19    5.10
   1  -4   5  113.79    6.30
   1  -4   5  124.29    6.20
  -1  -4  -5  123.09    6.70
  -1  -4  -5  130.29    7.50
  -1   4  -5  127.09    5.10
   1   4   5  124.49    6.00
   1   4   5  125.59    5.60
  -1   4  -5  114.89    5.10
  -1   4  -5  137.09    6.00
  -2  -4  -5  201.58    8.80
   2  -4   5  194.88    6.40
  -2  -4  -5  209.28    8.70
   2  -4   5  194.58    8.20
  -2  -4  -5  203.18    7.30
   2  -4   5  215.68    9.20
   2  -4   5  189.48    7.90
  -2   4  -5  203.58    6.40
   2   4   5  207.18    8.50
  -2   4  -5  213.58    7.30
   2   4   5  205.08    7.00
  -2   4  -5  200.58    8.90
  -2   4  -5  196.28    6.30
   3  -4   5  436.56   14.10
  -3  -4  -5  478.35   13.90
   3  -4   5  442.16   14.10
  -3  -4  -5  446.36   13.10
  -3  -4  -5  444.16   12.20
   3  -4   5  446.96   13.60
   3   4   5  451.15   13.80
  -3   4  -5  425.76   13.30
  -3   4  -5  444.46   11.70
   3   4   5  444.66   13.30
  -4  -4  -5  258.47   10.50
   4  -4   5  258.07   10.20
   4  -4   5  264.87   11.30
  -4  -4  -5  258.87    9.40
  -4  -4  -5  263.27   10.80
   4  -4   5  272.27   10.50
  -4   4  -5  261.47   10.80
   4   4   5  255.57   10.60
   4   4   5  249.58    9.20
  -4   4  -5  265.67    8.30
  -5  -4  -5   15.90    4.30
   5  -4   5   17.10    5.50
   5  -4   5   22.80    5.00
  -5  -4  -5   15.20    4.70
  -5  -4  -5   16.50    5.10
   5  -4   5   12.80    5.00
   5   4   5   17.80    5.00
   5   4   5   17.00    3.60
  -5   4  -5   18.10    3.10
  -5   4  -5   18.00    5.10
   6  -4   5   23.90    6.30
   6  -4   5   27.30    4.80
   6  -4   5   30.60    5.50
  -6  -4  -5   36.20    6.20
  -6  -4  -5   40.80    5.40
   6   4   5   40.90    5.60
  -6   4  -5   32.50    3.60
  -6   4  -5   31.70    6.00
   6   4   5   32.60    5.90
  -7  -4  -5   26.20    5.70
   7  -4   5   32.20    5.60
   7  -4   5   25.90    5.10
  -7  -4  -5   28.30    6.00
   7   4   5   20.40    5.50
   7   4   5   23.30    4.60
  -7   4  -5   25.80    6.30
   7   4   5   39.30    6.40
  -8  -4  -5   14.70    4.70
  -8  -4  -5   19.30    6.00
   8  -4   5   18.60    7.30
   8  -4   5   20.40    6.80
   8   4   5   19.10    4.50
  -8   4  -5   24.00    6.70
   8   4   5   18.90    5.70
   8   4   5   13.80    4.70
  -9  -4  -5  173.28   12.10
  -9  -4  -5  168.78   11.50
   9  -4   5  173.98   12.20
   9  -4   5  167.98   11.10
   9   4   5  168.98   11.80
  -9   4  -5  166.88   11.20
  -9   4  -5  161.68   11.20
   9   4   5  170.38    9.00
 -10  -4  -5   33.50    8.00
 -10  -4  -5   30.10    5.90
  10  -4   5   21.50    5.80
  10  -4   5   35.30    7.00
 -10   4  -5   43.70    7.60
  10   4   5   32.70    6.80
  10   4   5   41.20    8.40
 -10   4  -5   40.70    8.30
 -11  -4  -5   30.70    8.20
  11  -4   5   14.80    5.70
 -11  -4  -5   30.70    8.10
  11  -4   5   35.10    9.50
 -11   4  -5   43.40    8.90
  11   4   5   33.30    7.00
  11   4   5   32.80    8.50
 -11   4  -5   17.90    7.10
  12  -5  -5    5.30    7.50
 -12  -5   5   -1.60    7.20
  12  -5  -5    0.60    7.10
 -12  -5   5    5.40    7.70
 -12   5   5   -4.20    7.60
  12   5  -5    6.10    5.00
 -12   5   5    8.60    7.80
  12   5  -5   -6.80    7.10
  11  -5  -5   40.20    8.70
 -11  -5   5   29.70    7.90
  11  -5  -5   47.80    7.90
 -11  -5   5   18.10    8.00
  11   5  -5   21.60    7.20
  11   5  -5   34.00    7.50
 -11   5   5   42.60    6.80
 -11   5   5   31.50    8.20
  10  -5  -5   62.79    8.00
  10  -5  -5   53.39    7.10
 -10  -5   5   64.29    8.80
 -10  -5   5   55.19    8.20
  10   5  -5   62.09    7.80
  10   5  -5   52.99    6.20
 -10   5   5   73.19    8.90
 -10   5   5   62.29    8.40
   9  -5  -5   32.30    6.70
   9  -5  -5   19.60    7.20
  -9  -5   5   21.30    6.70
  -9  -5   5   24.60    6.90
   9   5  -5   30.50    6.50
  -9   5   5   26.80    7.00
   9   5  -5   28.10    6.30
  -9   5   5   29.00    5.60
  -8  -5   5  354.46   14.40
   8  -5  -5  362.06   14.40
  -8  -5   5  349.27   14.50
   8  -5  -5  327.47   14.90
   8   5  -5  346.97   13.50
   8   5  -5  342.67   13.30
  -8   5   5  358.66   14.10
  -8   5   5  353.76   14.80
   7  -5  -5  146.49   10.30
   7  -5  -5  133.29    9.60
  -7  -5   5  138.49    8.60
  -7  -5   5  131.69    8.90
   7   5  -5  133.09    8.80
  -7   5   5  133.39    8.90
  -7   5   5  154.48   10.60
   7   5  -5  137.99    8.60
   7   5  -5  125.59   10.10
   6  -5  -5  221.68   11.70
  -6  -5   5  230.98   11.50
   6  -5  -5  228.58   11.30
  -6  -5   5  243.78   11.20
  -6   5   5  230.08   11.30
  -6   5   5  211.98   10.30
   6   5  -5  216.28    9.80
   6   5  -5  227.68   11.30
   6   5  -5  242.28   10.60
  -5  -5   5   10.00    3.60
  -5  -5   5   10.00    3.60
  -5  -5   5    6.60    5.00
   5  -5  -5   13.50    4.20
   5  -5  -5    6.90    3.70
   5   5  -5    7.70    4.60
   5   5  -5    7.00    4.60
   5   5  -5    7.80    3.00
  -5   5   5    6.60    4.90
  -5   5   5    4.90    4.10
  -4  -5   5   88.09    5.90
   4  -5  -5   86.69    7.50
  -4  -5   5   81.89    6.70
  -4  -5   5   82.99    5.80
  -4  -5   5   84.49    6.90
   4  -5  -5   89.59    7.30
  -4   5   5   76.69    6.00
  -4   5   5   75.89    5.60
   4   5  -5   73.79    6.50
   4   5  -5   87.99    5.90
   4   5  -5   90.39    6.60
  -3  -5   5  336.07   10.60
   3  -5  -5  375.26   13.10
  -3  -5   5  345.27   12.10
  -3  -5   5  313.47   11.30
  -3  -5   5  341.67   11.50
   3  -5  -5  352.56   13.10
  -3  -5   5  356.96   11.20
   3   5  -5  353.76   11.00
   3   5  -5  327.17   12.00
  -3   5   5  354.26   10.80
   3   5  -5  369.06   11.70
   3   5  -5  337.87   10.00
  -3   5   5  358.46   12.30
  -2  -5   5   21.30    4.30
  -2  -5   5   28.50    4.70
  -2  -5   5   22.80    3.90
  -2  -5   5   21.90    4.20
   2  -5  -5   23.20    5.20
  -2  -5   5   24.00    4.50
   2  -5  -5   28.90    4.10
   2   5  -5   21.40    3.50
   2   5  -5   19.50    3.30
  -2   5   5   23.70    4.50
   2   5  -5   23.30    4.30
  -2   5   5   23.00    4.50
   2   5  -5   25.50    3.50
   2   5  -5   24.20    3.80
   1  -5  -5  353.56   11.00
  -1  -5   5  343.57   10.90
  -1  -5   5  355.86   12.10
  -1  -5   5  348.07   10.60
   1  -5  -5  355.36   12.10
  -1  -5   5  371.46   11.80
  -1  -5   5  361.36   12.10
   1   5  -5  348.17   11.40
  -1   5   5  353.66   11.60
   1   5  -5  349.27   10.80
  -1   5   5  348.37   11.50
   1   5  -5  364.66   10.90
   1   5  -5  375.36   11.30
   0  -5   5   16.40    3.60
   0  -5   5   16.10    3.70
   0  -5  -5   18.90    5.00
   0  -5   5   18.50    3.70
   0  -5   5   17.20    4.50
   0  -5  -5   22.50    4.30
   0   5  -5   13.10    3.70
   0   5  -5   18.20    3.40
   0   5  -5   18.80    3.50
   0   5   5   16.00    4.70
   0   5   5   22.40    4.00
   1  -5   5  686.23   18.60
  -1  -5  -5  678.63   18.10
   1  -5   5  695.83   19.00
  -1  -5  -5  659.43   18.90
   1  -5   5  637.14   17.80
   1  -5   5  650.83   16.40
  -1   5  -5  678.53   16.80
  -1   5  -5  684.83   18.70
  -1   5  -5  677.23   16.10
   1   5   5  672.53   16.60
   1   5   5  675.93   18.30
  -2  -5  -5   35.20    5.80
   2  -5   5   31.70    4.40
  -2  -5  -5   34.30    5.40
   2  -5   5   23.00    5.50
   2  -5   5   36.40    5.70
   2   5   5   37.60    4.60
  -2   5  -5   35.30    3.90
  -2   5  -5   28.80    5.60
  -3  -5  -5  104.19    7.70
  -3  -5  -5  103.99    7.90
   3  -5   5  105.89    8.10
   3  -5   5   97.49    7.90
  -3  -5  -5  108.29    6.20
   3  -5   5   92.29    7.40
  -3   5  -5  107.89    7.50
  -3   5  -5   93.99    5.90
   3   5   5  109.69    7.50
   3   5   5  107.09    7.30
  -4  -5  -5  145.79    8.10
  -4  -5  -5  182.98    8.90
  -4  -5  -5  180.48   10.40
   4  -5   5  180.18   10.30
   4  -5   5  167.38   11.00
   4  -5   5  166.18   10.90
  -4   5  -5  170.08   10.70
   4   5   5  172.38   10.40
   4   5   5  157.38    9.50
  -4   5  -5  162.28    6.90
   5  -5   5   10.00    5.60
  -5  -5  -5    1.40    4.30
   5  -5   5    5.30    4.20
  -5  -5  -5    3.80    5.30
   5  -5   5    3.00    6.10
  -5  -5  -5    8.00    5.80
   5   5   5    6.80    4.10
   5   5   5   -0.50    4.90
  -5   5  -5   11.20    6.00
   6  -5   5  300.87   15.10
   6  -5   5  298.77   14.60
  -6  -5  -5  316.07   12.50
  -6  -5  -5  290.57   12.60
  -6   5  -5  310.27   14.30
   6   5   5  338.87   14.30
   6   5   5  346.17   13.20
  -7  -5  -5   -2.90    6.40
  -7  -5  -5    9.90    5.40
   7  -5   5   -0.40    4.80
   7  -5   5    9.70    7.40
  -7   5  -5    5.20    6.50
  -7   5  -5   -3.00    6.00
   7   5   5    1.50    6.30
   7   5   5   10.30    6.00
  -8  -5  -5   58.49    7.30
   8  -5   5   69.29    8.30
  -8  -5  -5   70.59    8.00
   8  -5   5   75.09    9.20
  -8   5  -5   70.19    7.50
   8   5   5   79.49    7.60
   8   5   5   72.69    6.80
  -8   5  -5   67.19    9.20
  -9  -5  -5    0.00    6.40
  -9  -5  -5   15.70    7.90
   9  -5   5   -6.10    7.40
   9  -5   5   -1.20    5.80
   9   5   5   -1.10    7.30
   9   5   5    5.00    6.30
  -9   5  -5    5.50    5.30
  -9   5  -5    5.40    5.50
 -10  -5  -5   23.20    7.80
 -10  -5  -5    7.30    8.30
  10  -5   5   13.10    6.80
  10  -5   5   26.80    8.50
  10   5   5   24.40    7.10
 -10   5  -5   13.00    8.20
 -10   5  -5   17.00    7.70
  10   5   5   12.60    8.40
 -10  -6   5   46.40    9.10
  10  -6  -5   47.10    9.60
  10  -6  -5   35.80    8.10
  10   6  -5   43.00    8.40
 -10   6   5   35.00    7.10
 -10   6   5   46.70    8.80
  10   6  -5   48.60    8.10
   9  -6  -5   45.60    7.30
  -9  -6   5   32.70    8.20
  -9  -6   5   38.80    8.60
   9  -6  -5   25.20    7.60
  -9   6   5   46.70    8.70
  -9   6   5   36.50    7.90
   9   6  -5   45.90    8.10
   9   6  -5   49.80    7.80
  -8  -6   5   12.30    5.60
   8  -6  -5   24.10    7.30
  -8  -6   5   22.20    7.40
   8  -6  -5   14.00    7.90
  -8   6   5   21.40    7.00
   8   6  -5   25.40    7.30
  -8   6   5   15.10    7.70
   8   6  -5   27.90    6.70
   7  -6  -5    1.30    6.20
   7  -6  -5   12.20    7.50
  -7  -6   5    0.90    6.40
  -7  -6   5    2.70    6.60
   7   6  -5    6.00    5.60
   7   6  -5   -2.70    6.00
  -7   6   5   -1.10    5.60
  -7   6   5   -2.00    6.50
  -6  -6   5   25.50    6.70
   6  -6  -5   48.30    7.60
   6  -6  -5   34.50    7.70
  -6  -6   5   30.00    5.60
   6   6  -5   35.70    6.10
  -6   6   5   30.00    7.20
  -6   6   5   29.90    6.20
   6   6  -5   39.30    6.80
  -5  -6   5   70.79    7.90
   5  -6  -5   77.99    7.20
  -5  -6   5   64.69    7.50
   5  -6  -5   80.49    7.70
   5   6  -5   64.69    6.50
   5   6  -5   80.69    7.80
  -5   6   5   62.49    7.90
   4  -6  -5  162.18   11.20
  -4  -6   5  167.98   10.30
  -4  -6   5  136.99    9.50
   4  -6  -5  136.69   10.20
   4   6  -5  152.78    8.30
   4   6  -5  144.69    8.80
   4   6  -5  142.19    8.90
  -4   6   5  149.79   10.50
  -3  -6   5  163.38   10.30
  -3  -6   5  146.69    8.10
  -3  -6   5  155.28    9.00
   3  -6  -5  157.68   10.30
   3   6  -5  160.08    9.90
  -3   6   5  160.78   10.30
   3   6  -5  162.78    9.70
   3   6  -5  157.58    8.80
  -3   6   5  162.78   10.50
  -2  -6   5   34.50    5.50
  -2  -6   5   49.90    6.10
   2  -6  -5   33.60    5.60
  -2  -6   5   39.30    5.40
  -2  -6   5   42.70    6.10
  -2  -6   5   31.40    5.50
   2   6  -5   37.00    5.50
   2   6  -5   36.70    5.30
  -2   6   5   38.30    5.80
  -2   6   5   46.30    6.90
   2   6  -5   35.60    5.40
  -1  -6   5   28.30    5.70
   1  -6  -5   31.20    6.80
  -1  -6   5   31.90    4.40
  -1  -6   5   27.20    5.60
  -1  -6   5   27.70    5.30
   1   6  -5   32.90    4.00
   1   6  -5   31.70    5.00
  -1   6   5   35.30    5.40
  -1   6   5   29.00    6.30
   1   6  -5   33.40    4.70
   0  -6   5   -5.30    4.80
   0  -6  -5    1.50    5.80
   0  -6   5    1.30    3.60
   0  -6   5    3.60    4.90
   0  -6  -5   -4.70    4.00
   0   6   5    5.40    5.40
   0   6  -5    2.20    5.20
   0   6  -5   -4.60    3.90
  -1  -6  -5   63.69    7.90
   1  -6   5   49.50    6.80
   1  -6   5   61.69    7.50
   1  -6   5   64.69    7.20
  -1  -6  -5   60.39    6.60
   1   6   5   64.19    6.20
  -1   6  -5   55.59    5.30
  -1   6  -5   56.79    7.40
   2  -6   5  101.59    8.90
   2  -6   5  124.59    9.40
  -2  -6  -5  101.29    8.20
  -2  -6  -5   96.09    9.00
   2  -6   5   95.49    8.30
   2   6   5  133.59   10.00
   2   6   5  110.89    8.60
  -2   6  -5  107.19    9.10
   3  -6   5  119.79    8.70
  -3  -6  -5  109.69    9.00
  -3  -6  -5  109.79    9.50
   3  -6   5  106.59    7.90
   3  -6   5   99.49    8.00
  -3   6  -5  105.99    8.30
   3   6   5  126.19   10.00
   3   6   5  107.09    8.60
  -4  -6  -5   79.79    7.30
   4  -6   5   90.19    8.20
   4  -6   5   80.59    9.30
  -4  -6  -5  105.39    9.40
  -4   6  -5   98.69    9.30
   4   6   5  115.99    8.70
  -4   6  -5   96.59    8.90
   4   6   5   95.99    7.30
  -5  -6  -5   33.60    6.00
   5  -6   5   27.80    8.30
   5  -6   5   31.40    8.10
  -5  -6  -5   31.50    7.80
  -5   6  -5   26.40    7.70
  -5   6  -5   22.30    7.20
   5   6   5   34.20    7.80
   5   6   5   30.10    7.00
   6  -6   5    0.80    7.60
  -6  -6  -5   -8.90    7.10
   6  -6   5    3.50    5.60
   6   6   5    0.40    7.10
  -6   6  -5   -5.30    7.00
  -6   6  -5    6.50    5.50
   6   6   5    1.20    6.30
   7  -6   5   -1.20    8.40
   7  -6   5   -0.80    5.50
  -7  -6  -5    5.90    7.60
  -7   6  -5    4.60    5.50
   7   6   5   -0.90    4.70
   7   6   5  -12.30    7.20
  -7   6  -5    7.10    8.00
  -8  -6  -5   31.60    7.00
   8  -6   5   28.20    9.30
   8  -6   5   22.30    7.30
  -8   6  -5   23.30    8.80
  -8   6  -5   33.30    6.80
   8   6   5   29.10    8.70
   8   6   5   25.60    7.70
  -6  -7   5    0.30    7.00
   6  -7  -5    4.60    6.00
   6  -7  -5   10.60    7.40
  -6  -7   5   -2.50    6.50
   6   7  -5   11.00    7.00
  -6   7   5    2.60    7.50
   5  -7  -5  123.99   10.60
  -5  -7   5  132.09    9.90
   5   7  -5  142.49   10.00
  -5   7   5  117.09   10.20
  -4  -7   5    1.30    6.30
  -4  -7   5   12.50    6.20
   4  -7  -5    0.30    4.90
  -4   7   5   -0.70    4.60
  -4   7   5    1.50    4.70
   4   7  -5    2.40    5.50
   4   7  -5    0.80    6.10
  -3  -7   5    6.90    5.90
   3  -7  -5    4.20    7.10
  -3  -7   5   -2.30    5.80
  -3   7   5    3.30    7.10
  -3   7   5   -0.10    6.00
   3   7  -5    0.90    5.50
   3   7  -5   -7.90    5.30
  -2  -7   5   79.79    7.50
   2  -7  -5   90.79    8.30
   2   7  -5   78.59    7.30
  -2   7   5   57.49    7.70
  -2   7   5   77.09    9.00
  -1  -7   5   39.60    6.90
   1  -7  -5   25.70    7.80
  -1  -7   5   11.80    5.70
   1   7  -5   24.50    6.50
  -1   7   5   22.00    7.20
   0  -7  -5  148.29   11.40
   0  -7   5  121.59    9.40
   0  -7   5  126.49    9.60
   0  -7   5  125.19    9.80
   0   7  -5  111.99    9.00
   0   7   5  149.09    9.80
   0   7  -5  142.39   10.00
  -1  -7  -5    6.00    5.20
   1  -7   5   -2.10    4.40
   1  -7   5   10.40    6.70
   1   7   5    5.60    6.70
  -1   7  -5    0.70    6.00
   1   7   5    3.30    5.30
  -1   7  -5   18.30    6.90
   2  -7   5    9.50    7.40
  -2  -7  -5    2.70    6.00
  -2  -7  -5    6.50    7.70
   2  -7   5    8.60    6.90
   2   7   5   15.40    6.90
  -2   7  -5    4.80    5.00
  -2   7  -5    7.30    6.50
   2   7   5    0.00    5.30
   3  -7   5   -2.30    5.00
   3  -7   5    0.50    7.30
  -3  -7  -5    5.50    7.20
  -3  -7  -5    1.40    6.40
   3   7   5    3.60    6.80
  -3   7  -5  -11.50    6.10
   3   7   5   -2.00    5.50
  -3   7  -5   -0.70    7.00
  -4  -7  -5   -2.50    6.80
  -4  -7  -5   -6.30    7.10
   4  -7   5    3.00    8.00
   4  -7   5   -7.50    7.70
   4   7   5    3.20    6.80
   4   7   5    3.80    5.70
  -4   7  -5    5.70    7.20
  -4   7  -5    1.70    7.80
 -16   0   6  143.79   10.70
  16   0  -6  137.29   10.00
 -16   0   6  123.69    9.30
  15   0  -6   15.30    7.60
 -15   0   6   33.70    6.40
 -15   0   6   25.90    8.30
  14   0  -6   91.09    7.80
  14   0  -6  103.29    9.30
 -14   0   6   92.79    6.80
 -14   0   6   98.59    9.70
  13   0  -6  135.09    8.70
  13   0  -6  135.89    9.50
 -13   0   6  146.39    9.00
 -13   0   6  142.09   10.20
  12   0  -6    2.70    5.30
 -12   0   6   -1.50    3.30
  12   0  -6   -1.40    4.30
 -12   0   6   -2.40    5.40
 -12   0   6    3.60    4.00
  12   0  -6   -1.60    2.80
 -11   0   6 1096.29   27.50
  11   0  -6 1137.09   26.80
 -11   0   6 1121.29   25.90
  11   0  -6 1106.49   24.70
 -11   0   6 1152.28   25.50
  11   0  -6 1138.39   27.40
 -10   0   6  246.98    8.00
 -10   0   6  278.67   11.00
 -10   0   6  245.28    8.80
 -10   0   6  249.68    8.90
  10   0  -6  272.27   10.50
  10   0  -6  248.98   10.10
  10   0  -6  248.28    8.20
  -9   0   6 1582.64   33.40
   9   0  -6 1654.33   35.10
  -9   0   6 1528.05   33.20
   9   0  -6 1550.74   32.60
  -9   0   6 1518.95   32.60
   9   0  -6 1631.04   34.40
  -9   0   6 1547.85   34.70
  -8   0   6   21.40    4.10
   8   0  -6   25.50    3.80
   8   0  -6   32.30    3.20
   8   0  -6   28.70    2.30
  -8   0   6   35.30    3.10
  -8   0   6   24.80    3.40
  -8   0   6   30.60    3.30
   8   0  -6   31.10    4.10
  -7   0   6  297.47    9.70
   7   0  -6  290.47    7.80
  -7   0   6  290.87    8.30
   7   0  -6  280.97    7.00
   7   0  -6  300.87    9.80
   7   0  -6  294.07    9.10
  -7   0   6  296.97    8.70
  -6   0   6 1430.66   29.80
  -6   0   6 1481.35   30.40
   6   0  -6 1474.75   30.00
   6   0  -6 1432.96   30.40
   6   0  -6 1426.96   28.80
  -6   0   6 1443.86   31.00
   6   0  -6 1507.85   31.50
  -5   0   6    9.10    2.30
  -5   0   6    9.00    1.70
   5   0  -6    4.30    1.80
  -5   0   6    4.50    2.50
   5   0  -6    3.30    2.30
   5   0  -6    6.60    1.90
   4   0  -6 3989.00   79.49
   4   0  -6 4126.59   79.39
   4   0  -6 4164.28   79.09
  -4   0   6 4069.19   79.29
  -4   0   6 4153.18   80.09
  -4   0   6 4092.19   80.19
   4   0  -6 4070.79   80.59
   3   0  -6  712.13   14.90
   3   0  -6  718.83   15.40
  -3   0   6  711.93   15.80
  -3   0   6  724.13   15.80
  -3   0   6  683.73   14.20
   3   0  -6  708.33   14.90
   3   0  -6  719.63   16.10
  -3   0   6  697.73   15.00
  -2   0   6 1610.24   32.40
  -2   0   6 1607.44   31.90
   2   0  -6 1620.24   31.90
   2   0  -6 1619.74   32.80
   2   0  -6 1639.14   32.20
  -2   0   6 1591.74   32.70
  -2   0   6 1542.65   31.20
  -2   0   6 1600.64   32.60
  -1   0   6   17.30    1.30
   1   0  -6   17.70    1.90
  -1   0   6   17.10    1.90
  -1   0   6   19.40    2.20
   1   0  -6   16.20    1.90
  -1   0   6   18.40    1.70
   1   0  -6   17.90    1.50
   1   0  -6   16.90    1.40
   0   0   6  778.52   16.50
   0   0   6  791.92   16.10
   0   0   6  770.12   16.40
   0   0  -6  770.82   15.70
   0   0  -6  765.92   16.30
   0   0  -6  770.22   16.60
   0   0  -6  774.72   16.30
   0   0   6  781.32   16.70
   1   0   6 1652.13   32.40
   1   0   6 1635.24   32.80
  -1   0  -6 1606.44   32.50
   1   0   6 1584.64   31.70
   1   0   6 1641.64   32.50
  -1   0  -6 1603.54   32.50
  -1   0  -6 1658.33   31.80
   1   0   6 1601.64   32.50
  -2   0  -6  290.87    6.70
   2   0   6  290.47    6.90
   2   0   6  305.67    7.80
   2   0   6  300.47    7.30
  -2   0  -6  299.47    7.80
   2   0   6  288.57    7.30
  -2   0  -6  300.67    7.60
  -3   0  -6 1487.75   29.70
   3   0   6 1428.56   29.40
   3   0   6 1468.05   30.10
   3   0   6 1445.66   29.40
  -3   0  -6 1483.05   30.00
   3   0   6 1425.66   30.00
  -3   0  -6 1467.15   29.70
   3   0   6 1468.35   29.60
  -4   0  -6  403.96   10.00
  -4   0  -6  391.86    9.90
   4   0   6  416.06    9.80
   4   0   6  408.46   10.30
  -4   0  -6  405.66   10.20
   4   0   6  399.16    9.90
   4   0   6  406.06   10.80
  -5   0  -6  739.93   17.30
  -5   0  -6  758.82   16.80
   5   0   6  747.63   16.40
   5   0   6  751.62   17.10
  -5   0  -6  733.83   16.80
   5   0   6  778.22   17.70
   5   0   6  728.53   17.20
   6   0   6   19.40    3.00
  -6   0  -6   26.10    3.60
   6   0   6   18.00    3.20
   6   0   6   18.60    3.30
  -6   0  -6   23.20    3.10
   6   0   6   21.50    2.50
   7   0   6   55.79    4.70
  -7   0  -6   54.99    4.30
  -7   0  -6   63.59    4.40
  -7   0  -6   61.29    5.00
   7   0   6   42.30    3.10
   7   0   6   70.69    4.80
   7   0   6   65.19    5.40
  -8   0  -6  162.88    8.20
   8   0   6  166.28    7.50
  -8   0  -6  144.79    7.10
   8   0   6  157.08    8.40
   8   0   6  148.09    7.90
  -8   0  -6  170.18    7.70
   9   0   6   13.20    3.70
  -9   0  -6   17.40    4.20
  -9   0  -6   22.60    4.90
   9   0   6   18.30    3.90
  -9   0  -6   18.10    4.10
   9   0   6   20.70    4.70
 -10   0  -6  214.78    9.40
  10   0   6  198.28   10.60
 -10   0  -6  201.88    9.50
 -10   0  -6  207.78   10.60
  10   0   6  213.88   10.80
  10   0   6  200.98   10.10
  11   0   6   20.20    6.10
  11   0   6    7.80    5.90
 -11   0  -6   12.10    4.80
 -11   0  -6    3.60    5.40
  11   0   6   15.20    5.60
  12   0   6   96.59    8.70
 -12   0  -6   97.29    7.60
  12   0   6  121.99    9.60
  12   0   6   92.79    7.60
  13   0   6   -6.40    6.60
  13   0   6    0.30    4.80
 -13   0  -6   10.40    6.70
  13   0   6   -2.20    6.50
  16  -1  -6   28.90    8.90
 -16  -1   6   22.50    7.20
 -16  -1   6   20.40    8.10
  16   1  -6   18.00    8.40
 -16   1   6   29.00    7.10
 -15  -1   6   54.89    6.50
  15  -1  -6   55.99    7.40
 -15  -1   6   70.19    9.20
  15   1  -6   52.29    8.50
 -15   1   6   58.79    9.30
  14  -1  -6  123.89   10.20
 -14  -1   6  122.59   10.10
 -14  -1   6   91.99    8.30
 -14   1   6  115.59   10.30
  14   1  -6  114.29    8.60
  13  -1  -6  119.19    9.60
  13  -1  -6  132.89    9.20
 -13  -1   6  112.99    8.30
 -13  -1   6  137.89   10.20
 -13   1   6  146.39    8.50
 -13   1   6  131.29    8.00
  13   1  -6  124.09    8.40
  13   1  -6  129.69    9.90
 -13   1   6  132.29    9.90
  13   1  -6  143.69    7.80
  12  -1  -6  171.08    9.30
 -12  -1   6  160.58    9.30
  12  -1  -6  166.08    9.60
 -12  -1   6  170.88    9.10
 -12  -1   6  179.08   11.20
 -12   1   6  168.08    8.00
 -12   1   6  186.28   11.10
  12   1  -6  189.78   10.50
  12   1  -6  187.58   10.40
  12   1  -6  183.68    8.20
 -12   1   6  196.58    8.90
  11  -1  -6   34.40    4.90
  11  -1  -6   37.40    5.20
 -11  -1   6   33.30    5.10
 -11  -1   6   48.20    6.50
  11  -1  -6   36.10    3.90
 -11  -1   6   33.60    4.40
 -11   1   6   37.30    4.80
 -11   1   6   37.80    6.00
  11   1  -6   34.40    4.20
  11   1  -6   29.50    5.60
  11   1  -6   31.70    5.40
  11   1  -6   32.40    3.50
 -11   1   6   38.90    4.20
 -10  -1   6    7.20    3.30
  10  -1  -6    8.30    2.80
  10  -1  -6   10.00    3.30
 -10  -1   6    8.60    2.80
 -10  -1   6    7.30    3.80
  10  -1  -6   11.70    4.40
  10  -1  -6    7.90    3.00
 -10  -1   6    3.30    4.60
 -10   1   6   13.20    3.70
  10   1  -6    4.50    3.20
  10   1  -6    5.50    2.40
  10   1  -6   11.50    4.30
 -10   1   6   10.70    3.00
  10   1  -6   10.10    3.30
 -10   1   6    8.90    4.70
  -9  -1   6    0.10    3.90
  -9  -1   6    3.70    3.20
   9  -1  -6    3.00    2.40
  -9  -1   6    2.80    2.90
   9  -1  -6    3.00    2.00
   9  -1  -6    1.70    3.70
  -9  -1   6    1.90    2.90
   9  -1  -6    0.50    3.30
  -9   1   6    4.80    3.20
   9   1  -6    3.10    2.80
   9   1  -6    0.40    2.40
  -9   1   6    2.40    2.20
   9   1  -6   -0.60    1.80
  -9   1   6    3.00    3.80
   9   1  -6    7.70    3.80
   8  -1  -6  668.93   15.80
   8  -1  -6  674.43   15.50
  -8  -1   6  671.63   16.10
  -8  -1   6  708.93   17.00
  -8  -1   6  706.53   17.50
   8  -1  -6  716.63   18.00
  -8  -1   6  676.73   16.60
   8  -1  -6  694.83   17.60
  -8   1   6  681.13   16.80
   8   1  -6  700.93   16.40
   8   1  -6  720.03   18.20
  -8   1   6  690.33   15.60
  -8   1   6  692.83   17.70
   8   1  -6  708.23   17.00
   8   1  -6  671.83   14.90
  -7  -1   6  895.81   19.90
  -7  -1   6  882.91   20.00
   7  -1  -6  873.41   19.00
  -7  -1   6  881.41   21.00
   7  -1  -6  892.51   20.70
   7  -1  -6  872.01   19.20
  -7  -1   6  877.51   19.60
   7  -1  -6  914.41   21.30
   7   1  -6  880.11   21.00
  -7   1   6  900.21   20.30
  -7   1   6  885.11   20.80
   7   1  -6  872.91   18.20
   7   1  -6  870.11   19.80
  -7   1   6  876.21   18.80
   7   1  -6  911.61   19.70
   6  -1  -6 1060.39   23.40
  -6  -1   6 1099.59   23.00
  -6  -1   6 1057.69   23.10
   6  -1  -6 1063.49   24.10
  -6  -1   6 1096.99   23.30
  -6  -1   6 1050.99   23.80
   6  -1  -6 1057.59   22.30
   6  -1  -6 1068.39   22.50
   6   1  -6 1072.89   24.10
  -6   1   6 1074.89   21.90
  -6   1   6 1083.99   23.40
   6   1  -6 1059.09   22.90
  -6   1   6 1025.30   23.40
   6   1  -6 1064.99   22.90
   5  -1  -6  501.45   10.90
  -5  -1   6  520.15   12.40
   5  -1  -6  504.45   12.70
   5  -1  -6  516.15   11.80
  -5  -1   6  522.75   12.50
  -5  -1   6  515.35   12.80
   5  -1  -6  521.55   11.90
   5  -1  -6  521.05   13.40
  -5  -1   6  512.65   12.50
  -5   1   6  516.45   12.70
  -5   1   6  505.95   11.10
   5   1  -6  531.15   12.40
   5   1  -6  546.15   13.50
   5   1  -6  523.25   12.10
  -5   1   6  522.75   12.90
   4  -1  -6  682.13   14.10
  -4  -1   6  687.33   15.60
  -4  -1   6  710.93   15.50
   4  -1  -6  699.73   16.30
   4  -1  -6  690.43   15.10
  -4  -1   6  689.23   15.40
  -4  -1   6  675.43   15.80
  -4   1   6  691.33   14.20
  -4   1   6  708.03   16.00
  -4   1   6  666.93   15.50
   4   1  -6  699.13   15.40
   4   1  -6  709.23   16.40
   4   1  -6  700.83   14.80
   3  -1  -6  178.18    5.90
   3  -1  -6  165.98    5.10
   3  -1  -6  169.28    4.30
  -3  -1   6  171.98    5.60
  -3  -1   6  162.78    5.30
  -3  -1   6  172.28    5.40
   3  -1  -6  170.38    5.50
   3   1  -6  171.48    6.00
   3   1  -6  170.68    4.60
  -3   1   6  172.08    5.90
   3   1  -6  167.28    5.40
   3   1  -6  162.88    5.20
  -3   1   6  171.98    5.50
  -2  -1   6  271.77    7.30
  -2  -1   6  251.97    7.00
   2  -1  -6  269.27    7.70
  -2  -1   6  254.77    6.90
   2  -1  -6  270.27    7.10
  -2  -1   6  267.47    7.40
   2  -1  -6  258.67    6.10
   2  -1  -6  260.87    6.80
   2   1  -6  259.67    6.70
  -2   1   6  254.77    6.40
   2   1  -6  257.77    6.80
  -2   1   6  262.47    6.80
  -2   1   6  260.17    7.40
   2   1  -6  264.47    7.40
   2   1  -6  255.87    5.70
  -1  -1   6  772.42   16.60
   1  -1  -6  763.42   16.40
   1  -1  -6  750.02   16.30
   1  -1  -6  769.62   15.80
  -1  -1   6  758.02   16.70
  -1  -1   6  750.82   16.50
  -1  -1   6  757.52   16.60
  -1  -1   6  754.82   16.80
  -1  -1   6  755.72   15.20
  -1   1   6  751.22   16.70
  -1   1   6  760.22   15.90
   1   1  -6  764.02   16.30
  -1   1   6  754.22   16.10
   1   1  -6  791.62   16.40
   1   1  -6  764.62   16.50
   0  -1   6 1606.44   32.00
   0  -1  -6 1551.24   31.30
   0  -1  -6 1519.85   31.60
   0  -1   6 1535.05   31.70
   0  -1   6 1590.34   32.10
   0  -1  -6 1581.64   31.60
   0  -1   6 1542.35   31.00
   0   1  -6 1563.94   31.40
   0   1  -6 1602.74   31.70
   0   1   6 1575.74   31.80
   0   1  -6 1563.84   31.30
   0   1   6 1560.54   31.50
   1  -1   6  606.64   11.90
   1  -1   6  613.54   13.30
  -1  -1  -6  620.34   13.80
   1  -1   6  608.14   13.40
   1  -1   6  618.54   14.00
   1  -1   6  619.14   14.10
  -1  -1  -6  609.74   13.50
  -1  -1  -6  612.24   13.50
   1   1   6  607.24   13.00
   1   1   6  605.84   13.70
  -1   1  -6  613.54   13.30
  -1   1  -6  606.84   13.50
   1   1   6  606.14   13.50
  -1   1  -6  614.94   13.00
  -2  -1  -6 1500.55   30.10
   2  -1   6 1462.15   29.10
   2  -1   6 1455.15   28.60
  -2  -1  -6 1492.25   29.90
   2  -1   6 1409.86   29.90
   2  -1   6 1473.95   30.20
   2  -1   6 1460.05   30.40
  -2  -1  -6 1466.85   29.60
   2   1   6 1458.85   29.00
   2   1   6 1456.65   29.70
   2   1   6 1446.36   30.00
  -2   1  -6 1449.65   29.30
  -2   1  -6 1450.75   29.80
   2   1   6 1440.46   29.50
   3  -1   6   59.69    3.70
   3  -1   6   58.49    2.20
  -3  -1  -6   60.99    3.80
  -3  -1  -6   62.79    3.30
   3  -1   6   68.99    4.40
   3  -1   6   60.69    2.80
  -3  -1  -6   56.39    2.50
   3  -1   6   55.49    3.50
  -3  -1  -6   53.79    3.30
   3   1   6   56.79    2.50
  -3   1  -6   60.89    2.90
   3   1   6   54.49    3.00
   3   1   6   64.79    4.00
   3   1   6   56.49    3.50
  -3   1  -6   55.19    3.10
   4  -1   6    0.50    0.80
  -4  -1  -6   -0.50    2.10
   4  -1   6    1.10    1.50
   4  -1   6    1.70    2.50
   4  -1   6    0.50    2.50
   4  -1   6    1.80    2.10
  -4  -1  -6    1.80    1.70
  -4  -1  -6    0.10    1.30
   4   1   6    0.30    2.50
  -4   1  -6   -0.80    2.20
  -4   1  -6    0.70    1.40
   4   1   6    0.40    2.00
  -4   1  -6    2.10    2.20
   4   1   6   -1.00    1.10
   5  -1   6  333.07    9.90
   5  -1   6  311.97    9.40
   5  -1   6  317.17    8.90
  -5  -1  -6  329.47    9.70
   5  -1   6  323.37   10.10
   5  -1   6  299.77    6.70
   5  -1   6  316.27    9.10
  -5  -1  -6  297.57    7.70
   5  -1   6  298.47    6.70
  -5  -1  -6  318.17    9.70
  -5   1  -6  321.77    8.00
   5   1   6  317.07    9.60
  -5   1  -6  319.97    9.50
  -5   1  -6  327.07    9.20
   5   1   6  321.87    7.50
   5   1   6  319.07    9.30
   5   1   6  322.87    8.70
   6  -1   6  183.98    8.20
  -6  -1  -6  191.78    8.00
   6  -1   6  181.18    7.00
  -6  -1  -6  182.58    7.80
   6  -1   6  184.28    7.10
   6  -1   6  205.88    8.50
   6  -1   6  184.98    8.00
  -6  -1  -6  173.98    5.90
   6   1   6  186.08    6.60
  -6   1  -6  187.58    7.60
   6   1   6  178.58    7.50
   6   1   6  177.08    7.00
  -6   1  -6  187.38    7.30
   7  -1   6  973.60   22.90
   7  -1   6  949.11   22.30
   7  -1   6  966.30   23.10
  -7  -1  -6  928.61   20.70
   7  -1   6  932.41   21.80
   7  -1   6  958.20   21.60
  -7  -1  -6  943.61   22.50
  -7  -1  -6  923.91   22.10
  -7   1  -6  950.60   22.40
   7   1   6  977.10   21.20
   7   1   6  913.51   21.90
  -7   1  -6  899.41   21.40
   7   1   6  971.90   21.70
   7   1   6  908.21   22.00
   8  -1   6   81.09    6.80
   8  -1   6   98.59    6.30
  -8  -1  -6   94.59    6.80
   8  -1   6   82.59    5.70
   8  -1   6   85.19    6.00
  -8  -1  -6  103.09    6.80
  -8   1  -6   82.59    6.10
   8   1   6   85.99    5.50
   8   1   6   78.99    6.20
   8   1   6   87.09    5.60
   8   1   6   92.89    6.30
  -8   1  -6   76.89    5.80
  -9  -1  -6   51.39    5.30
   9  -1   6   56.59    6.70
   9  -1   6   45.30    5.40
  -9  -1  -6   50.39    5.90
   9  -1   6   53.29    4.80
   9  -1   6   42.50    5.10
  -9   1  -6   54.19    5.70
  -9   1  -6   53.19    5.60
   9   1   6   53.89    6.00
   9   1   6   43.90    5.60
  -9   1  -6   46.30    4.50
  10  -1   6    4.60    4.00
 -10  -1  -6    1.00    4.70
  10  -1   6    9.10    3.60
 -10  -1  -6   14.00    5.60
  10  -1   6    7.50    4.50
  10  -1   6   15.20    5.90
 -10   1  -6    9.10    4.90
  10   1   6    5.00    3.70
 -10   1  -6    6.80    3.40
  10   1   6    4.60    5.10
  11  -1   6   12.30    6.20
 -11  -1  -6   16.70    5.50
  11  -1   6    9.60    5.50
  11  -1   6   10.90    6.40
 -11  -1  -6   12.60    4.70
 -11   1  -6   11.80    4.20
 -11   1  -6   15.90    5.90
  11   1   6   13.90    6.10
  11   1   6   13.50    5.90
 -12  -1  -6   37.70    5.50
  12  -1   6   24.60    7.50
  12  -1   6   39.00    6.90
 -12  -1  -6   47.60    7.80
  12  -1   6   30.70    6.10
 -12   1  -6   46.50    5.70
  12   1   6   46.40    6.10
  12   1   6   32.30    6.70
 -12   1  -6   44.40    7.20
  12   1   6   43.50    7.20
  13  -1   6   21.30    6.00
  13  -1   6   26.10    7.10
  13  -1   6   32.70    8.00
  13   1   6   16.50    7.00
 -13   1  -6   24.70    6.70
  13   1   6   24.20    7.40
  13   1   6   33.00    7.50
 -15  -2   6   96.19    9.80
  15  -2  -6  115.89    9.90
 -15  -2   6  115.59   10.20
  15   2  -6  106.99   10.40
 -15   2   6  131.19   11.70
  14  -2  -6    0.20    7.40
 -14  -2   6   -6.00    5.00
 -14  -2   6   -8.20    6.30
 -14  -2   6   -1.40    6.20
 -14   2   6   -0.90    5.10
  14   2  -6   -4.10    4.70
 -14   2   6    2.40    5.10
  14   2  -6    4.10    6.80
 -13  -2   6   11.90    6.50
  13  -2  -6    3.30    6.90
 -13  -2   6    5.10    5.10
 -13  -2   6   -1.70    5.50
 -13   2   6    9.00    6.70
  13   2  -6    6.20    4.60
  13   2  -6   11.80    6.30
 -13   2   6   12.90    4.00
  12  -2  -6  277.97   13.60
  12  -2  -6  261.17   11.60
 -12  -2   6  284.87   11.50
  12  -2  -6  276.57   10.90
 -12  -2   6  278.37   12.30
 -12  -2   6  299.87   13.30
  12   2  -6  271.77   13.00
  12   2  -6  283.07   12.40
 -12   2   6  278.57   13.30
  12   2  -6  270.57    9.80
 -12   2   6  294.77   11.60
 -11  -2   6  101.89    7.10
  11  -2  -6   96.09    6.40
  11  -2  -6   92.09    7.30
 -11  -2   6   89.89    7.30
  11  -2  -6   94.39    7.10
 -11  -2   6   96.39    7.90
  11   2  -6   88.59    6.20
  11   2  -6   89.09    7.40
 -11   2   6   88.69    6.90
  11   2  -6   97.89    7.40
 -11   2   6   87.49    7.90
 -10  -2   6  793.12   21.10
  10  -2  -6  797.82   21.50
  10  -2  -6  794.32   21.00
  10  -2  -6  761.32   19.50
 -10  -2   6  787.22   20.10
 -10  -2   6  820.32   20.60
  10   2  -6  747.53   20.60
 -10   2   6  810.62   21.30
  10   2  -6  773.22   18.90
 -10   2   6  782.62   19.80
  10   2  -6  809.42   20.30
  -9  -2   6  109.99    5.30
   9  -2  -6  117.29    6.60
  -9  -2   6  112.19    7.10
  -9  -2   6  129.19    8.00
   9  -2  -6  121.69    8.10
   9  -2  -6  114.49    7.50
  -9  -2   6  111.59    6.50
  -9  -2   6  109.09    7.30
   9   2  -6  107.19    6.60
   9   2  -6  118.39    4.80
  -9   2   6  118.19    8.10
   9   2  -6  108.59    8.00
   9   2  -6  104.69    6.00
  -9   2   6  129.69    7.50
  -8  -2   6  271.57    8.00
   8  -2  -6  288.37   10.40
   8  -2  -6  267.17   10.50
  -8  -2   6  276.57    9.20
  -8  -2   6  299.77   10.10
   8  -2  -6  272.67    9.20
   8  -2  -6  290.07    7.60
  -8  -2   6  279.07    9.30
  -8  -2   6  281.67   10.50
   8   2  -6  271.47    9.10
  -8   2   6  267.17    9.80
  -8   2   6  256.97   10.20
   8   2  -6  275.97    7.10
  -8   2   6  268.37    7.30
   8   2  -6  282.87    9.60
   8   2  -6  282.07   10.70
  -7  -2   6   87.49    5.40
  -7  -2   6   91.09    6.00
   7  -2  -6  100.59    5.60
  -7  -2   6   96.79    6.40
   7  -2  -6   92.99    6.40
  -7  -2   6   82.19    3.00
  -7  -2   6   89.89    4.50
   7  -2  -6   94.19    4.20
  -7  -2   6   98.49    6.00
   7  -2  -6   89.39    6.30
   7   2  -6   86.39    6.50
  -7   2   6  108.19    6.50
  -7   2   6   92.59    3.30
   7   2  -6   84.99    3.00
   7   2  -6   90.09    5.60
   7   2  -6   97.39    4.80
  -7   2   6   93.79    6.10
  -6  -2   6  260.97    8.10
  -6  -2   6  289.87    8.00
   6  -2  -6  289.57    8.90
  -6  -2   6  289.37    9.10
   6  -2  -6  278.17    8.60
  -6  -2   6  286.17    9.10
   6  -2  -6  283.37    9.10
   6  -2  -6  284.17    7.40
  -6  -2   6  265.17    6.90
   6   2  -6  268.57    6.20
  -6   2   6  266.67    9.10
   6   2  -6  274.47    8.30
   6   2  -6  271.27    9.10
  -6   2   6  261.37    6.10
   6   2  -6  283.27    8.60
  -6   2   6  282.07    8.70
   5  -2  -6 1789.52   37.80
  -5  -2   6 1720.73   35.70
   5  -2  -6 1806.22   37.50
  -5  -2   6 1813.82   37.00
   5  -2  -6 1839.32   36.00
   5  -2  -6 1827.42   37.00
  -5  -2   6 1821.52   37.40
  -5  -2   6 1773.02   37.20
   5   2  -6 1702.23   34.40
   5   2  -6 1835.92   36.90
  -5   2   6 1788.72   37.30
   5   2  -6 1825.82   38.00
  -5   2   6 1810.82   37.10
  -5   2   6 1705.53   34.20
   5   2  -6 1783.82   36.20
   4  -2  -6  176.98    6.40
  -4  -2   6  161.68    5.90
   4  -2  -6  154.78    6.20
   4  -2  -6  165.98    3.80
   4  -2  -6  164.68    6.20
  -4  -2   6  161.58    5.80
   4  -2  -6  165.08    5.30
  -4  -2   6  177.08    5.30
  -4  -2   6  182.58    6.30
   4   2  -6  167.18    6.30
   4   2  -6  167.28    6.00
   4   2  -6  159.28    3.60
   4   2  -6  171.98    5.10
  -4   2   6  169.98    6.40
  -4   2   6  166.58    6.00
  -3  -2   6 1569.64   31.90
  -3  -2   6 1592.94   32.40
   3  -2  -6 1561.94   31.80
  -3  -2   6 1560.94   32.50
   3  -2  -6 1546.95   30.50
   3  -2  -6 1563.44   32.60
  -3  -2   6 1538.25   30.60
   3   2  -6 1506.55   30.00
   3   2  -6 1556.04   31.00
  -3   2   6 1569.54   31.90
  -3   2   6 1545.05   32.40
   3   2  -6 1626.24   32.90
   3   2  -6 1567.74   32.00
  -2  -2   6  200.88    5.40
   2  -2  -6  198.68    5.10
  -2  -2   6  201.78    6.10
  -2  -2   6  200.58    6.70
  -2  -2   6  203.38    6.70
   2  -2  -6  199.28    6.60
   2  -2  -6  206.88    6.20
   2   2  -6  191.18    6.20
   2   2  -6  205.48    6.70
   2   2  -6  205.18    4.90
  -2   2   6  204.88    6.20
   2   2  -6  204.98    6.00
  -2   2   6  196.88    5.70
  -2   2   6  208.68    6.30
  -1  -2   6 2148.09   43.50
   1  -2  -6 2181.18   43.10
  -1  -2   6 2171.68   43.40
   1  -2  -6 2130.79   42.20
  -1  -2   6 2073.69   43.10
  -1  -2   6 2124.79   42.60
  -1  -2   6 2143.89   43.30
   1  -2  -6 2166.68   43.50
   1   2  -6 2108.09   41.40
  -1   2   6 2125.39   42.00
   1   2  -6 2189.08   43.10
   1   2  -6 2201.68   43.10
   1   2  -6 2180.98   42.80
  -1   2   6 2090.69   43.00
  -1   2   6 2149.58   43.20
   0  -2   6 1295.27   27.10
   0  -2   6 1265.47   26.90
   0  -2   6 1243.08   26.00
   0  -2  -6 1272.07   25.90
   0  -2  -6 1246.88   26.80
   0  -2  -6 1247.48   26.50
   0  -2   6 1228.78   26.30
   0   2  -6 1229.38   24.50
   0   2   6 1292.77   26.60
   0   2  -6 1282.57   26.00
   0   2   6 1272.47   26.40
   0   2  -6 1296.07   26.40
   0   2   6 1258.87   24.90
   0   2  -6 1285.57   26.00
  -1  -2  -6    9.90    1.90
   1  -2   6    9.40    2.00
  -1  -2  -6   11.00    2.40
   1  -2   6   11.20    2.00
   1  -2   6   11.30    2.40
   1  -2   6   10.00    1.40
  -1  -2  -6   13.50    2.30
   1   2   6   14.80    2.60
  -1   2  -6   23.40    2.10
  -1   2  -6   10.70    1.40
   1   2   6   13.30    2.20
  -1   2  -6   13.00    1.80
   2  -2   6 1032.90   23.00
  -2  -2  -6 1058.89   22.50
  -2  -2  -6 1037.20   22.90
  -2  -2  -6 1075.09   22.90
   2  -2   6 1013.20   20.80
  -2  -2  -6 1033.00   22.90
   2  -2   6 1026.80   22.30
   2  -2   6 1068.49   23.40
   2  -2   6 1045.00   23.20
  -2   2  -6 1011.30   20.70
   2   2   6 1015.60   20.80
   2   2   6 1056.69   21.80
  -2   2  -6 1054.29   21.50
  -2   2  -6 1070.79   22.30
   2   2   6 1046.80   22.70
   2   2   6 1070.59   22.80
   3  -2   6   95.29    5.00
  -3  -2  -6   86.19    4.70
   3  -2   6   91.39    5.30
  -3  -2  -6   94.09    5.10
   3  -2   6   89.39    5.70
  -3  -2  -6   88.09    4.40
   3  -2   6   86.59    5.00
   3   2   6   95.89    5.20
  -3   2  -6   93.19    3.40
  -3   2  -6  102.39    4.60
   3   2   6  102.69    5.50
   3   2   6   92.89    3.60
   3   2   6   85.69    2.50
   4  -2   6  855.61   20.40
  -4  -2  -6  846.62   19.60
   4  -2   6  860.21   18.20
   4  -2   6  814.72   19.90
   4  -2   6  851.91   20.30
   4  -2   6  890.81   20.10
  -4  -2  -6  865.11   19.50
  -4  -2  -6  882.11   20.30
   4   2   6  823.42   17.90
  -4   2  -6  861.91   18.90
   4   2   6  847.22   19.50
  -4   2  -6  837.22   17.80
   4   2   6  893.51   20.00
  -4   2  -6  882.01   20.20
   5  -2   6    3.60    3.00
   5  -2   6    0.10    2.50
   5  -2   6    1.40    3.40
  -5  -2  -6    6.70    2.60
   5  -2   6   -0.50    3.30
  -5  -2  -6    1.50    2.30
   5  -2   6    4.60    1.90
   5   2   6    3.50    2.40
  -5   2  -6    2.70    2.60
   5   2   6    1.20    3.20
  -5   2  -6   -0.10    3.20
  -5   2  -6    3.00    1.50
  -6  -2  -6  263.97    9.30
   6  -2   6  274.87    8.90
  -6  -2  -6  275.37   10.20
   6  -2   6  245.18   10.10
   6  -2   6  277.77   10.80
   6  -2   6  258.57    8.80
   6  -2   6  290.07   10.50
   6   2   6  277.67    9.10
   6   2   6  275.57    7.90
  -6   2  -6  262.17    9.30
   6   2   6  274.87    9.10
  -6   2  -6  280.07    8.80
   7  -2   6   41.50    5.60
  -7  -2  -6   40.60    5.30
   7  -2   6   27.90    5.00
   7  -2   6   38.00    4.70
   7  -2   6   38.80    4.80
   7  -2   6   31.00    3.90
  -7  -2  -6   33.60    5.10
   7   2   6   39.40    3.60
   7   2   6   35.40    3.90
   7   2   6   21.70    4.60
  -7   2  -6   36.10    5.10
   7   2   6   34.80    4.80
  -7   2  -6   40.60    4.20
  -8  -2  -6   16.70    4.80
   8  -2   6    9.30    5.30
   8  -2   6    9.20    4.70
  -8  -2  -6   15.60    5.00
   8  -2   6   19.10    5.50
   8  -2   6   15.40    3.80
  -8   2  -6   20.10    4.10
   8   2   6   21.90    4.80
  -8   2  -6   15.40    5.00
   8   2   6   15.40    3.10
   8   2   6   13.50    4.70
  -9  -2  -6  144.39    9.00
   9  -2   6  127.99    8.50
   9  -2   6  128.79    9.20
   9  -2   6  136.89    8.10
  -9  -2  -6  138.79    9.50
  -9   2  -6  137.69    8.90
   9   2   6  119.59    7.90
  -9   2  -6  136.39    7.90
   9   2   6  119.99    7.80
   9   2   6  132.79    8.50
 -10  -2  -6   68.79    7.50
  10  -2   6   64.09    6.80
  10  -2   6   63.49    7.00
 -10  -2  -6   66.69    7.70
  10  -2   6   49.20    6.10
  10  -2   6   49.00    7.60
  10   2   6   50.49    7.00
 -10   2  -6   60.29    7.40
 -10   2  -6   64.89    6.00
  10   2   6   68.19    7.10
  11  -2   6   83.29    8.00
 -11  -2  -6   83.49    8.50
  11  -2   6   78.39    9.00
  11  -2   6   92.89    9.70
 -11  -2  -6   87.89    8.40
 -11   2  -6   91.49    6.40
 -11   2  -6   87.59    7.00
 -11   2  -6   95.59    7.80
  11   2   6   86.19    7.90
  11   2   6   88.89    8.50
 -12  -2  -6   -2.10    7.00
 -12  -2  -6   -0.60    6.20
  12  -2   6   -6.70    4.80
  12  -2   6    0.70    7.50
  12   2   6   -0.50    6.70
 -12   2  -6   -0.60    4.90
  12   2   6    5.70    4.60
 -13  -2  -6   32.80    8.70
  13  -2   6   23.70    8.30
 -13  -2  -6   32.50    7.70
  13  -2   6   43.30    9.10
  13   2   6   37.60    8.20
 -13   2  -6   38.20    6.90
  13   2   6   42.30    7.90
 -15  -3   6    2.40    6.50
 -15  -3   6    3.70    5.50
  15  -3  -6    0.50    7.50
  15  -3  -6    1.20    6.40
  15   3  -6   -1.40    7.50
 -15   3   6    2.70    5.90
  15   3  -6    1.00    5.80
 -15   3   6   -4.20    6.40
 -14  -3   6   49.90    6.90
  14  -3  -6   55.79    8.00
 -14  -3   6   53.89    7.90
  14  -3  -6   42.50    8.60
 -14   3   6   57.39    9.50
  14   3  -6   57.09    6.90
  14   3  -6   52.89    6.80
 -14   3   6   48.40    7.60
  13  -3  -6   38.50    6.90
  13  -3  -6   29.70    7.70
 -13  -3   6   43.20    6.30
 -13  -3   6   39.50    7.10
  13  -3  -6   42.80    6.80
 -13   3   6   41.00    8.40
  13   3  -6   42.50    5.30
 -13   3   6   42.60    6.00
  13   3  -6   30.20    7.40
  12  -3  -6   32.20    7.30
 -12  -3   6   51.99    7.00
  12  -3  -6   43.40    6.40
  12  -3  -6   47.70    8.10
 -12  -3   6   60.39    7.60
  12   3  -6   45.70    6.30
 -12   3   6   53.39    6.90
 -12   3   6   50.39    7.90
  12   3  -6   36.40    6.90
 -11  -3   6   35.50    6.30
  11  -3  -6   41.20    5.90
 -11  -3   6   56.99    6.70
  11  -3  -6   40.10    7.00
 -11   3   6   44.30    6.40
 -11   3   6   35.20    6.80
  11   3  -6   40.60    5.80
  11   3  -6   40.60    5.30
  11   3  -6   35.70    6.60
  10  -3  -6   -7.80    4.90
  10  -3  -6   -4.80    4.00
 -10  -3   6   -1.40    3.20
 -10  -3   6   -3.30    4.50
 -10  -3   6    3.50    4.70
  10  -3  -6    5.90    4.00
  10   3  -6   -2.20    4.20
 -10   3   6   -0.20    3.30
 -10   3   6   -2.70    3.50
  10   3  -6    0.60    5.00
  10   3  -6    8.30    4.90
   9  -3  -6   66.69    6.70
   9  -3  -6   66.19    6.10
  -9  -3   6   54.39    4.80
  -9  -3   6   65.19    5.40
  -9  -3   6   61.59    6.10
   9   3  -6   63.19    6.60
   9   3  -6   58.99    4.80
  -9   3   6   57.19    6.00
   9   3  -6   63.79    5.10
  -9   3   6   70.29    6.80
   8  -3  -6   76.19    6.20
   8  -3  -6   75.99    6.50
  -8  -3   6   73.49    6.10
  -8  -3   6   74.79    5.20
  -8  -3   6   74.89    6.20
  -8   3   6   77.69    5.80
   8   3  -6   78.39    5.20
   8   3  -6   67.09    6.30
   8   3  -6   81.39    5.90
  -8   3   6   86.79    6.60
   7  -3  -6  171.68    5.70
   7  -3  -6  176.28    8.20
   7  -3  -6  168.68    8.60
  -7  -3   6  172.18    7.60
  -7  -3   6  171.18    7.30
  -7  -3   6  185.78    8.60
   7   3  -6  169.28    7.50
  -7   3   6  178.48    8.50
   7   3  -6  161.28    7.80
  -7   3   6  172.38    8.40
   7   3  -6  166.48    6.90
  -6  -3   6  532.65   14.80
   6  -3  -6  536.15   15.10
  -6  -3   6  544.05   14.00
   6  -3  -6  537.65   12.50
  -6  -3   6  543.15   14.80
   6  -3  -6  531.15   14.70
   6   3  -6  491.55   11.50
   6   3  -6  531.95   13.60
  -6   3   6  516.25   14.70
   6   3  -6  559.94   14.30
   6   3  -6  564.54   15.50
  -6   3   6  537.65   14.50
  -5  -3   6   39.50    2.80
   5  -3  -6   38.70    3.00
  -5  -3   6   35.70    3.70
  -5  -3   6   42.00    3.90
   5  -3  -6   39.00    4.30
   5  -3  -6   42.30    4.50
   5  -3  -6   34.60    2.20
  -5  -3   6   36.10    3.60
   5   3  -6   29.80    3.30
   5   3  -6   33.90    2.30
   5   3  -6   35.10    3.80
  -5   3   6   35.10    3.70
  -5   3   6   41.70    4.10
   5   3  -6   36.80    3.90
  -4  -3   6  139.29    5.40
   4  -3  -6  137.69    5.40
  -4  -3   6  159.28    6.90
  -4  -3   6  145.19    6.80
   4  -3  -6  159.28    7.30
  -4  -3   6  146.29    6.40
  -4  -3   6  140.59    4.30
   4  -3  -6  144.19    4.60
   4  -3  -6  141.69    6.90
  -4   3   6  135.79    6.80
   4   3  -6  153.78    5.40
  -4   3   6  149.69    6.20
   4   3  -6  141.69    4.00
   4   3  -6  137.49    6.20
   4   3  -6  145.89    6.30
  -3  -3   6   13.70    1.90
  -3  -3   6   15.50    3.20
   3  -3  -6   17.30    3.30
  -3  -3   6   13.20    2.90
  -3  -3   6   14.20    3.10
   3  -3  -6    8.30    1.90
  -3  -3   6   11.50    2.40
   3  -3  -6   17.00    2.60
   3   3  -6   13.30    2.20
   3   3  -6   10.30    1.90
  -3   3   6   13.00    3.10
   3   3  -6   11.20    1.30
  -3   3   6    9.70    2.30
   3   3  -6   10.90    2.30
  -2  -3   6   87.39    4.00
  -2  -3   6   85.49    4.30
   2  -3  -6   90.39    5.70
   2  -3  -6   91.99    4.30
   2  -3  -6   93.69    4.90
  -2  -3   6   97.59    4.90
  -2  -3   6   83.99    4.70
  -2   3   6   96.49    5.30
   2   3  -6   88.49    4.90
  -2   3   6   95.09    4.00
   2   3  -6   89.49    4.80
   2   3  -6   79.69    5.00
   2   3  -6   86.69    3.60
  -1  -3   6  353.16   10.10
   1  -3  -6  368.06   10.90
  -1  -3   6  366.56   10.40
   1  -3  -6  357.06    8.00
   1  -3  -6  361.56    8.90
  -1  -3   6  365.86   10.60
   1  -3  -6  358.86    9.80
  -1  -3   6  365.26    9.70
   1   3  -6  377.26    9.90
   1   3  -6  371.86    9.60
   1   3  -6  369.76    9.70
  -1   3   6  370.36   10.30
  -1   3   6  360.46    8.50
  -1   3   6  367.26   10.20
   0  -3  -6  171.18    6.60
   0  -3   6  168.78    6.50
   0  -3  -6  174.28    5.00
   0  -3  -6  166.18    6.10
   0  -3   6  168.88    7.10
   0  -3   6  180.08    7.20
   0  -3  -6  173.48    7.20
   0   3  -6  169.18    6.30
   0   3   6  167.08    6.20
   0   3  -6  165.88    5.70
   0   3  -6  161.08    5.80
   0   3   6  164.38    4.30
   0   3   6  174.28    6.80
  -1  -3  -6  659.03   16.40
   1  -3   6  672.73   16.90
   1  -3   6  679.83   16.70
  -1  -3  -6  674.53   16.40
  -1  -3  -6  650.43   14.80
   1  -3   6  654.83   16.30
  -1  -3  -6  680.13   15.70
   1   3   6  668.33   16.30
  -1   3  -6  698.23   15.20
  -1   3  -6  664.43   14.90
   1   3   6  672.33   15.50
  -1   3  -6  673.73   15.60
   2  -3   6   51.19    2.30
   2  -3   6   54.59    4.90
  -2  -3  -6   56.89    4.70
   2  -3   6   49.40    4.50
  -2  -3  -6   65.29    4.40
  -2  -3  -6   64.09    4.90
   2  -3   6   64.99    4.90
  -2  -3  -6   52.29    3.60
  -2   3  -6   57.49    2.70
   2   3   6   49.20    4.00
  -2   3  -6   58.49    3.90
  -2   3  -6   58.29    3.30
   2   3   6   57.49    3.80
   3  -3   6   43.90    4.00
  -3  -3  -6   50.79    4.80
   3  -3   6   41.90    4.60
   3  -3   6   47.40    4.80
  -3  -3  -6   38.90    3.70
  -3  -3  -6   41.50    3.80
  -3  -3  -6   44.50    4.30
   3   3   6   35.90    4.40
  -3   3  -6   40.70    4.60
   3   3   6   44.30    4.40
  -3   3  -6   40.90    3.10
  -3   3  -6   38.80    2.60
   3   3   6   44.80    3.10
   4  -3   6    2.40    3.80
  -4  -3  -6    5.80    3.10
  -4  -3  -6   -4.40    3.40
  -4  -3  -6    2.50    3.30
  -4  -3  -6    6.20    3.40
   4  -3   6    1.00    3.50
   4  -3   6    2.10    2.70
   4   3   6    6.30    3.70
   4   3   6    1.50    2.40
  -4   3  -6    3.60    2.60
  -4   3  -6    4.50    3.70
  -4   3  -6    2.00    1.30
  -5  -3  -6  112.79    7.50
   5  -3   6   95.69    6.40
   5  -3   6  106.79    7.50
  -5  -3  -6   98.69    6.50
  -5  -3  -6   92.09    5.60
  -5  -3  -6  102.69    6.90
   5  -3   6   94.59    6.50
   5   3   6   98.89    6.00
   5   3   6  100.79    6.70
  -5   3  -6  100.89    5.60
  -5   3  -6   98.29    6.90
  -6  -3  -6  114.09    7.60
  -6  -3  -6  112.69    6.80
   6  -3   6  112.19    6.60
  -6  -3  -6  119.99    8.30
   6  -3   6  117.99    7.60
   6  -3   6  117.99    7.90
   6   3   6  125.59    8.00
  -6   3  -6  124.69    6.30
   6   3   6  120.69    6.80
  -6   3  -6  125.89    8.50
  -7  -3  -6   44.20    5.80
  -7  -3  -6   41.20    5.80
  -7  -3  -6   44.20    6.00
   7  -3   6   44.80    5.60
   7  -3   6   47.10    6.40
   7  -3   6   37.70    6.40
   7   3   6   43.40    5.90
   7   3   6   48.90    5.60
   7   3   6   38.50    4.50
  -7   3  -6   50.49    5.50
  -7   3  -6   40.00    4.30
   8  -3   6  151.38    9.60
  -8  -3  -6  132.49    8.60
  -8  -3  -6  135.09    9.70
   8  -3   6  120.69    9.50
  -8   3  -6  136.09    9.30
   8   3   6  135.59    9.30
   8   3   6  119.09    8.10
  -8   3  -6  133.39    7.30
   8   3   6  137.99    9.60
  -9  -3  -6   47.00    7.00
   9  -3   6   35.70    5.60
  -9  -3  -6   39.60    5.80
   9  -3   6   32.00    7.40
   9   3   6   44.60    7.10
  -9   3  -6   37.00    4.80
  -9   3  -6   55.99    7.80
   9   3   6   41.40    6.00
   9   3   6   47.20    6.40
 -10  -3  -6    2.30    6.20
  10  -3   6    6.10    7.30
  10  -3   6   -0.10    6.50
 -10  -3  -6    1.80    6.30
  10   3   6   -0.50    5.60
  10   3   6    1.80    6.40
 -10   3  -6    5.80    5.40
  10   3   6    7.10    3.60
 -10   3  -6    3.50    6.70
  11  -3   6   -3.40    6.60
 -11  -3  -6   -6.00    6.50
  11  -3   6    9.00    8.00
 -11  -3  -6    0.80    6.90
 -11   3  -6    3.20    7.20
 -11   3  -6    0.00    5.40
  11   3   6  -10.90    6.00
  11   3   6    1.90    6.90
 -12  -3  -6    8.80    7.60
 -12  -3  -6    6.80    7.40
  12  -3   6   11.40    6.90
  12  -3   6   20.60    8.80
 -12   3  -6   23.60    6.40
 -12   3  -6   18.40    8.10
  12   3   6   14.20    7.60
  12   3   6   12.20    6.80
  14  -4  -6   37.60    8.60
  14  -4  -6   35.30    7.90
 -14  -4   6   18.40    8.30
  14   4  -6   29.40    5.70
  14   4  -6   26.30    6.20
 -14   4   6   30.30    8.20
 -14   4   6   27.10    7.00
 -13  -4   6   81.89    9.50
 -13  -4   6   63.39    8.80
  13  -4  -6   52.19    9.10
  13  -4  -6   72.29    9.00
 -13   4   6   57.69    7.70
  13   4  -6   60.19    8.60
 -13   4   6   82.19    7.70
  13   4  -6   74.99    8.20
 -12  -4   6   30.50    6.00
  12  -4  -6   49.60    8.00
  12  -4  -6   44.40    8.20
 -12  -4   6   48.50    7.90
  12   4  -6   43.90    7.20
 -12   4   6   35.70    8.30
 -12   4   6   51.69    7.90
  12   4  -6   44.60    6.20
 -11  -4   6  107.59    9.30
  11  -4  -6  105.59    8.60
 -11  -4   6  115.99    8.50
  11  -4  -6  102.99    9.10
 -11   4   6  135.89    9.60
 -11   4   6  108.29    9.90
  11   4  -6  123.69    9.20
  11   4  -6  124.39    8.10
  10  -4  -6   -3.90    5.80
 -10  -4   6   -2.60    3.90
  10  -4  -6   -2.40    5.70
 -10  -4   6    8.50    4.20
 -10   4   6    0.30    5.60
 -10   4   6    2.80    6.00
  10   4  -6    8.70    5.40
  10   4  -6    4.60    5.20
  -9  -4   6  236.78   10.50
   9  -4  -6  236.38   11.80
   9  -4  -6  246.38   12.30
  -9  -4   6  247.28   11.90
   9   4  -6  243.38   10.70
   9   4  -6  225.28   11.90
   9   4  -6  245.88   11.00
  -9   4   6  251.07   11.80
  -9   4   6  254.87   10.60
   8  -4  -6   -0.50    4.60
  -8  -4   6   -1.30    3.20
  -8  -4   6    1.00    4.60
  -8  -4   6    1.30    3.10
   8  -4  -6   -0.90    4.80
  -8   4   6   -0.10    4.60
   8   4  -6   -0.90    4.30
   8   4  -6    4.10    3.50
  -8   4   6   -2.10    4.60
   8   4  -6   -3.50    4.00
  -7  -4   6  214.78    8.50
  -7  -4   6  226.88   10.30
  -7  -4   6  228.48    9.40
   7  -4  -6  215.68    9.40
   7  -4  -6  216.88   10.50
   7   4  -6  216.78    9.50
  -7   4   6  228.48   10.10
   7   4  -6  230.28    9.20
   7   4  -6  223.68   10.60
  -7   4   6  238.08   10.50
  -6  -4   6  308.37   11.40
   6  -4  -6  305.67   11.60
  -6  -4   6  295.27   10.10
   6  -4  -6  306.27   11.70
  -6  -4   6  323.07   11.70
   6   4  -6  302.57   11.80
  -6   4   6  296.57   11.40
   6   4  -6  298.97   10.70
  -6   4   6  312.97   10.80
   6   4  -6  301.27   10.10
  -5  -4   6    3.10    2.20
   5  -4  -6    8.20    4.10
   5  -4  -6    1.10    4.20
  -5  -4   6    1.60    2.90
  -5  -4   6    0.10    3.80
  -5  -4   6    2.50    3.20
  -5   4   6    2.90    3.40
   5   4  -6    1.50    3.50
  -5   4   6    4.30    2.80
   5   4  -6    1.40    2.90
   5   4  -6    2.30    2.80
  -4  -4   6  239.88    9.80
  -4  -4   6  259.07    7.60
  -4  -4   6  245.08    9.10
  -4  -4   6  271.47   10.00
  -4  -4   6  254.87    8.30
   4  -4  -6  254.77   10.40
   4  -4  -6  241.98   10.30
  -4   4   6  263.37    8.80
   4   4  -6  261.27    8.30
  -4   4   6  244.58    9.80
   4   4  -6  250.77    9.90
   4   4  -6  260.47    9.40
  -3  -4   6   49.20    4.30
   3  -4  -6   45.10    3.70
   3  -4  -6   43.20    5.20
  -3  -4   6   47.30    4.20
  -3  -4   6   59.39    4.90
  -3  -4   6   38.60    3.30
  -3  -4   6   52.19    5.10
  -3   4   6   46.30    4.80
   3   4  -6   52.69    4.60
   3   4  -6   44.10    3.60
   3   4  -6   40.30    4.50
   3   4  -6   41.40    2.90
  -3   4   6   44.90    3.80
   2  -4  -6   99.89    5.20
  -2  -4   6  108.49    6.50
  -2  -4   6  108.89    6.60
  -2  -4   6   94.49    5.30
  -2  -4   6   97.99    5.50
   2  -4  -6  104.99    6.70
   2   4  -6  100.49    6.20
  -2   4   6  100.19    5.00
  -2   4   6   93.49    5.40
   2   4  -6   89.29    5.90
   2   4  -6  100.39    4.80
   2   4  -6   92.59    6.00
  -2   4   6  107.69    6.50
  -1  -4   6   56.79    5.00
   1  -4  -6   58.99    4.80
   1  -4  -6   49.50    4.20
  -1  -4   6   45.40    4.80
  -1  -4   6   58.39    4.90
  -1  -4   6   56.09    4.30
  -1   4   6   58.29    4.70
   1   4  -6   50.79    3.40
   1   4  -6   53.89    4.20
   1   4  -6   69.29    4.80
   1   4  -6   49.90    4.10
  -1   4   6   57.99    5.10
   0  -4  -6  261.37    9.20
   0  -4   6  268.87    9.20
   0  -4   6  275.97    9.40
   0  -4  -6  246.78   10.10
   0  -4   6  270.17   10.20
   0   4  -6  269.87    8.90
   0   4   6  262.37    8.70
   0   4   6  266.97    9.70
   0   4  -6  267.27    8.20
   0   4  -6  257.87    8.30
   1  -4   6   54.79    5.40
  -1  -4  -6   53.79    5.30
  -1  -4  -6   55.79    3.70
   1  -4   6   51.59    5.00
  -1  -4  -6   57.39    5.00
   1  -4   6   53.89    4.70
   1  -4   6   55.49    3.60
   1   4   6   55.39    5.10
  -1   4  -6   48.30    3.70
  -1   4  -6   60.29    3.90
   1   4   6   56.09    4.60
  -1   4  -6   53.29    3.80
   2  -4   6    3.20    4.10
  -2  -4  -6    2.10    2.60
  -2  -4  -6    0.40    2.30
  -2  -4  -6    0.40    3.80
   2  -4   6   -2.30    3.70
   2  -4   6   -1.60    3.60
   2   4   6   -2.60    3.50
   2   4   6   -3.40    2.20
  -2   4  -6   -0.80    2.80
  -2   4  -6    1.10    2.00
   3  -4   6  137.89    8.60
   3  -4   6  151.58    7.90
   3  -4   6  154.48    8.50
  -3  -4  -6  137.69    6.70
  -3  -4  -6  134.99    8.20
  -3  -4  -6  145.49    8.40
   3   4   6  149.49    8.20
  -3   4  -6  141.59    8.60
   3   4   6  142.49    7.30
  -3   4  -6  137.79    6.50
   4  -4   6   23.90    5.50
  -4  -4  -6   22.70    5.10
  -4  -4  -6   12.50    3.80
  -4  -4  -6   11.80    4.60
   4  -4   6   19.30    4.80
   4  -4   6   22.20    5.30
  -4   4  -6   17.00    3.40
   4   4   6   20.30    3.90
  -4   4  -6   16.80    5.00
   4   4   6   12.70    3.60
   5  -4   6  277.27   11.30
   5  -4   6  302.77   13.00
  -5  -4  -6  283.67   10.80
  -5  -4  -6  297.87   11.60
  -5  -4  -6  289.07   12.00
   5  -4   6  294.57   11.80
   5   4   6  307.67   12.20
  -5   4  -6  302.57    9.50
  -5   4  -6  293.17   11.30
   5   4   6  281.67   11.30
  -6  -4  -6   59.89    5.30
  -6  -4  -6   71.99    6.70
  -6  -4  -6   56.69    7.00
   6  -4   6   60.49    6.70
   6  -4   6   66.29    7.40
   6  -4   6   64.19    7.70
  -6   4  -6   60.69    6.10
  -6   4  -6   62.09    4.80
   6   4   6   63.99    7.10
   6   4   6   61.49    6.50
   7  -4   6   77.99    8.30
   7  -4   6   62.39    7.00
  -7  -4  -6   76.39    7.20
  -7  -4  -6   73.99    6.80
  -7   4  -6   83.49    8.20
   7   4   6   71.19    7.00
   7   4   6   57.89    7.00
  -7   4  -6   62.19    5.00
   7   4   6   67.49    7.50
   8  -4   6  135.69    9.70
  -8  -4  -6  134.79   10.10
   8  -4   6  121.39   10.00
  -8  -4  -6  120.79    8.90
   8   4   6  112.29    7.50
  -8   4  -6  118.29    9.70
   8   4   6  117.19    9.10
  -9  -4  -6    2.80    6.80
  -9  -4  -6   12.80    6.40
   9  -4   6    4.90    7.20
   9  -4   6    3.20    5.50
   9   4   6   16.00    6.90
   9   4   6   10.00    6.20
  -9   4  -6   12.30    7.30
 -10  -4  -6   32.10    7.60
 -10  -4  -6   44.90    8.40
  10  -4   6   36.00    8.30
  10  -4   6   38.90    9.40
 -10   4  -6   45.60    8.70
  10   4   6   46.10    7.50
 -10   4  -6   44.80    7.60
  10   4   6   22.30    8.00
 -11  -4  -6   17.80    7.60
 -11  -4  -6   15.90    8.10
  11  -4   6   10.20    5.70
  11  -4   6   10.20    9.20
 -11   4  -6    8.70    5.90
  11   4   6   19.10    6.90
 -11   4  -6    8.90    6.90
  11   4   6   19.10    8.20
 -12  -5   6   14.70    8.00
  12  -5  -6   -5.40    7.10
  12  -5  -6   -4.40    7.40
 -12  -5   6   -1.50    5.20
  12   5  -6    5.40    7.10
 -12   5   6    0.20    5.40
 -12   5   6    1.20    8.00
  12   5  -6   -2.60    7.00
 -11  -5   6    0.80    7.20
 -11  -5   6    5.60    7.00
  11  -5  -6   -1.30    7.10
  11  -5  -6   -0.60    7.10
  11   5  -6    0.90    6.50
  11   5  -6    1.60    4.50
 -11   5   6   -3.20    7.30
 -11   5   6   -2.20    7.30
  10  -5  -6   16.50    7.30
  10  -5  -6   13.00    7.00
 -10  -5   6   15.20    7.10
 -10  -5   6    7.90    6.90
 -10   5   6   12.90    6.90
 -10   5   6    6.60    5.10
  10   5  -6   12.70    6.70
  10   5  -6    6.80    6.00
  -9  -5   6    7.70    4.70
   9  -5  -6   -2.80    6.00
   9  -5  -6    5.10    6.60
  -9  -5   6    6.20    6.40
   9   5  -6    5.60    5.50
  -9   5   6    6.20    6.20
  -9   5   6    8.50    6.70
   9   5  -6    3.70    5.60
  -8  -5   6   16.90    6.40
   8  -5  -6   16.10    6.20
  -8  -5   6   24.90    6.60
   8  -5  -6   16.60    6.70
   8   5  -6   25.80    5.70
  -8   5   6   32.60    6.90
   8   5  -6   18.40    5.90
  -8   5   6   29.10    6.30
   7  -5  -6    3.30    5.90
   7  -5  -6    5.70    6.20
  -7  -5   6    2.60    5.50
  -7  -5   6   -0.30    4.00
   7   5  -6   -0.50    5.00
   7   5  -6   -0.30    4.50
   7   5  -6    0.20    5.10
  -7   5   6    0.80    5.60
  -7   5   6   -4.20    4.80
   6  -5  -6    0.90    5.50
  -6  -5   6   -1.10    5.10
  -6  -5   6    4.30    3.60
   6  -5  -6    0.70    5.30
  -6  -5   6   -5.40    4.90
  -6   5   6   -1.40    4.50
   6   5  -6    4.40    4.00
  -6   5   6   -0.40    5.00
   6   5  -6    0.10    4.80
   6   5  -6   -8.00    4.50
  -5  -5   6   49.99    5.20
  -5  -5   6   46.50    6.30
   5  -5  -6   43.40    6.40
  -5  -5   6   35.40    5.90
   5  -5  -6   43.70    5.50
   5   5  -6   45.80    5.00
  -5   5   6   40.30    6.10
  -5   5   6   38.50    5.00
   5   5  -6   43.10    5.70
   5   5  -6   52.99    6.10
  -4  -5   6    2.10    4.60
   4  -5  -6   -2.70    4.80
  -4  -5   6    3.50    3.10
  -4  -5   6   -0.10    3.60
  -4  -5   6    2.60    4.60
   4  -5  -6    1.90    5.00
   4   5  -6    2.70    4.20
   4   5  -6    3.10    4.10
   4   5  -6    1.80    3.20
  -4   5   6    2.50    4.50
  -4   5   6   -0.40    3.30
  -3  -5   6   21.80    3.60
   3  -5  -6   28.00    5.60
  -3  -5   6   15.30    4.30
  -3  -5   6   29.20    5.10
  -3  -5   6   28.50    4.30
  -3  -5   6   28.60    4.30
   3   5  -6   26.80    3.90
   3   5  -6   25.80    4.60
  -3   5   6   27.70    4.10
   3   5  -6   21.90    4.50
   2  -5  -6    4.40    4.70
  -2  -5   6    4.80    3.30
   2  -5  -6    0.40    3.00
  -2  -5   6    7.60    4.30
  -2  -5   6   -1.40    3.60
  -2  -5   6    3.90    2.90
   2   5  -6    2.00    3.40
   2   5  -6    4.40    2.60
   2   5  -6    3.60    2.90
   2   5  -6    4.60    3.60
   2   5  -6    2.90    3.90
  -2   5   6    4.60    3.00
  -2   5   6   -0.60    3.00
   1  -5  -6    6.70    3.70
  -1  -5   6    8.90    4.50
  -1  -5   6   16.90    4.70
  -1  -5   6   12.70    4.00
  -1  -5   6    5.70    4.20
   1  -5  -6   19.80    4.20
   1   5  -6   14.60    3.60
  -1   5   6   15.80    4.20
  -1   5   6   10.20    4.70
   1   5  -6   15.60    3.80
   1   5  -6   13.00    3.90
   1   5  -6    6.10    3.50
   0  -5   6   30.30    5.30
   0  -5  -6   24.70    4.50
   0  -5   6   30.00    5.00
   0  -5  -6   18.30    5.30
   0  -5   6   35.80    5.60
   0   5   6   22.40    4.20
   0   5  -6   30.70    3.80
   0   5   6   28.80    4.40
   0   5  -6   29.20    3.70
   1  -5   6    1.50    4.60
  -1  -5  -6   -1.10    4.80
   1  -5   6    0.90    4.30
  -1  -5  -6    4.40    4.40
   1  -5   6    7.40    3.80
   1   5   6    5.70    4.60
  -1   5  -6   -0.30    2.70
  -1   5  -6    9.10    2.70
   1   5   6    4.20    3.30
   2  -5   6   43.90    6.20
   2  -5   6   34.00    6.20
   2  -5   6   48.40    6.30
  -2  -5  -6   35.20    5.80
  -2  -5  -6   30.60    4.80
  -2   5  -6   42.80    4.50
  -2   5  -6   52.09    6.70
   2   5   6   41.40    4.70
   2   5   6   39.00    6.30
   3  -5   6   20.10    5.80
   3  -5   6   19.80    4.60
   3  -5   6   18.20    5.60
  -3  -5  -6   14.50    5.50
  -3  -5  -6   17.80    5.50
  -3   5  -6   14.50    3.70
  -3   5  -6   24.10    5.90
   3   5   6   25.80    5.50
   3   5   6   16.80    5.80
   4  -5   6  -16.00    5.40
  -4  -5  -6   -2.20    3.60
   4  -5   6   -0.40    5.40
  -4  -5  -6    0.20    5.30
   4  -5   6   -2.00    5.50
  -4   5  -6    3.20    5.50
  -4   5  -6   -2.10    3.20
   4   5   6   -1.60    3.50
   4   5   6   -2.90    5.50
   5  -5   6   -0.60    5.60
  -5  -5  -6   -2.10    4.20
  -5  -5  -6    0.10    3.90
   5  -5   6    1.20    6.30
  -5  -5  -6    1.40    5.80
   5  -5   6    3.00    6.00
   5   5   6    1.60    5.90
  -5   5  -6    1.80    5.90
   5   5   6    5.10    5.40
   6  -5   6   -3.00    6.50
  -6  -5  -6    5.00    5.90
   6  -5   6    7.40    5.20
  -6  -5  -6    4.20    4.90
  -6  -5  -6   -3.60    6.40
   6   5   6    2.00    3.90
  -6   5  -6    1.60    4.50
   6   5   6    4.40    6.30
   7  -5   6   -8.90    4.60
   7  -5   6   -1.00    7.50
  -7  -5  -6   11.40    7.30
  -7  -5  -6   12.80    5.70
   7   5   6   11.50    5.00
   7   5   6   10.30    6.30
  -7   5  -6   11.80    5.40
   8  -5   6    9.00    7.50
   8  -5   6    6.70    8.40
  -8  -5  -6    0.10    5.10
  -8  -5  -6   -6.10    5.90
  -8   5  -6   -3.00    7.20
   8   5   6   -2.20    5.00
  -8   5  -6    0.90    4.90
   8   5   6    2.50    6.50
  -9  -5  -6    8.00    7.70
  -9  -5  -6    1.80    6.90
   9  -5   6    1.40    8.90
   9  -5   6   15.70    8.20
  -9   5  -6   10.70    8.30
  -9   5  -6    5.00    7.50
   9   5   6    6.60    6.90
   9   5   6   -3.50    7.40
  10  -6  -6   -0.10    5.50
 -10  -6   6    3.30    7.80
 -10  -6   6    1.40    5.40
  10  -6  -6    0.10    7.40
 -10   6   6    9.50    8.00
  10   6  -6   -0.40    6.50
 -10   6   6   -3.00    7.30
  10   6  -6   -2.50    7.40
  -9  -6   6   11.70    7.60
   9  -6  -6   23.00    8.60
  -9  -6   6   22.10    8.10
   9  -6  -6   14.80    5.70
  -9   6   6   23.60    7.40
  -9   6   6   27.50    8.50
   9   6  -6   35.80    6.20
   9   6  -6   13.00    6.50
  -8  -6   6    7.00    7.20
   8  -6  -6   18.10    5.50
   8  -6  -6    7.90    8.00
  -8  -6   6   13.70    7.30
  -8   6   6   17.60    5.60
   8   6  -6   18.80    6.30
  -8   6   6   21.30    6.70
   8   6  -6   27.60    7.30
   7  -6  -6    3.00    7.10
  -7  -6   6   12.70    5.10
  -7  -6   6   18.00    7.00
   7  -6  -6   15.60    6.80
  -7   6   6    1.40    4.80
  -7   6   6   10.10    5.90
   7   6  -6    7.90    4.60
   7   6  -6    7.90    5.50
  -6  -6   6   54.49    8.00
   6  -6  -6   28.00    7.30
  -6  -6   6   50.29    7.50
   6  -6  -6   39.40    8.10
  -6   6   6   39.50    6.00
   6   6  -6   38.10    5.50
   5  -6  -6    7.30    6.70
   5  -6  -6    9.80    6.50
  -5  -6   6    7.00    5.90
  -5  -6   6    7.60    6.10
  -5   6   6    4.70    6.10
   5   6  -6    7.60    5.70
   4  -6  -6   67.89    8.00
  -4  -6   6   76.69    7.70
  -4  -6   6   72.29    7.70
   4   6  -6   63.09    6.90
   4   6  -6   48.60    5.50
  -4   6   6   52.99    7.00
  -3  -6   6   67.79    6.60
   3  -6  -6   46.40    6.30
  -3  -6   6   61.39    7.00
  -3  -6   6   51.59    6.80
  -3   6   6   69.89    7.20
   3   6  -6   71.69    5.90
  -3   6   6   54.49    7.20
   3   6  -6   42.90    6.00
   3   6  -6   62.69    6.60
  -2  -6   6   28.50    5.70
  -2  -6   6   34.10    4.60
   2  -6  -6   29.70    6.80
  -2  -6   6   24.30    5.70
   2   6  -6   18.20    4.00
   2   6  -6   30.50    4.30
  -2   6   6   28.00    5.80
  -2   6   6   20.40    6.10
  -1  -6   6   35.70    6.10
  -1  -6   6   33.00    6.10
  -1  -6   6   33.30    5.40
   1  -6  -6   29.80    7.00
   1   6  -6   38.50    5.50
  -1   6   6   28.30    6.40
   1   6  -6   33.80    5.00
  -1   6   6   31.60    5.50
   0  -6   6   41.70    6.60
   0  -6   6   52.79    6.90
   0  -6   6   42.20    6.20
   0  -6  -6   54.99    6.10
   0  -6  -6   58.49    7.90
   0   6   6   56.79    7.10
   0   6  -6   54.09    5.70
   0   6  -6   40.00    6.90
  -1  -6  -6  105.79    9.10
  -1  -6  -6   95.89    7.90
   1  -6   6   86.19    7.30
   1  -6   6  110.09    8.70
   1  -6   6  100.89    8.40
  -1   6  -6   81.69    6.10
   1   6   6  111.19    7.80
  -1   6  -6  115.59    9.00
  -2  -6  -6   45.50    7.60
   2  -6   6   49.60    7.60
   2  -6   6   49.40    7.40
  -2  -6  -6   51.79    7.20
   2  -6   6   57.99    7.50
   2   6   6   50.19    7.20
  -2   6  -6   43.60    7.50
   2   6   6   60.39    8.20
   3  -6   6   51.29    8.20
   3  -6   6   65.39    6.70
  -3  -6  -6   60.09    7.90
  -3  -6  -6   56.49    8.10
   3  -6   6   48.10    6.60
   3   6   6   50.49    6.70
   3   6   6   72.89    7.90
  -3   6  -6   46.40    8.00
  -4  -6  -6   38.90    7.70
   4  -6   6   33.80    7.90
   4  -6   6   16.70    5.60
   4  -6   6   18.50    7.00
  -4  -6  -6   23.90    7.30
  -4   6  -6   21.40    5.70
   4   6   6   21.50    5.20
   4   6   6   26.20    7.60
   5  -6   6   17.10    7.90
  -5  -6  -6   34.10    6.40
  -5  -6  -6   20.60    7.30
   5  -6   6   22.20    6.40
  -5   6  -6   30.00    7.90
   5   6   6   44.20    7.50
   5   6   6   33.30    8.00
   6  -6   6   62.19   10.40
  -6  -6  -6   69.29    9.50
   6  -6   6   88.29   10.60
   6   6   6   65.39    8.50
  -6   6  -6   66.09    9.60
   6   6   6   93.79   10.20
  -6   6  -6   59.19    9.00
   7  -6   6   10.90    6.40
   7  -6   6   28.30    9.60
  -7  -6  -6   21.20    8.60
  -7   6  -6    8.70    7.70
   7   6   6   12.20    8.20
  -7   6  -6   11.20    6.10
   7   6   6   11.10    7.10
  -6  -7   6    5.20    7.30
  -6  -7   6   -5.70    6.70
   6  -7  -6    3.40    7.50
   6   7  -6    6.00    6.90
  -6   7   6    5.20    7.40
   5  -7  -6   12.90    7.60
  -5  -7   6    6.70    6.90
  -5  -7   6    6.90    4.70
   5   7  -6   -2.10    6.10
  -5   7   6    5.80    7.00
  -5   7   6  -11.80    6.60
   5   7  -6    3.90    6.50
  -4  -7   6   -2.80    6.10
  -4  -7   6  -13.40    6.00
   4  -7  -6   -2.00    7.20
  -4   7   6    1.60    6.50
  -4   7   6   -5.10    4.80
   4   7  -6    2.10    5.90
   4   7  -6    4.20    6.00
   3  -7  -6   -9.40    6.80
  -3  -7   6    0.80    5.80
   3   7  -6   10.40    5.80
   3   7  -6    8.50    4.30
  -3   7   6    9.40    6.40
  -3   7   6   -2.80    6.60
  -2  -7   6    7.00    5.90
   2  -7  -6   20.00    7.80
  -2   7   6   24.10    7.50
   2   7  -6   11.80    6.20
   2   7  -6   12.00    5.80
   1  -7  -6    0.30    7.10
  -1  -7   6   -2.80    9.40
  -1  -7   6    1.80    5.90
   1   7  -6    8.00    6.20
   1   7  -6    1.40    5.40
  -1   7   6    3.00    7.00
   0  -7   6   -4.80    6.20
   0  -7  -6   -1.20    5.20
   0  -7   6    3.10    4.30
   0   7  -6   10.90    6.00
   0   7  -6   12.30    6.50
   0   7   6   -4.50    4.40
  -1  -7  -6   17.80    8.00
   1  -7   6    8.80    6.40
   1  -7   6   18.10    7.00
   1  -7   6    7.10    5.10
   1   7   6    6.20    5.10
   1   7   6   12.60    7.90
  -1   7  -6    1.60    6.00
  -1   7  -6    8.30    7.00
  -2  -7  -6   11.40    8.40
   2  -7   6   19.40    7.80
   2  -7   6   11.30    7.30
  -2  -7  -6   21.20    8.10
   2   7   6   24.20    8.50
   2   7   6    6.40    5.30
  -2   7  -6   10.70    6.70
  -2   7  -6   24.40    7.60
   3  -7   6    6.20    5.60
  -3  -7  -6    7.20    8.00
   3  -7   6   -0.50    7.60
  -3  -7  -6   -4.90    6.80
   3   7   6   11.20    8.10
   3   7   6   -6.80    6.90
  -3   7  -6    3.30    5.10
  -3   7  -6    7.60    7.60
 -16   0   7   -1.90    5.70
  16   0  -7   -3.80    7.70
 -15   0   7    1.60    7.60
  15   0  -7   -0.20    5.10
 -15   0   7    4.80    5.40
 -14   0   7    3.20    7.00
  14   0  -7    4.10    6.60
  14   0  -7    1.40    5.20
 -14   0   7    4.90    4.90
 -13   0   7   -1.40    6.30
 -13   0   7    2.00    4.40
  13   0  -7   -0.30    3.60
  13   0  -7   -1.50    4.10
 -12   0   7    0.50    3.90
  12   0  -7   -1.80    3.00
 -12   0   7   -4.90    5.60
  12   0  -7   -1.80    5.10
 -12   0   7   -0.50    3.50
  12   0  -7    1.90    4.60
 -11   0   7    1.30    3.40
  11   0  -7   -0.50    3.00
 -11   0   7    1.80    5.10
 -11   0   7    2.50    3.50
  11   0  -7    3.60    4.70
  11   0  -7   -1.60    2.90
 -10   0   7   -2.30    3.10
 -10   0   7   -4.10    2.80
  10   0  -7    0.40    2.80
  10   0  -7    3.30    4.00
 -10   0   7   -0.90    4.50
  10   0  -7   -2.00    3.90
  -9   0   7   -0.50    4.10
   9   0  -7    3.90    3.60
  -9   0   7    3.70    3.20
   9   0  -7   -3.50    3.60
   9   0  -7    1.40    2.00
  -9   0   7    2.40    2.80
   8   0  -7    2.50    3.20
  -8   0   7   -2.50    3.70
   8   0  -7    0.10    1.50
   8   0  -7    0.90    2.40
  -8   0   7   -0.30    2.30
  -8   0   7    5.00    3.00
   8   0  -7   -3.70    2.30
   7   0  -7    1.00    1.00
   7   0  -7   -0.60    2.20
  -7   0   7    5.50    2.10
  -7   0   7    3.20    2.50
  -7   0   7    8.40    2.90
   7   0  -7   -1.80    2.90
   7   0  -7    0.80    2.60
  -6   0   7   -1.80    1.60
   6   0  -7    1.10    2.00
  -6   0   7    1.00    2.50
  -6   0   7   -0.60    2.80
   6   0  -7   -2.00    2.10
   6   0  -7   -2.00    2.00
  -5   0   7    0.80    2.40
   5   0  -7   -0.80    2.30
   5   0  -7    1.70    1.80
   5   0  -7    0.30    1.00
  -5   0   7    0.80    2.50
  -5   0   7    0.60    1.50
   5   0  -7    0.00    1.90
  -4   0   7    0.10    1.40
  -4   0   7    1.40    1.60
   4   0  -7   -3.80    1.80
   4   0  -7    0.60    1.40
  -4   0   7   -1.70    1.60
   4   0  -7   -1.70    1.30
   4   0  -7   -0.10    1.50
  -3   0   7   -1.50    1.90
   3   0  -7    0.40    1.90
   3   0  -7   -1.80    1.20
  -3   0   7   -1.90    1.20
   3   0  -7   -0.50    1.00
   3   0  -7   -0.10    1.30
  -3   0   7   -0.10    0.80
  -3   0   7   -1.10    2.10
   2   0  -7    2.40    1.80
  -2   0   7    2.50    2.00
  -2   0   7    0.80    0.80
   2   0  -7   -2.40    1.60
   2   0  -7   -0.60    1.30
   1   0  -7   -0.50    0.90
   1   0  -7   -2.60    1.40
  -1   0   7   -1.90    1.60
  -1   0   7    1.00    1.40
  -1   0   7    0.30    1.10
   1   0  -7   -0.50    1.10
  -1   0   7   -1.70    1.80
   1   0  -7    0.30    1.60
   0   0   7   -1.10    1.20
   0   0  -7    0.60    1.50
   0   0  -7    0.00    1.60
   0   0   7   -0.30    1.10
   0   0   7    0.70    1.30
   0   0  -7    0.90    1.10
   0   0   7    0.80    1.30
   0   0  -7   -0.50    1.00
  -1   0  -7    0.30    1.00
   1   0   7   -1.20    1.00
   1   0   7    0.40    1.00
  -1   0  -7   -1.30    1.60
   1   0   7    0.10    1.80
   1   0   7   -0.90    1.60
   1   0   7    0.40    0.90
  -1   0  -7   -2.40    1.60
  -2   0  -7   -0.90    1.70
   2   0   7   -0.50    1.00
  -2   0  -7   -1.20    0.90
  -2   0  -7   -0.30    1.80
   2   0   7   -1.20    1.50
   2   0   7   -0.20    1.40
   2   0   7   -0.10    1.10
   3   0   7    1.90    2.20
   3   0   7    2.60    1.80
   3   0   7   -1.50    1.40
   3   0   7   -1.20    1.50
  -3   0  -7    0.70    1.30
  -3   0  -7    0.40    2.10
   3   0   7    2.60    1.70
   4   0   7   -1.50    1.70
  -4   0  -7   -1.40    2.30
  -4   0  -7    0.30    2.00
   4   0   7    1.00    2.40
  -4   0  -7    0.00    1.80
   4   0   7    1.00    2.00
   4   0   7   -0.20    1.20
   4   0   7    1.30    2.80
   5   0   7   -1.90    1.50
   5   0   7   -2.20    2.50
  -5   0  -7    1.00    2.80
   5   0   7    0.60    2.30
   5   0   7   -0.20    3.10
  -5   0  -7   -0.40    2.10
  -5   0  -7   -0.40    2.20
   5   0   7   -1.00    1.80
   6   0   7   -4.20    2.70
  -6   0  -7    2.10    2.50
   6   0   7    0.60    2.40
   6   0   7   -1.60    1.90
   6   0   7   -1.40    2.90
  -6   0  -7   -2.60    2.10
  -7   0  -7   -1.90    2.70
   7   0   7   -0.10    3.30
   7   0   7   -2.30    3.90
   7   0   7    5.80    3.50
  -7   0  -7    2.50    2.60
  -8   0  -7    1.50    3.20
   8   0   7   -2.80    3.50
   8   0   7   -1.20    3.40
  -8   0  -7   -0.40    3.50
  -8   0  -7    3.30    3.00
   8   0   7   -1.70    4.30
  -9   0  -7   -0.50    3.10
   9   0   7    2.40    3.60
  -9   0  -7    0.90    4.00
  -9   0  -7    3.80    4.30
   9   0   7    1.80    3.40
   9   0   7    4.50    4.30
  10   0   7    6.90    5.40
 -10   0  -7   -5.40    4.20
 -10   0  -7   -1.10    5.30
  10   0   7   -4.40    4.40
  10   0   7   -5.50    3.60
  11   0   7    1.80    6.00
  11   0   7    0.00    5.20
 -11   0  -7   -8.10    5.60
 -11   0  -7    2.10    4.80
  11   0   7   -2.60    6.10
  12   0   7    8.50    6.30
  12   0   7    1.90    6.50
 -12   0  -7   -4.30    6.10
  12   0   7    0.90    4.80
  13   0   7    6.20    7.20
 -13   0  -7    0.20    4.80
  13   0   7    5.00    5.30
  13   0   7   -3.10    6.20
 -16  -1   7   45.40    9.10
 -16  -1   7   36.70    6.20
  16  -1  -7   27.70    9.10
  16   1  -7   42.10    9.00
 -16   1   7   27.80    7.20
 -15  -1   7   -3.60    5.90
 -15  -1   7   -4.40    7.10
  15  -1  -7   -1.50    7.40
  15   1  -7   12.60    7.40
 -15   1   7   -9.50    7.20
 -14  -1   7   34.30    7.70
 -14  -1   7   28.60    6.50
  14  -1  -7   37.70    8.00
 -14   1   7   47.20    8.30
  14   1  -7   33.90    7.30
 -13  -1   7    1.80    6.20
 -13  -1   7    7.80    5.10
  13  -1  -7   -4.60    4.50
  13  -1  -7    2.10    6.20
 -13   1   7   -3.20    6.30
 -13   1   7   -0.40    4.20
  13   1  -7   -1.70    3.80
  13   1  -7    5.10    4.30
  13   1  -7   -1.20    5.10
  12  -1  -7  132.09    9.40
  12  -1  -7  140.89    8.60
 -12  -1   7  135.79    7.80
 -12  -1   7  134.79    8.90
 -12  -1   7  128.79    9.30
 -12   1   7  148.89    8.10
 -12   1   7  137.69    8.40
  12   1  -7  141.69    7.80
  12   1  -7  144.19    9.80
 -12   1   7  130.39    9.40
  12   1  -7  150.88    9.90
 -11  -1   7   64.49    7.00
 -11  -1   7   69.19    6.20
  11  -1  -7   72.69    7.00
 -11  -1   7   68.79    5.40
  11  -1  -7   63.59    5.60
 -11   1   7   79.39    7.50
 -11   1   7   64.59    4.80
  11   1  -7   58.89    6.30
  11   1  -7   64.49    5.80
  11   1  -7   55.19    5.10
 -11   1   7   66.89    5.80
  10  -1  -7  112.39    7.50
  10  -1  -7  108.19    6.20
 -10  -1   7   95.49    6.70
  10  -1  -7  106.79    5.20
  10  -1  -7  100.69    6.60
 -10  -1   7  100.79    6.90
 -10  -1   7   94.89    6.30
 -10  -1   7  101.09    5.80
 -10   1   7  102.89    6.90
 -10   1   7  104.79    7.50
 -10   1   7   95.79    5.90
  10   1  -7  104.69    6.50
  10   1  -7  105.99    7.40
  10   1  -7  102.99    8.10
  -9  -1   7    3.50    4.20
   9  -1  -7    1.70    2.30
   9  -1  -7    3.00    3.70
   9  -1  -7    7.70    2.50
  -9  -1   7    5.60    3.30
  -9  -1   7    3.30    2.80
  -9  -1   7    0.70    2.90
   9  -1  -7    9.30    3.20
   9   1  -7    2.70    3.90
   9   1  -7    4.50    3.60
   9   1  -7    0.80    2.90
  -9   1   7    4.10    2.30
  -9   1   7    0.20    3.30
  -9   1   7    2.40    4.00
   8  -1  -7    1.80    2.20
   8  -1  -7    3.10    2.00
  -8  -1   7    5.30    2.90
   8  -1  -7    2.70    3.30
   8  -1  -7    4.30    3.50
  -8  -1   7    2.20    2.60
  -8  -1   7    4.40    2.10
  -8  -1   7   -6.60    3.60
  -8   1   7   -2.60    3.70
  -8   1   7    6.00    3.30
   8   1  -7    5.10    2.70
   8   1  -7    0.80    2.80
   8   1  -7    3.50    3.20
  -8   1   7    1.40    2.20
  -7  -1   7  474.15   12.90
  -7  -1   7  461.15   12.20
   7  -1  -7  457.95   13.40
   7  -1  -7  466.85   11.30
   7  -1  -7  463.55   12.80
  -7  -1   7  450.75   12.00
  -7  -1   7  472.65   12.20
   7  -1  -7  458.95   11.40
   7   1  -7  460.05   13.10
  -7   1   7  460.65   10.80
   7   1  -7  462.75   12.00
   7   1  -7  456.15   12.10
  -7   1   7  470.85   12.60
  -7   1   7  457.05   12.60
  -6  -1   7   -0.10    2.20
  -6  -1   7   -1.80    2.30
   6  -1  -7    1.50    2.80
   6  -1  -7   -1.40    1.20
  -6  -1   7   -3.60    2.80
   6  -1  -7    1.20    1.90
   6  -1  -7    2.00    1.80
   6  -1  -7   -0.80    2.00
  -6   1   7    3.50    3.00
  -6   1   7    0.70    2.00
   6   1  -7   -0.50    2.30
   6   1  -7   -2.90    2.10
  -6   1   7   -2.60    1.30
   6   1  -7   -0.40    2.80
  -5  -1   7  550.34   13.20
   5  -1  -7  535.35   11.50
   5  -1  -7  554.24   14.20
   5  -1  -7  556.74   13.40
  -5  -1   7  521.25   13.00
  -5  -1   7  519.45   13.50
   5  -1  -7  542.75   12.60
   5   1  -7  557.44   13.10
   5   1  -7  560.34   12.50
  -5   1   7  530.55   11.60
  -5   1   7  525.95   13.20
  -5   1   7  540.25   13.50
   5   1  -7  547.45   13.90
  -4  -1   7    7.50    2.20
   4  -1  -7   10.80    2.60
   4  -1  -7    9.10    2.00
  -4  -1   7   12.40    2.50
   4  -1  -7   10.60    1.30
  -4  -1   7    8.80    1.90
   4   1  -7   10.20    1.60
   4   1  -7   11.70    2.00
  -4   1   7   12.10    2.60
  -4   1   7    9.90    1.30
  -4   1   7    7.80    2.60
   4   1  -7    9.70    2.10
   4   1  -7    9.70    2.20
  -3  -1   7   25.10    2.40
   3  -1  -7   22.50    2.40
   3  -1  -7   18.00    2.30
  -3  -1   7   22.40    2.70
   3  -1  -7   23.90    2.50
   3  -1  -7   20.60    1.60
  -3  -1   7   21.50    2.10
   3   1  -7   21.30    2.80
   3   1  -7   22.00    2.10
  -3   1   7   20.30    1.60
   3   1  -7   21.60    1.60
  -3   1   7   14.90    2.60
   3   1  -7   22.30    2.60
  -3   1   7   19.20    2.40
   2  -1  -7  448.16   10.70
  -2  -1   7  436.76   10.80
  -2  -1   7  450.05   11.20
   2  -1  -7  444.46   11.40
   2  -1  -7  452.45   10.80
  -2  -1   7  446.16    9.00
  -2  -1   7  444.76   10.80
   2  -1  -7  451.75   10.00
   2   1  -7  468.65   10.70
  -2   1   7  446.16   10.50
  -2   1   7  448.76   11.20
   2   1  -7  451.05   11.00
  -2   1   7  437.06   10.20
   2   1  -7  427.26    9.10
   2   1  -7  440.66   10.50
  -1  -1   7   10.80    1.90
  -1  -1   7    7.50    1.70
   1  -1  -7    6.00    1.70
   1  -1  -7    9.40    1.60
   1  -1  -7    7.90    2.00
  -1  -1   7    7.80    1.20
  -1  -1   7    7.30    2.10
  -1  -1   7    7.60    1.80
  -1   1   7    9.30    1.70
   1   1  -7    8.00    1.60
   1   1  -7    7.20    1.50
  -1   1   7    7.10    2.30
   1   1  -7    8.30    1.80
   0  -1  -7  368.26    9.30
   0  -1   7  365.16    9.40
   0  -1   7  357.26    9.10
   0  -1   7  359.06    8.40
   0  -1   7  368.56    9.50
   0  -1  -7  353.16    8.80
   0  -1  -7  362.36    9.00
   0   1   7  363.36    8.70
   0   1  -7  356.86    8.80
   0   1  -7  363.26    7.40
   0   1   7  369.06    9.40
   0   1  -7  353.46    8.90
   0   1   7  361.16    9.00
   0   1  -7  358.06    8.90
  -1  -1  -7  197.68    6.40
   1  -1   7  205.08    6.00
  -1  -1  -7  206.98    6.00
   1  -1   7  203.58    5.80
  -1  -1  -7  201.28    6.10
   1  -1   7  196.78    6.50
   1  -1   7  212.68    6.90
   1   1   7  209.38    6.00
  -1   1  -7  207.98    5.60
  -1   1  -7  205.18    6.00
   1   1   7  206.08    6.10
  -1   1  -7  206.88    6.10
   1   1   7  204.08    5.60
   2  -1   7  717.33   16.90
  -2  -1  -7  683.53   16.20
   2  -1   7  717.73   16.20
   2  -1   7  748.03   15.60
  -2  -1  -7  746.03   16.60
  -2  -1  -7  744.23   16.00
   2  -1   7  724.83   14.70
   2  -1   7  737.93   16.70
  -2   1  -7  727.73   16.30
   2   1   7  722.83   15.40
   2   1   7  740.23   16.10
   2   1   7  722.63   16.00
   2   1   7  729.03   16.50
  -2   1  -7  743.23   15.80
  -3  -1  -7   69.29    4.30
  -3  -1  -7   70.79    3.00
   3  -1   7   75.99    4.50
   3  -1   7   70.09    4.40
   3  -1   7   68.79    3.00
  -3  -1  -7   75.39    3.90
  -3  -1  -7   75.29    3.90
   3  -1   7   66.89    4.50
   3  -1   7   71.99    2.80
  -3   1  -7   71.69    3.50
   3   1   7   79.09    3.30
   3   1   7   74.59    4.80
  -3   1  -7   77.99    4.40
   3   1   7   73.29    3.70
   3   1   7   66.89    3.90
   4  -1   7  147.79    6.00
   4  -1   7  130.39    3.80
   4  -1   7  133.09    6.50
  -4  -1  -7  131.49    5.50
   4  -1   7  130.59    5.70
  -4  -1  -7  129.29    4.40
  -4  -1  -7  134.69    5.10
  -4  -1  -7  145.19    6.10
  -4   1  -7  137.49    4.80
  -4   1  -7  142.49    5.90
   4   1   7  136.99    5.60
  -4   1  -7  131.49    6.00
   4   1   7  138.59    5.60
   4   1   7  131.69    4.10
  -5  -1  -7  180.68    7.50
   5  -1   7  184.18    8.00
   5  -1   7  169.28    4.40
  -5  -1  -7  172.88    5.60
   5  -1   7  191.08    7.10
   5  -1   7  192.38    8.00
   5   1   7  194.88    7.10
   5   1   7  185.78    5.30
  -5   1  -7  190.58    7.20
   5   1   7  177.28    6.80
  -5   1  -7  192.18    7.40
   5   1   7  177.68    6.70
  -5   1  -7  183.28    5.90
  -6  -1  -7   79.89    5.60
  -6  -1  -7   78.99    4.40
   6  -1   7   87.69    5.50
   6  -1   7   89.79    6.20
  -6  -1  -7   89.89    6.00
   6  -1   7   86.29    5.90
   6  -1   7   81.79    5.30
   6  -1   7   92.89    6.20
  -6   1  -7   79.49    4.90
   6   1   7   81.29    5.60
  -6   1  -7   82.29    4.80
   6   1   7   87.59    5.90
  -6   1  -7   93.79    6.10
   6   1   7   95.09    5.60
  -7  -1  -7  483.55   14.30
  -7  -1  -7  476.05   13.50
   7  -1   7  467.95   13.80
   7  -1   7  488.85   14.40
   7  -1   7  478.95   13.50
   7  -1   7  483.45   14.10
   7  -1   7  490.75   13.10
   7   1   7  450.25   13.30
   7   1   7  482.25   13.60
   7   1   7  473.05   12.80
   7   1   7  471.55   12.80
  -7   1  -7  490.95   13.60
  -7   1  -7  500.55   14.00
   8  -1   7   47.60    5.00
   8  -1   7   46.40    5.00
  -8  -1  -7   53.09    5.90
   8  -1   7   56.19    5.50
   8  -1   7   53.99    5.70
  -8  -1  -7   53.99    5.90
   8   1   7   56.29    4.70
   8   1   7   48.20    4.30
  -8   1  -7   59.89    5.80
   8   1   7   45.80    4.70
  -8   1  -7   49.70    5.40
   8   1   7   51.99    4.80
  -9  -1  -7   31.90    6.00
   9  -1   7   30.60    5.50
   9  -1   7   49.90    5.60
  -9  -1  -7   44.00    5.90
   9  -1   7   42.70    5.50
   9  -1   7   38.20    6.50
  -9   1  -7   46.20    4.90
  -9   1  -7   47.70    5.60
   9   1   7   46.00    4.90
   9   1   7   44.80    5.90
  -9   1  -7   50.49    5.70
 -10  -1  -7   54.79    6.70
 -10  -1  -7   48.40    6.90
  10  -1   7   53.89    6.10
  10  -1   7   56.29    7.40
  10  -1   7   50.99    5.30
  10  -1   7   46.80    7.40
  10   1   7   43.90    6.40
  10   1   7   51.09    6.70
 -10   1  -7   50.99    6.50
 -11  -1  -7   42.00    7.40
  11  -1   7   32.00    7.50
  11  -1   7   24.00    7.20
  11  -1   7   28.90    7.30
 -11  -1  -7   44.00    6.70
  11   1   7   25.80    6.60
 -11   1  -7   21.10    6.20
  11   1   7   38.40    6.70
 -11   1  -7   28.70    6.30
  12  -1   7   40.20    8.00
 -12  -1  -7   36.60    6.90
 -12  -1  -7   44.60    8.00
  12  -1   7   43.60    8.50
  12   1   7   54.29    7.80
  12   1   7   34.70    7.30
  12   1   7   41.80    7.40
 -12   1  -7   52.89    7.40
  13  -1   7   13.20    7.80
 -13  -1  -7    7.20    7.40
  13  -1   7   13.50    8.20
 -13   1  -7   17.90    6.80
  13   1   7   27.60    7.90
  13   1   7   12.30    7.40
  13   1   7   20.20    5.50
 -15  -2   7   36.00    7.80
 -15  -2   7   29.60    8.20
  15  -2  -7   30.10    8.80
  15   2  -7   32.60    8.20
 -15   2   7   29.00    6.80
 -14  -2   7   10.40    5.50
  14  -2  -7    4.60    7.60
 -14  -2   7   14.70    6.80
 -14  -2   7    7.20    6.90
  14   2  -7   15.80    7.20
 -14   2   7   16.00    5.90
  14   2  -7   22.10    5.40
 -14   2   7    2.50    7.10
 -13  -2   7   -0.40    5.60
 -13  -2   7   -2.30    6.20
 -13  -2   7   -1.50    4.90
  13  -2  -7    7.70    6.90
  13   2  -7    2.10    6.00
 -13   2   7    1.70    6.70
  13   2  -7   10.60    4.90
 -13   2   7    4.50    5.30
 -12  -2   7   23.50    5.90
  12  -2  -7   22.80    4.60
  12  -2  -7   11.50    4.90
 -12  -2   7   20.90    5.30
  12  -2  -7    5.90    6.00
 -12  -2   7   24.80    6.40
  12   2  -7   12.80    5.80
 -12   2   7   14.30    4.00
  12   2  -7   17.50    5.00
  12   2  -7   16.90    5.80
 -12   2   7   14.80    5.00
  11  -2  -7    3.40    3.80
 -11  -2   7    8.90    5.40
  11  -2  -7   11.00    4.60
 -11  -2   7   13.20    4.70
  11  -2  -7   11.20    4.10
 -11  -2   7   11.00    5.00
 -11   2   7    5.40    4.50
  11   2  -7   12.60    5.00
  11   2  -7    9.70    4.30
  11   2  -7    6.00    5.10
 -11   2   7   10.60    5.70
  10  -2  -7  370.36   11.50
  10  -2  -7  335.67   12.90
  10  -2  -7  357.16   13.40
 -10  -2   7  357.86   13.30
 -10  -2   7  348.07   12.10
 -10  -2   7  340.17   11.50
 -10  -2   7  351.36   11.70
  10   2  -7  354.66   13.50
  10   2  -7  336.37   11.50
 -10   2   7  346.47   12.20
  10   2  -7  357.36   12.20
 -10   2   7  331.47   12.10
  -9  -2   7   29.30    3.70
   9  -2  -7   26.70    3.10
  -9  -2   7   35.00    4.10
  -9  -2   7   27.30    4.30
  -9  -2   7   23.40    3.70
   9  -2  -7   30.80    4.90
   9  -2  -7   24.20    5.00
   9  -2  -7   22.10    4.00
  -9  -2   7   15.60    4.90
   9   2  -7   21.10    4.00
  -9   2   7   26.80    5.30
  -9   2   7   31.70    4.10
   9   2  -7   31.20    3.60
   9   2  -7   25.50    4.40
   8  -2  -7  144.69    5.40
  -8  -2   7  148.39    7.60
  -8  -2   7  150.08    7.60
  -8  -2   7  132.29    7.10
   8  -2  -7  138.09    7.10
  -8  -2   7  137.79    6.10
   8  -2  -7  155.78    6.80
   8  -2  -7  140.09    8.10
  -8  -2   7  153.28    8.40
  -8   2   7  146.49    8.10
  -8   2   7  144.69    6.80
   8   2  -7  147.49    8.40
   8   2  -7  145.09    7.00
   8   2  -7  135.89    7.00
  -7  -2   7    8.20    2.40
  -7  -2   7   11.20    2.80
   7  -2  -7    5.80    2.60
  -7  -2   7    5.90    1.70
   7  -2  -7    7.10    2.90
  -7  -2   7   11.50    2.70
   7  -2  -7    7.20    2.20
  -7  -2   7   11.60    3.40
  -7   2   7   11.40    2.90
   7   2  -7    6.10    3.00
  -7   2   7    6.60    3.50
   7   2  -7    4.60    3.60
   7   2  -7    9.90    3.20
   6  -2  -7   61.99    5.20
  -6  -2   7   50.79    3.10
   6  -2  -7   62.69    3.80
   6  -2  -7   61.99    4.40
  -6  -2   7   67.89    4.40
  -6  -2   7   59.79    4.70
  -6  -2   7   57.59    4.00
  -6  -2   7   65.59    4.60
   6  -2  -7   67.69    4.50
   6   2  -7   62.89    4.00
   6   2  -7   53.69    4.90
  -6   2   7   77.29    5.20
  -6   2   7   66.69    4.90
   6   2  -7   59.59    4.10
  -6   2   7   56.79    2.10
  -5  -2   7   24.20    3.30
  -5  -2   7   19.00    2.20
   5  -2  -7   19.80    1.20
   5  -2  -7   21.50    3.20
  -5  -2   7   18.70    3.30
  -5  -2   7   16.30    3.20
   5  -2  -7   23.30    3.20
   5  -2  -7   19.40    2.70
   5  -2  -7   26.80    2.70
  -5  -2   7   23.10    3.10
  -5   2   7   22.50    3.50
  -5   2   7   19.40    3.30
   5   2  -7   21.10    2.70
   5   2  -7   16.50    3.40
   5   2  -7   20.00    2.80
   4  -2  -7   25.80    3.30
  -4  -2   7   23.40    2.50
  -4  -2   7   20.70    1.20
  -4  -2   7   19.30    3.10
   4  -2  -7   21.80    1.40
  -4  -2   7   27.60    3.30
   4  -2  -7   25.90    2.70
   4  -2  -7   21.50    2.90
   4   2  -7   20.80    2.00
   4   2  -7   21.70    2.80
   4   2  -7   17.00    2.90
  -4   2   7   18.10    3.20
  -4   2   7   27.50    3.10
   3  -2  -7  526.85   13.30
  -3  -2   7  535.05   12.80
   3  -2  -7  523.05   11.20
   3  -2  -7  545.35   12.60
  -3  -2   7  528.95   13.20
  -3  -2   7  518.55   13.10
  -3  -2   7  528.25   11.30
   3   2  -7  520.75   11.30
  -3   2   7  525.05   12.40
  -3   2   7  522.45   13.00
   3   2  -7  523.65   12.50
   3   2  -7  511.85   10.20
   3   2  -7  545.25   12.90
   3   2  -7  532.35   13.40
   2  -2  -7  102.29    5.00
   2  -2  -7  105.99    4.70
   2  -2  -7  104.79    3.70
  -2  -2   7   99.19    4.60
  -2  -2   7  103.79    4.50
  -2  -2   7  108.59    5.00
  -2  -2   7  104.79    3.90
  -2   2   7  106.09    4.00
   2   2  -7  116.79    5.20
  -2   2   7  103.49    5.30
   2   2  -7   99.89    2.90
  -2   2   7  101.59    4.60
   2   2  -7  102.69    4.80
   2   2  -7   94.09    4.70
  -1  -2   7    4.70    1.70
  -1  -2   7    4.40    2.40
  -1  -2   7    0.90    1.50
   1  -2  -7    5.10    1.50
   1  -2  -7    4.80    2.30
  -1  -2   7    1.10    1.70
   1  -2  -7    4.30    2.20
  -1  -2   7    2.00    1.60
   1   2  -7    2.90    0.60
   1   2  -7    4.20    2.10
   1   2  -7    1.40    1.50
   1   2  -7    1.90    1.80
  -1   2   7    5.00    1.30
  -1   2   7    2.90    2.10
  -1   2   7    0.90    2.30
   0  -2   7  910.61   20.20
   0  -2   7  872.91   19.80
   0  -2   7  841.62   18.90
   0  -2  -7  892.11   18.90
   0  -2  -7  862.81   19.50
   0  -2   7  860.41   19.30
   0  -2  -7  878.91   19.60
   0   2   7  873.11   19.20
   0   2  -7  882.21   18.80
   0   2   7  909.01   19.50
   0   2  -7  892.01   19.00
   0   2  -7  872.81   19.30
   1  -2   7  167.48    5.00
  -1  -2  -7  172.38    6.10
  -1  -2  -7  170.48    6.50
  -1  -2  -7  175.18    5.70
   1  -2   7  175.28    6.80
   1  -2   7  183.68    7.20
   1  -2   7  172.48    6.50
  -1   2  -7  189.18    6.30
  -1   2  -7  177.98    5.60
  -1   2  -7  177.68    5.00
   1   2   7  173.98    6.00
   1   2   7  184.28    6.60
   2  -2   7   55.09    4.30
  -2  -2  -7   51.49    4.00
   2  -2   7   61.29    3.90
   2  -2   7   58.19    4.20
   2  -2   7   54.29    2.30
  -2  -2  -7   59.49    3.90
   2  -2   7   55.69    4.00
  -2  -2  -7   57.79    4.00
   2   2   7   50.59    3.50
   2   2   7   52.89    2.50
   2   2   7   54.59    4.10
  -2   2  -7   58.99    3.30
   2   2   7   62.79    4.40
  -2   2  -7   51.79    2.20
  -2   2  -7   53.29    3.70
  -3  -2  -7   79.29    5.30
   3  -2   7   75.79    4.70
  -3  -2  -7   76.19    4.90
   3  -2   7   83.89    5.90
   3  -2   7   78.29    5.10
  -3  -2  -7   88.99    5.20
   3  -2   7   77.19    4.90
   3   2   7   83.39    5.10
   3   2   7   74.09    2.60
   3   2   7   64.49    4.30
   3   2   7   69.49    3.60
  -3   2  -7   72.59    4.10
  -3   2  -7   74.79    3.50
  -4  -2  -7  123.89    5.90
   4  -2   7  120.79    4.30
  -4  -2  -7  123.89    6.50
   4  -2   7  113.49    6.20
   4  -2   7  108.19    6.00
  -4  -2  -7  120.89    6.80
   4  -2   7  122.59    6.60
   4  -2   7  122.29    5.80
   4   2   7  119.29    4.40
   4   2   7  112.79    6.50
   4   2   7  129.09    5.70
  -4   2  -7  112.89    4.20
  -4   2  -7  115.79    5.80
  -4   2  -7  108.59    6.60
   5  -2   7  221.38    7.00
  -5  -2  -7  219.18    8.10
   5  -2   7  237.28    9.90
   5  -2   7  216.68    9.30
   5  -2   7  197.98    8.90
  -5  -2  -7  212.88    8.30
  -5  -2  -7  228.58    8.00
   5  -2   7  228.18    8.70
  -5   2  -7  227.68    8.00
   5   2   7  227.48    8.60
  -5   2  -7  207.38    9.00
   5   2   7  221.08    8.70
  -5   2  -7  219.48    6.40
   6  -2   7    8.40    2.50
   6  -2   7   -1.00    4.00
   6  -2   7    3.10    3.10
   6  -2   7   11.60    2.90
  -6  -2  -7    5.40    4.10
   6  -2   7    8.10    4.50
  -6  -2  -7    8.40    3.00
  -6   2  -7    3.20    4.00
   6   2   7   11.20    3.90
   6   2   7    9.50    4.00
   6   2   7    7.30    2.70
  -6   2  -7    8.40    3.30
  -7  -2  -7   39.50    4.60
   7  -2   7   43.40    4.90
   7  -2   7   39.30    3.90
   7  -2   7   32.90    4.70
   7  -2   7   36.90    5.90
  -7  -2  -7   40.50    5.50
   7  -2   7   40.00    5.70
   7   2   7   50.69    4.70
   7   2   7   41.40    4.40
  -7   2  -7   40.60    4.70
  -7   2  -7   43.40    4.70
   7   2   7   38.30    3.70
   8  -2   7    7.10    4.10
   8  -2   7    2.80    4.90
   8  -2   7    0.40    3.70
  -8  -2  -7    4.00    4.70
   8  -2   7    4.10    5.30
  -8  -2  -7    6.10    4.80
  -8   2  -7   -0.40    3.80
  -8   2  -7    2.50    4.80
   8   2   7    1.70    3.20
   8   2   7   -4.00    4.40
   8   2   7    1.20    2.60
   9  -2   7   17.90    6.50
  -9  -2  -7   20.60    5.90
   9  -2   7   19.30    6.40
  -9  -2  -7   17.90    5.90
   9  -2   7   28.20    5.00
   9   2   7   20.60    4.40
  -9   2  -7   22.20    4.60
  -9   2  -7   21.70    5.00
   9   2   7   14.90    5.50
   9   2   7   18.30    4.30
 -10  -2  -7   -3.30    5.60
 -10  -2  -7   -0.20    4.10
  10  -2   7   -5.00    5.40
  10  -2   7    1.80    6.50
  10  -2   7   -7.40    6.30
  10   2   7   15.60    6.00
 -10   2  -7   -0.40    5.80
 -10   2  -7    0.30    3.20
  10   2   7    0.10    5.50
  11  -2   7   54.39    8.90
  11  -2   7   37.50    6.40
 -11  -2  -7   48.40    7.70
  11  -2   7   49.80    7.40
 -11  -2  -7   53.19    6.70
 -11   2  -7   44.90    7.70
  11   2   7   37.50    7.30
 -11   2  -7   47.30    6.00
  11   2   7   37.90    7.10
  12  -2   7   12.70    7.90
 -12  -2  -7   22.10    7.40
  12  -2   7   11.80    8.30
 -12  -2  -7   18.60    7.60
 -12   2  -7   11.50    6.00
  12   2   7    9.80    7.00
  12   2   7   21.60    7.00
 -12   2  -7   14.30    7.40
 -15  -3   7   55.69    9.20
 -15  -3   7   51.39    6.70
  15  -3  -7   51.39    9.40
  15   3  -7   36.60    7.00
 -15   3   7   37.20    9.60
 -15   3   7   49.10    8.00
  15   3  -7   49.80    8.90
  14  -3  -7   16.90    7.80
 -14  -3   7    7.40    6.30
 -14  -3   7   12.40    7.20
 -14   3   7   20.00    6.70
 -14   3   7   16.40    8.20
  14   3  -7   15.10    6.10
  14   3  -7    8.80    5.30
  13  -3  -7  208.38   11.60
 -13  -3   7  222.78   12.10
  13  -3  -7  177.88   12.20
 -13  -3   7  213.28   12.80
 -13   3   7  198.88   12.10
  13   3  -7  200.08   11.20
 -13   3   7  207.68   13.70
  13   3  -7  239.08   12.70
 -12  -3   7   18.90    4.90
  12  -3  -7   16.30    6.90
  12  -3  -7   18.20    5.70
 -12  -3   7   22.50    6.20
  12   3  -7   15.50    4.20
  12   3  -7   19.30    6.30
 -12   3   7   10.90    4.40
 -12   3   7   14.30    5.20
  11  -3  -7  253.67   10.30
 -11  -3   7  274.07   12.00
  11  -3  -7  244.08   13.00
 -11  -3   7  253.77   12.00
  11   3  -7  254.77   12.90
 -11   3   7  268.07   12.20
  11   3  -7  233.98   11.40
  11   3  -7  249.28   11.10
 -11   3   7  253.97   12.90
  10  -3  -7   47.80    5.90
  10  -3  -7   54.39    7.00
 -10  -3   7   45.70    5.10
 -10  -3   7   53.09    6.50
 -10  -3   7   43.00    5.10
  10  -3  -7   52.59    6.20
  10   3  -7   52.79    5.90
 -10   3   7   58.69    7.20
  10   3  -7   57.19    6.10
 -10   3   7   49.50    5.40
  10   3  -7   44.30    5.70
   9  -3  -7   -1.80    3.80
  -9  -3   7    4.60    4.50
  -9  -3   7   -0.30    3.40
   9  -3  -7   -1.40    3.80
  -9  -3   7    5.70    4.50
   9  -3  -7   -5.30    4.60
   9   3  -7   -6.00    4.30
   9   3  -7    3.00    3.00
   9   3  -7    4.40    4.00
  -9   3   7   -1.30    4.40
  -9   3   7    6.80    4.90
  -8  -3   7  230.18   10.00
  -8  -3   7  214.78    9.70
   8  -3  -7  217.28   10.40
  -8  -3   7  245.38    9.10
   8  -3  -7  217.88    9.50
  -8   3   7  243.08   10.30
   8   3  -7  210.68   10.50
  -8   3   7  224.08   10.00
   8   3  -7  237.18    9.00
   8   3  -7  225.08    8.40
   7  -3  -7   13.80    4.40
  -7  -3   7   16.10    3.40
  -7  -3   7   18.90    4.40
   7  -3  -7   14.90    2.80
  -7  -3   7   19.70    3.80
   7  -3  -7   16.90    4.20
   7   3  -7   17.40    4.00
  -7   3   7   17.00    4.40
   7   3  -7   16.10    3.50
   7   3  -7   18.10    3.60
  -7   3   7   15.30    3.30
  -6  -3   7 1180.88   27.30
   6  -3  -7 1177.98   27.10
   6  -3  -7 1193.08   25.60
  -6  -3   7 1185.98   25.20
   6  -3  -7 1238.08   28.10
  -6  -3   7 1238.98   27.80
  -6  -3   7 1203.08   27.00
   6   3  -7 1197.08   26.90
  -6   3   7 1226.18   27.20
   6   3  -7 1236.18   28.30
  -6   3   7 1194.58   27.40
   6   3  -7 1216.48   26.10
  -5  -3   7    8.20    2.10
  -5  -3   7   12.20    3.70
   5  -3  -7   10.40    2.50
   5  -3  -7   14.80    3.80
   5  -3  -7    9.60    1.80
   5  -3  -7   13.00    2.90
  -5  -3   7   13.00    3.40
  -5  -3   7    8.90    3.50
  -5   3   7   12.30    3.70
   5   3  -7   10.60    3.60
   5   3  -7    9.70    3.40
   5   3  -7   15.60    2.70
  -5   3   7   10.00    3.30
   4  -3  -7  488.65   11.70
  -4  -3   7  499.15   13.60
   4  -3  -7  494.15   13.80
  -4  -3   7  503.85   13.30
  -4  -3   7  492.55   13.50
   4  -3  -7  489.65   12.40
  -4  -3   7  486.15   12.40
  -4  -3   7  473.15   10.70
   4   3  -7  496.05   13.00
   4   3  -7  497.35   11.70
  -4   3   7  504.45   13.60
  -4   3   7  495.85   12.60
   4   3  -7  507.35   13.80
   4   3  -7  475.95   10.70
  -3  -3   7    9.00    1.60
  -3  -3   7    4.50    2.90
  -3  -3   7   12.10    2.50
   3  -3  -7    5.90    3.20
   3  -3  -7    5.00    2.60
  -3  -3   7    7.40    2.60
   3  -3  -7    4.40    2.40
   3   3  -7    6.60    2.80
   3   3  -7    8.10    1.70
  -3   3   7    8.20    3.20
   3   3  -7    2.00    2.60
  -3   3   7    7.90    2.70
   3   3  -7    7.10    1.20
   3   3  -7    4.10    2.10
   2  -3  -7    2.30    3.00
  -2  -3   7    2.50    2.70
  -2  -3   7    0.00    2.80
   2  -3  -7   -1.30    1.70
   2  -3  -7   -0.80    1.30
  -2  -3   7    0.40    1.70
  -2  -3   7   -3.50    1.80
   2  -3  -7    1.50    2.10
   2   3  -7    0.20    2.40
  -2   3   7    0.80    1.60
   2   3  -7   -2.10    1.70
   2   3  -7    2.60    2.40
  -2   3   7    4.70    2.70
   2   3  -7    3.80    1.60
  -2   3   7    0.90    2.80
  -1  -3   7 1128.39   24.70
  -1  -3   7 1142.19   25.60
   1  -3  -7 1106.09   23.00
  -1  -3   7 1154.28   25.60
   1  -3  -7 1201.08   25.70
   1  -3  -7 1156.08   25.10
   1  -3  -7 1174.88   24.30
   1  -3  -7 1150.28   25.80
  -1  -3   7 1159.88   25.90
   1   3  -7 1109.49   23.20
   1   3  -7 1192.78   24.90
  -1   3   7 1162.98   25.30
   1   3  -7 1173.08   25.20
  -1   3   7 1196.18   25.50
   1   3  -7 1159.08   25.00
  -1   3   7 1130.79   23.50
   0  -3   7   48.60    4.00
   0  -3  -7   53.89    3.60
   0  -3   7   47.10    3.90
   0  -3  -7   53.39    4.70
   0  -3  -7   44.60    2.90
   0  -3  -7   41.90    4.00
   0  -3   7   51.79    4.60
   0   3  -7   44.50    2.50
   0   3   7   50.49    4.10
   0   3  -7   44.40    3.50
   0   3   7   47.80    3.80
   0   3  -7   43.40    3.80
   0   3  -7   53.09    3.60
  -1  -3  -7  830.22   18.80
   1  -3   7  826.22   20.00
   1  -3   7  801.22   19.40
  -1  -3  -7  823.32   18.00
   1  -3   7  819.92   19.80
  -1  -3  -7  804.42   19.40
  -1  -3  -7  841.62   19.60
   1   3   7  820.12   19.20
  -1   3  -7  818.92   17.70
   1   3   7  815.72   18.50
  -1   3  -7  798.82   18.50
  -1   3  -7  812.42   18.00
  -2  -3  -7   -1.30    2.70
   2  -3   7    2.10    3.30
   2  -3   7    0.20    2.60
  -2  -3  -7    4.20    3.20
  -2  -3  -7    2.10    2.40
   2  -3   7    0.80    3.20
  -2  -3  -7   -2.30    2.10
  -2   3  -7    1.10    1.80
   2   3   7   -5.30    3.10
   2   3   7    3.10    2.20
  -2   3  -7    1.70    2.70
  -2   3  -7    1.20    1.20
   2   3   7   -1.50    3.10
   3  -3   7  178.68    8.90
   3  -3   7  172.98    7.70
   3  -3   7  182.38    7.50
  -3  -3  -7  191.28    8.20
  -3  -3  -7  176.48    7.50
  -3  -3  -7  169.48    6.90
  -3  -3  -7  180.48    7.80
  -3   3  -7  176.48    6.50
   3   3   7  181.88    7.40
  -3   3  -7  189.18    5.90
   3   3   7  187.48    8.20
   4  -3   7   75.79    6.60
  -4  -3  -7   65.89    5.60
   4  -3   7   69.89    6.10
   4  -3   7   67.09    5.60
  -4  -3  -7   62.59    4.90
  -4  -3  -7   70.59    5.40
  -4  -3  -7   67.69    5.40
  -4   3  -7   63.69    5.30
  -4   3  -7   62.49    4.70
   4   3   7   64.89    5.50
   4   3   7   66.59    5.60
   5  -3   7    7.50    4.80
  -5  -3  -7    6.20    3.90
   5  -3   7    4.10    4.00
   5  -3   7    7.40    3.40
  -5  -3  -7   11.10    3.20
  -5  -3  -7    9.80    3.90
  -5  -3  -7    8.40    4.40
   5   3   7    6.70    3.10
  -5   3  -7    4.30    4.50
  -5   3  -7   17.10    3.40
   5   3   7    5.50    4.20
   6  -3   7  210.58   11.30
  -6  -3  -7  232.18    8.90
   6  -3   7  214.08    8.90
  -6  -3  -7  210.18   10.40
  -6  -3  -7  239.58   10.50
   6  -3   7  213.08    9.60
  -6   3  -7  232.38    9.70
   6   3   7  222.78   10.10
  -6   3  -7  213.68    7.70
   6   3   7  245.78   10.20
  -7  -3  -7   -0.80    4.80
   7  -3   7    5.90    4.60
  -7  -3  -7    5.50    4.70
   7  -3   7   -5.00    5.20
   7  -3   7    3.80    5.80
  -7  -3  -7    3.80    4.90
  -7   3  -7    0.70    3.50
  -7   3  -7   -1.90    5.00
   7   3   7   -2.20    3.30
   7   3   7    5.60    4.80
  -8  -3  -7  286.97   13.00
   8  -3   7  249.38   13.30
   8  -3   7  272.67   14.00
  -8  -3  -7  273.37   12.60
  -8  -3  -7  276.57   12.30
  -8   3  -7  314.07   13.30
  -8   3  -7  258.17    9.20
   8   3   7  244.18   10.30
   8   3   7  279.77   12.10
   8   3   7  255.57   11.80
   9  -3   7   -5.50    4.60
   9  -3   7   -2.10    6.10
  -9  -3  -7    8.40    4.50
  -9  -3  -7    7.40    5.90
   9   3   7   -0.70    3.90
  -9   3  -7   -4.80    4.10
   9   3   7   -1.60    5.90
  -9   3  -7   -0.20    4.20
   9   3   7   -3.00    4.50
 -10  -3  -7   21.00    7.20
 -10  -3  -7   26.30    7.20
  10  -3   7   13.70    7.00
  10  -3   7   16.90    8.00
 -10   3  -7   17.70    5.60
  10   3   7   16.10    7.00
  10   3   7   14.20    4.70
  11  -3   7   36.60    9.40
  11  -3   7   31.40    7.80
 -11  -3  -7   34.30    8.00
 -11  -3  -7   24.70    5.90
 -11   3  -7   18.60    8.00
 -11   3  -7   31.90    6.60
  11   3   7   19.50    5.80
  11   3   7   30.90    5.60
 -12  -3  -7    3.90    5.30
  12  -3   7    2.90    6.10
 -12  -3  -7   13.50    7.90
  12  -3   7   10.20    7.30
 -12   3  -7    3.80    6.00
  12   3   7    3.40    7.60
 -12   3  -7    5.00    8.00
  12   3   7    4.40    6.90
 -14   4   7    9.10    8.60
  14   4  -7    3.10    7.40
  13  -4  -7    3.40    6.70
 -13  -4   7    6.00    5.30
  13  -4  -7   -1.50    7.50
 -13  -4   7    2.00    6.80
 -13   4   7    3.40    7.00
  13   4  -7    9.80    6.90
  13   4  -7    7.80    6.30
 -13   4   7   -9.30    7.50
 -12  -4   7   25.50    5.50
 -12  -4   7   15.20    7.10
  12  -4  -7   12.90    7.40
  12  -4  -7   19.90    6.70
  12   4  -7   20.40    5.00
  12   4  -7   17.80    4.90
 -12   4   7   26.80    7.90
 -12   4   7   31.60    7.70
  11  -4  -7   47.40    8.30
  11  -4  -7   64.09    7.70
 -11  -4   7   45.90    6.30
 -11  -4   7   76.59    8.40
  11   4  -7   41.50    6.70
  11   4  -7   46.80    7.00
 -11   4   7   52.09    7.90
 -11   4   7   53.79    6.80
 -10  -4   7  137.29    9.50
  10  -4  -7  140.59    9.40
 -10  -4   7  129.79    8.60
  10  -4  -7  142.99    9.40
  10   4  -7  140.39    9.60
 -10   4   7  147.79    9.00
  10   4  -7  123.59    8.60
 -10   4   7  156.68   10.20
  -9  -4   7  226.18   11.50
   9  -4  -7  214.58   12.00
   9  -4  -7  210.28   11.20
  -9  -4   7  220.88   11.40
   9   4  -7  216.08   10.70
  -9   4   7  231.18   10.30
  -9   4   7  231.58   11.70
   9   4  -7  224.38   12.00
   8  -4  -7   66.89    7.10
   8  -4  -7   75.39    6.60
  -8  -4   7   79.49    7.40
  -8  -4   7   70.29    5.60
  -8  -4   7   78.69    7.10
   8   4  -7   58.49    6.80
  -8   4   7   72.79    7.00
   8   4  -7   72.39    6.50
   8   4  -7   76.29    5.40
  -8   4   7   76.09    7.10
  -7  -4   7   -0.40    4.50
   7  -4  -7    9.90    4.80
  -7  -4   7    3.90    3.60
  -7  -4   7    0.80    4.50
   7  -4  -7   -2.20    4.60
  -7   4   7    2.10    4.40
   7   4  -7    0.60    4.20
   7   4  -7   -0.60    3.20
   7   4  -7    1.20    3.60
  -7   4   7    3.20    4.50
  -6  -4   7   15.20    4.90
   6  -4  -7   18.50    3.90
  -6  -4   7   22.10    4.00
   6  -4  -7   11.20    4.60
  -6  -4   7   10.70    3.50
   6   4  -7   14.90    3.70
  -6   4   7   21.60    5.00
  -6   4   7   14.40    4.40
   6   4  -7   14.80    4.80
   6   4  -7   16.90    4.40
   5  -4  -7  112.09    7.30
   5  -4  -7  110.29    7.30
  -5  -4   7  121.59    7.80
  -5  -4   7  107.89    7.00
  -5  -4   7   98.19    6.40
  -5  -4   7  102.19    5.90
  -5   4   7  113.99    6.80
   5   4  -7  113.39    7.70
   5   4  -7  102.69    7.00
  -5   4   7  108.59    7.60
   5   4  -7   96.39    5.70
  -4  -4   7  253.07    8.70
   4  -4  -7  246.58   10.40
  -4  -4   7  251.17   10.00
   4  -4  -7  232.28    7.40
  -4  -4   7  256.57   10.00
  -4  -4   7  248.48    8.80
  -4   4   7  255.37    9.40
   4   4  -7  257.17    8.00
   4   4  -7  239.28    8.50
   4   4  -7  246.48    9.90
  -4   4   7  270.97    9.30
  -3  -4   7  191.68    8.40
   3  -4  -7  183.78    7.10
  -3  -4   7  179.88    6.70
   3  -4  -7  177.88    8.00
  -3  -4   7  172.18    7.70
  -3  -4   7  167.88    8.40
  -3   4   7  172.48    7.40
   3   4  -7  174.98    6.60
   3   4  -7  179.78    7.80
   3   4  -7  178.38    8.10
   3   4  -7  189.88    8.10
  -3   4   7  179.18    7.10
   2  -4  -7  154.98    6.70
  -2  -4   7  159.58    7.80
  -2  -4   7  152.38    7.90
  -2  -4   7  156.78    6.40
  -2  -4   7  152.38    7.80
   2  -4  -7  158.28    8.50
  -2   4   7  163.68    7.90
  -2   4   7  164.58    7.70
   2   4  -7  166.58    7.20
   2   4  -7  154.78    5.80
   2   4  -7  151.28    7.40
   2   4  -7  154.48    7.20
  -1  -4   7  349.17   11.60
  -1  -4   7  345.07   11.70
   1  -4  -7  356.56   10.80
   1  -4  -7  339.77   11.40
  -1  -4   7  352.56   11.30
  -1  -4   7  353.06   10.60
   1   4  -7  354.66   10.40
  -1   4   7  345.77   11.30
   1   4  -7  363.66   10.40
  -1   4   7  353.76   11.00
   1   4  -7  346.47   10.80
   0  -4  -7   44.40    4.70
   0  -4  -7   56.29    5.60
   0  -4   7   50.69    4.10
   0  -4   7   45.80    4.40
   0  -4   7   48.70    5.40
   0   4  -7   38.70    4.40
   0   4   7   45.30    5.00
   0   4  -7   46.50    4.00
   0   4  -7   49.60    3.70
   0   4   7   50.69    4.50
  -1  -4  -7    6.40    4.00
   1  -4   7    7.00    3.00
   1  -4   7   11.80    3.90
   1  -4   7    8.40    4.20
  -1  -4  -7    4.90    2.80
  -1   4  -7    4.10    3.20
   1   4   7    7.40    3.00
   1   4   7    9.20    3.00
  -1   4  -7    3.90    2.50
  -2  -4  -7   48.60    5.50
   2  -4   7   50.59    5.10
   2  -4   7   57.89    5.70
   2  -4   7   54.09    5.70
  -2  -4  -7   53.29    4.30
  -2  -4  -7   54.49    5.60
  -2   4  -7   43.20    3.30
   2   4   7   48.20    3.90
   2   4   7   51.89    5.30
  -2   4  -7   58.39    4.20
   2   4   7   57.59    5.80
  -3  -4  -7  120.89    7.10
   3  -4   7  133.49    9.00
   3  -4   7  120.59    8.20
   3  -4   7  131.09    9.00
  -3  -4  -7  124.59    7.10
  -3  -4  -7  115.99    8.20
   3   4   7  112.19    7.60
   3   4   7  115.79    7.90
  -3   4  -7  119.19    8.60
  -3   4  -7  116.59    6.60
  -4  -4  -7  156.68    8.00
   4  -4   7  171.88   10.30
  -4  -4  -7  168.88    9.60
   4  -4   7  170.98    9.00
  -4  -4  -7  173.48    8.00
   4  -4   7  171.38    9.60
   4   4   7  157.18    9.60
  -4   4  -7  177.18    7.60
   4   4   7  147.09    7.60
  -4   4  -7  158.38    8.50
  -5  -4  -7  189.88    9.20
  -5  -4  -7  194.38   10.50
   5  -4   7  181.78   11.40
   5  -4   7  172.28   10.10
   5  -4   7  170.28    9.50
  -5  -4  -7  181.58    9.80
   5   4   7  186.48    9.10
  -5   4  -7  174.98   10.70
   5   4   7  199.38   10.00
  -5   4  -7  185.08    7.20
   6  -4   7   31.50    6.20
   6  -4   7   27.50    6.70
   6  -4   7   25.00    7.00
  -6  -4  -7   26.20    5.70
  -6  -4  -7   29.70    5.60
  -6  -4  -7   25.80    5.10
   6   4   7   27.40    4.70
  -6   4  -7   29.70    4.30
  -6   4  -7   29.00    6.70
   6   4   7   37.30    6.40
   7  -4   7    5.00    5.50
  -7  -4  -7    1.70    4.30
  -7  -4  -7   -3.10    5.00
   7  -4   7    4.60    6.20
   7  -4   7  -12.20    6.30
   7   4   7    3.30    5.00
   7   4   7   -1.30    4.10
   7   4   7   -0.20    5.40
  -7   4  -7    0.50    3.70
  -7   4  -7    2.60    6.10
   8  -4   7   -0.70    7.30
   8  -4   7    0.30    7.00
  -8  -4  -7   -2.60    6.40
  -8  -4  -7   -2.10    5.70
   8   4   7   -1.70    5.80
  -8   4  -7    7.10    6.70
   8   4   7   -3.30    6.20
  -9  -4  -7    5.30    6.20
   9  -4   7   -1.60    7.80
   9  -4   7   -0.50    7.30
  -9  -4  -7    1.30    7.10
   9   4   7    3.00    6.70
   9   4   7    3.60    6.30
  -9   4  -7    0.40    7.20
 -10  -4  -7   66.99    7.80
 -10  -4  -7   42.90    8.20
  10  -4   7   56.69   10.10
  10  -4   7   39.10    6.90
 -10   4  -7   44.60    6.30
 -10   4  -7   43.80    8.90
  10   4   7   55.89    8.90
  10   4   7   40.20    6.00
 -11   4  -7   19.50    7.50
 -12  -5   7  141.59   11.40
  12  -5  -7  154.98   11.70
 -12  -5   7  138.69   10.20
 -12   5   7  129.59   11.70
  12   5  -7  162.98   11.10
 -12   5   7  181.98   12.80
  12   5  -7  146.69   10.00
 -11  -5   7   14.00    7.40
  11  -5  -7    4.00    7.00
 -11  -5   7    3.00    7.10
  11  -5  -7   13.80    5.80
 -11   5   7    8.70    5.50
  11   5  -7    8.60    6.50
 -11   5   7    7.30    7.50
  11   5  -7   11.60    6.90
  10  -5  -7   30.50    7.70
 -10  -5   7   42.40    8.10
  10  -5  -7   51.39    8.20
 -10  -5   7   43.70    7.80
  10   5  -7   56.49    7.60
 -10   5   7   43.60    8.00
  10   5  -7   37.70    6.90
 -10   5   7   25.40    7.60
   9  -5  -7   33.50    7.50
   9  -5  -7   17.40    5.30
  -9  -5   7   33.70    7.20
  -9  -5   7   41.00    7.70
  -9   5   7   28.00    6.90
   9   5  -7   29.80    6.00
  -9   5   7   22.60    7.00
   9   5  -7   31.10    5.20
   8  -5  -7    3.90    6.10
  -8  -5   7    8.20    6.10
   8  -5  -7   -4.60    4.10
  -8  -5   7   -4.10    5.90
  -8   5   7   -6.70    5.80
   8   5  -7    4.00    4.00
  -8   5   7    1.70    5.60
   8   5  -7    1.80    3.40
   7  -5  -7  665.43   19.40
  -7  -5   7  686.83   20.20
  -7  -5   7  678.93   20.40
   7  -5  -7  666.63   20.80
   7   5  -7  642.64   17.90
   7   5  -7  689.93   19.30
  -7   5   7  668.33   19.10
  -7   5   7  677.53   20.40
   7   5  -7  628.34   20.10
  -6  -5   7   25.60    6.20
   6  -5  -7   16.10    6.20
  -6  -5   7   33.00    6.40
  -6  -5   7   18.90    4.60
   6  -5  -7   26.60    6.60
   6   5  -7   42.10    6.00
   6   5  -7   25.70    4.50
  -6   5   7   29.00    6.20
  -6   5   7   30.40    5.20
   6   5  -7   27.00    5.90
  -5  -5   7  554.64   17.10
  -5  -5   7  553.44   17.00
   5  -5  -7  544.65   16.80
  -5  -5   7  550.44   15.90
  -5   5   7  546.85   15.40
  -5   5   7  541.55   16.20
   5   5  -7  515.55   14.60
   5   5  -7  548.35   15.30
   5   5  -7  546.15   17.00
  -4  -5   7    3.40    3.30
   4  -5  -7   -2.00    5.10
  -4  -5   7    1.40    4.10
  -4  -5   7    2.30    3.50
  -4  -5   7   -1.50    4.70
   4   5  -7    4.80    4.50
  -4   5   7    7.80    5.00
   4   5  -7    5.10    4.30
  -3  -5   7  130.49    8.20
   3  -5  -7  124.19    8.60
  -3  -5   7  118.39    8.10
  -3  -5   7  122.99    8.00
  -3   5   7  109.99    7.70
   3   5  -7  133.49    7.90
  -3   5   7  125.89    8.00
   3   5  -7  123.99    8.10
   3   5  -7  125.19    8.00
  -2  -5   7  344.47   11.80
  -2  -5   7  362.46   11.40
   2  -5  -7  349.77   13.60
  -2  -5   7  380.26   12.90
   2  -5  -7  387.16   11.90
  -2  -5   7  360.46   11.80
   2   5  -7  351.86   12.00
   2   5  -7  369.86   12.20
   2   5  -7  355.56   11.60
  -2   5   7  372.76   12.50
  -2   5   7  361.06   13.10
   1  -5  -7    2.70    3.60
  -1  -5   7    3.10    4.40
  -1  -5   7    4.60    4.60
  -1  -5   7    1.90    4.40
   1  -5  -7    0.90    4.90
  -1   5   7    0.60    3.70
  -1   5   7    0.90    3.20
   1   5  -7   10.90    4.20
   1   5  -7    0.30    3.50
   1   5  -7    0.70    3.70
   0  -5  -7  620.14   17.30
   0  -5   7  604.44   18.40
   0  -5   7  567.94   17.50
   0  -5  -7  636.14   18.50
   0  -5   7  652.63   17.40
   0   5  -7  599.84   15.50
   0   5   7  617.34   16.30
   0   5  -7  633.14   16.50
   0   5   7  616.44   17.60
   1  -5   7    2.70    5.00
  -1  -5  -7    9.00    4.70
   1  -5   7   10.80    4.80
  -1  -5  -7   11.90    5.40
   1  -5   7   12.60    5.50
   1   5   7    1.10    4.70
  -1   5  -7    1.20    3.60
   2  -5   7  366.66   13.80
   2  -5   7  341.77   13.50
  -2  -5  -7  333.87   13.20
  -2  -5  -7  353.16   13.80
   2  -5   7  372.96   14.80
   2   5   7  350.16   12.80
   2   5   7  337.97   12.00
  -2   5  -7  348.77   11.40
  -2   5  -7  367.16   14.10
   3  -5   7   -3.10    5.20
   3  -5   7   -3.80    5.70
  -3  -5  -7    2.70    5.30
  -3  -5  -7    4.50    5.40
   3  -5   7   -3.80    5.20
   3   5   7   -3.20    5.00
   3   5   7    5.00    5.80
  -3   5  -7    3.00    5.40
  -3   5  -7    4.10    3.70
  -4  -5  -7    8.60    5.90
   4  -5   7   23.40    6.50
   4  -5   7   12.80    4.50
  -4  -5  -7   18.60    6.20
   4  -5   7   13.70    4.90
   4   5   7   22.60    5.20
   4   5   7   14.20    4.40
  -4   5  -7   20.50    6.50
  -4   5  -7   12.80    4.00
   5  -5   7   91.09    9.40
  -5  -5  -7   79.19    7.10
   5  -5   7   96.99    8.60
  -5  -5  -7  110.99    9.50
   5  -5   7   93.59    9.40
  -5   5  -7   91.39    9.20
   5   5   7  113.69    9.40
   5   5   7   88.99    8.20
   6  -5   7   -1.90    6.70
  -6  -5  -7   -2.90    6.60
  -6  -5  -7   -3.80    5.70
   6  -5   7    1.60    5.10
   6  -5   7   -3.00    6.30
  -6  -5  -7    0.60    5.00
   6   5   7   -2.50    6.40
   6   5   7    4.60    6.10
  -6   5  -7    5.10    6.70
   7  -5   7  142.99   12.00
   7  -5   7  142.89   10.20
  -7  -5  -7  139.49   11.10
  -7   5  -7  135.49   11.20
   7   5   7  131.49   10.60
   7   5   7  133.89    9.10
   8  -5   7   22.90    8.40
  -8  -5  -7   14.90    6.10
   8  -5   7   13.70    8.90
  -8  -5  -7   18.60    5.20
   8   5   7   27.30    7.40
   8   5   7   13.20    7.70
  -8   5  -7   24.10    8.30
   9  -5   7   -1.50    7.80
   9  -5   7    7.30    9.00
  -9  -5  -7    4.70    7.00
  -9  -5  -7   11.90    8.40
  -9   5  -7   12.00    6.50
   9   5   7    8.60    8.20
  -9   5  -7    4.40    7.50
   9   5   7    4.80    7.00
  10  -6  -7   14.40    8.30
 -10  -6   7   16.00    8.20
 -10  -6   7   21.30    6.20
 -10   6   7   17.90    6.50
 -10   6   7    9.80    7.70
   9  -6  -7   90.79    8.80
   9  -6  -7   77.69    8.30
  -9  -6   7   79.69    8.40
  -9  -6   7   71.39    8.00
  -9   6   7   73.59    9.10
  -9   6   7   79.79    9.80
   9   6  -7   82.29    9.10
  -8  -6   7   49.00    6.80
   8  -6  -7   53.59    7.30
  -8  -6   7   31.50    8.20
   8  -6  -7   55.29    7.50
  -8   6   7   43.20    8.50
   8   6  -7   55.09    8.10
   7  -6  -7   -2.50    7.10
  -7  -6   7   -1.40    6.60
  -7  -6   7    4.90    4.80
   7  -6  -7    3.80    4.90
   7   6  -7    9.60    6.30
  -7   6   7    6.40    7.00
  -6  -6   7    0.90    6.50
   6  -6  -7    3.10    6.70
  -6  -6   7    8.10    6.60
   6   6  -7    9.10    4.50
  -6   6   7    8.30    5.00
   5  -6  -7   24.50    7.30
  -5  -6   7   20.80    6.80
  -5  -6   7   16.70    6.40
  -5   6   7   25.10    6.80
   5   6  -7   15.00    6.00
  -4  -6   7   80.39    7.30
  -4  -6   7   79.79    8.00
   4  -6  -7   90.19    9.10
   4   6  -7   95.99    7.90
   4   6  -7   65.79    6.20
  -4   6   7   83.69    7.20
   4   6  -7   96.59    7.80
  -4   6   7   84.29    8.20
  -3  -6   7  110.19    8.60
   3  -6  -7   91.39    7.90
  -3  -6   7   81.69    7.40
   3   6  -7  112.69    8.20
   3   6  -7  110.99    7.80
  -3   6   7  101.99    7.70
  -3   6   7   85.19    7.70
   2  -6  -7  105.19    9.40
  -2  -6   7  100.79    8.10
  -2  -6   7  104.99    8.30
  -2  -6   7   95.69    7.60
  -2   6   7   99.39    7.60
  -2   6   7  100.09    7.70
   2   6  -7  116.99    7.60
   2   6  -7  115.29    7.90
  -1  -6   7   64.69    7.10
  -1  -6   7   45.50    6.80
   1  -6  -7   64.69    8.20
   1   6  -7   45.50    5.40
   1   6  -7   44.80    6.00
  -1   6   7   44.00    5.90
  -1   6   7   63.09    6.50
   0  -6   7    5.10    4.20
   0  -6  -7    4.80    4.90
   0  -6   7    5.70    5.70
   0  -6  -7    4.90    6.40
   0  -6   7    1.30    3.50
   0   6   7    1.00    4.20
   0   6  -7    6.20    5.80
   0   6  -7    6.80    4.70
  -1  -6  -7   18.50    6.90
   1  -6   7   11.00    4.20
  -1  -6  -7   13.30    5.60
   1  -6   7    4.50    5.90
   1  -6   7    4.40    6.00
   1   6   7   15.40    4.60
  -1   6  -7    5.80    3.20
  -1   6  -7   15.90    6.70
  -2  -6  -7   20.30    6.30
  -2  -6  -7   24.60    7.40
   2  -6   7   12.10    6.80
   2  -6   7   22.10    6.80
   2  -6   7   16.10    6.40
   2   6   7   23.70    5.60
  -2   6  -7   12.40    4.60
   2   6   7   29.60    7.00
  -2   6  -7   22.40    5.40
  -3  -6  -7   88.09    8.80
   3  -6   7   98.99    9.30
   3  -6   7   73.59    9.10
   3  -6   7   74.19    7.40
  -3  -6  -7   90.89    9.40
   3   6   7   73.49    9.20
  -3   6  -7   79.79    9.10
   3   6   7   83.19    8.60
   4  -6   7    4.30    5.30
  -4  -6  -7   13.80    7.10
   4  -6   7   12.30    7.20
  -4  -6  -7   22.10    7.30
   4  -6   7   28.10    7.90
   4   6   7    9.10    6.60
   4   6   7   12.90    7.50
  -4   6  -7   17.80    7.30
   5  -6   7   78.89    8.60
  -5  -6  -7   62.99    9.20
  -5  -6  -7   82.39    9.20
   5  -6   7   61.89    7.80
   5   6   7   82.99    9.70
   5   6   7   78.69    7.40
  -5   6  -7   68.89    9.50
   6  -6   7   47.30    9.40
  -6  -6  -7   46.00    9.10
   6  -6   7   58.09   10.30
   6   6   7   41.30    8.10
   6   6   7   48.00    9.20
  -6   6  -7   53.39    9.60
  -7   6  -7   -1.50    7.50
   7   6   7  -12.20    6.80
  -7   6  -7  -12.50    8.00
  -5  -7   7   -1.50    6.70
   5  -7  -7   11.00    7.80
   5   7  -7   -0.90    6.30
  -5   7   7   16.00    7.70
   5   7  -7    3.40    6.50
  -5   7   7   -3.40    6.90
  -4  -7   7   47.90    7.90
   4  -7  -7   51.49    9.10
  -4   7   7   45.70    7.90
   4   7  -7   38.60    7.10
  -4   7   7   58.49    7.30
   4   7  -7   49.00    7.40
   3  -7  -7   -0.50    5.20
  -3  -7   7    1.60    6.20
   3   7  -7  -10.70    5.50
   3   7  -7   -9.10    5.50
  -3   7   7    4.20    7.10
  -3   7   7   -7.30    5.90
  -2  -7   7    0.00    5.80
   2  -7  -7   -4.00    7.30
  -2   7   7   15.50    7.40
   2   7  -7    9.10    5.70
   2   7  -7   -5.60    5.90
  -1  -7   7   94.19   10.90
   1  -7  -7   86.49   10.20
  -1  -7   7   91.99    8.70
   1   7  -7   82.69    9.00
  -1   7   7   89.19    9.70
   0  -7  -7   11.40    7.90
   0  -7   7    9.10    5.00
   0  -7   7    1.40    6.70
   0   7  -7    6.90    7.00
   0   7   7    4.60    5.20
  -1  -7  -7  130.29   11.40
   1  -7   7   93.39   10.00
   1  -7   7  108.99    8.70
  -1   7  -7  133.19   10.70
   1   7   7  119.39    8.80
   1   7   7  127.89   11.80
  -2  -7  -7    3.00    7.80
   2  -7   7   -1.70    4.90
   2  -7   7    2.90    6.90
   2  -7   7    5.10    7.70
  -2   7  -7   -2.70    7.30
  -2   7  -7    0.70    6.70
   2   7   7    1.50    5.20
   2   7   7   -6.70    7.80
 -16   0   8   62.39    8.40
  16   0  -8   48.30    9.30
  15   0  -8  116.29    9.00
 -15   0   8  108.29   11.10
  14   0  -8    2.80    6.60
 -14   0   8    1.10    4.70
 -14   0   8    9.90    5.40
 -13   0   8  305.17   11.60
  13   0  -8  279.67   11.90
  13   0  -8  288.67   11.90
 -13   0   8  306.67   14.50
  12   0  -8  180.58   10.50
 -12   0   8  160.68    8.60
 -12   0   8  155.28   10.20
  12   0  -8  175.98   10.40
  12   0  -8  177.08    7.70
 -12   0   8  144.09    8.20
 -11   0   8    1.70    3.40
  11   0  -8   -1.70    4.40
 -11   0   8   -0.30    5.10
 -11   0   8    0.90    2.60
  11   0  -8    1.20    3.20
  11   0  -8   -0.90    4.50
 -10   0   8  374.26   12.70
  10   0  -8  391.06   12.80
 -10   0   8  370.86   11.30
  10   0  -8  395.36   12.70
  10   0  -8  379.26   11.10
 -10   0   8  397.36   11.50
   9   0  -8  382.56   11.00
  -9   0   8  404.56   12.00
  -9   0   8  392.36   11.00
   9   0  -8  389.66   12.50
   9   0  -8  384.16   11.50
  -9   0   8  397.96   13.20
   8   0  -8 2554.54   52.39
   8   0  -8 2597.84   53.79
   8   0  -8 2581.84   51.69
  -8   0   8 2520.15   53.29
  -8   0   8 2591.34   52.39
  -8   0   8 2513.15   51.59
  -7   0   8    4.90    2.60
   7   0  -8    6.10    2.80
   7   0  -8    5.70    2.70
  -7   0   8    7.70    3.50
  -7   0   8    2.00    3.10
   7   0  -8    2.50    2.40
   6   0  -8  808.82   18.00
   6   0  -8  774.92   17.80
  -6   0   8  799.52   18.60
  -6   0   8  774.22   18.90
  -6   0   8  782.62   17.40
   6   0  -8  772.32   17.10
   6   0  -8  800.52   19.40
  -5   0   8  511.85   12.10
  -5   0   8  531.45   13.40
   5   0  -8  508.15   12.30
   5   0  -8  530.15   12.80
   5   0  -8  526.25   12.00
  -5   0   8  524.25   13.50
   5   0  -8  526.85   13.70
   4   0  -8  367.06    9.50
  -4   0   8  344.17    8.80
   4   0  -8  350.76    8.70
   4   0  -8  346.57    8.70
  -4   0   8  357.36    9.70
   4   0  -8  353.66   10.30
  -4   0   8  357.56    9.90
  -4   0   8  337.67    7.60
   3   0  -8 2354.66   47.50
  -3   0   8 2279.27   45.20
  -3   0   8 2361.56   46.30
   3   0  -8 2329.57   46.70
  -3   0   8 2296.67   47.20
   3   0  -8 2377.96   46.30
   2   0  -8  429.26    9.80
  -2   0   8  433.26   11.00
   2   0  -8  413.76   10.80
   2   0  -8  415.96   10.00
   2   0  -8  429.26   10.50
  -2   0   8  414.26   10.40
  -2   0   8  399.46    9.20
  -1   0   8 1862.01   38.20
   1   0  -8 1890.71   38.40
   1   0  -8 1868.11   37.00
   1   0  -8 1852.51   37.50
  -1   0   8 1868.41   37.00
  -1   0   8 1912.41   38.00
   1   0  -8 1837.92   37.80
   0   0   8   12.20    2.50
   0   0   8   10.80    1.20
   0   0   8   12.80    1.90
   0   0   8   10.60    2.10
   0   0  -8   13.60    2.20
   0   0  -8   11.00    1.40
   0   0  -8   10.10    2.20
   0   0  -8    9.50    2.10
   1   0   8 1054.89   21.70
  -1   0  -8 1025.80   21.90
  -1   0  -8 1007.60   20.70
   1   0   8 1035.90   21.90
   1   0   8  993.30   20.60
  -1   0  -8 1008.00   21.80
   1   0   8 1043.60   22.30
  -2   0  -8  282.07    6.80
   2   0   8  296.97    8.40
  -2   0  -8  294.07    8.40
   2   0   8  284.67    7.10
   2   0   8  300.27    8.10
  -2   0  -8  305.57    8.30
   2   0   8  281.97    7.80
   3   0   8  264.97    7.80
   3   0   8  276.77    8.50
   3   0   8  282.07    8.60
   3   0   8  259.67    7.30
  -3   0  -8  278.67    8.40
   3   0   8  269.87    7.20
  -3   0  -8  283.57    8.10
   4   0   8  938.51   20.70
   4   0   8  872.01   19.60
  -4   0  -8  915.91   20.10
  -4   0  -8  909.71   20.50
   4   0   8  913.91   19.90
   4   0   8  910.71   20.60
  -4   0  -8  915.01   20.30
   4   0   8  910.31   19.70
  -5   0  -8   65.99    4.40
   5   0   8   50.59    3.90
   5   0   8   68.69    5.20
   5   0   8   59.79    4.10
   5   0   8   59.09    4.70
  -5   0  -8   54.09    4.50
  -5   0  -8   64.89    4.50
   6   0   8 1230.18   27.10
   6   0   8 1252.27   27.80
  -6   0  -8 1264.27   27.90
  -6   0  -8 1228.78   26.90
   6   0   8 1240.28   26.60
   6   0   8 1195.68   27.50
   7   0   8   59.99    5.50
  -7   0  -8   61.29    5.70
   7   0   8   68.49    5.20
   7   0   8   52.59    5.80
  -7   0  -8   64.59    4.80
   7   0   8   53.19    4.00
  -8   0  -8    3.30    4.60
   8   0   8   -0.60    3.90
   8   0   8    7.00    4.10
  -8   0  -8    1.70    3.20
   8   0   8    1.60    4.70
  -8   0  -8    5.80    4.10
   9   0   8   76.39    6.40
   9   0   8   87.69    6.60
  -9   0  -8   75.69    5.80
   9   0   8   75.19    6.20
  -9   0  -8   70.49    7.00
  10   0   8   -6.20    5.60
 -10   0  -8    2.50    4.70
 -10   0  -8    4.70    5.50
  10   0   8    2.30    5.80
  10   0   8   -5.20    4.50
 -11   0  -8  173.38   10.40
  11   0   8  173.58   11.00
 -11   0  -8  176.08   10.00
  11   0   8  178.08   12.50
  11   0   8  177.78   10.80
 -12   0  -8    1.30    6.60
  12   0   8   -5.10    7.10
  12   0   8    5.80    7.10
  16  -1  -8   -2.20    5.40
 -16  -1   8   -3.20    8.10
 -16  -1   8    5.40    6.70
  16   1  -8    6.50    7.80
 -16   1   8    4.90    8.70
  15  -1  -8    0.40    7.40
 -15  -1   8   -0.40    5.40
 -15  -1   8   18.50    6.60
 -15   1   8    4.40    8.20
  15   1  -8    8.20    7.30
 -14  -1   8  135.19    9.40
 -14  -1   8  131.09   10.80
  14  -1  -8  134.79   10.30
  14  -1  -8  131.09   10.50
 -14   1   8  138.29   10.00
  14   1  -8  125.69    9.90
 -13  -1   8  183.18   12.50
  13  -1  -8  196.78   11.20
  13  -1  -8  192.08   12.20
 -13  -1   8  202.18   10.70
  13   1  -8  195.08   11.50
 -13   1   8  194.08   12.50
 -13   1   8  184.18   10.00
  13   1  -8  199.48   11.30
 -12  -1   8  361.26   11.90
 -12  -1   8  357.66   12.00
 -12  -1   8  347.07   14.60
  12  -1  -8  343.47   13.80
  12  -1  -8  367.66   14.40
  12   1  -8  340.97   13.00
 -12   1   8  358.66   14.50
  12   1  -8  369.16   13.50
  12   1  -8  353.86   11.80
 -12   1   8  379.86   12.80
 -11  -1   8  115.19    7.10
 -11  -1   8  116.49    6.90
 -11  -1   8  118.09    7.80
  11  -1  -8  127.79    6.20
  11  -1  -8  128.79    8.70
 -11  -1   8  117.19    8.00
  11  -1  -8  121.49    9.00
 -11   1   8  132.79    8.20
 -11   1   8  128.89    8.00
  11   1  -8  135.89    7.60
  11   1  -8  116.89    7.10
  11   1  -8  134.79    9.40
 -10  -1   8  152.98    9.60
 -10  -1   8  171.48    7.50
  10  -1  -8  178.58    6.90
  10  -1  -8  169.98    9.10
 -10  -1   8  153.38    7.50
  10  -1  -8  164.58    9.30
 -10  -1   8  163.68    8.10
 -10   1   8  158.68    6.50
 -10   1   8  165.28    8.40
  10   1  -8  151.28    8.10
  10   1  -8  164.98    7.80
 -10   1   8  163.58    8.20
  10   1  -8  163.48    8.60
   9  -1  -8   75.09    6.10
   9  -1  -8   83.29    5.20
   9  -1  -8   76.29    4.50
   9  -1  -8   76.59    6.40
  -9  -1   8   81.79    6.90
  -9  -1   8   76.99    5.20
  -9  -1   8   91.29    5.80
  -9   1   8   84.09    4.50
   9   1  -8   81.09    5.40
  -9   1   8   88.79    6.00
  -9   1   8   70.39    6.20
   9   1  -8   88.69    5.90
   9   1  -8   70.89    5.60
  -8  -1   8   34.10    5.00
  -8  -1   8   38.20    4.10
   8  -1  -8   32.70    4.70
   8  -1  -8   37.90    3.40
   8  -1  -8   38.20    4.60
   8  -1  -8   30.70    2.40
  -8  -1   8   33.40    4.00
   8  -1  -8   39.20    3.50
  -8   1   8   32.50    3.00
   8   1  -8   42.00    4.10
  -8   1   8   31.70    3.50
  -8   1   8   42.30    5.10
   8   1  -8   32.70    4.00
   8   1  -8   36.70    4.10
   7  -1  -8  336.87    9.90
   7  -1  -8  332.97   11.30
  -7  -1   8  332.57   10.10
  -7  -1   8  340.87   11.10
   7  -1  -8  321.57    7.90
  -7  -1   8  316.27    9.80
   7  -1  -8  319.77    9.20
   7  -1  -8  326.27    8.80
  -7   1   8  346.67   11.00
   7   1  -8  333.57    9.80
   7   1  -8  327.57   10.60
  -7   1   8  343.57   10.60
   7   1  -8  331.47    9.50
  -7   1   8  314.87    8.20
  -6  -1   8  925.41   21.10
   6  -1  -8  960.40   22.50
   6  -1  -8  915.51   19.30
   6  -1  -8  939.01   20.50
   6  -1  -8  939.81   21.10
  -6  -1   8  924.71   20.80
  -6  -1   8  905.31   21.80
  -6   1   8  933.31   21.60
   6   1  -8  937.11   20.90
  -6   1   8  917.11   19.50
  -6   1   8  967.70   21.80
   6   1  -8  963.70   22.30
   6   1  -8  924.01   20.30
  -5  -1   8  741.33   17.00
   5  -1  -8  727.13   15.50
   5  -1  -8  737.93   18.20
   5  -1  -8  739.63   16.70
  -5  -1   8  727.63   17.20
  -5  -1   8  743.83   17.20
   5   1  -8  723.93   16.80
   5   1  -8  727.93   16.00
  -5   1   8  733.63   17.50
   5   1  -8  755.02   18.10
  -5   1   8  742.33   17.60
   5   1  -8  735.53   16.60
  -5   1   8  731.13   15.50
  -4  -1   8  386.26   10.10
  -4  -1   8  384.96   10.50
   4  -1  -8  397.16   10.00
   4  -1  -8  400.66   11.40
  -4  -1   8  387.46   10.60
   4  -1  -8  378.66   10.30
   4  -1  -8  377.56    8.90
   4   1  -8  378.06    9.80
   4   1  -8  380.96   11.00
  -4   1   8  395.46   10.40
   4   1  -8  384.56   10.20
   4   1  -8  368.46    8.90
  -4   1   8  396.96   10.90
   3  -1  -8  385.66   10.20
  -3  -1   8  411.26   10.80
  -3  -1   8  406.86   10.80
  -3  -1   8  397.86   10.30
   3  -1  -8  410.06   11.40
   3  -1  -8  423.76   10.50
   3  -1  -8  391.06    9.30
  -3   1   8  404.06    9.50
   3   1  -8  399.86   10.10
  -3   1   8  409.96   11.00
   3   1  -8  402.86   10.20
  -3   1   8  399.16   10.20
   3   1  -8  391.26   10.90
  -2  -1   8   21.70    3.00
   2  -1  -8   27.90    2.20
   2  -1  -8   29.80    3.30
   2  -1  -8   28.60    2.90
  -2  -1   8   25.80    2.70
  -2  -1   8   25.50    1.30
   2  -1  -8   26.40    2.70
  -2  -1   8   21.20    2.90
  -2   1   8   30.80    2.40
  -2   1   8   22.00    2.40
   2   1  -8   27.80    2.70
  -2   1   8   31.40    3.40
   2   1  -8   18.30    2.60
   2   1  -8   24.00    2.80
  -1  -1   8  797.72   18.00
   1  -1  -8  817.22   17.30
  -1  -1   8  778.92   18.00
   1  -1  -8  791.32   17.80
  -1  -1   8  809.32   18.30
   1  -1  -8  806.82   17.60
  -1   1   8  791.52   18.20
  -1   1   8  814.12   17.40
   1   1  -8  819.82   17.90
   1   1  -8  807.02   17.70
   1   1  -8  812.02   17.70
   0  -1   8  112.29    3.90
   0  -1   8  104.49    4.40
   0  -1  -8  108.49    4.40
   0  -1  -8  106.99    4.60
   0  -1   8  105.69    5.10
   0  -1   8  104.99    5.20
   0  -1  -8  113.39    4.90
   0   1  -8  102.09    2.70
   0   1  -8  102.39    4.50
   0   1  -8  107.59    4.20
   0   1   8   98.49    4.50
   0   1   8  116.39    5.20
   0   1  -8  104.89    4.70
   0   1   8  106.99    4.20
  -1  -1  -8 1025.10   21.70
  -1  -1  -8 1031.30   21.50
   1  -1   8  984.60   21.40
   1  -1   8  991.10   21.50
   1  -1   8 1018.60   22.20
   1  -1   8 1000.50   22.50
  -1  -1  -8 1010.30   22.10
  -1   1  -8 1000.10   21.70
  -1   1  -8  996.70   21.20
  -1   1  -8 1032.70   21.50
   1   1   8 1012.20   21.20
   1   1   8 1041.80   21.90
   1   1   8 1023.50   21.80
   1   1   8  998.40   21.30
  -2  -1  -8  310.27    8.60
   2  -1   8  320.17    9.00
  -2  -1  -8  306.77    8.80
   2  -1   8  310.27    6.90
   2  -1   8  335.07    9.40
   2  -1   8  318.47    8.20
  -2  -1  -8  328.07    8.40
   2  -1   8  330.17    9.80
   2   1   8  316.17    8.00
   2   1   8  318.57    8.40
  -2   1  -8  316.67    8.40
   2   1   8  318.37    9.10
  -2   1  -8  319.57    9.00
   2   1   8  320.27    8.80
  -3  -1  -8  315.67    8.50
  -3  -1  -8  317.27    9.20
   3  -1   8  310.57    9.10
  -3  -1  -8  291.67    7.50
   3  -1   8  306.77    8.90
  -3  -1  -8  316.77    9.30
   3  -1   8  299.17    9.60
   3   1   8  291.37    8.70
   3   1   8  301.87    8.40
  -3   1  -8  295.77    8.20
  -3   1  -8  293.57    8.90
   3   1   8  300.37    7.70
  -4  -1  -8   44.20    3.20
   4  -1   8   39.20    4.30
  -4  -1  -8   45.60    4.10
  -4  -1  -8   42.20    3.00
  -4  -1  -8   42.40    4.00
   4  -1   8   48.70    4.60
   4  -1   8   40.90    2.70
   4  -1   8   42.20    3.90
   4   1   8   46.80    4.30
   4   1   8   41.70    2.80
  -4   1  -8   55.09    4.30
  -4   1  -8   45.00    3.30
  -4   1  -8   54.79    4.40
   4   1   8   42.40    3.60
  -5  -1  -8    7.80    1.80
   5  -1   8   10.10    3.00
   5  -1   8    5.60    3.80
   5  -1   8    8.60    2.30
   5  -1   8    9.80    4.00
  -5  -1  -8   10.40    2.90
  -5   1  -8   12.80    2.50
   5   1   8   10.90    3.80
   5   1   8   10.00    3.10
  -5   1  -8    8.60    3.30
   5   1   8    5.90    1.90
   5   1   8    9.20    3.00
  -5   1  -8   13.70    3.50
  -6  -1  -8   81.49    5.90
  -6  -1  -8   70.09    5.90
   6  -1   8   92.19    6.00
   6  -1   8   99.49    6.60
   6  -1   8   93.99    6.80
   6  -1   8   92.59    6.00
   6  -1   8  100.09    5.40
  -6   1  -8   89.09    5.30
  -6   1  -8   89.79    5.80
   6   1   8   77.19    5.40
   6   1   8   88.89    6.10
   6   1   8   98.79    6.10
  -6   1  -8   91.09    6.40
  -7  -1  -8   38.10    5.40
  -7  -1  -8   41.90    5.30
   7  -1   8   33.10    5.70
   7  -1   8   42.20    4.40
   7  -1   8   50.39    5.00
   7  -1   8   53.59    4.80
   7  -1   8   37.70    5.50
  -7   1  -8   36.70    4.90
   7   1   8   49.10    5.60
   7   1   8   44.30    4.80
   7   1   8   41.90    4.40
  -7   1  -8   46.40    5.10
   8  -1   8  191.38   10.50
  -8  -1  -8  170.18    9.50
   8  -1   8  171.88    9.70
   8  -1   8  166.48   10.10
  -8  -1  -8  180.08    8.60
   8  -1   8  179.58    8.40
   8   1   8  176.38    8.30
   8   1   8  182.48    8.20
  -8   1  -8  189.28    9.50
   8   1   8  169.48    8.90
  -8   1  -8  176.08    9.10
  -9  -1  -8  202.78   11.20
   9  -1   8  185.78   11.30
   9  -1   8  177.88    9.10
  -9  -1  -8  179.48   10.30
   9  -1   8  182.68   11.50
  -9   1  -8  195.78   10.00
  -9   1  -8  181.98    8.90
   9   1   8  185.08    9.70
   9   1   8  169.58    9.90
  -9   1  -8  200.48   10.10
 -10  -1  -8    4.80    4.30
 -10  -1  -8    9.40    5.50
  10  -1   8   11.20    5.40
  10  -1   8   13.90    6.50
  10  -1   8    4.80    4.60
 -10   1  -8    9.30    5.40
  10   1   8    4.30    5.80
 -10   1  -8    4.30    5.10
  10   1   8    0.50    5.20
  11  -1   8   14.40    7.30
 -11  -1  -8   10.30    6.20
  11  -1   8   11.30    5.40
 -11  -1  -8   12.60    6.80
  11   1   8   17.30    4.90
  11   1   8    9.50    4.50
 -11   1  -8    4.80    5.80
 -11   1  -8    8.90    7.50
 -12  -1  -8   -2.60    6.00
  12  -1   8    6.40    7.50
 -12  -1  -8    2.20    7.20
  12  -1   8   11.60    7.60
  12   1   8   -6.60    6.60
  12   1   8   -7.20    6.10
 -12   1  -8    9.30    6.40
  12   1   8   -1.00    6.60
  15  -2  -8   42.90    9.50
 -15  -2   8   31.10    8.50
 -15  -2   8   39.10    7.90
 -15   2   8   34.30    8.90
 -15   2   8   29.30    6.80
  15   2  -8   37.40    6.30
  15   2  -8   42.00    8.40
 -14  -2   8  130.29   10.70
 -14  -2   8  137.19    9.90
  14  -2  -8  112.59   10.90
 -14  -2   8  117.79    8.70
 -14   2   8  136.89    8.70
 -14   2   8  136.59   11.20
  14   2  -8  116.79    8.20
  14   2  -8  144.79   10.20
  13  -2  -8   -8.80    6.60
 -13  -2   8    5.40    5.80
  13  -2  -8   -7.70    5.00
 -13  -2   8    6.20    6.80
 -13  -2   8    4.50    5.20
 -13   2   8   -3.60    5.10
  13   2  -8   -1.60    4.70
 -13   2   8   -1.30    4.50
  13   2  -8   -2.70    6.00
 -12  -2   8   34.20    5.80
  12  -2  -8   34.20    6.10
 -12  -2   8   43.00    5.70
 -12  -2   8   44.10    6.40
  12  -2  -8   32.70    7.10
 -12  -2   8   47.10    7.50
 -12   2   8   53.49    7.60
  12   2  -8   39.60    6.80
  12   2  -8   42.40    6.60
  12   2  -8   40.20    5.60
 -12   2   8   36.70    6.10
  11  -2  -8  175.68    9.30
 -11  -2   8  182.78    9.90
 -11  -2   8  192.78   11.20
 -11  -2   8  201.68    9.50
  11  -2  -8  172.88    8.50
 -11  -2   8  193.48    9.70
  11  -2  -8  179.98    9.90
  11   2  -8  182.38    8.40
 -11   2   8  196.28   10.20
  11   2  -8  197.38    9.30
  11   2  -8  185.48   11.00
 -11   2   8  177.18   11.00
  10  -2  -8   97.29    8.00
 -10  -2   8   95.29    7.00
 -10  -2   8   85.49    6.10
  10  -2  -8   93.79    7.50
 -10  -2   8   93.19    6.50
  10  -2  -8   75.19    5.50
 -10  -2   8   85.99    7.60
  10   2  -8   83.29    6.50
 -10   2   8   93.49    6.90
  10   2  -8   99.99    7.80
  10   2  -8   96.19    6.50
 -10   2   8   86.99    6.80
  -9  -2   8  890.91   21.50
   9  -2  -8  859.41   22.80
  -9  -2   8  884.71   22.60
   9  -2  -8  854.11   20.40
  -9  -2   8  887.11   21.50
  -9  -2   8  870.71   21.60
   9  -2  -8  872.91   22.40
   9  -2  -8  855.71   19.40
  -9  -2   8  870.81   20.60
  -9   2   8  850.51   21.30
  -9   2   8  862.61   22.20
   9   2  -8  837.62   22.60
   9   2  -8  847.42   20.70
   9   2  -8  859.91   20.90
   8  -2  -8   46.00    3.60
  -8  -2   8   57.09    5.10
   8  -2  -8   51.69    5.70
   8  -2  -8   61.09    4.70
  -8  -2   8   51.09    5.10
  -8  -2   8   55.79    5.20
  -8  -2   8   49.80    4.30
  -8   2   8   43.10    5.10
  -8   2   8   43.40    4.60
   8   2  -8   54.59    4.90
   8   2  -8   43.40    5.40
   8   2  -8   48.60    4.50
  -7  -2   8  878.41   20.80
   7  -2  -8  873.91   21.30
   7  -2  -8  876.11   19.30
   7  -2  -8  826.52   19.60
  -7  -2   8  880.91   20.70
   7  -2  -8  894.01   22.00
  -7  -2   8  861.81   20.70
  -7  -2   8  812.72   18.70
  -7  -2   8  857.01   20.00
   7   2  -8  852.41   21.60
   7   2  -8  851.41   19.90
  -7   2   8  872.81   21.00
  -7   2   8  860.31   20.90
   7   2  -8  847.22   19.60
  -6  -2   8  168.08    7.50
  -6  -2   8  167.98    7.30
   6  -2  -8  158.88    8.00
   6  -2  -8  157.58    6.00
   6  -2  -8  149.88    6.70
  -6  -2   8  150.08    5.60
   6  -2  -8  159.38    6.70
  -6  -2   8  152.88    6.70
   6   2  -8  157.08    5.90
   6   2  -8  162.38    7.90
  -6   2   8  163.08    7.30
   6   2  -8  167.98    7.00
  -6   2   8  161.28    7.60
  -5  -2   8  327.27    9.60
   5  -2  -8  296.87    9.50
  -5  -2   8  320.17    9.90
  -5  -2   8  319.07    9.30
  -5  -2   8  302.77    8.80
   5  -2  -8  317.27   10.90
   5  -2  -8  314.77    7.10
   5  -2  -8  319.87    9.00
  -5   2   8  332.97    9.80
  -5   2   8  324.07    9.70
   5   2  -8  317.17   10.00
   5   2  -8  323.77    9.60
   5   2  -8  314.37    8.30
  -4  -2   8 1016.70   21.10
   4  -2  -8 1079.79   24.20
  -4  -2   8 1089.29   24.10
   4  -2  -8 1074.29   25.00
   4  -2  -8 1098.79   23.30
  -4  -2   8 1088.09   23.40
  -4  -2   8 1076.79   23.90
   4  -2  -8 1059.89   21.60
   4   2  -8 1032.50   22.00
   4   2  -8 1099.19   23.50
   4   2  -8 1039.60   23.30
  -4   2   8 1067.49   23.40
  -4   2   8 1105.09   24.30
   4   2  -8 1127.99   24.60
  -3  -2   8   49.50    4.00
   3  -2  -8   47.30    2.50
  -3  -2   8   48.40    2.50
   3  -2  -8   51.29    3.40
  -3  -2   8   49.70    4.20
   3  -2  -8   49.50    4.10
  -3  -2   8   49.00    3.80
   3   2  -8   43.40    3.60
   3   2  -8   54.69    3.90
   3   2  -8   45.30    2.30
  -3   2   8   50.59    3.70
  -3   2   8   51.39    3.90
  -3   2   8   53.99    3.30
   3   2  -8   46.40    4.00
  -2  -2   8 1919.11   39.80
   2  -2  -8 1937.31   39.50
  -2  -2   8 1911.31   39.90
   2  -2  -8 1946.51   39.90
   2  -2  -8 1951.70   38.40
  -2  -2   8 1920.11   38.60
  -2  -2   8 1952.20   39.90
   2   2  -8 1866.51   37.10
  -2   2   8 1957.10   38.80
  -2   2   8 1911.11   39.80
  -2   2   8 1928.01   39.20
   2   2  -8 1938.01   39.70
   2   2  -8 1949.70   39.30
   2   2  -8 1908.61   39.40
  -1  -2   8   31.70    3.60
   1  -2  -8   30.30    2.80
  -1  -2   8   32.00    2.80
   1  -2  -8   30.20    2.50
   1  -2  -8   33.50    3.50
  -1  -2   8   32.60    3.20
  -1   2   8   27.80    2.20
   1   2  -8   26.40    2.70
  -1   2   8   26.80    3.20
   1   2  -8   26.40    3.10
  -1   2   8   33.20    3.60
   1   2  -8   28.80    3.10
   0  -2   8 1771.82   38.60
   0  -2  -8 1937.71   39.40
   0  -2   8 1950.90   39.80
   0  -2   8 1981.80   40.00
   0  -2  -8 1849.21   39.10
   0  -2   8 1848.52   39.00
   0  -2  -8 1949.80   38.60
   0   2  -8 1892.91   38.50
   0   2  -8 1907.11   39.00
   0   2   8 1925.01   39.10
   0   2  -8 1864.31   38.30
   0   2   8 1941.21   39.10
   1  -2   8  240.48    8.40
  -1  -2  -8  237.88    7.50
   1  -2   8  222.58    8.50
  -1  -2  -8  229.58    7.50
   1  -2   8  233.38    6.90
   1  -2   8  230.98    8.00
  -1  -2  -8  229.68    7.80
   1  -2   8  229.48    6.60
   1   2   8  229.88    7.40
   1   2   8  237.98    6.30
  -1   2  -8  235.88    6.30
   1   2   8  223.98    7.40
  -1   2  -8  233.68    7.20
  -1   2  -8  246.78    7.10
  -2  -2  -8    0.40    2.50
  -2  -2  -8    1.90    2.90
   2  -2   8    2.80    1.20
   2  -2   8    2.50    2.90
   2  -2   8    0.20    2.30
   2  -2   8   -0.10    2.10
   2  -2   8    1.60    2.80
  -2  -2  -8    0.80    1.80
  -2   2  -8    1.80    1.10
  -2   2  -8    0.40    2.50
   2   2   8    4.40    2.20
   2   2   8    1.70    2.10
   2   2   8    1.20    1.20
  -2   2  -8   -0.40    1.90
   2   2   8   -0.90    2.50
   3  -2   8  499.75   13.90
   3  -2   8  514.55   13.10
  -3  -2  -8  499.55   13.50
   3  -2   8  518.75   13.90
   3  -2   8  487.35   14.20
  -3  -2  -8  519.55   13.90
  -3  -2  -8  530.85   13.30
  -3   2  -8  536.35   13.30
  -3   2  -8  510.45   12.00
   3   2   8  497.55   12.40
   3   2   8  506.35   13.20
   3   2   8  506.35   13.40
   4  -2   8   55.49    4.90
  -4  -2  -8   49.80    5.10
  -4  -2  -8   52.09    4.90
   4  -2   8   54.99    5.50
   4  -2   8   69.29    5.30
  -4  -2  -8   51.19    4.30
   4  -2   8   52.59    4.80
  -4   2  -8   45.70    4.90
   4   2   8   59.69    5.10
  -4   2  -8   47.00    3.10
   4   2   8   49.30    3.50
  -4   2  -8   58.59    4.50
   4   2   8   48.30    4.60
  -5  -2  -8  704.73   17.70
   5  -2   8  737.73   19.30
  -5  -2  -8  667.53   17.90
   5  -2   8  698.03   18.40
  -5  -2  -8  699.43   17.10
   5  -2   8  740.83   19.10
   5  -2   8  704.63   18.00
   5   2   8  683.93   17.60
   5   2   8  721.13   17.60
  -5   2  -8  687.63   15.70
  -5   2  -8  705.33   17.30
  -5   2  -8  682.73   18.30
  -6  -2  -8   -0.50    4.00
  -6  -2  -8    4.80    4.30
   6  -2   8    1.80    3.40
   6  -2   8   -1.60    3.00
   6  -2   8   -1.10    2.60
   6  -2   8    0.10    4.40
   6   2   8   -2.40    4.00
   6   2   8    2.50    3.70
  -6   2  -8    3.20    4.20
  -6   2  -8    1.10    3.50
   6   2   8   -1.00    2.70
  -7  -2  -8   97.59    7.40
  -7  -2  -8   92.59    7.40
   7  -2   8   90.49    7.80
   7  -2   8   88.29    7.40
   7  -2   8  103.79    7.70
   7  -2   8   84.39    6.40
   7   2   8  101.39    7.20
  -7   2  -8   94.49    6.40
   7   2   8   82.09    6.60
  -7   2  -8  104.79    7.60
   7   2   8   90.79    6.00
   8  -2   8    8.30    4.40
  -8  -2  -8    1.80    5.20
   8  -2   8    0.30    3.90
   8  -2   8    4.70    5.90
  -8  -2  -8    5.00    5.30
   8  -2   8    5.10    5.30
   8   2   8    4.60    5.00
   8   2   8    7.10    4.80
  -8   2  -8    9.10    5.30
   8   2   8    5.40    3.90
  -8   2  -8    3.80    4.30
  -9  -2  -8    2.80    4.20
  -9  -2  -8    5.10    5.70
   9  -2   8    6.50    6.40
   9  -2   8    2.90    6.20
   9  -2   8    2.80    4.00
   9   2   8    0.30    3.80
  -9   2  -8   -0.70    4.60
  -9   2  -8    1.50    5.50
   9   2   8   -1.80    5.30
  10  -2   8   71.19    7.50
  10  -2   8   77.69    8.20
 -10  -2  -8   86.09    8.70
 -10  -2  -8   76.99    8.60
  10  -2   8   61.79    7.10
 -10   2  -8   71.89    7.00
  10   2   8   76.89    8.00
 -10   2  -8   83.19    8.30
  10   2   8   73.19    6.70
 -11  -2  -8    0.70    6.90
 -11  -2  -8    4.90    6.60
  11  -2   8    7.10    7.60
  11  -2   8    3.90    5.50
  11  -2   8    4.80    6.40
  11   2   8   10.30    6.60
 -11   2  -8    1.80    6.50
  11   2   8    9.10    6.50
 -11   2  -8    0.80    5.60
  12  -2   8   47.70    9.20
 -12  -2  -8   38.30    8.20
 -12  -2  -8   50.69    8.70
  12  -2   8   61.99    9.90
 -12   2  -8   48.80    7.30
  12   2   8   61.49    8.50
 -12   2  -8   49.99    8.60
  12   2   8   37.50    6.30
 -15  -3   8   19.80    7.10
  15   3  -8   27.40    6.50
 -15   3   8   29.40    9.20
 -14  -3   8   18.70    6.80
  14  -3  -8   30.10    6.80
 -14  -3   8   22.40    5.80
  14   3  -8   13.00    6.20
  14   3  -8   27.00    5.70
 -14   3   8   13.50    7.00
 -14   3   8   21.60    8.50
  13  -3  -8   34.20    6.70
 -13  -3   8   37.40    5.70
 -13  -3   8   39.40    7.50
  13   3  -8   31.30    7.00
 -13   3   8   26.40    6.40
  13   3  -8   19.70    6.20
 -13   3   8   29.20    7.00
 -12  -3   8   77.29    8.00
  12  -3  -8   68.19    6.90
 -12  -3   8   68.89    8.00
  12  -3  -8   64.09    8.80
 -12   3   8   68.19    7.70
 -12   3   8   81.79    9.00
  12   3  -8   67.09    7.10
  12   3  -8   64.99    7.40
  11  -3  -8   94.39    8.10
 -11  -3   8  118.59    8.80
  11  -3  -8   97.89    9.30
 -11  -3   8  111.59    7.50
  11  -3  -8  134.39    9.00
 -11  -3   8  120.09    8.80
  11   3  -8  119.39    8.10
 -11   3   8  142.29    9.20
  11   3  -8  113.89    8.20
 -11   3   8  124.69    8.60
 -10  -3   8    3.40    4.10
 -10  -3   8    2.70    5.00
  10  -3  -8    5.80    4.70
 -10  -3   8   13.20    4.00
  10  -3  -8   12.70    6.00
  10  -3  -8    9.20    4.60
 -10   3   8   14.80    4.30
  10   3  -8    9.60    5.40
  10   3  -8    9.30    4.80
 -10   3   8   12.10    5.90
  10   3  -8   10.60    4.90
   9  -3  -8    7.70    4.10
   9  -3  -8   13.00    5.50
   9  -3  -8   10.10    4.60
  -9  -3   8   12.30    4.10
  -9  -3   8    9.60    4.80
  -9  -3   8    7.50    4.80
   9   3  -8   12.50    4.20
  -9   3   8   17.20    5.20
   9   3  -8    5.30    4.40
  -9   3   8   12.80    5.20
   9   3  -8    9.10    3.80
   8  -3  -8   30.00    4.80
  -8  -3   8   30.00    5.10
   8  -3  -8   24.60    5.30
  -8  -3   8   18.40    4.30
  -8  -3   8   30.00    4.30
  -8   3   8   33.70    5.50
  -8   3   8   19.20    4.90
   8   3  -8   31.70    4.70
   8   3  -8   28.20    5.40
   8   3  -8   27.80    4.30
   7  -3  -8  163.38    7.30
   7  -3  -8  166.18    9.10
  -7  -3   8  154.88    8.40
  -7  -3   8  180.68    8.20
  -7  -3   8  165.68    8.60
   7   3  -8  167.98    9.30
   7   3  -8  168.08    7.10
  -7   3   8  164.18    8.40
  -7   3   8  170.08    7.80
   7   3  -8  158.38    8.00
   6  -3  -8  124.59    7.30
   6  -3  -8  132.59    5.80
  -6  -3   8  115.49    5.10
   6  -3  -8  127.49    7.90
  -6  -3   8  107.59    7.00
  -6  -3   8  119.29    6.50
  -6  -3   8  112.99    6.30
  -6   3   8  116.79    6.00
  -6   3   8  125.79    7.60
   6   3  -8  116.59    6.80
   6   3  -8  105.69    6.90
   6   3  -8  111.59    5.70
  -5  -3   8  375.06   11.70
   5  -3  -8  385.76   10.60
   5  -3  -8  379.66   12.40
  -5  -3   8  357.96   10.30
  -5  -3   8  375.76   11.90
  -5   3   8  369.26   12.00
   5   3  -8  373.16    9.80
  -5   3   8  381.06   11.20
   5   3  -8  366.66   11.60
   5   3  -8  372.66   10.70
  -4  -3   8  157.08    5.30
  -4  -3   8  170.88    7.70
   4  -3  -8  172.68    6.90
  -4  -3   8  150.08    7.40
   4  -3  -8  179.28    8.10
  -4  -3   8  158.88    6.70
  -4   3   8  175.08    8.00
   4   3  -8  157.68    5.30
   4   3  -8  163.08    6.50
   4   3  -8  162.18    6.50
  -4   3   8  166.08    6.60
   4   3  -8  160.48    7.70
  -3  -3   8    5.80    1.90
  -3  -3   8    5.10    2.20
   3  -3  -8    4.80    1.30
   3  -3  -8   -1.00    2.60
  -3  -3   8    4.50    3.00
   3  -3  -8    0.80    3.30
  -3  -3   8    8.50    3.40
  -3   3   8    4.80    2.30
  -3   3   8    7.70    3.40
   3   3  -8    2.30    1.70
  -3   3   8    5.90    3.00
   3   3  -8    5.40    3.00
   3   3  -8    3.20    2.90
   3   3  -8    2.60    2.90
  -2  -3   8   24.60    2.80
   2  -3  -8   31.30    3.80
  -2  -3   8   22.00    3.60
  -2  -3   8   28.00    4.10
  -2  -3   8   18.30    3.70
   2  -3  -8   23.50    4.10
   2  -3  -8   29.00    2.70
   2   3  -8   29.70    3.70
   2   3  -8   30.70    3.60
  -2   3   8   23.30    2.60
  -2   3   8   30.20    4.00
  -2   3   8   32.00    3.80
   2   3  -8   26.50    3.40
   2   3  -8   24.60    1.90
   1  -3  -8   -3.00    2.70
  -1  -3   8    0.50    2.10
   1  -3  -8   -1.00    2.00
   1  -3  -8    0.20    2.90
  -1  -3   8    2.50    2.30
  -1  -3   8   -1.80    3.30
   1  -3  -8    0.70    1.10
   1  -3  -8    4.70    3.30
   1   3  -8    0.80    2.80
  -1   3   8    1.40    1.60
  -1   3   8    2.40    3.00
   1   3  -8    1.10    2.60
  -1   3   8    3.50    3.20
   1   3  -8    0.30    2.20
   0  -3   8  387.56   12.20
   0  -3  -8  407.96   12.00
   0  -3  -8  382.06    9.50
   0  -3   8  381.36   11.80
   0  -3   8  375.76   11.00
   0  -3  -8  380.46   10.50
   0  -3  -8  399.26   11.70
   0  -3  -8  392.26   11.10
   0   3   8  378.26   11.40
   0   3  -8  386.96   10.40
   0   3   8  397.26   11.10
   0   3  -8  393.16   11.00
   1  -3   8   78.39    5.70
  -1  -3  -8   75.49    4.90
   1  -3   8   80.69    5.50
  -1  -3  -8   75.29    5.20
   1  -3   8   71.79    5.30
  -1  -3  -8   78.89    5.60
  -1   3  -8   75.39    4.60
   1   3   8   75.09    5.20
  -1   3  -8   83.79    5.70
   1   3   8   76.99    5.00
   2  -3   8  103.59    7.20
   2  -3   8  119.79    6.40
  -2  -3  -8  119.69    7.10
   2  -3   8  116.89    7.70
  -2  -3  -8  122.09    7.10
  -2  -3  -8  120.09    5.70
   2   3   8  116.09    6.90
  -2   3  -8  109.39    6.30
   2   3   8  113.69    5.50
   2   3   8  124.39    7.10
  -2   3  -8  115.69    5.10
   3  -3   8  234.78    9.40
   3  -3   8  237.08   10.40
  -3  -3  -8  241.88    9.50
  -3  -3  -8  235.08    9.00
   3  -3   8  248.28    9.90
  -3  -3  -8  266.57    9.60
  -3   3  -8  254.87    8.10
  -3   3  -8  236.88    7.10
   3   3   8  241.18    9.60
   3   3   8  269.37    9.70
   3   3   8  232.58    7.60
   4  -3   8   10.40    4.70
  -4  -3  -8    9.30    3.80
  -4  -3  -8    7.20    3.30
   4  -3   8   13.90    4.70
   4  -3   8    6.10    4.00
  -4  -3  -8    5.60    4.00
  -4   3  -8    3.90    2.50
  -4   3  -8    7.20    4.50
   4   3   8   11.30    4.20
   4   3   8    2.70    3.90
   5  -3   8    2.40    5.10
   5  -3   8    1.30    3.40
  -5  -3  -8    2.80    3.00
  -5  -3  -8    3.20    3.80
  -5  -3  -8    7.30    4.60
   5  -3   8   -1.90    3.00
  -5   3  -8    1.60    3.40
   5   3   8    3.70    4.30
  -5   3  -8    5.30    3.40
   5   3   8    4.60    4.40
   6  -3   8   -3.70    5.50
  -6  -3  -8   -3.30    4.60
  -6  -3  -8   -4.50    4.60
   6  -3   8    3.40    4.60
   6  -3   8   -0.30    3.60
   6   3   8    2.70    3.40
  -6   3  -8    3.00    3.70
  -6   3  -8   -0.10    5.10
   6   3   8    1.90    4.60
   7  -3   8   85.89    8.80
   7  -3   8   80.39    7.20
   7  -3   8   82.89    8.20
  -7  -3  -8   95.09    7.90
  -7  -3  -8   80.59    7.20
  -7  -3  -8   89.59    7.90
   7   3   8   89.49    7.50
   7   3   8   97.29    7.60
  -7   3  -8   84.29    5.60
  -7   3  -8   80.59    6.90
  -8  -3  -8   32.50    6.30
   8  -3   8   27.70    7.00
   8  -3   8   23.50    5.70
  -8  -3  -8   20.80    6.60
  -8  -3  -8   14.80    6.40
  -8   3  -8   30.40    7.00
  -8   3  -8   17.20    4.80
   8   3   8   25.40    5.40
   8   3   8   23.00    6.10
   8   3   8   16.10    6.00
   9  -3   8   23.50    8.20
  -9  -3  -8   18.20    6.70
  -9  -3  -8   20.60    6.90
   9  -3   8   38.30    6.30
  -9  -3  -8   14.10    6.70
   9   3   8   17.90    6.50
  -9   3  -8   18.30    5.20
   9   3   8   31.40    5.90
   9   3   8   28.00    5.50
  -9   3  -8   35.60    7.60
  10  -3   8   40.30    8.30
 -10  -3  -8   27.50    7.40
  10  -3   8   26.70    8.70
 -10  -3  -8   25.60    7.60
  10   3   8   21.30    7.20
 -10   3  -8   12.90    7.50
 -10   3  -8   22.50    5.70
  10   3   8   21.40    6.80
  11  -3   8    6.10    5.50
 -11  -3  -8   -5.80    6.90
  11  -3   8   -5.30    8.60
 -11  -3  -8    5.40    7.40
  11   3   8   13.20    7.30
 -11   3  -8   -2.80    7.40
 -11   3  -8   -2.30    5.80
  11   3   8   -0.80    6.80
 -13  -4   8   27.80    8.20
 -13  -4   8   23.70    7.70
  13  -4  -8   26.30    8.70
  13  -4  -8   19.20    6.90
 -13   4   8   31.10    8.70
  13   4  -8   16.20    6.60
  13   4  -8   15.90    7.00
 -13   4   8   33.30    6.30
  12  -4  -8   32.90    6.50
  12  -4  -8   21.80    6.70
 -12  -4   8   37.90    6.20
 -12  -4   8   30.30    7.60
  12   4  -8   34.30    6.80
 -12   4   8   26.50    8.10
  12   4  -8   40.00    7.10
 -12   4   8   26.90    7.60
 -11  -4   8   17.80    6.90
  11  -4  -8   24.60    6.50
  11  -4  -8   25.20    7.90
 -11  -4   8   24.50    7.10
 -11   4   8   22.90    5.30
  11   4  -8   20.50    6.20
  11   4  -8   19.80    4.70
 -11   4   8   24.30    7.50
  10  -4  -8   88.39    9.10
 -10  -4   8   87.39    8.40
  10  -4  -8   91.69    8.10
 -10  -4   8   77.29    8.10
  10   4  -8   61.39    6.70
 -10   4   8   88.19    8.30
 -10   4   8   80.49    8.40
  10   4  -8   85.59    7.60
   9  -4  -8    2.20    6.00
  -9  -4   8   -0.20    5.40
  -9  -4   8   -1.40    5.30
   9  -4  -8   -2.10    5.20
  -9  -4   8   -0.10    4.00
   9   4  -8    0.80    3.90
  -9   4   8    1.60    5.50
   9   4  -8   -1.90    3.40
   9   4  -8    0.40    4.30
  -9   4   8  -16.20    5.10
  -8  -4   8  122.39    8.10
  -8  -4   8  140.69    9.40
   8  -4  -8  114.89    9.10
  -8  -4   8  109.29    8.30
   8  -4  -8  129.29    8.60
  -8   4   8  110.79    8.30
   8   4  -8  115.09    7.70
   8   4  -8  118.29    7.50
  -8   4   8  119.19    8.20
   8   4  -8  121.29    9.80
   7  -4  -8   22.50    5.50
  -7  -4   8   19.50    5.40
  -7  -4   8   15.00    4.40
   7  -4  -8   25.30    5.80
  -7  -4   8   21.30    5.50
  -7   4   8   24.20    5.50
   7   4  -8   21.00    4.30
   7   4  -8   26.00    4.20
  -7   4   8   25.10    5.20
   7   4  -8   26.20    5.10
   6  -4  -8   85.19    7.20
  -6  -4   8   96.89    7.30
  -6  -4   8  103.59    6.80
  -6  -4   8  118.89    7.80
   6  -4  -8   94.39    7.30
   6   4  -8   89.39    6.10
  -6   4   8   95.59    7.10
  -6   4   8  101.79    6.80
   6   4  -8   80.89    6.90
   6   4  -8   95.79    5.90
   5  -4  -8   68.49    5.70
  -5  -4   8   65.69    6.10
  -5  -4   8   61.89    6.10
  -5  -4   8   60.89    4.50
  -5  -4   8   62.59    5.60
   5   4  -8   62.79    5.70
   5   4  -8   52.59    5.60
  -5   4   8   53.59    4.90
  -5   4   8   59.69    5.90
   4  -4  -8    8.40    2.50
  -4  -4   8    5.60    3.10
  -4  -4   8    4.20    4.00
   4  -4  -8    4.10    3.10
  -4  -4   8    9.10    3.20
   4   4  -8    6.70    3.80
  -4   4   8   10.00    3.10
   4   4  -8    7.50    3.90
   4   4  -8   -2.00    3.70
  -4   4   8   10.50    4.40
  -3  -4   8  298.57   10.90
  -3  -4   8  305.67   10.40
   3  -4  -8  304.57   11.70
  -3  -4   8  299.37   10.30
   3  -4  -8  307.27    9.30
  -3   4   8  291.57   10.00
   3   4  -8  297.57   10.40
   3   4  -8  298.87   10.50
  -3   4   8  302.97   10.90
  -3   4   8  284.07    8.80
   3   4  -8  314.37   10.30
  -2  -4   8   21.50    3.40
   2  -4  -8   19.30    3.60
  -2  -4   8   20.60    4.40
  -2  -4   8   16.80    3.00
   2  -4  -8   15.20    4.60
  -2  -4   8   22.50    4.50
   2   4  -8   22.90    3.10
  -2   4   8   19.40    3.40
   2   4  -8   20.60    4.10
  -2   4   8   28.80    4.60
   2   4  -8   19.90    3.80
  -1  -4   8  178.68    8.00
  -1  -4   8  185.18    8.90
   1  -4  -8  172.28    9.20
  -1  -4   8  166.98    8.00
   1  -4  -8  169.38    7.90
  -1   4   8  167.38    7.40
   1   4  -8  175.68    8.00
   1   4  -8  175.48    7.20
  -1   4   8  161.88    7.90
   1   4  -8  181.18    7.40
   0  -4  -8   33.00    5.20
   0  -4   8   40.70    5.20
   0  -4  -8   41.00    4.90
   0  -4   8   36.50    4.50
   0  -4   8   40.40    4.50
   0   4  -8   38.00    4.40
   0   4   8   38.10    5.10
   0   4  -8   35.30    3.80
   0   4   8   48.50    4.60
   0   4  -8   29.90    4.00
   1  -4   8  189.38    9.90
  -1  -4  -8  204.38    9.10
   1  -4   8  199.88    9.10
  -1  -4  -8  202.18    9.60
   1  -4   8  188.38    9.50
  -1   4  -8  197.78    7.20
   1   4   8  207.28    9.10
   1   4   8  186.48    7.70
  -1   4  -8  189.58    8.20
   2  -4   8  122.39    8.10
   2  -4   8  142.19    8.70
   2  -4   8  137.49    7.40
  -2  -4  -8  126.49    7.10
  -2  -4  -8  131.59    8.50
  -2   4  -8  127.69    5.70
   2   4   8  138.29    7.50
  -2   4  -8  136.29    7.20
   2   4   8  122.19    7.00
   3  -4   8   62.09    7.00
  -3  -4  -8   65.09    6.60
   3  -4   8   56.89    5.50
   3  -4   8   67.99    6.10
  -3  -4  -8   56.39    4.70
  -3  -4  -8   48.90    5.90
  -3   4  -8   63.89    5.20
   3   4   8   70.49    6.80
   3   4   8   62.59    6.20
  -3   4  -8   59.39    6.50
  -4  -4  -8  215.88    9.10
   4  -4   8  189.38    9.20
   4  -4   8  187.58    9.80
  -4  -4  -8  209.18    9.20
   4  -4   8  210.08   11.40
  -4  -4  -8  221.18   10.90
   4   4   8  200.58    9.00
   4   4   8  210.58   10.70
  -4   4  -8  213.98   11.30
  -4   4  -8  216.38    8.80
  -5  -4  -8    1.80    4.10
   5  -4   8    5.70    4.30
  -5  -4  -8    8.60    5.10
  -5  -4  -8    7.50    5.70
   5  -4   8   17.20    4.80
   5  -4   8    8.40    5.40
   5   4   8   11.50    5.30
  -5   4  -8   11.70    5.80
   5   4   8    0.00    5.30
  -5   4  -8    1.40    3.80
  -6  -4  -8  187.38   10.20
   6  -4   8  201.08   13.10
   6  -4   8  211.88   11.70
   6  -4   8  210.88   13.20
  -6  -4  -8  207.58   10.70
  -6  -4  -8  200.28   10.40
  -6   4  -8  207.08    9.10
   6   4   8  192.08    9.90
   6   4   8  194.18   11.00
  -6   4  -8  209.08   10.60
   7  -4   8    6.30    6.10
  -7  -4  -8    9.50    4.10
   7  -4   8   10.70    7.50
  -7  -4  -8    8.80    4.80
   7  -4   8   12.90    7.10
  -7   4  -8   16.30    4.60
   7   4   8    1.70    6.30
   7   4   8   17.80    4.60
  -7   4  -8   27.70    7.20
   8  -4   8   36.60    8.80
   8  -4   8   48.20    8.60
  -8  -4  -8   45.90    6.70
  -8  -4  -8   50.69    7.50
   8   4   8   23.90    7.20
  -8   4  -8   46.00    8.40
   8   4   8   40.40    7.10
   9  -4   8   74.49    8.70
  -9  -4  -8   49.80    8.10
   9  -4   8   73.59    8.40
  -9  -4  -8   55.09    7.50
   9   4   8   56.59    8.10
   9   4   8   59.69    7.30
  -9   4  -8   69.69    9.80
 -10  -4  -8   14.90    8.30
  10  -4   8   -2.10    7.90
  10  -4   8   18.80    9.40
 -10  -4  -8    6.00    7.20
  10   4   8   13.40    7.80
  10   4   8    4.80    6.90
 -10   4  -8   -2.70    8.00
  12  -5  -8    8.40    8.30
 -12  -5   8    1.20    7.60
 -12  -5   8   18.20    8.00
  12  -5  -8   11.70    7.50
  12   5  -8    8.40    6.80
  12   5  -8    7.00    7.00
 -12   5   8   -0.90    7.80
 -12   5   8    8.80    5.90
  11  -5  -8   -4.00    7.30
 -11  -5   8    4.00    7.50
 -11  -5   8    6.10    5.40
  11  -5  -8   11.70    7.20
 -11   5   8    2.30    7.60
  11   5  -8   -6.80    6.00
  11   5  -8    7.90    4.80
 -11   5   8   -4.60    5.00
  10  -5  -8   10.50    7.00
 -10  -5   8    7.00    7.00
 -10  -5   8    9.20    7.00
  10  -5  -8   19.80    7.50
  10   5  -8    8.90    5.70
 -10   5   8    5.20    6.70
  10   5  -8   10.50    4.80
 -10   5   8    7.90    7.40
   9  -5  -8   14.30    5.20
  -9  -5   8    8.10    6.60
   9  -5  -8    2.30    6.70
  -9  -5   8    6.60    6.60
   9   5  -8    5.10    5.90
  -9   5   8    4.20    7.00
   9   5  -8    2.70    6.20
  -9   5   8   12.30    6.40
  -8  -5   8   16.40    4.90
  -8  -5   8    7.60    4.70
   8  -5  -8    9.30    6.70
   8  -5  -8    4.90    6.40
  -8   5   8   16.70    5.90
   8   5  -8    8.00    4.20
  -8   5   8    3.50    4.50
   7  -5  -8   67.99    6.80
  -7  -5   8   66.19    6.50
  -7  -5   8   62.59    7.80
   7  -5  -8   55.59    6.80
  -7  -5   8   52.49    7.50
   7   5  -8   49.00    6.80
  -7   5   8   69.59    8.00
  -7   5   8   60.69    6.70
   7   5  -8   50.69    5.70
  -6  -5   8   -4.20    5.40
   6  -5  -8   -2.50    5.70
  -6  -5   8   -5.00    5.40
  -6  -5   8   -1.30    4.30
   6   5  -8    4.90    5.20
   6   5  -8   -2.20    4.70
  -6   5   8   -0.40    5.70
  -6   5   8   -5.00    4.20
   5  -5  -8   -0.70    4.00
  -5  -5   8    0.60    4.40
  -5  -5   8    5.70    5.40
  -5   5   8   -1.60    3.60
   5   5  -8   -1.80    4.80
   5   5  -8   -1.00    4.40
  -4  -5   8   29.60    4.50
   4  -5  -8   19.80    6.00
  -4  -5   8   13.00    5.30
  -4  -5   8   24.10    5.30
   4   5  -8   19.30    4.20
   4   5  -8   17.00    3.90
  -4   5   8   18.50    5.30
   4   5  -8   25.80    5.00
  -4   5   8   24.50    5.60
   3  -5  -8    7.10    5.40
  -3  -5   8    6.20    3.60
  -3  -5   8   14.50    4.90
  -3  -5   8   12.70    4.30
   3   5  -8    7.50    3.40
   3   5  -8    0.10    3.90
  -3   5   8    6.30    4.60
   3   5  -8    6.70    4.40
  -3   5   8    5.90    3.60
  -2  -5   8    3.80    4.70
  -2  -5   8    1.60    4.40
   2  -5  -8    0.00    3.40
   2  -5  -8   -0.70    5.00
  -2  -5   8    2.20    4.60
   2   5  -8    3.50    3.60
  -2   5   8    4.10    4.50
   2   5  -8    3.10    4.30
  -2   5   8    2.50    3.50
   2   5  -8    5.20    4.10
  -1  -5   8   10.90    5.00
  -1  -5   8    7.20    3.90
   1  -5  -8   11.60    4.20
   1  -5  -8    1.50    3.70
  -1  -5   8    2.40    5.00
   1   5  -8    5.50    4.30
   1   5  -8    6.20    3.70
  -1   5   8    3.20    4.10
  -1   5   8    5.90    5.00
   0  -5  -8   -0.30    5.40
   0  -5   8    6.50    3.90
   0  -5   8    4.50    3.90
   0  -5   8    4.60    4.30
   0  -5  -8    6.40    4.50
   0   5   8    0.50    3.80
   0   5  -8    3.80    3.40
   0   5  -8    4.40    4.10
   0   5   8    5.70    5.10
  -1  -5  -8   34.20    5.80
   1  -5   8   28.20    5.50
  -1  -5  -8   36.80    6.60
   1  -5   8   38.70    6.50
   1  -5   8   40.00    5.60
   1   5   8   28.30    4.60
  -1   5  -8   36.60    5.00
   2  -5   8    2.40    6.00
   2  -5   8    7.70    5.30
  -2  -5  -8    8.80    4.20
   2  -5   8    6.90    4.20
  -2  -5  -8    8.40    5.60
   2   5   8   11.60    5.60
  -2   5  -8    6.30    4.20
   2   5   8   10.80    6.10
  -2   5  -8   11.00    5.70
  -3  -5  -8   29.00    6.60
   3  -5   8   23.20    6.50
   3  -5   8   29.40    6.50
  -3  -5  -8   23.70    6.40
   3  -5   8   34.50    7.30
   3   5   8   25.40    6.10
  -3   5  -8   29.30    4.70
   3   5   8   33.70    5.50
  -3   5  -8   30.50    6.90
  -4  -5  -8    4.30    6.30
   4  -5   8   -5.80    4.50
  -4  -5  -8    8.60    5.90
   4  -5   8    0.40    5.70
   4  -5   8   -0.40    6.10
  -4   5  -8   -4.50    5.90
   4   5   8    5.20    6.10
  -4   5  -8    0.50    4.00
   4   5   8    0.70    4.00
   5  -5   8   -3.10    6.90
   5  -5   8    6.10    4.60
  -5  -5  -8    6.50    4.90
  -5  -5  -8    2.10    4.40
   5  -5   8    3.70    7.20
  -5   5  -8    8.50    4.40
  -5   5  -8   14.50    6.80
   5   5   8    5.70    6.60
   5   5   8    6.30    6.00
  -6  -5  -8    5.50    6.40
   6  -5   8    6.30    6.80
  -6  -5  -8    6.20    7.50
   6  -5   8    7.20    7.40
   6  -5   8   14.50    7.90
  -6   5  -8    3.00    5.10
   6   5   8   10.60    6.50
   6   5   8    9.30    7.00
  -7  -5  -8   -7.60    7.30
   7  -5   8    1.30    5.50
   7  -5   8   -1.00    5.90
  -7   5  -8    3.90    5.40
   7   5   8   12.50    7.00
   7   5   8    2.80    7.40
   8  -5   8    8.80    6.70
  -8  -5  -8    2.80    7.80
   8  -5   8   11.00    6.30
   8   5   8    6.00    6.90
   8   5   8   15.90    7.90
  -8   5  -8   30.40    8.90
   9  -6  -8    3.30    7.80
  -9  -6   8   -5.30    7.60
  -9  -6   8    0.70    7.30
   9  -6  -8    5.00    5.70
  -9   6   8    8.00    8.00
   9   6  -8    4.50    7.00
   8  -6  -8   28.90    8.30
  -8  -6   8   37.30    8.30
  -8  -6   8   21.30    6.00
   8  -6  -8   25.00    6.30
  -8   6   8   36.80    8.60
   8   6  -8   26.40    7.40
  -7  -6   8   21.30    7.40
   7  -6  -8   10.20    5.70
  -7  -6   8   23.60    7.50
   7   6  -8   10.60    6.60
  -7   6   8   16.40    7.40
  -6  -6   8   34.80    7.50
   6  -6  -8   20.30    7.70
  -6  -6   8   40.50    7.60
   6   6  -8   18.80    6.50
  -6   6   8   24.70    7.20
  -5  -6   8   68.19    8.10
   5  -6  -8   68.09    8.80
  -5  -6   8   69.39    7.20
  -5   6   8   90.29    8.60
  -5   6   8   71.59    8.10
   5   6  -8   75.69    7.70
   5   6  -8   52.29    7.40
  -4  -6   8    6.10    6.30
   4  -6  -8    7.60    7.00
  -4  -6   8   11.00    5.60
  -4   6   8   11.20    4.70
   4   6  -8    9.30    5.70
   4   6  -8   11.90    5.70
  -4   6   8    5.20    6.40
  -3  -6   8   44.50    7.00
   3  -6  -8   50.29    6.70
  -3  -6   8   55.19    7.00
   3   6  -8   53.29    6.80
  -3   6   8   42.60    6.80
   3   6  -8   43.20    6.20
  -3   6   8   42.80    7.40
  -2  -6   8   16.90    5.50
   2  -6  -8   10.60    6.70
  -2  -6   8   16.50    6.00
   2   6  -8    7.90    5.40
  -2   6   8   12.80    4.90
   2   6  -8   17.50    5.20
  -2   6   8   17.60    4.50
  -1  -6   8   -5.10    5.60
  -1  -6   8    4.80    4.10
   1  -6  -8    7.30    6.60
   1   6  -8    2.60    5.00
  -1   6   8    3.40    4.30
   0  -6   8   16.70    6.60
   0  -6  -8   28.10    5.90
   0  -6   8   43.50    7.20
   0  -6  -8   25.90    7.40
   0   6  -8   36.90    5.60
   0   6   8   29.40    5.50
  -1  -6  -8   64.49    7.70
   1  -6   8   60.89    7.30
   1  -6   8   58.89    8.30
  -1  -6  -8   64.29    8.60
   1  -6   8   59.39    7.90
  -1   6  -8   60.59    6.40
  -1   6  -8   57.39    8.10
   1   6   8   63.79    7.70
   2  -6   8   33.50    8.00
  -2  -6  -8   37.40    7.90
   2  -6   8   37.60    5.90
   2  -6   8   38.10    7.10
  -2  -6  -8   50.79    7.80
  -2   6  -8   32.40    4.50
   2   6   8   36.20    7.30
   2   6   8   34.90    8.00
  -2   6  -8   45.70    8.20
  -3  -6  -8   -0.40    6.90
  -3  -6  -8   10.50    7.10
   3  -6   8   10.60    6.70
   3  -6   8   11.10    7.10
   3  -6   8   -1.30    7.10
   3   6   8    7.60    7.40
  -3   6  -8   13.10    7.10
   3   6   8   15.90    6.80
  -4  -6  -8    9.30    7.50
   4  -6   8   -4.40    7.30
   4  -6   8    5.30    7.30
  -4  -6  -8   -1.80    6.80
   4  -6   8    2.60    7.30
   4   6   8   11.30    7.80
  -4   6  -8    5.90    5.40
   4   6   8    2.80    6.80
   5  -6   8   -0.80    7.30
  -5  -6  -8   -2.20    7.50
   5  -6   8   -7.20    7.80
  -5  -6  -8   -0.30    7.10
   5  -6   8    1.90    8.10
  -5   6  -8    4.90    7.90
   5   6   8   -1.70    5.40
   5   6   8   -6.40    6.80
   6  -6   8   20.50    9.20
  -6  -6  -8   24.40    8.90
   6  -6   8   25.70    9.00
   6   6   8   19.70    6.50
   6   6   8   14.60    5.70
  -6   6  -8   29.40    8.90
   4  -7  -8  -15.30    7.40
  -4  -7   8    1.70    4.80
   4   7  -8    6.90    6.40
  -4   7   8    2.00    7.50
  -4   7   8    1.10    6.60
   4   7  -8   -1.10    4.40
   3  -7  -8   -0.70    5.40
  -3  -7   8    2.00    6.00
  -3   7   8   -2.60    5.10
  -3   7   8    1.40    7.20
   3   7  -8   -5.20    6.10
  -2  -7   8   -3.70    6.20
   2  -7  -8    4.30    8.10
  -2   7   8    4.60    7.30
   2   7  -8   -2.70    5.70
  -1  -7   8    3.20    6.40
   1  -7  -8  -11.10    7.50
  -1   7   8  -10.80    6.90
   1   7  -8   -2.90    6.70
   1   7  -8    4.10    5.60
   0  -7   8   13.90    7.20
   0  -7   8    9.80    7.20
   0  -7  -8   19.20    8.50
   0   7  -8   31.40    7.80
   0   7   8    6.60    5.40
  -1  -7  -8  -10.70    7.60
   1  -7   8    0.20    7.20
   1  -7   8   -5.10    6.90
   1   7   8    5.90    5.60
   1   7   8   -6.20    7.80
  -1   7  -8   -3.40    7.10
 -16   0   9  -10.40    5.50
  16   0  -9    1.10    7.90
 -15   0   9    9.70    8.20
  15   0  -9   -2.70    4.90
 -14   0   9   -2.80    7.40
  14   0  -9  -11.90    6.20
 -14   0   9   -2.80    5.20
  13   0  -9   -3.90    3.70
  13   0  -9  -10.70    5.50
 -13   0   9    4.90    4.50
 -13   0   9    3.30    6.60
 -12   0   9   -0.90    4.10
 -12   0   9   -0.80    4.40
  12   0  -9   -1.50    3.60
  12   0  -9   -1.90    3.50
  12   0  -9   -3.40    5.00
 -12   0   9    3.20    3.90
  11   0  -9   -6.50    4.60
 -11   0   9   -3.10    3.30
  11   0  -9    1.30    3.20
 -11   0   9   -8.50    5.20
 -11   0   9    0.70    3.80
  11   0  -9   -3.60    3.30
  10   0  -9    0.20    4.40
 -10   0   9   -0.90    3.80
  10   0  -9    1.90    3.30
 -10   0   9   -3.60    4.60
 -10   0   9    1.60    3.00
  10   0  -9   -2.10    3.90
   9   0  -9    3.80    4.20
  -9   0   9    4.20    4.40
   9   0  -9    1.50    3.50
  -9   0   9    0.70    2.50
  -9   0   9   -4.00    2.50
   9   0  -9    0.00    2.10
  -8   0   9   -4.10    3.50
   8   0  -9   -5.80    3.80
  -8   0   9    1.00    2.90
   8   0  -9   -3.20    3.10
   8   0  -9   -2.40    3.00
  -8   0   9   -2.00    2.40
   7   0  -9   -2.30    1.80
  -7   0   9   -0.60    2.20
   7   0  -9   -0.10    2.90
  -7   0   9   -3.90    3.60
   7   0  -9   -3.70    2.50
   7   0  -9   -3.30    3.40
  -7   0   9    1.30    3.40
  -6   0   9    1.10    3.10
   6   0  -9   -4.10    2.50
  -6   0   9    0.50    1.90
  -6   0   9    0.50    3.30
   6   0  -9   -3.20    2.00
   6   0  -9    0.20    3.00
   6   0  -9   -2.30    1.80
  -5   0   9    1.10    1.80
  -5   0   9   -1.20    2.00
  -5   0   9   -1.50    0.90
   5   0  -9   -0.90    1.80
   5   0  -9   -3.10    2.70
  -5   0   9   -0.90    2.10
   5   0  -9    1.40    2.50
   5   0  -9   -0.10    1.80
  -4   0   9    0.10    1.70
   4   0  -9    0.10    2.60
   4   0  -9   -0.20    2.40
  -4   0   9    0.10    0.90
  -4   0   9   -3.80    2.50
  -4   0   9    1.60    2.80
   4   0  -9   -0.30    1.20
  -3   0   9   -1.80    2.70
  -3   0   9   -2.50    2.30
   3   0  -9   -1.20    2.40
   3   0  -9   -3.20    1.80
  -3   0   9    0.10    0.90
   3   0  -9   -3.10    2.20
   2   0  -9   -2.90    2.20
   2   0  -9   -2.90    2.20
  -2   0   9    0.20    1.20
  -2   0   9    1.00    1.80
  -2   0   9   -2.70    2.20
   2   0  -9   -0.90    1.30
   2   0  -9   -0.10    1.90
  -1   0   9   -0.70    2.50
   1   0  -9    0.70    1.30
   1   0  -9   -1.90    1.90
  -1   0   9   -2.50    2.10
   1   0  -9   -0.40    2.20
   1   0  -9   -1.60    2.10
  -1   0   9   -2.80    1.40
   0   0  -9    1.10    2.10
   0   0   9   -0.90    1.70
   0   0  -9   -0.90    2.20
   0   0  -9   -2.30    1.90
   0   0  -9    1.00    1.30
   0   0   9    0.60    1.00
   0   0   9   -2.70    2.50
   0   0   9    0.10    2.10
   1   0   9    1.10    1.50
   1   0   9   -0.70    1.10
  -1   0  -9   -0.60    1.00
  -1   0  -9    1.00    2.30
   1   0   9    1.90    2.20
  -1   0  -9   -0.40    2.20
   1   0   9   -1.50    2.50
  -2   0  -9    0.40    1.80
  -2   0  -9    0.30    2.40
  -2   0  -9   -0.30    1.20
   2   0   9   -1.10    2.00
   2   0   9   -2.60    1.60
   2   0   9   -0.80    1.50
   3   0   9   -4.70    2.80
   3   0   9    1.10    2.10
   3   0   9    2.50    2.00
   3   0   9   -1.10    2.90
  -3   0  -9    3.80    2.80
  -3   0  -9    0.60    2.50
   4   0   9   -0.50    2.20
  -4   0  -9   -0.80    2.70
   4   0   9    2.00    2.20
  -4   0  -9   -1.00    2.10
   4   0   9    0.00    3.20
   4   0   9   -2.60    2.30
  -4   0  -9   -2.80    2.20
   5   0   9    1.40    3.60
  -5   0  -9   -1.90    1.90
   5   0   9   -0.10    2.40
   5   0   9   -2.90    3.40
  -5   0  -9   -0.50    2.40
  -5   0  -9   -2.10    2.30
   5   0   9    0.70    2.30
  -6   0  -9   -0.50    2.70
  -6   0  -9   -4.70    2.90
   6   0   9    1.80    3.80
   6   0   9    6.20    4.40
   6   0   9    0.50    3.10
  -6   0  -9    0.30    3.80
   6   0   9   -3.00    2.80
   7   0   9   -4.30    4.00
   7   0   9   -3.80    3.20
   7   0   9    4.70    4.90
  -7   0  -9    0.70    4.20
  -7   0  -9    3.10    3.20
   8   0   9   -1.40    3.60
  -8   0  -9    0.00    4.40
   8   0   9   -4.40    4.30
  -8   0  -9   -1.70    4.70
   8   0   9   -1.80    3.90
   9   0   9   -6.00    5.40
  -9   0  -9   -4.60    3.70
  -9   0  -9    4.80    4.70
   9   0   9   -5.60    4.50
 -10   0  -9   -2.50    5.80
 -10   0  -9    1.80    5.10
  10   0   9    2.90    6.10
  10   0   9   -2.40    6.10
  11   0   9    3.50    6.90
 -11   0  -9   -0.50    6.40
  11   0   9   -9.40    6.60
 -11   0  -9   -4.50    5.20
  12   0   9   -1.20    7.60
  12   0   9   -1.10    5.10
 -12   0  -9    2.60    7.10
  16  -1  -9    7.60    8.40
 -16  -1   9   28.00    8.90
 -16  -1   9   14.00    6.80
 -16   1   9   30.60    9.60
  16   1  -9   28.10    8.40
 -15  -1   9    9.80    8.10
 -15  -1   9   20.00    6.40
  15  -1  -9   16.70    8.00
 -15   1   9    8.30    8.50
  15   1  -9   14.10    7.30
 -14  -1   9   -1.80    5.00
  14  -1  -9    8.90    7.00
 -14  -1   9   -4.50    5.30
 -14   1   9    1.30    5.10
 -14   1   9   -3.20    7.10
  14   1  -9    3.40    4.60
  14   1  -9   10.20    4.80
  13  -1  -9   58.69    8.10
  13  -1  -9   69.69    7.50
 -13  -1   9   84.39    7.80
 -13  -1   9   62.89    6.70
 -13   1   9   67.89    7.50
  13   1  -9   70.99    6.10
  13   1  -9   65.19    7.60
 -13   1   9   75.99    7.10
 -12  -1   9    8.30    4.80
  12  -1  -9    5.30    5.70
 -12  -1   9   11.00    4.80
  12  -1  -9    4.10    5.20
  12   1  -9   17.70    4.60
 -12   1   9    5.30    4.90
  12   1  -9   14.10    4.20
  12   1  -9   18.60    5.90
 -12   1   9   17.90    6.60
 -11  -1   9  184.98    8.60
  11  -1  -9  176.58   10.30
 -11  -1   9  196.78    8.30
  11  -1  -9  196.18   10.60
  11  -1  -9  172.08    7.60
 -11  -1   9  181.28   11.10
 -11   1   9  189.08    9.70
  11   1  -9  205.98   11.00
 -11   1   9  188.88   11.20
  11   1  -9  183.18    9.70
  11   1  -9  183.68    8.70
 -10  -1   9   55.49    5.70
  10  -1  -9   56.59    6.30
 -10  -1   9   66.49    5.60
  10  -1  -9   59.29    6.40
  10  -1  -9   63.49    4.70
 -10  -1   9   59.99    5.30
 -10   1   9   50.69    5.80
  10   1  -9   58.29    5.20
  10   1  -9   56.39    5.40
  10   1  -9   54.19    6.50
 -10   1   9   54.49    6.80
 -10   1   9   52.99    4.70
   9  -1  -9  100.39    5.90
  -9  -1   9  104.79    6.70
  -9  -1   9  113.79    7.70
   9  -1  -9  102.39    7.90
   9  -1  -9  106.09    6.30
   9  -1  -9  100.99    5.00
  -9  -1   9  102.79    6.30
   9   1  -9   92.89    6.00
   9   1  -9  105.59    6.70
  -9   1   9  108.69    7.50
  -9   1   9   96.59    4.80
  -9   1   9  102.19    7.30
   9   1  -9  106.39    7.50
   8  -1  -9   28.70    4.40
  -8  -1   9   25.20    4.80
  -8  -1   9   27.00    4.10
   8  -1  -9   23.30    4.70
  -8  -1   9   35.70    4.20
   8  -1  -9   25.80    2.50
   8  -1  -9   29.60    3.60
   8   1  -9   29.10    3.80
  -8   1   9   27.40    2.70
   8   1  -9   35.90    5.10
   8   1  -9   29.30    4.10
  -8   1   9   33.30    4.50
  -8   1   9   31.60    5.00
  -7  -1   9   46.20    4.20
   7  -1  -9   41.50    3.90
   7  -1  -9   48.80    4.60
  -7  -1   9   38.50    5.00
  -7  -1   9   48.40    4.60
   7  -1  -9   45.30    5.20
   7  -1  -9   44.80    2.90
  -7   1   9   46.10    4.80
  -7   1   9   44.50    5.10
  -7   1   9   48.30    3.20
   7   1  -9   43.40    3.70
   7   1  -9   49.00    3.90
   7   1  -9   44.00    4.30
  -6  -1   9  567.74   14.70
  -6  -1   9  524.95   14.40
   6  -1  -9  559.64   13.40
   6  -1  -9  539.35   12.20
  -6  -1   9  542.25   13.50
  -6  -1   9  548.15   14.20
   6  -1  -9  553.14   15.00
  -6   1   9  539.95   14.60
  -6   1   9  532.45   14.30
   6   1  -9  543.25   13.40
   6   1  -9  554.64   15.20
  -6   1   9  540.75   12.30
   6   1  -9  541.35   12.90
   6   1  -9  525.15   13.50
   5  -1  -9  101.49    4.10
  -5  -1   9   96.29    5.30
   5  -1  -9  109.19    5.40
  -5  -1   9  111.39    6.10
   5  -1  -9  104.79    6.70
  -5  -1   9  102.49    6.00
   5   1  -9  104.49    4.20
  -5   1   9  105.99    5.50
  -5   1   9   94.99    3.70
   5   1  -9   92.89    5.00
   5   1  -9  108.19    5.70
  -5   1   9  104.49    6.00
   5   1  -9  110.09    6.40
   4  -1  -9  647.14   15.20
  -4  -1   9  655.23   15.90
  -4  -1   9  615.04   15.40
  -4  -1   9  656.83   15.30
   4  -1  -9  639.24   15.40
   4  -1  -9  647.84   16.60
   4  -1  -9  622.14   14.00
   4   1  -9  643.94   15.90
   4   1  -9  637.34   15.00
   4   1  -9  611.74   13.60
  -4   1   9  625.44   14.10
   4   1  -9  656.83   15.10
  -4   1   9  642.24   15.40
  -4   1   9  649.83   16.10
   3  -1  -9   14.50    2.00
   3  -1  -9   12.80    3.20
   3  -1  -9   12.50    2.70
  -3  -1   9   18.50    2.70
  -3  -1   9   16.00    3.00
  -3  -1   9   14.60    0.70
   3  -1  -9   10.10    2.40
  -3  -1   9   13.10    2.50
   3   1  -9   14.90    2.70
  -3   1   9   13.60    2.00
   3   1  -9    9.60    2.90
  -3   1   9   15.60    2.60
   3   1  -9   14.90    2.30
  -3   1   9    7.20    3.10
   2  -1  -9  132.09    5.30
  -2  -1   9  127.29    6.00
   2  -1  -9  131.39    5.50
   2  -1  -9  127.59    4.70
   2  -1  -9  130.29    6.40
  -2  -1   9  132.39    5.60
   2   1  -9  136.39    5.70
  -2   1   9  132.09    6.30
   2   1  -9  126.19    5.40
  -2   1   9  132.09    4.50
   2   1  -9  136.89    5.80
  -1  -1   9  366.26    8.50
  -1  -1   9  384.46   10.50
   1  -1  -9  361.76    9.70
  -1  -1   9  363.56   10.10
   1  -1  -9  359.66    9.40
   1  -1  -9  376.86    9.70
  -1  -1   9  365.96   10.50
  -1   1   9  373.76   10.50
   1   1  -9  369.06    9.90
  -1   1   9  357.26    9.10
   1   1  -9  358.76    9.80
  -1   1   9  372.56    9.70
   1   1  -9  368.06    8.20
   1   1  -9  351.66    9.40
   0  -1   9  124.69    6.00
   0  -1   9  118.59    5.20
   0  -1  -9  114.69    4.70
   0  -1   9  116.49    4.70
   0  -1  -9  118.19    5.40
   0  -1  -9  117.99    5.10
   0   1   9  118.79    5.10
   0   1  -9  106.29    4.70
   0   1  -9  113.09    3.00
   0   1   9  121.29    5.60
   0   1  -9  123.89    5.30
   0   1  -9  101.49    4.60
   0   1   9  118.29    4.80
   1  -1   9  342.87   10.00
   1  -1   9  352.16   10.40
  -1  -1  -9  339.87    9.50
   1  -1   9  345.27    9.20
  -1  -1  -9  340.77    9.50
  -1  -1  -9  336.67    9.00
   1   1   9  353.36    9.60
   1   1   9  340.67    8.80
   1   1   9  343.87    9.70
  -1   1  -9  345.87    9.30
  -1   1  -9  331.87    8.90
   1   1   9  347.87    9.00
  -1   1  -9  336.37    9.30
  -2  -1  -9   30.70    3.60
   2  -1   9   34.40    3.70
   2  -1   9   30.90    2.50
  -2  -1  -9   35.50    3.60
   2  -1   9   30.50    1.50
   2  -1   9   28.60    3.90
  -2  -1  -9   33.70    2.80
   2  -1   9   28.40    3.40
  -2   1  -9   35.10    2.80
   2   1   9   33.90    2.90
   2   1   9   32.10    3.30
   2   1   9   35.10    3.80
   2   1   9   34.80    2.70
  -2   1  -9   32.60    3.10
   3  -1   9  212.38    8.40
   3  -1   9  203.28    7.20
   3  -1   9  202.68    7.60
  -3  -1  -9  200.58    7.80
   3  -1   9  210.58    5.50
  -3  -1  -9  219.28    7.90
  -3  -1  -9  202.78    6.60
   3   1   9  209.08    7.30
   3   1   9  203.78    6.30
   3   1   9  197.28    6.80
  -3   1  -9  213.28    6.90
  -3   1  -9  202.68    7.00
  -4  -1  -9   23.10    3.80
   4  -1   9   19.50    4.00
  -4  -1  -9   22.10    3.80
  -4  -1  -9   21.20    2.40
   4  -1   9   16.80    2.30
   4  -1   9   18.90    4.10
   4  -1   9   15.30    3.30
  -4   1  -9   20.40    2.90
   4   1   9   16.50    3.00
  -4   1  -9   15.90    3.50
   4   1   9   17.90    3.90
  -4   1  -9   17.10    3.60
   4   1   9   20.70    2.30
   5  -1   9   69.39    5.80
   5  -1   9   65.59    4.90
  -5  -1  -9   69.89    5.70
  -5  -1  -9   68.79    5.40
   5  -1   9   50.69    5.50
   5   1   9   61.99    5.40
   5   1   9   61.09    4.90
  -5   1  -9   69.79    4.80
   5   1   9   61.59    4.70
  -5   1  -9   59.69    5.00
  -5   1  -9   74.29    5.50
   6  -1   9   37.50    4.30
   6  -1   9   37.30    5.40
   6  -1   9   48.60    4.90
  -6  -1  -9   35.20    5.00
  -6   1  -9   45.20    4.90
   6   1   9   52.09    4.80
   6   1   9   41.20    4.30
   6   1   9   42.50    4.50
  -6   1  -9   48.30    5.20
  -6   1  -9   45.30    3.80
  -7  -1  -9    4.10    3.30
   7  -1   9   13.60    3.80
   7  -1   9    3.70    5.20
   7  -1   9    7.20    3.70
  -7  -1  -9    7.70    3.40
   7  -1   9    6.80    5.00
  -7   1  -9    4.80    3.20
   7   1   9   11.00    4.00
   7   1   9    6.90    3.50
  -7   1  -9    5.60    4.00
   7   1   9    6.40    3.80
   8  -1   9  116.89    8.70
   8  -1   9   90.49    6.20
  -8  -1  -9   97.49    7.00
   8  -1   9   97.29    7.70
   8  -1   9  109.89    8.30
  -8  -1  -9   94.19    7.70
  -8   1  -9  101.69    7.30
   8   1   9   97.69    7.70
  -8   1  -9   90.59    7.10
   8   1   9   91.39    6.30
   8   1   9   92.59    6.80
  -9  -1  -9   -2.70    5.20
   9  -1   9    4.70    6.40
  -9  -1  -9   -0.10    3.90
   9  -1   9    1.00    5.50
   9  -1   9    1.60    5.90
   9   1   9   -1.00    3.80
  -9   1  -9   -1.30    5.10
   9   1   9    7.00    4.90
  -9   1  -9   -6.60    4.40
  -9   1  -9   -4.90    4.00
  10  -1   9   12.40    5.90
  10  -1   9   18.30    7.00
 -10  -1  -9   12.60    6.60
 -10  -1  -9   16.50    6.40
  10  -1   9    9.90    7.30
 -10   1  -9   12.20    5.60
  10   1   9   12.30    5.60
 -10   1  -9   26.80    6.30
  10   1   9   16.40    6.40
  11  -1   9    3.50    7.60
  11  -1   9   13.20    7.40
 -11  -1  -9   11.20    6.50
 -11  -1  -9    8.90    7.20
  11   1   9    6.30    6.00
  11   1   9    7.70    4.80
 -11   1  -9    2.60    6.20
  12  -1   9    4.40    7.80
 -12  -1  -9   10.60    7.60
 -12  -1  -9   -1.50    6.20
  12  -1   9    5.00    5.80
 -12   1  -9   -2.80    6.70
  12   1   9   11.10    7.40
  12   1   9    5.30    7.30
  15  -2  -9    4.40    8.50
 -15  -2   9   15.20    7.00
 -15  -2   9    2.90    7.80
  15   2  -9    4.70    7.20
 -15   2   9   10.20    8.50
  15   2  -9   13.00    5.80
 -15   2   9   16.70    6.40
  14  -2  -9   14.30    8.30
 -14  -2   9   12.10    5.80
 -14  -2   9   12.90    5.70
 -14  -2   9   12.20    6.50
 -14   2   9   12.30    7.80
  14   2  -9   21.30    5.70
  14   2  -9   17.90    7.00
 -14   2   9    7.80    6.20
  13  -2  -9   24.30    7.70
 -13  -2   9    7.10    5.10
 -13  -2   9   12.30    6.00
 -13  -2   9    8.50    3.90
  13  -2  -9   15.70    5.90
 -13  -2   9    7.20    7.10
  13   2  -9   14.90    4.60
 -13   2   9   31.80    7.70
  13   2  -9   13.80    5.40
 -13   2   9   16.70    4.70
 -12  -2   9    0.40    5.10
  12  -2  -9    2.80    6.40
 -12  -2   9    1.10    4.90
 -12  -2   9   -2.90    4.50
 -12  -2   9    5.10    6.30
  12  -2  -9    1.30    5.10
 -12   2   9   -1.80    4.30
 -12   2   9    0.80    5.20
  12   2  -9   -0.90    4.60
  12   2  -9   -6.50    4.90
  11  -2  -9   75.99    7.50
 -11  -2   9   94.49    7.40
 -11  -2   9   69.69    7.00
  11  -2  -9   84.29    8.30
 -11  -2   9   79.09    7.00
 -11  -2   9   79.99    7.10
  11   2  -9   77.69    7.00
  11   2  -9   81.19    7.90
 -11   2   9   91.69    7.60
  11   2  -9   92.19    6.90
 -11   2   9   80.19    8.20
 -10  -2   9   11.10    4.70
  10  -2  -9    5.00    3.50
  10  -2  -9   14.20    4.20
  10  -2  -9    8.10    4.90
 -10  -2   9   15.40    4.80
 -10  -2   9    6.90    5.50
 -10  -2   9    8.90    3.50
 -10  -2   9   12.30    4.80
 -10   2   9   11.70    5.60
  10   2  -9   13.90    4.50
 -10   2   9   13.70    3.80
  10   2  -9   11.70    5.30
  10   2  -9   13.00    4.30
  -9  -2   9   91.29    6.50
  -9  -2   9  110.89    7.30
  -9  -2   9  104.59    7.00
   9  -2  -9   96.29    5.60
   9  -2  -9  102.29    7.80
   9  -2  -9   90.19    6.20
  -9   2   9   91.49    6.30
   9   2  -9   96.39    7.60
  -9   2   9   99.99    6.80
   9   2  -9   97.69    6.50
   9   2  -9   92.49    6.60
   8  -2  -9  292.07   11.00
  -8  -2   9  291.67   10.50
   8  -2  -9  288.37    9.50
  -8  -2   9  274.47    9.80
  -8  -2   9  303.07   10.90
   8  -2  -9  289.07   11.20
   8  -2  -9  288.47    9.00
  -8   2   9  286.97   11.00
   8   2  -9  275.07    9.20
   8   2  -9  288.47   11.60
  -8   2   9  290.77   11.20
   8   2  -9  275.67   10.00
   7  -2  -9   77.89    5.30
  -7  -2   9   71.99    5.10
  -7  -2   9   73.29    5.80
  -7  -2   9   79.09    5.40
   7  -2  -9   78.79    6.20
   7  -2  -9   74.19    6.00
   7   2  -9   82.69    6.50
   7   2  -9   74.59    4.80
   7   2  -9   86.99    5.70
  -7   2   9   78.09    6.10
  -7   2   9   84.49    5.60
   6  -2  -9   12.80    4.20
  -6  -2   9   11.50    2.60
  -6  -2   9   12.10    3.60
  -6  -2   9   12.50    3.50
  -6  -2   9   17.40    4.00
   6  -2  -9   11.60    3.00
   6  -2  -9   12.40    3.00
   6   2  -9   13.00    2.90
   6   2  -9   11.70    4.00
  -6   2   9    8.50    3.90
  -6   2   9   12.70    2.90
   6   2  -9   11.70    2.70
  -5  -2   9   -3.00    2.00
   5  -2  -9   -1.10    2.10
   5  -2  -9    2.00    1.20
  -5  -2   9   -4.80    3.00
  -5  -2   9   -2.30    2.80
   5  -2  -9   -0.20    2.30
   5  -2  -9    0.90    2.60
  -5  -2   9   -3.80    2.20
   5   2  -9   -2.40    1.80
   5   2  -9    3.80    3.30
  -5   2   9   -1.70    2.90
   5   2  -9    1.90    1.70
   5   2  -9   -4.00    2.70
  -5   2   9    0.50    3.30
  -4  -2   9   88.99    5.80
  -4  -2   9  101.89    5.60
   4  -2  -9   99.69    3.80
  -4  -2   9   96.89    3.00
   4  -2  -9   98.39    5.50
   4  -2  -9  108.59    6.20
  -4  -2   9   93.49    6.20
  -4   2   9  105.39    6.50
  -4   2   9  105.59    4.90
   4   2  -9  103.19    5.60
   4   2  -9  100.49    5.80
  -4   2   9  101.09    5.40
   4   2  -9  101.49    6.30
   4   2  -9   94.49    3.70
   3  -2  -9  193.88    7.50
   3  -2  -9  173.28    5.30
  -3  -2   9  172.08    5.00
   3  -2  -9  174.98    6.80
  -3  -2   9  184.68    7.30
  -3  -2   9  163.68    7.30
  -3  -2   9  163.98    7.00
  -3   2   9  194.28    7.70
  -3   2   9  176.28    6.20
   3   2  -9  183.18    7.30
   3   2  -9  170.18    4.40
   3   2  -9  182.28    7.00
  -3   2   9  175.78    6.40
   3   2  -9  171.48    6.80
   2  -2  -9  125.09    4.70
  -2  -2   9  137.19    6.50
   2  -2  -9  115.39    5.90
  -2  -2   9  128.49    6.50
  -2  -2   9  120.49    4.90
  -2  -2   9  123.09    6.10
   2  -2  -9  129.39    5.60
  -2   2   9  128.89    6.70
   2   2  -9  126.79    5.90
  -2   2   9  127.39    5.50
   2   2  -9  128.39    6.00
   2   2  -9  111.59    5.10
  -2   2   9  118.79    4.90
  -1  -2   9  133.19    6.70
   1  -2  -9  138.49    6.30
   1  -2  -9  137.69    6.30
  -1  -2   9  136.09    6.70
  -1  -2   9  138.29    5.50
   1  -2  -9  129.79    5.20
  -1   2   9  135.79    5.30
   1   2  -9  137.29    5.50
   1   2  -9  138.19    5.40
   1   2  -9  144.09    5.70
  -1   2   9  135.09    5.90
   0  -2  -9   10.50    2.60
   0  -2  -9    7.00    2.80
   0  -2   9    7.80    3.40
   0  -2   9    7.80    2.60
   0  -2  -9    7.60    3.00
   0  -2   9    9.60    3.30
   0   2  -9    7.20    2.00
   0   2  -9    7.30    2.70
   0   2  -9    7.00    2.20
   0   2   9    5.30    2.80
   0   2   9    8.60    3.10
  -1  -2  -9   14.60    3.10
   1  -2   9   13.10    3.40
   1  -2   9   13.10    3.50
   1  -2   9   15.30    2.00
   1  -2   9   14.50    2.50
  -1  -2  -9   13.10    3.10
   1  -2   9   15.50    3.00
  -1  -2  -9   16.50    3.40
   1   2   9   21.90    3.60
  -1   2  -9   13.30    1.80
   1   2   9   18.90    2.20
   1   2   9   15.90    3.10
  -1   2  -9   19.50    3.20
  -1   2  -9   16.90    2.80
   2  -2   9   35.10    4.50
  -2  -2  -9   42.10    4.10
   2  -2   9   47.50    4.60
   2  -2   9   40.00    3.70
   2  -2   9   43.30    4.80
  -2  -2  -9   37.50    4.30
  -2  -2  -9   38.90    4.00
   2   2   9   44.60    2.80
  -2   2  -9   41.10    3.40
  -2   2  -9   37.40    2.50
  -2   2  -9   36.70    4.00
   2   2   9   42.60    4.00
   2   2   9   40.10    3.50
   2   2   9   44.60    4.40
   3  -2   9   90.99    5.50
  -3  -2  -9   86.39    6.10
  -3  -2  -9   92.19    5.80
   3  -2   9   82.69    6.30
  -3  -2  -9   93.29    5.70
   3  -2   9  107.49    7.30
   3  -2   9   93.69    5.80
   3   2   9   95.39    5.50
  -3   2  -9   96.99    5.40
  -3   2  -9   90.49    6.10
   3   2   9   88.09    5.80
   3   2   9   96.09    5.00
   4  -2   9   37.40    4.70
   4  -2   9   33.30    5.10
  -4  -2  -9   31.70    3.80
  -4  -2  -9   28.40    3.70
   4  -2   9   31.10    5.20
   4  -2   9   27.90    4.50
  -4  -2  -9   37.00    4.80
   4   2   9   34.10    4.20
   4   2   9   27.50    4.50
  -4   2  -9   27.70    4.60
  -4   2  -9   35.40    3.10
  -4   2  -9   33.40    4.30
   5  -2   9   16.70    5.00
   5  -2   9   21.50    5.30
  -5  -2  -9   24.70    4.80
  -5  -2  -9   15.10    4.70
   5  -2   9   18.50    4.30
   5  -2   9   17.90    3.70
   5   2   9   20.30    4.70
  -5   2  -9   19.30    3.50
  -5   2  -9   16.70    4.50
   5   2   9   20.90    4.20
  -5   2  -9   20.10    3.40
  -6  -2  -9   75.39    6.80
   6  -2   9   68.29    6.80
  -6  -2  -9   74.89    6.80
   6  -2   9   72.79    7.10
   6  -2   9   66.09    5.90
   6  -2   9   73.39    7.50
   6   2   9   79.89    5.40
  -6   2  -9   78.99    6.10
   6   2   9   76.59    6.00
   6   2   9   71.89    5.60
  -6   2  -9   70.69    6.80
  -7  -2  -9   26.30    5.80
   7  -2   9   38.30    6.50
   7  -2   9   34.30    6.60
   7  -2   9   31.50    5.10
   7  -2   9   30.50    5.10
  -7  -2  -9   24.90    5.90
   7   2   9   33.20    5.40
   7   2   9   29.90    4.30
  -7   2  -9   48.50    6.30
  -7   2  -9   30.60    5.10
   7   2   9   37.00    4.70
   8  -2   9   11.70    4.80
  -8  -2  -9   13.30    4.40
   8  -2   9   11.20    5.00
   8  -2   9   17.80    6.30
  -8  -2  -9   16.10    4.60
   8  -2   9    8.70    4.50
   8   2   9    4.30    5.10
   8   2   9    2.50    5.30
  -8   2  -9    8.60    4.90
  -8   2  -9   12.70    5.60
   9  -2   9    4.60    5.00
   9  -2   9   -2.70    5.90
  -9  -2  -9   -0.30    5.90
  -9  -2  -9   -0.50    6.00
   9  -2   9    2.70    6.50
   9   2   9   -0.90    5.30
  -9   2  -9    2.00    5.80
  -9   2  -9    3.80    3.70
   9   2   9    0.60    5.90
 -10  -2  -9   -6.40    6.40
 -10  -2  -9    0.20    6.30
  10  -2   9    3.10    7.40
  10  -2   9    4.20    5.10
  10  -2   9    3.30    4.70
 -10   2  -9   -5.80    6.00
  10   2   9    2.20    5.90
 -10   2  -9    0.00    5.40
  10   2   9    5.00    6.30
  11  -2   9   -2.60    8.00
 -11  -2  -9    6.40    5.40
  11  -2   9   24.40    8.30
  11  -2   9   10.50    7.40
 -11  -2  -9    9.20    7.10
  11   2   9    2.90    4.80
  11   2   9   -9.70    6.10
 -11   2  -9   -3.80    6.60
 -11   2  -9    7.80    6.20
 -14  -3   9   59.89    8.70
  14  -3  -9   73.09   10.30
 -14  -3   9   60.69    7.00
  14   3  -9   77.99    7.60
 -14   3   9   72.69    8.70
 -14   3   9   72.09    8.30
  14   3  -9   65.89    7.90
  13  -3  -9    9.60    7.60
 -13  -3   9    1.00    6.10
 -13  -3   9    2.80    4.70
 -13   3   9    6.90    6.60
  13   3  -9   -0.40    4.20
  13   3  -9    2.40    5.80
 -13   3   9    1.40    7.20
  12  -3  -9  300.67   14.20
 -12  -3   9  330.37   14.00
 -12  -3   9  305.97   14.00
  12  -3  -9  299.87   15.70
  12   3  -9  314.07   13.00
 -12   3   9  314.87   14.40
 -12   3   9  324.17   15.10
  12   3  -9  326.57   13.20
 -11  -3   9   21.50    5.30
 -11  -3   9   29.80    6.60
 -11  -3   9   19.50    6.20
  11  -3  -9   24.60    5.30
  11  -3  -9   22.90    6.10
  11  -3  -9   11.60    6.80
  11   3  -9   44.10    6.20
  11   3  -9   28.00    5.60
 -11   3   9   30.30    5.30
 -11   3   9   28.80    7.10
 -10  -3   9  249.78   10.50
 -10  -3   9  248.98   11.60
  10  -3  -9  249.58   10.70
 -10  -3   9  247.78   11.00
  10  -3  -9  244.98   11.30
  10  -3  -9  242.38   12.20
  10   3  -9  228.38   10.90
 -10   3   9  263.57   12.50
 -10   3   9  240.08   12.00
  10   3  -9  240.58   10.50
  10   3  -9  239.78    9.70
   9  -3  -9   12.00    5.60
  -9  -3   9    7.40    4.60
   9  -3  -9    9.60    4.40
  -9  -3   9   10.80    5.10
   9  -3  -9   12.70    5.10
  -9  -3   9    8.50    4.90
   9   3  -9   13.10    4.70
   9   3  -9   12.00    5.30
  -9   3   9   12.00    5.30
   9   3  -9   11.50    4.10
  -9   3   9   12.30    5.50
  -8  -3   9    4.80    4.10
  -8  -3   9    1.50    4.40
   8  -3  -9    3.60    4.00
   8  -3  -9    3.40    3.40
  -8  -3   9    0.70    4.30
   8  -3  -9    1.90    2.70
   8   3  -9    3.20    3.30
   8   3  -9    2.00    4.50
  -8   3   9    3.10    4.50
  -8   3   9    2.60    3.20
   8   3  -9    6.60    4.10
  -7  -3   9  356.86   12.10
  -7  -3   9  331.37   11.70
   7  -3  -9  342.37   12.60
  -7   3   9  326.97   12.20
   7   3  -9  311.07   11.10
   7   3  -9  317.87   12.40
   7   3  -9  331.27    9.90
  -7   3   9  351.76   11.70
  -6  -3   9   11.40    2.80
  -6  -3   9   11.60    4.20
   6  -3  -9   11.30    3.10
   6  -3  -9    8.80    3.30
  -6  -3   9    8.50    4.00
  -6   3   9    4.10    4.10
  -6   3   9   11.50    3.90
   6   3  -9    8.80    4.00
   6   3  -9    8.80    4.30
   6   3  -9   12.30    2.70
  -5  -3   9  734.63   18.70
   5  -3  -9  735.73   17.60
  -5  -3   9  710.63   17.40
  -5  -3   9  731.73   18.70
   5  -3  -9  715.63   18.60
   5   3  -9  719.23   18.00
  -5   3   9  713.73   17.70
  -5   3   9  730.03   18.80
   5   3  -9  703.33   16.30
   5   3  -9  720.43   19.00
   5   3  -9  749.82   18.10
  -4  -3   9   84.79    5.80
  -4  -3   9   95.69    6.40
   4  -3  -9   88.29    5.50
   4  -3  -9   79.69    6.20
  -4  -3   9   90.99    5.60
   4   3  -9   81.49    6.40
  -4   3   9   82.69    5.40
   4   3  -9   81.49    5.50
  -4   3   9   80.29    5.30
   4   3  -9   86.59    5.50
  -4   3   9   83.19    6.10
   3  -3  -9  149.19    8.10
  -3  -3   9  151.78    7.60
  -3  -3   9  140.49    4.90
  -3  -3   9  133.19    7.10
  -3  -3   9  148.39    7.80
   3  -3  -9  146.99    7.10
  -3   3   9  148.39    6.90
   3   3  -9  156.58    7.30
   3   3  -9  152.98    7.00
  -3   3   9  140.09    5.60
  -3   3   9  139.59    6.60
   3   3  -9  146.39    7.00
  -2  -3   9   28.80    3.20
   2  -3  -9   29.40    4.30
  -2  -3   9   30.80    4.20
  -2  -3   9   28.50    3.60
   2  -3  -9   32.50    3.50
  -2  -3   9   32.10    4.50
   2  -3  -9   28.40    2.70
   2   3  -9   37.90    4.20
   2   3  -9   28.60    3.30
  -2   3   9   36.90    4.50
  -2   3   9   28.80    4.00
   2   3  -9   38.70    3.90
  -2   3   9   29.70    2.60
   1  -3  -9  172.28    6.40
  -1  -3   9  164.18    6.70
  -1  -3   9  172.68    8.50
   1  -3  -9  172.78    8.20
  -1  -3   9  164.68    8.20
   1  -3  -9  180.38    7.90
  -1   3   9  183.28    7.10
   1   3  -9  192.08    7.00
   1   3  -9  185.58    7.20
  -1   3   9  176.98    7.70
   1   3  -9  179.58    6.70
   0  -3   9  886.11   22.10
   0  -3   9  892.61   21.30
   0  -3  -9  946.01   21.80
   0  -3  -9  894.81   20.70
   0  -3  -9  902.11   21.60
   0  -3  -9  910.21   21.70
   0  -3   9  932.51   22.30
   0   3  -9  918.91   20.50
   0   3   9  880.41   21.10
   0   3  -9  918.31   21.00
   0   3   9  950.40   21.60
  -1  -3  -9   46.90    4.40
  -1  -3  -9   57.19    5.40
  -1  -3  -9   50.79    5.00
   1  -3   9   54.59    5.10
  -1  -3  -9   43.20    5.00
   1  -3   9   45.00    4.30
   1  -3   9   32.80    4.30
   1   3   9   50.59    4.90
  -1   3  -9   42.10    4.40
   1   3   9   39.50    4.10
  -1   3  -9   48.70    3.80
   2  -3   9  347.47   12.90
   2  -3   9  387.86   12.60
  -2  -3  -9  363.46   11.50
  -2  -3  -9  395.06   12.10
   2  -3   9  377.66   12.40
  -2  -3  -9  375.86   12.40
  -2   3  -9  380.86   10.10
  -2   3  -9  376.76   11.30
   2   3   9  376.66   11.40
   2   3   9  381.66   11.50
   2   3   9  366.36   10.50
  -3  -3  -9   50.69    5.30
  -3  -3  -9   49.00    4.90
   3  -3   9   54.39    5.70
  -3  -3  -9   51.89    4.60
   3  -3   9   38.50    5.60
   3  -3   9   42.40    5.70
  -3   3  -9   51.59    3.60
   3   3   9   44.50    3.50
  -3   3  -9   57.89    4.90
   3   3   9   46.30    5.40
   3   3   9   50.29    5.30
  -4  -3  -9  133.69    8.70
   4  -3   9  128.49    7.10
   4  -3   9  120.09    7.70
  -4  -3  -9  130.09    7.80
  -4  -3  -9  146.09    8.60
   4  -3   9  129.39    7.90
  -4   3  -9  146.29    7.60
   4   3   9  130.69    8.20
  -4   3  -9  131.49    8.90
   4   3   9  125.69    7.80
   5  -3   9  121.29    9.20
   5  -3   9  133.29    8.60
   5  -3   9  134.09    8.90
  -5  -3  -9  129.39    9.10
  -5  -3  -9  136.69    8.10
  -5  -3  -9  138.49    8.40
  -5   3  -9  122.49    8.50
  -5   3  -9  155.68    8.00
   5   3   9  150.48    8.80
   5   3   9  132.69    8.30
   6  -3   9   39.20    5.90
  -6  -3  -9   45.50    6.70
  -6  -3  -9   44.20    5.30
   6  -3   9   56.59    6.50
   6  -3   9   51.79    7.20
  -6   3  -9   47.40    6.60
   6   3   9   42.70    6.20
   6   3   9   55.99    6.40
  -6   3  -9   51.49    5.50
  -7  -3  -9  159.58   11.00
   7  -3   9  169.78   10.80
  -7  -3  -9  145.89    9.00
   7  -3   9  143.19    8.40
   7  -3   9  162.98   11.30
   7   3   9  144.09    9.90
  -7   3  -9  155.58   11.20
   7   3   9  134.59    8.30
  -7   3  -9  141.19    8.70
  -8  -3  -9   11.70    5.90
   8  -3   9    5.00    7.40
  -8  -3  -9    0.30    4.40
   8  -3   9    5.10    5.40
   8  -3   9    3.20    6.80
  -8  -3  -9    3.20    6.30
   8   3   9    9.60    4.80
  -8   3  -9    3.70    4.40
   8   3   9    8.10    4.40
  -8   3  -9    5.40    4.90
   8   3   9   11.20    6.10
  -9  -3  -9   85.79    8.70
   9  -3   9   91.59   10.60
   9  -3   9  111.29   10.10
  -9  -3  -9  102.79    8.50
  -9  -3  -9  114.89   10.10
  -9   3  -9  101.29    9.80
   9   3   9   97.49    8.90
   9   3   9   86.29    7.30
 -10  -3  -9    7.70    6.90
  10  -3   9   -5.60    7.30
  10  -3   9   18.70    8.90
 -10  -3  -9    6.40    7.40
  10   3   9  -12.70    6.30
  10   3   9    4.50    6.80
 -10   3  -9   11.20    7.60
 -10   3  -9    3.50    5.60
 -13  -4   9    7.70    7.30
 -13  -4   9    2.80    5.30
  13  -4  -9    7.70    6.20
 -13   4   9    2.30    8.00
 -13   4   9   16.60    7.70
  13   4  -9   -5.40    6.30
  13   4  -9   11.40    6.70
  12  -4  -9   -0.80    7.50
  12  -4  -9   -6.50    5.60
 -12  -4   9   -6.80    6.40
 -12  -4   9  -10.90    6.50
  12   4  -9   -1.00    5.80
  12   4  -9   -2.30    6.00
 -12   4   9   -3.90    7.20
 -12   4   9   -4.20    4.70
 -11  -4   9    5.70    6.60
  11  -4  -9   12.30    4.60
  11  -4  -9   13.30    5.50
 -11  -4   9   20.50    6.90
  11   4  -9    2.80    5.30
  11   4  -9   14.90    4.70
 -11   4   9   14.50    7.00
 -11   4   9    5.00    6.80
  10  -4  -9  118.99   10.20
  10  -4  -9  118.79    8.80
 -10  -4   9  123.29    9.60
 -10  -4   9  114.99    8.50
  10   4  -9   89.49    7.40
 -10   4   9  114.29    9.40
 -10   4   9  125.19    9.70
  10   4  -9   99.99    7.30
   9  -4  -9  169.48   10.20
  -9  -4   9  144.89    9.20
  -9  -4   9  127.29    9.30
  -9  -4   9  138.59    8.70
   9  -4  -9  158.18   10.80
   9   4  -9  125.19    8.30
  -9   4   9  151.08    9.90
   9   4  -9  131.29    8.10
  -9   4   9  150.78    8.70
  -8  -4   9  180.88   10.60
  -8  -4   9  182.18   10.50
   8  -4  -9  172.58   10.20
   8  -4  -9  185.18   11.50
  -8  -4   9  162.38    8.20
   8   4  -9  180.98   10.10
  -8   4   9  171.38   10.80
  -8   4   9  183.18   10.20
   8   4  -9  161.88   10.70
  -7  -4   9  133.09    7.50
  -7  -4   9  137.59    7.90
   7  -4  -9  137.49    8.40
  -7  -4   9  143.69    9.40
  -7   4   9  141.39    8.70
   7   4  -9  125.39    8.10
   7   4  -9  138.59    8.40
  -7   4   9  149.59    9.80
   6  -4  -9   59.19    5.00
   6  -4  -9   50.09    6.40
  -6  -4   9   55.89    5.90
  -6  -4   9   55.29    6.20
  -6   4   9   61.69    6.50
   6   4  -9   56.79    5.10
   6   4  -9   56.49    5.50
  -6   4   9   60.79    5.70
   5  -4  -9   30.80    5.70
  -5  -4   9   35.50    5.30
  -5  -4   9   37.90    4.50
  -5  -4   9   25.90    5.20
   5  -4  -9   29.30    4.30
   5   4  -9   29.80    4.90
   5   4  -9   23.20    4.80
  -5   4   9   26.60    4.40
   5   4  -9   29.00    4.20
  -5   4   9   24.90    4.00
  -4  -4   9   11.40    3.50
   4  -4  -9   20.10    5.20
  -4  -4   9   15.00    4.60
  -4  -4   9    4.40    3.40
   4  -4  -9   16.80    4.00
   4  -4  -9    7.30    3.30
  -4   4   9    8.70    4.20
  -4   4   9    8.00    3.00
  -4   4   9   14.70    4.80
   4   4  -9    5.50    3.90
   4   4  -9    9.90    3.10
   4   4  -9    3.10    3.90
   3  -4  -9  335.87   12.50
  -3  -4   9  325.77   11.70
   3  -4  -9  319.67   10.20
  -3  -4   9  328.87   11.50
  -3  -4   9  315.87   11.80
  -3   4   9  334.87   11.60
   3   4  -9  313.77   11.10
   3   4  -9  339.57   11.30
  -3   4   9  305.67   10.60
   3   4  -9  341.67   10.90
   2  -4  -9  157.48    7.90
  -2  -4   9  151.78    6.60
   2  -4  -9  153.68    7.40
  -2  -4   9  154.78    8.70
  -2  -4   9  146.49    8.60
  -2  -4   9  139.79    8.20
   2   4  -9  139.69    8.00
   2   4  -9  141.79    7.20
  -2   4   9  156.38    8.20
  -2   4   9  147.09    8.30
   2   4  -9  158.18    7.50
   1  -4  -9  158.48    9.10
  -1  -4   9  150.38    7.60
  -1  -4   9  145.79    9.00
   1  -4  -9  153.78    7.90
  -1  -4   9  148.89    7.20
  -1   4   9  146.89    8.40
  -1   4   9  161.68    8.10
   1   4  -9  157.88    8.10
   1   4  -9  151.18    7.20
   0  -4  -9   34.90    5.50
   0  -4   9   39.30    4.70
   0  -4   9   44.90    5.50
   0  -4  -9   38.30    5.10
   0  -4   9   49.50    6.00
   0   4   9   36.20    5.20
   0   4  -9   37.50    4.70
   0   4  -9   44.00    4.20
   0   4   9   43.20    4.70
  -1  -4  -9   91.69    7.10
   1  -4   9   88.29    6.70
  -1  -4  -9   95.59    7.10
   1  -4   9   81.79    7.30
   1  -4   9   99.49    7.30
  -1   4  -9  100.19    6.20
   1   4   9   83.99    6.70
   1   4   9   81.99    5.50
  -1   4  -9   89.89    5.60
   2  -4   9   34.70    5.70
   2  -4   9   32.10    6.10
  -2  -4  -9   31.20    4.70
   2  -4   9   32.50    5.70
  -2  -4  -9   37.10    4.90
  -2  -4  -9   32.20    5.50
   2   4   9   35.40    5.70
  -2   4  -9   39.10    4.00
   2   4   9   27.30    5.30
  -2   4  -9   33.50    4.70
   3  -4   9    4.50    5.00
  -3  -4  -9    0.70    4.60
   3  -4   9    7.30    5.60
  -3  -4  -9   -1.30    4.30
  -3  -4  -9   -2.40    5.00
   3  -4   9    0.00    4.90
  -3   4  -9    6.00    3.70
   3   4   9    1.20    4.70
   3   4   9    5.10    4.90
  -3   4  -9    6.80    4.00
  -4  -4  -9   41.50    6.70
   4  -4   9   41.60    5.70
  -4  -4  -9   40.20    6.10
   4  -4   9   30.80    6.70
  -4  -4  -9   30.10    4.70
   4  -4   9   37.40    6.30
   4   4   9   27.50    4.70
   4   4   9   32.50    6.20
  -4   4  -9   41.80    6.70
  -4   4  -9   34.70    4.90
   5  -4   9   98.09    8.40
   5  -4   9  107.39    8.30
  -5  -4  -9  100.19    7.80
   5  -4   9  110.09    9.60
  -5  -4  -9   92.29    8.70
  -5  -4  -9   81.49    6.90
   5   4   9   90.09    7.90
  -5   4  -9  105.19    9.00
   5   4   9   91.49    8.00
  -5   4  -9   94.39    6.60
   6  -4   9   57.29    7.20
   6  -4   9   63.69    7.80
  -6  -4  -9   46.20    6.40
   6  -4   9   63.09    7.20
  -6  -4  -9   58.29    8.10
  -6   4  -9   45.90    7.70
  -6   4  -9   42.70    4.70
   6   4   9   63.69    7.70
   6   4   9   52.99    7.20
  -7  -4  -9   16.50    6.20
  -7  -4  -9   32.30    7.70
   7  -4   9   11.10    6.40
   7  -4   9   18.00    6.10
   7  -4   9   18.40    5.70
  -7   4  -9   29.10    7.70
   7   4   9   22.20    6.60
  -7   4  -9    9.00    4.80
   7   4   9   17.40    6.70
   8  -4   9    5.50    8.20
   8  -4   9    3.40    5.40
  -8  -4  -9    2.10    6.10
  -8  -4  -9    6.40    7.10
  -8   4  -9    7.90    5.40
   8   4   9   -5.30    6.40
   8   4   9    0.10    6.50
  -8   4  -9    9.00    7.50
  -9  -4  -9   -1.10    6.60
   9  -4   9    8.10    9.20
  -9  -4  -9    5.60    7.90
   9  -4   9   -4.00    8.00
   9   4   9   -6.00    6.30
   9   4   9    7.70    7.30
  -9   4  -9    3.80    5.80
 -11  -5   9  120.59   11.00
 -11  -5   9  128.69   11.10
  11  -5  -9  124.09   11.70
  11  -5  -9  125.19   10.50
 -11   5   9  152.28   11.80
  11   5  -9  110.29    9.60
 -11   5   9  140.39   10.90
  10  -5  -9   12.20    5.80
  10  -5  -9   12.00    5.20
 -10  -5   9    3.60    7.10
 -10  -5   9   -1.90    4.90
 -10   5   9    8.40    5.60
 -10   5   9    5.50    6.60
  10   5  -9   14.60    6.60
   9  -5  -9   62.49    8.30
  -9  -5   9   75.79    9.00
  -9  -5   9   63.89    8.60
   9  -5  -9   62.89    7.40
  -9   5   9   65.89    8.00
  -9   5   9   73.79    7.60
   9   5  -9   69.09    8.10
  -8  -5   9   55.39    7.90
  -8  -5   9   51.59    6.50
   8  -5  -9   48.70    6.70
  -8   5   9   49.90    6.60
  -8   5   9   41.50    6.60
   8   5  -9   41.90    7.00
   7  -5  -9   26.60    7.40
  -7  -5   9   26.70    5.70
  -7  -5   9   24.30    6.90
   7   5  -9   29.10    5.00
  -7   5   9   18.10    6.70
  -7   5   9   19.90    5.50
   6  -5  -9  490.65   17.60
  -6  -5   9  466.85   15.60
  -6  -5   9  487.35   16.80
   6   5  -9  490.35   15.70
  -6   5   9  481.05   16.80
   6   5  -9  443.06   16.20
   6   5  -9  484.65   15.70
  -5  -5   9   37.20    6.10
  -5  -5   9   38.20    6.80
   5  -5  -9   44.00    7.30
  -5   5   9   45.70    6.80
  -5   5   9   47.80    6.50
   5   5  -9   47.40    6.20
   5   5  -9   58.99    6.50
   5   5  -9   56.09    5.70
  -4  -5   9  345.87   12.40
  -4  -5   9  367.46   12.50
  -4  -5   9  353.96   13.70
   4  -5  -9  354.16   13.30
   4   5  -9  382.16   13.00
  -4   5   9  371.26   13.80
   4   5  -9  329.17   12.10
   4   5  -9  384.66   13.50
  -4   5   9  348.57   12.70
  -3  -5   9    8.00    5.30
  -3  -5   9    3.20    4.50
   3  -5  -9    6.40    4.10
  -3  -5   9    8.90    5.20
   3   5  -9    9.80    4.60
   3   5  -9   12.70    4.30
   3   5  -9    3.60    4.80
  -3   5   9   12.20    5.40
  -3   5   9    7.40    5.00
   2  -5  -9   98.89    7.50
   2  -5  -9  100.39    6.70
  -2  -5   9  113.29    8.30
  -2  -5   9   93.69    7.60
   2   5  -9  101.59    7.30
  -2   5   9  115.49    7.70
  -2   5   9  122.19    8.40
   2   5  -9   92.99    6.70
  -1  -5   9  118.69    8.10
   1  -5  -9  140.79    8.70
   1  -5  -9  153.88    8.80
  -1  -5   9  139.59    8.60
  -1   5   9  157.48    9.80
  -1   5   9  149.79    8.60
   1   5  -9  137.79    7.70
   1   5  -9  143.99    8.90
   0  -5  -9    0.70    4.60
   0  -5   9   -1.20    5.50
   0  -5   9   -1.30    5.20
   0  -5  -9    0.60    5.40
   0  -5   9    5.70    4.30
   0   5  -9    2.30    3.60
   0   5  -9    3.60    4.40
   0   5   9    0.70    4.00
   0   5   9    5.10    3.80
   1  -5   9  309.27   12.20
   1  -5   9  291.17   12.40
  -1  -5  -9  313.37   13.50
   1  -5   9  315.47   13.00
  -1  -5  -9  316.67   12.90
  -1   5  -9  287.37   11.40
   1   5   9  315.17   13.00
  -2  -5  -9   22.00    5.00
  -2  -5  -9   20.10    6.10
   2  -5   9   16.10    6.50
   2  -5   9   15.00    6.80
   2  -5   9   15.50    5.70
   2   5   9   21.00    6.10
  -2   5  -9   17.60    4.80
  -2   5  -9   19.90    6.30
   2   5   9   14.20    4.80
   3  -5   9  170.18   11.80
   3  -5   9  161.38    9.90
   3  -5   9  170.28   11.40
  -3  -5  -9  166.88   11.40
  -3  -5  -9  180.18   11.60
  -3   5  -9  164.08   11.90
   3   5   9  164.28   10.90
  -3   5  -9  163.18    9.20
   3   5   9  176.28   12.00
   4  -5   9    6.60    6.40
   4  -5   9    6.80    6.70
  -4  -5  -9    0.00    6.10
  -4  -5  -9   -3.90    6.60
   4  -5   9   12.70    7.40
   4   5   9    8.60    4.60
  -4   5  -9   21.80    7.10
   4   5   9    7.30    4.70
  -4   5  -9   14.70    4.90
   5  -5   9   42.90    8.60
   5  -5   9   51.49    8.20
  -5  -5  -9   40.60    8.10
  -5  -5  -9   46.60    6.10
   5  -5   9   53.39    8.70
  -5   5  -9   52.09    8.40
   5   5   9   48.20    8.10
  -5   5  -9   41.10    5.70
   5   5   9   39.10    5.80
  -6  -5  -9   75.19    8.50
   6  -5   9   82.99   10.40
   6  -5   9   96.59    8.40
  -6  -5  -9   90.69   10.10
   6  -5   9  100.19   10.90
   6   5   9   86.99    9.00
  -6   5  -9   78.29    9.70
   6   5   9   82.29    9.50
  -7  -5  -9    3.70    8.00
   7  -5   9   -0.70    8.10
   7  -5   9   -4.10    8.50
   7   5   9    3.40    7.70
  -7   5  -9    9.60    8.10
   7   5   9   -2.30    6.90
  -8  -5  -9  105.29   11.40
   8  -5   9   87.29   12.10
   8  -5   9   83.49   10.90
   8   5   9   87.99    9.60
  -8   5  -9   93.39   11.30
   8   5   9   65.39    8.00
  -9  -6   9   59.19    9.50
   9  -6  -9   55.09    8.20
  -9  -6   9   62.99    9.60
  -9   6   9   75.89    8.40
   9   6  -9   49.70    8.40
   8  -6  -9   46.40    7.60
  -8  -6   9   58.29    8.90
  -8   6   9   68.69    8.00
   8   6  -9   47.90    6.60
   7  -6  -9   77.09   10.20
  -7  -6   9   69.69    7.60
   7   6  -9   67.89    8.30
  -7   6   9   72.79    9.30
   7   6  -9   60.99    8.10
  -6  -6   9    8.40    6.80
   6  -6  -9   -4.40    7.00
  -6   6   9    6.20    6.80
   6   6  -9    1.00    4.30
  -6   6   9   -6.80    6.10
   6   6  -9    2.10    6.10
  -5  -6   9   18.40    6.90
  -5  -6   9    6.70    5.70
   5  -6  -9    3.30    7.20
  -5   6   9    6.10    6.70
  -5   6   9    5.10    6.50
   5   6  -9   -0.90    5.90
   5   6  -9   14.60    6.20
  -4  -6   9   11.70    4.90
  -4  -6   9    7.10    5.90
   4  -6  -9   13.50    7.20
   4   6  -9    8.70    4.30
  -4   6   9   10.90    4.80
  -4   6   9   10.70    6.60
   4   6  -9   12.60    5.80
  -3  -6   9   43.60    7.10
  -3  -6   9   49.90    7.40
   3  -6  -9   45.50    6.70
  -3   6   9   68.59    8.30
   3   6  -9   53.09    6.70
   3   6  -9   61.29    7.20
  -3   6   9   50.19    6.00
  -2  -6   9   64.79    7.60
   2  -6  -9   65.29    8.90
  -2  -6   9   79.39    8.30
  -2   6   9   71.09    7.40
  -2   6   9   96.09    9.10
   2   6  -9   88.29    7.70
  -1  -6   9   91.29    8.80
   1  -6  -9   63.39    8.50
  -1  -6   9   59.99    7.80
  -1   6   9   66.79    8.30
   1   6  -9   58.99    6.90
   0  -6   9   23.40    5.50
   0  -6  -9   30.20    6.20
   0  -6  -9   13.50    7.20
   0  -6   9   30.80    7.30
   0   6  -9   22.80    5.70
   0   6   9   26.00    7.10
  -1  -6  -9    4.80    6.10
   1  -6   9   18.80    7.50
   1  -6   9    6.10    6.80
  -1  -6  -9   12.40    7.30
   1   6   9    8.40    6.70
   1   6   9   22.40    7.70
  -1   6  -9   14.50    6.80
  -1   6  -9   23.10    5.60
   2  -6   9    1.10    6.70
  -2  -6  -9   -1.60    7.00
   2  -6   9   -0.80    5.90
   2  -6   9   -4.20    7.00
  -2  -6  -9   -1.10    6.30
   2   6   9    5.50    7.40
   2   6   9   -2.80    6.40
  -2   6  -9    2.20    4.90
  -2   6  -9    7.80    6.90
  -3  -6  -9   10.80    7.40
   3  -6   9    4.70    7.10
  -3  -6  -9    0.20    6.80
   3  -6   9   11.70    7.60
   3  -6   9    3.40    7.70
  -3   6  -9    6.60    5.30
   3   6   9   10.40    5.50
   3   6   9    7.40    7.00
  -4  -6  -9   42.70    8.70
   4  -6   9   40.60    8.60
   4  -6   9   45.30    7.60
  -4  -6  -9   39.80    8.40
   4  -6   9   53.29    9.20
  -4   6  -9   52.39    9.20
   4   6   9   44.90    9.10
   4   6   9   51.19    8.40
   5  -6   9    6.10    8.60
  -5  -6  -9    0.00    7.30
  -5  -6  -9    6.10    5.80
   5  -6   9    1.20    8.20
   5  -6   9    4.50    7.90
   5   6   9    9.40    7.50
  -5   6  -9   -1.20    7.70
   5   6   9    3.10    7.90
  16   0 -10  150.08   11.70
 -16   0  10  148.99   12.70
 -15   0  10   70.59   10.00
  15   0 -10   80.19    7.80
 -14   0  10  201.78   14.10
  14   0 -10  173.98   12.40
  13   0 -10   23.20    6.30
 -13   0  10    0.10    4.60
 -13   0  10    0.60    6.80
  12   0 -10  170.98   10.50
 -12   0  10  173.18    8.40
 -12   0  10  175.28    9.40
  12   0 -10  154.88   10.80
 -12   0  10  159.88   11.50
  12   0 -10  155.48    8.40
 -11   0  10  107.89    7.30
 -11   0  10  101.79    8.50
  11   0 -10   97.89    6.30
 -11   0  10  115.39    7.00
  11   0 -10   99.89    7.50
  11   0 -10  115.09    8.60
  10   0 -10   52.29    5.00
  10   0 -10   58.49    5.10
 -10   0  10   46.40    6.40
  10   0 -10   57.89    6.70
 -10   0  10   49.80    5.60
 -10   0  10   56.69    4.70
   9   0 -10   78.29    6.80
  -9   0  10   83.09    6.40
   9   0 -10   92.09    5.80
   9   0 -10   86.49    5.90
   9   0 -10   78.79    4.90
  -9   0  10   80.59    5.30
  -9   0  10   86.19    6.30
   8   0 -10  295.57    9.80
   8   0 -10  281.77    9.60
   8   0 -10  319.17   11.70
  -8   0  10  287.77   10.40
   8   0 -10  287.57    8.50
  -8   0  10  298.87    9.00
  -8   0  10  294.57   10.60
   7   0 -10 1474.55   31.40
   7   0 -10 1472.95   31.20
   7   0 -10 1453.65   32.90
   7   0 -10 1439.26   30.40
  -7   0  10 1440.16   31.90
  -7   0  10 1453.05   30.70
  -7   0  10 1480.85   32.70
  -6   0  10  109.99    6.00
   6   0 -10  116.79    6.30
  -6   0  10  120.09    3.60
   6   0 -10  117.39    5.40
   6   0 -10  129.59    6.60
  -6   0  10  122.59    7.10
   6   0 -10  121.29    5.10
  -6   0  10  131.69    5.40
   5   0 -10  404.46   10.80
   5   0 -10  387.76   10.10
   5   0 -10  402.36   12.20
  -5   0  10  368.36    8.50
  -5   0  10  392.36   10.20
  -5   0  10  387.46   11.20
  -5   0  10  410.96   11.90
   4   0 -10    1.40    2.60
   4   0 -10   -0.20    2.00
  -4   0  10    3.80    3.20
  -4   0  10    2.50    1.20
   4   0 -10    1.40    2.20
   3   0 -10  197.88    6.30
   3   0 -10  204.48    6.70
  -3   0  10  207.08    7.10
  -3   0  10  202.88    7.80
   3   0 -10  199.98    7.30
  -3   0  10  188.98    5.30
   3   0 -10  213.28    8.10
  -2   0  10 1468.85   30.20
   2   0 -10 1498.65   30.80
   2   0 -10 1544.65   31.40
   2   0 -10 1510.85   31.60
  -2   0  10 1503.45   32.30
  -2   0  10 1521.35   32.00
   2   0 -10 1508.65   32.40
   1   0 -10  142.89    5.80
   1   0 -10  141.19    6.10
  -1   0  10  143.49    6.60
  -1   0  10  141.39    4.90
   1   0 -10  144.39    4.90
  -1   0  10  140.39    5.60
   1   0 -10  136.69    5.70
   0   0  10 1468.95   30.70
   0   0 -10 1434.56   30.50
   0   0 -10 1474.75   30.50
   0   0  10 1428.96   29.80
   0   0  10 1484.15   31.20
   0   0  10 1392.36   28.60
   1   0  10   75.09    4.70
   1   0  10   73.69    4.80
  -1   0 -10   70.99    3.20
  -1   0 -10   79.79    5.00
   1   0  10   73.09    4.90
  -1   0 -10   72.79    4.60
   1   0  10   66.69    3.00
  -2   0 -10  741.03   16.10
  -2   0 -10  791.62   18.20
   2   0  10  754.12   16.40
  -2   0 -10  752.52   18.10
   2   0  10  794.12   18.80
   2   0  10  782.62   18.00
   2   0  10  796.22   18.00
   3   0  10  161.08    5.40
   3   0  10  166.98    7.80
  -3   0 -10  168.48    7.20
   3   0  10  158.38    6.50
  -3   0 -10  160.68    7.30
   3   0  10  189.98    7.60
   4   0  10    3.00    2.10
   4   0  10    4.90    2.70
  -4   0 -10    0.20    3.00
  -4   0 -10    1.40    2.50
   4   0  10    5.10    3.80
  -4   0 -10    3.90    2.50
   4   0  10    4.60    2.50
   5   0  10  679.33   17.70
  -5   0 -10  662.03   16.90
   5   0  10  664.93   16.20
   5   0  10  656.13   17.50
  -5   0 -10  676.93   16.90
   5   0  10  666.93   16.20
  -5   0 -10  671.33   16.60
   6   0  10   12.60    5.00
   6   0  10    6.30    3.30
  -6   0 -10   10.70    3.30
   6   0  10   18.90    4.70
  -6   0 -10    9.60    3.50
  -6   0 -10   16.10    3.90
   7   0  10 1005.10   24.20
  -7   0 -10  974.60   24.20
   7   0  10  999.60   24.30
  -8   0 -10   16.70    5.10
   8   0  10   12.70    4.50
  -8   0 -10   18.60    4.30
   8   0  10   12.10    5.20
   9   0  10    4.10    5.40
   9   0  10    7.30    6.10
  -9   0 -10    4.30    5.80
  -9   0 -10   15.10    5.60
 -10   0 -10   53.29    7.10
  10   0  10   45.40    6.60
  10   0  10   44.70    7.80
 -10   0 -10   43.60    7.50
  11   0  10    0.50    5.00
 -11   0 -10   -3.50    5.50
 -11   0 -10   -8.00    6.70
  11   0  10   -5.30    7.40
  15  -1 -10    9.90    8.00
 -15  -1  10   11.00    8.10
 -15  -1  10   11.70    6.10
 -15   1  10   10.30    6.30
  15   1 -10   20.20    7.50
 -14  -1  10    1.20    5.40
 -14  -1  10   -4.30    5.20
  14  -1 -10    4.10    7.20
 -14   1  10    4.40    5.60
 -14   1  10    0.20    7.40
  14   1 -10    3.50    6.30
  14   1 -10    1.00    4.80
 -13  -1  10  131.79    7.80
  13  -1 -10  119.39    9.90
 -13  -1  10  155.68   11.20
  13   1 -10  116.49    7.70
  13   1 -10  132.89    9.20
 -13   1  10  134.19    8.80
 -13   1  10  127.29   10.50
  12  -1 -10  169.48   11.00
 -12  -1  10  149.39    9.30
 -12  -1  10  152.38   10.70
  12  -1 -10  187.58   11.50
  12   1 -10  179.38   11.30
 -12   1  10  151.08    9.80
  12   1 -10  190.08   10.30
  12   1 -10  183.48    9.30
 -12   1  10  171.08   11.80
  11  -1 -10  360.86   12.80
  11  -1 -10  371.96   14.40
 -11  -1  10  366.26   12.40
 -11  -1  10  362.26   14.60
 -11  -1  10  363.56   12.50
 -11   1  10  357.46   14.50
  11   1 -10  361.56   12.70
 -11   1  10  370.46   13.10
  11   1 -10  352.86   14.30
  11   1 -10  383.36   12.40
  10  -1 -10  466.15   15.80
 -10  -1  10  456.35   13.80
 -10  -1  10  470.25   15.80
  10  -1 -10  456.65   14.80
  10   1 -10  473.65   13.80
  10   1 -10  445.36   14.70
 -10   1  10  447.36   14.50
  10   1 -10  453.45   13.60
 -10   1  10  470.95   15.70
   9  -1 -10  120.39    6.80
  -9  -1  10  135.69    7.20
   9  -1 -10  122.89    8.10
   9  -1 -10  137.39    7.90
  -9  -1  10  115.69    7.60
  -9  -1  10  131.29    8.60
   9   1 -10  123.89    7.60
  -9   1  10  131.59    9.10
   9   1 -10  129.59    7.50
   9   1 -10  129.19    7.00
  -9   1  10  144.59    8.40
  -8  -1  10   -0.70    3.60
   8  -1 -10    0.80    4.30
  -8  -1  10    3.80    2.30
   8  -1 -10   -1.80    3.10
   8  -1 -10    1.70    1.70
   8  -1 -10    3.80    2.70
  -8  -1  10   -1.20    4.20
   8   1 -10    0.10    2.80
  -8   1  10   -1.40    3.00
  -8   1  10   -2.10    3.90
  -8   1  10   -2.10    2.20
   8   1 -10    0.40    4.00
   8   1 -10    0.60    3.40
   8   1 -10    0.10    2.70
   7  -1 -10  105.69    7.60
   7  -1 -10  102.59    4.50
  -7  -1  10  103.99    7.00
   7  -1 -10  102.29    6.10
  -7  -1  10   98.19    6.70
  -7  -1  10  108.29    6.20
   7   1 -10   99.09    5.20
   7   1 -10   99.49    7.30
  -7   1  10  102.89    6.10
  -7   1  10   94.39    6.50
   7   1 -10   96.69    5.70
  -7   1  10  100.09    4.50
   7   1 -10  113.59    6.50
   6  -1 -10  351.66   10.70
   6  -1 -10  362.56   11.90
   6  -1 -10  355.86    9.20
  -6  -1  10  374.16   10.70
  -6  -1  10  365.46   11.50
  -6  -1  10  370.76   11.70
   6   1 -10  375.66   12.20
  -6   1  10  392.26   11.70
   6   1 -10  355.36    9.50
   6   1 -10  362.06   10.30
  -6   1  10  381.96   11.90
   6   1 -10  375.16   11.10
  -5  -1  10  692.73   16.20
  -5  -1  10  664.93   16.80
   5  -1 -10  646.54   16.00
   5  -1 -10  682.23   16.50
   5  -1 -10  635.04   14.60
  -5  -1  10  666.43   16.80
   5  -1 -10  672.83   17.80
   5   1 -10  662.23   17.20
   5   1 -10  656.43   16.20
  -5   1  10  669.93   16.70
   5   1 -10  638.84   15.40
  -5   1  10  641.24   14.60
  -5   1  10  659.13   16.50
   4  -1 -10  516.55   14.70
   4  -1 -10  503.65   13.30
   4  -1 -10  520.65   13.40
   4  -1 -10  506.95   12.00
  -4  -1  10  525.45   13.30
  -4  -1  10  508.75   14.00
  -4  -1  10  513.15   13.90
   4   1 -10  530.05   13.50
  -4   1  10  522.95   13.40
   4   1 -10  533.45   13.90
  -4   1  10  537.15   14.30
   4   1 -10  525.55   13.10
  -4   1  10  507.55   11.90
   4   1 -10  499.05   11.40
   3  -1 -10  516.25   13.20
  -3  -1  10  534.85   14.30
   3  -1 -10  523.85   12.50
   3  -1 -10  535.95   14.80
  -3  -1  10  540.35   14.10
  -3  -1  10  529.55   10.70
   3  -1 -10  543.25   13.40
   3   1 -10  548.95   13.30
   3   1 -10  522.35   13.70
   3   1 -10  537.75   13.30
  -3   1  10  530.35   12.30
  -3   1  10  529.05   13.30
  -3   1  10  558.44   14.40
  -2  -1  10   58.69    2.60
  -2  -1  10   68.09    4.90
   2  -1 -10   67.39    4.30
   2  -1 -10   63.19    3.90
  -2  -1  10   61.99    4.90
   2  -1 -10   55.29    4.20
   2  -1 -10   67.39    4.70
   2   1 -10   60.29    4.30
   2   1 -10   55.49    4.10
  -2   1  10   84.89    5.30
   2   1 -10   60.19    4.40
  -2   1  10   55.79    3.70
  -1  -1  10   15.50    3.20
  -1  -1  10   10.50    2.60
   1  -1 -10   14.80    2.20
  -1  -1  10   13.30    1.80
   1  -1 -10   14.80    2.50
   1  -1 -10   16.20    3.10
  -1   1  10   13.40    2.70
   1   1 -10   14.00    2.60
  -1   1  10   12.60    2.60
   1   1 -10   11.70    2.90
   1   1 -10   11.70    1.60
   1   1 -10   13.30    3.00
  -1   1  10    9.50    2.70
   0  -1 -10   44.40    3.60
   0  -1  10   39.30    3.20
   0  -1  10   36.50    4.00
   0  -1 -10   43.80    3.30
   0  -1 -10   36.50    3.80
   0  -1  10   36.00    4.00
   0   1 -10   42.60    3.40
   0   1 -10   37.10    3.20
   0   1  10   41.30    3.40
   0   1  10   40.80    3.50
   0   1 -10   46.00    3.90
   0   1  10   39.20    4.00
  -1  -1 -10  448.86   12.10
  -1  -1 -10  462.55   12.10
  -1  -1 -10  448.06   11.40
   1  -1  10  455.85   11.70
   1  -1  10  461.35   12.60
   1  -1  10  459.95   13.10
   1   1  10  460.15   12.10
   1   1  10  468.35   11.60
  -1   1 -10  453.15   12.00
   1   1  10  476.85   12.50
   1   1  10  456.65   11.50
  -1   1 -10  465.85   11.60
  -1   1 -10  484.35   12.10
   2  -1  10  346.77   11.30
   2  -1  10  366.46   10.30
  -2  -1 -10  334.67   10.40
   2  -1  10  364.96   10.80
  -2  -1 -10  345.47    9.30
  -2  -1 -10  351.86   10.60
  -2   1 -10  352.66   10.00
   2   1  10  342.77    9.70
   2   1  10  373.66   10.60
   2   1  10  342.57    9.60
  -2   1 -10  362.06   10.50
   2   1  10  339.87   10.20
  -3  -1 -10  202.88    8.20
  -3  -1 -10  209.88    6.40
   3  -1  10  221.28    7.70
  -3  -1 -10  214.28    7.70
  -3  -1 -10  217.88    6.80
   3  -1  10  188.38    8.00
   3  -1  10  207.98    8.20
  -3   1 -10  210.08    7.50
   3   1  10  207.48    7.50
   3   1  10  213.48    7.20
   3   1  10  212.18    6.80
  -3   1 -10  226.58    8.50
  -4  -1 -10  139.79    7.70
   4  -1  10  153.18    7.20
  -4  -1 -10  138.79    7.60
   4  -1  10  157.38    7.50
   4  -1  10  157.58    8.00
   4   1  10  152.88    6.40
  -4   1 -10  142.59    6.60
   4   1  10  147.99    5.80
  -4   1 -10  150.48    7.50
  -4   1 -10  157.68    6.70
   4   1  10  146.99    6.70
   5  -1  10   33.00    5.30
  -5  -1 -10   33.00    4.00
   5  -1  10   37.30    5.20
   5  -1  10   30.00    4.20
  -5  -1 -10   29.80    4.80
  -5   1 -10   29.90    4.50
  -5   1 -10   32.50    3.80
   5   1  10   37.00    4.10
   5   1  10   33.80    4.90
   5   1  10   31.90    3.80
  -5   1 -10   38.90    4.80
   6  -1  10   17.30    5.30
  -6  -1 -10   23.40    3.90
   6  -1  10   24.40    5.30
   6  -1  10   21.60    4.10
   6   1  10   20.70    5.20
  -6   1 -10   22.10    4.00
   6   1  10   29.80    4.10
  -6   1 -10   20.30    4.30
   6   1  10   13.20    4.20
  -6   1 -10   26.20    4.90
   7  -1  10    2.70    3.50
   7  -1  10    5.30    3.80
  -7  -1 -10    5.80    4.90
   7  -1  10    4.50    5.50
  -7  -1 -10    3.30    5.00
   7  -1  10    3.40    5.40
  -7   1 -10    4.00    3.40
   7   1  10    1.20    3.80
   7   1  10    0.10    4.10
   7   1  10   -1.20    5.00
  -7   1 -10   10.60    4.40
   8  -1  10   27.90    5.20
  -8  -1 -10   24.50    4.90
   8  -1  10   43.80    7.20
  -8  -1 -10   35.20    6.40
   8  -1  10   21.50    6.30
   8   1  10   18.40    4.90
  -8   1 -10   27.20    4.70
   8   1  10   37.60    5.10
  -8   1 -10   25.40    5.30
   8   1  10   37.20    5.30
   9  -1  10   47.80    7.10
  -9  -1 -10   30.30    7.00
   9  -1  10   48.60    8.10
   9  -1  10   37.20    7.50
  -9  -1 -10   39.10    6.80
  -9   1 -10   40.50    6.60
  -9   1 -10   25.80    5.40
   9   1  10   40.30    7.10
  -9   1 -10   39.50    6.10
 -10  -1 -10   22.10    7.10
  10  -1  10   18.50    6.40
 -10  -1 -10   20.60    6.70
  10  -1  10   19.70    7.80
  10  -1  10   22.10    7.40
  10   1  10   27.80    5.60
 -10   1 -10   20.60    6.70
  11  -1  10   13.90    7.70
 -11  -1 -10   11.20    6.60
  11  -1  10   13.20    8.30
 -11  -1 -10   14.20    7.50
  11   1  10   20.30    7.60
 -11   1 -10    3.20    6.50
 -15  -2  10   65.79    8.20
  15  -2 -10   83.49    9.00
 -15  -2  10   83.19    9.10
  15   2 -10   70.09    9.00
 -15   2  10   71.59   10.70
 -15   2  10   83.69    8.80
  15   2 -10   52.29    7.10
  14  -2 -10   40.80    9.00
 -14  -2  10   29.70    6.60
 -14  -2  10   32.20    7.10
 -14   2  10   26.70    8.50
  14   2 -10   28.20    5.40
  14   2 -10   35.60    5.10
 -14   2  10   27.20    7.10
 -13  -2  10  155.48   10.50
 -13  -2  10  154.78   11.50
  13  -2 -10  152.68   11.40
 -13  -2  10  162.88   11.00
 -13   2  10  163.38   10.70
  13   2 -10  166.28   10.40
 -13   2  10  172.48   11.60
  13   2 -10  169.08   10.90
 -12  -2  10   -2.40    6.30
  12  -2 -10   -2.40    6.30
 -12  -2  10    1.70    5.20
  12  -2 -10   -5.10    5.20
 -12  -2  10    2.80    5.10
  12   2 -10    8.00    5.20
 -12   2  10   12.30    5.80
  12   2 -10    3.80    5.10
 -12   2  10   11.30    6.60
 -11  -2  10   79.89    7.10
  11  -2 -10   72.09    6.80
 -11  -2  10   91.79    7.50
  11  -2 -10   98.89    8.70
 -11  -2  10   88.19    7.50
  11   2 -10   77.09    7.90
  11   2 -10   80.59    7.00
  11   2 -10   81.89    6.70
 -11   2  10   79.49    8.20
 -11   2  10   73.49    6.30
  10  -2 -10  205.88   11.50
 -10  -2  10  219.68   10.10
  10  -2 -10  218.28    8.60
  10  -2 -10  196.18    8.30
 -10  -2  10  207.48   10.40
 -10   2  10  228.08   11.50
  10   2 -10  234.58   10.30
  10   2 -10  211.18    9.20
 -10   2  10  241.98    9.80
  10   2 -10  232.08   11.60
   9  -2 -10   48.00    4.50
  -9  -2  10   56.89    5.40
  -9  -2  10   56.49    6.00
   9  -2 -10   56.99    6.30
   9  -2 -10   49.90    6.50
  -9  -2  10   62.39    5.50
   9   2 -10   49.20    4.80
   9   2 -10   60.09    6.70
   9   2 -10   55.09    5.70
  -9   2  10   56.19    5.60
  -9   2  10   53.69    5.30
   8  -2 -10  612.64   15.80
  -8  -2  10  619.84   16.90
  -8  -2  10  624.04   16.70
   8  -2 -10  604.84   17.70
  -8  -2  10  619.34   16.90
   8  -2 -10  618.04   18.70
   8   2 -10  618.44   18.10
  -8   2  10  645.04   17.80
   8   2 -10  615.34   15.50
   8   2 -10  650.33   16.80
  -8   2  10  633.84   17.60
  -7  -2  10   35.00    4.00
   7  -2 -10   46.60    5.50
   7  -2 -10   37.10    4.10
  -7  -2  10   43.00    4.90
   7  -2 -10   46.90    5.80
  -7  -2  10   45.00    4.60
  -7  -2  10   37.30    4.00
   7   2 -10   47.00    5.50
  -7   2  10   48.10    5.40
   7   2 -10   40.20    4.20
   7   2 -10   40.30    3.50
   7   2 -10   38.40    4.60
  -7   2  10   42.80    4.60
  -6  -2  10  815.32   19.70
   6  -2 -10  790.12   20.80
  -6  -2  10  735.43   18.60
  -6  -2  10  786.22   20.10
  -6  -2  10  789.22   19.40
   6  -2 -10  827.32   20.00
   6  -2 -10  811.12   19.00
  -6   2  10  773.92   20.10
   6   2 -10  805.32   19.10
   6   2 -10  771.82   17.50
   6   2 -10  813.72   19.30
   6   2 -10  800.22   20.10
  -6   2  10  817.62   19.70
   5  -2 -10   58.59    5.80
   5  -2 -10   50.69    2.90
  -5  -2  10   69.99    5.60
   5  -2 -10   55.59    4.60
   5  -2 -10   57.69    5.20
  -5  -2  10   54.69    4.50
  -5  -2  10   60.59    5.20
  -5  -2  10   52.39    4.90
   5   2 -10   58.39    3.40
   5   2 -10   59.89    4.70
   5   2 -10   61.99    4.90
  -5   2  10   54.09    3.90
   5   2 -10   58.69    5.30
  -5   2  10   56.49    5.30
  -5   2  10   70.89    5.10
  -4  -2  10  129.79    4.60
  -4  -2  10  147.29    6.80
   4  -2 -10  145.29    7.30
   4  -2 -10  141.39    4.80
  -4  -2  10  142.29    6.60
   4  -2 -10  130.89    6.60
  -4  -2  10  143.19    6.30
  -4   2  10  140.69    5.80
   4   2 -10  152.18    6.70
   4   2 -10  140.99    6.00
  -4   2  10  143.79    6.30
  -4   2  10  151.18    7.80
   4   2 -10  148.29    7.40
  -3  -2  10  291.37    9.30
   3  -2 -10  295.67    9.40
  -3  -2  10  288.07    9.10
  -3  -2  10  283.27   10.00
  -3  -2  10  277.17    7.50
   3  -2 -10  278.67    9.50
   3  -2 -10  285.07    7.70
   3   2 -10  293.87    9.40
   3   2 -10  291.77    9.60
   3   2 -10  288.47    9.20
  -3   2  10  279.17    8.40
  -3   2  10  285.87    8.70
  -3   2  10  289.87   10.00
  -2  -2  10   31.30    2.80
  -2  -2  10   32.80    3.60
   2  -2 -10   36.50    4.20
   2  -2 -10   34.80    3.00
  -2  -2  10   32.30    4.40
   2  -2 -10   42.70    4.30
   2   2 -10   34.00    3.80
  -2   2  10   29.60    4.30
   2   2 -10   33.20    3.30
   2   2 -10   30.50    3.60
  -2   2  10   33.00    3.60
   1  -2 -10  931.11   21.80
  -1  -2  10  912.41   21.10
   1  -2 -10  961.60   20.80
  -1  -2  10  960.40   22.10
   1  -2 -10  953.40   21.80
  -1  -2  10  931.31   22.10
   1   2 -10  936.41   21.10
   1   2 -10  931.41   21.50
  -1   2  10  951.10   21.10
   1   2 -10  933.11   21.20
  -1   2  10  959.80   22.00
   0  -2  10   65.59    5.30
   0  -2 -10   67.79    4.80
   0  -2  10   67.89    5.50
   0  -2 -10   58.19    4.30
   0  -2  10   59.09    3.90
   0  -2  10   62.59    4.70
   0  -2 -10   52.79    4.10
   0   2 -10   60.19    3.90
   0   2 -10   70.09    4.50
   0   2  10   71.89    5.00
   0   2 -10   76.19    5.00
   0   2  10   57.29    3.70
   0   2  10   66.49    4.30
   1  -2  10  712.23   18.90
   1  -2  10  723.93   18.40
  -1  -2 -10  721.13   17.90
  -1  -2 -10  739.83   17.70
   1  -2  10  732.63   18.60
  -1  -2 -10  762.62   17.80
   1  -2  10  772.62   17.20
   1   2  10  737.73   17.50
   1   2  10  718.43   17.20
  -1   2 -10  722.93   17.10
   1   2  10  731.03   17.60
  -1   2 -10  722.63   16.30
  -1   2 -10  764.22   17.90
   1   2  10  728.13   16.40
   2  -2  10   29.70    4.80
  -2  -2 -10   22.00    3.60
   2  -2  10   23.70    4.50
   2  -2  10   23.30    3.40
   2  -2  10   22.50    3.40
  -2  -2 -10   22.10    3.90
  -2  -2 -10   23.40    3.30
   2   2  10   22.50    3.60
  -2   2 -10   26.10    4.00
   2   2  10   22.80    2.40
  -2   2 -10   25.70    3.20
   2   2  10   25.70    3.40
   2   2  10   25.70    4.20
   3  -2  10   18.70    4.70
  -3  -2 -10   14.00    3.30
  -3  -2 -10   13.30    3.90
   3  -2  10   16.80    3.80
  -3  -2 -10   16.30    3.20
   3  -2  10   20.10    4.20
   3  -2  10   16.40    3.80
   3   2  10   16.00    3.10
   3   2  10   24.70    3.60
  -3   2 -10   22.10    3.10
   3   2  10   13.50    3.50
  -3   2 -10   14.50    3.00
   4  -2  10  187.58    8.00
   4  -2  10  199.88   10.10
  -4  -2 -10  177.58    8.20
   4  -2  10  186.48    8.90
   4  -2  10  193.48   10.00
  -4  -2 -10  211.88    9.20
  -4   2 -10  193.38    8.50
  -4   2 -10  202.48    7.50
   4   2  10  217.28    9.30
  -4   2 -10  191.78    9.20
   4   2  10  186.88    8.30
   5  -2  10   20.30    5.80
   5  -2  10   14.70    4.30
  -5  -2 -10   18.80    5.10
   5  -2  10   26.70    4.30
  -5  -2 -10   13.60    4.80
   5  -2  10   24.70    5.70
   5   2  10   15.60    5.00
   5   2  10   14.40    4.20
  -5   2 -10   16.00    4.40
  -5   2 -10   24.90    5.10
  -6  -2 -10  323.57   11.50
   6  -2  10  332.97   12.80
   6  -2  10  317.77   14.00
   6  -2  10  333.77   12.00
  -6  -2 -10  314.57   12.60
   6  -2  10  312.37   13.60
   6   2  10  297.47   11.20
   6   2  10  302.97   12.00
   6   2  10  300.07   10.70
  -6   2 -10  321.77   12.60
  -6   2 -10  304.77   10.60
   7  -2  10    2.70    5.70
   7  -2  10   -2.10    5.50
   7  -2  10    4.90    4.70
  -7  -2 -10   -0.50    5.40
   7  -2  10   16.20    4.90
  -7  -2 -10   10.80    5.50
   7   2  10    1.60    3.80
  -7   2 -10    0.70    4.70
   7   2  10   -3.30    5.30
   7   2  10    1.70    4.50
  -7   2 -10    6.20    5.30
   8  -2  10  103.89    7.60
  -8  -2 -10  116.69    9.30
   8  -2  10  129.99   10.20
   8  -2  10  130.39    8.60
   8  -2  10  122.29    8.70
  -8  -2 -10  125.69    9.40
  -8   2 -10  127.39    9.00
  -8   2 -10  106.29    7.90
   8   2  10  113.49    8.00
   8   2  10  137.39    9.10
   9  -2  10    0.30    6.70
  -9  -2 -10   15.40    5.20
  -9  -2 -10    2.60    4.60
   9  -2  10   14.90    7.20
   9  -2  10   -5.90    7.20
  -9   2 -10    2.60    4.00
  -9   2 -10    7.20    6.20
   9   2  10   10.00    4.30
   9   2  10    4.80    4.60
  10  -2  10   10.30    8.40
 -10  -2 -10   -2.60    6.60
 -10  -2 -10    3.70    6.90
  10  -2  10    8.80    5.50
  10  -2  10    4.50    7.10
  10   2  10   -1.10    6.80
 -10   2 -10   14.10    6.50
  10   2  10    4.10    6.00
 -10   2 -10    2.00    5.80
  11  -2  10   42.80    9.10
  11  -2  10   57.29   10.30
  11  -2  10   43.10    8.60
 -11  -2 -10   51.49    9.10
 -11  -2 -10   57.49    9.10
 -11   2 -10   41.70    8.40
  11   2  10   47.60    8.50
 -14  -3  10   -2.50    6.80
  14  -3 -10    5.00    8.50
 -14   3  10    0.90    8.30
 -14   3  10  -13.90    6.60
  14   3 -10    9.30    6.80
  14   3 -10   -3.80    4.10
  13  -3 -10   33.30    6.90
 -13  -3  10   36.00    7.60
 -13   3  10   36.10    7.60
  13   3 -10   39.30    6.90
 -13   3  10   38.80    6.90
  13   3 -10   34.00    7.00
 -12  -3  10   43.50    7.40
 -12  -3  10   30.60    6.30
  12  -3 -10   30.40    8.20
  12   3 -10   44.90    6.60
 -12   3  10   40.50    6.00
 -12   3  10   50.79    8.40
  12   3 -10   28.90    6.50
 -11  -3  10  109.49    7.80
  11  -3 -10  114.79    8.90
  11  -3 -10  113.69    7.80
 -11  -3  10  101.59    8.10
  11  -3 -10  118.69    9.70
 -11   3  10  132.09   10.00
 -11   3  10  122.89    9.30
  11   3 -10  116.39    7.80
  11   3 -10  112.19    7.60
  10  -3 -10   61.49    6.60
  10  -3 -10   55.99    5.90
 -10  -3  10   50.99    6.40
 -10  -3  10   62.49    6.20
  10  -3 -10   62.29    8.00
 -10   3  10   64.39    7.60
 -10   3  10   49.70    7.00
  10   3 -10   43.80    5.20
  10   3 -10   56.99    5.70
  10   3 -10   33.90    7.50
  -9  -3  10  108.79    7.30
   9  -3 -10  107.19    7.20
  -9  -3  10  111.99    8.20
   9  -3 -10  112.49    8.90
  -9   3  10  118.39    8.50
  -9   3  10  124.39    8.60
   9   3 -10  123.59    7.20
   9   3 -10  111.09    7.00
   9   3 -10  128.49    9.80
   8  -3 -10   -2.00    3.00
   8  -3 -10   -4.60    4.80
  -8  -3  10   -0.60    4.40
  -8  -3  10    1.20    3.10
   8   3 -10   -5.70    2.90
   8   3 -10    2.10    4.30
  -8   3  10    4.40    4.70
  -8   3  10    1.20    3.40
   8   3 -10   -0.50    4.60
   7  -3 -10   34.20    5.80
  -7  -3  10   23.60    4.00
   7  -3 -10   29.70    4.10
  -7  -3  10   21.20    5.10
  -7   3  10   23.50    4.90
   7   3 -10   25.20    3.80
   7   3 -10   24.80    3.90
  -7   3  10   24.20    5.30
   7   3 -10   30.30    5.40
  -6  -3  10    8.40    3.00
  -6  -3  10    0.60    4.20
   6  -3 -10    6.00    3.50
  -6  -3  10   11.20    4.40
   6  -3 -10    6.40    4.60
  -6   3  10    7.20    3.80
   6   3 -10   10.50    4.20
  -6   3  10   10.80    3.60
   6   3 -10    8.60    4.00
   6   3 -10   10.40    4.50
  -5  -3  10  333.07   10.90
   5  -3 -10  339.47   12.20
  -5  -3  10  349.57   11.90
  -5  -3  10  335.07   11.10
   5  -3 -10  357.16   11.00
   5   3 -10  340.67   11.20
  -5   3  10  335.37   10.70
  -5   3  10  345.37   10.70
  -5   3  10  328.27   11.10
   5   3 -10  337.07   11.20
   5   3 -10  349.96   11.20
  -4  -3  10  196.58    8.70
   4  -3 -10  211.68    8.50
   4  -3 -10  203.18    7.80
  -4  -3  10  207.88    9.10
  -4  -3  10  199.18    9.30
  -4   3  10  210.88    8.60
   4   3 -10  209.18    8.60
  -4   3  10  211.48    8.40
  -4   3  10  199.98    7.50
   4   3 -10  216.18    9.10
   4   3 -10  201.28    7.60
   3  -3 -10  146.19    8.10
   3  -3 -10  141.79    7.50
  -3  -3  10  126.89    7.60
  -3  -3  10  126.19    7.80
   3  -3 -10  125.29    5.20
  -3  -3  10  131.59    7.70
   3   3 -10  128.69    6.20
  -3   3  10  134.19    5.50
   3   3 -10  131.69    7.10
  -3   3  10  134.19    6.10
  -3   3  10  145.09    7.90
   3   3 -10  133.89    7.20
   2  -3 -10    2.40    3.70
  -2  -3  10    4.80    2.80
  -2  -3  10    4.60    2.70
   2  -3 -10    3.20    3.50
  -2  -3  10    9.40    3.90
   2  -3 -10    4.60    2.60
   2   3 -10   14.70    3.40
  -2   3  10    7.60    3.90
  -2   3  10    5.00    3.40
   2   3 -10    5.80    2.90
   2   3 -10    3.20    3.40
  -1  -3  10   99.99    6.80
  -1  -3  10   97.69    5.70
   1  -3 -10   89.49    5.20
   1  -3 -10   97.49    6.60
  -1  -3  10  108.79    7.20
   1  -3 -10  105.49    6.50
  -1   3  10   99.09    6.30
   1   3 -10   89.79    5.90
   1   3 -10   92.39    5.90
  -1   3  10  109.79    6.70
   1   3 -10   97.59    6.10
   0  -3 -10  150.68    8.10
   0  -3 -10  142.79    8.30
   0  -3 -10  129.19    6.60
   0  -3  10  134.29    7.20
   0  -3  10  130.39    8.10
   0  -3  10  147.99    8.80
   0   3 -10  139.09    7.40
   0   3 -10  155.48    6.80
   0   3  10  129.09    7.60
   0   3 -10  138.99    5.60
   0   3  10  146.99    6.40
  -1  -3 -10   15.60    3.70
   1  -3  10   17.00    4.20
   1  -3  10   14.40    3.90
  -1  -3 -10   23.30    4.80
  -1  -3 -10   17.60    4.30
   1  -3  10   10.00    4.30
  -1  -3 -10   13.60    3.30
   1   3  10   20.00    3.50
   1   3  10   13.00    3.60
  -1   3 -10   17.40    3.20
  -1   3 -10   13.50    3.90
   2  -3  10  121.29    8.30
  -2  -3 -10  121.19    7.10
   2  -3  10  125.79    7.00
  -2  -3 -10  134.69    6.70
   2  -3  10  141.29    7.90
  -2  -3 -10  126.09    6.70
   2   3  10  119.09    7.60
   2   3  10  125.09    6.40
   2   3  10  139.89    8.30
  -2   3 -10  132.69    6.10
  -2   3 -10  137.49    6.50
   3  -3  10   52.09    6.00
   3  -3  10   60.19    5.70
   3  -3  10   57.99    6.50
  -3  -3 -10   55.19    5.50
  -3  -3 -10   59.59    5.70
  -3  -3 -10   62.99    6.40
  -3   3 -10   61.09    5.50
   3   3  10   42.80    6.00
   3   3  10   60.19    5.10
   3   3  10   62.39    5.20
  -3   3 -10   58.59    4.00
   4  -3  10   56.79    7.10
  -4  -3 -10   51.49    5.60
   4  -3  10   64.49    6.00
  -4  -3 -10   69.29    6.70
  -4  -3 -10   56.39    6.60
   4  -3  10   70.09    6.70
  -4   3 -10   65.89    5.90
  -4   3 -10   64.29    6.10
   4   3  10   64.39    6.40
   4   3  10   58.69    6.10
   5  -3  10   16.20    6.30
  -5  -3 -10   27.80    5.10
   5  -3  10   23.30    5.60
  -5  -3 -10   17.30    5.90
   5  -3  10   20.30    6.60
  -5  -3 -10   27.60    5.90
  -5   3 -10   39.30    5.40
   5   3  10   26.50    5.80
  -5   3 -10   27.20    6.10
   5   3  10   28.50    4.50
   6  -3  10   -1.10    6.40
  -6  -3 -10    1.60    5.50
  -6  -3 -10    0.90    4.00
   6  -3  10   -1.10    6.00
   6  -3  10    2.20    5.30
   6   3  10   -1.50    5.40
  -6   3 -10   -0.80    4.00
  -6   3 -10    2.40    4.60
   6   3  10   11.20    5.30
   7  -3  10    6.90    5.10
   7  -3  10   11.00    5.80
   7  -3  10   -1.30    5.10
  -7  -3 -10   11.70    6.40
  -7  -3 -10    0.40    6.20
  -7   3 -10   -3.00    5.90
   7   3  10    1.90    5.90
   7   3  10   -0.40    5.30
  -7   3 -10   -3.50    4.70
   8  -3  10   21.20    6.30
   8  -3  10   17.00    8.40
   8  -3  10   12.20    7.40
  -8  -3 -10   25.30    7.20
  -8  -3 -10   31.80    7.60
  -8   3 -10   15.60    7.30
   8   3  10   13.70    6.50
   8   3  10   22.60    6.70
  -8   3 -10   16.40    5.60
  -9  -3 -10   -6.70    6.90
  -9  -3 -10    3.60    7.30
  -9  -3 -10    0.60    6.40
   9  -3  10    8.60    7.90
   9  -3  10    4.10    6.20
  -9   3 -10    6.10    5.30
  -9   3 -10   -2.10    5.40
   9   3  10   -8.00    6.20
   9   3  10    4.50    6.70
  10  -3  10   53.69   10.60
 -10  -3 -10   57.89    9.30
 -10  -3 -10   56.19    8.60
 -10  -3 -10   36.40    8.50
  10  -3  10   60.29    9.70
 -10   3 -10   41.90    8.80
 -10   3 -10   50.89    7.30
  10   3  10   47.60    8.50
  10   3  10   44.20    8.00
  13  -4 -10    0.40    8.30
 -13  -4  10    3.20    7.40
 -13  -4  10   -0.30    7.00
 -13   4  10   -5.50    7.70
 -13   4  10   -2.40    5.30
  13   4 -10    3.40    6.60
  12  -4 -10   37.50    9.00
  12  -4 -10   29.90    6.60
 -12  -4  10   33.80    6.30
 -12  -4  10   25.10    7.60
 -12   4  10   35.40    8.40
 -12   4  10   45.70    8.60
  12   4 -10   26.70    5.40
 -11  -4  10   24.50    7.20
  11  -4 -10   28.90    8.40
 -11  -4  10   37.00    7.50
  11  -4 -10   21.20    6.40
 -11   4  10   42.90    8.40
  11   4 -10   26.00    6.60
 -11   4  10   11.20    7.00
  10  -4 -10   25.60    7.90
 -10  -4  10   15.70    6.60
  10  -4 -10   28.40    6.30
 -10  -4  10   34.90    6.20
 -10   4  10   25.80    6.90
 -10   4  10   24.80    7.30
  10   4 -10   13.90    6.10
   9  -4 -10   68.29    7.50
  -9  -4  10   69.69    7.20
  -9  -4  10   78.29    8.20
  -9   4  10   81.79    8.50
   9   4 -10   77.89    7.40
  -9   4  10   79.79    7.80
   8  -4 -10   -0.60    6.10
  -8  -4  10   -5.70    4.60
  -8  -4  10    1.80    5.40
  -8   4  10    3.90    5.90
   8   4 -10   -2.80    5.20
  -8   4  10   -0.90    4.80
   8   4 -10   -0.50    3.70
   7  -4 -10  156.68   10.80
  -7  -4  10  167.48    9.90
  -7  -4  10  185.28   10.40
   7   4 -10  172.08    9.10
  -7   4  10  183.68   10.90
   7   4 -10  163.98    9.50
  -7   4  10  176.98    9.30
  -6  -4  10    3.20    4.80
   6  -4 -10   -2.10    3.60
  -6  -4  10    5.80    3.50
   6  -4 -10   -1.30    3.50
   6   4 -10    3.00    4.50
   6   4 -10    1.00    4.40
  -6   4  10   -3.80    3.80
  -6   4  10   -4.90    4.90
   6   4 -10    1.20    4.70
  -5  -4  10  194.58    8.70
   5  -4 -10  196.68   10.80
  -5  -4  10  185.28    9.90
   5  -4 -10  198.78    9.20
  -5  -4  10  185.48    9.80
   5   4 -10  183.38    8.10
  -5   4  10  196.48    8.30
  -5   4  10  171.88    8.70
   5   4 -10  203.68    9.50
   5   4 -10  192.38    9.80
  -5   4  10  194.18    8.90
  -4  -4  10  103.69    6.90
  -4  -4  10  101.99    7.40
  -4  -4  10   85.59    7.10
   4  -4 -10   81.89    5.50
   4  -4 -10  104.49    6.90
   4  -4 -10   98.89    7.70
  -4   4  10   96.29    6.90
  -4   4  10   90.79    6.50
   4   4 -10   80.09    6.00
   4   4 -10   87.29    6.60
   4   4 -10   93.69    6.60
   3  -4 -10   65.09    5.90
  -3  -4  10   66.29    6.50
   3  -4 -10   57.39    5.00
  -3  -4  10   55.29    6.10
   3  -4 -10   53.29    5.70
  -3  -4  10   58.89    6.00
   3   4 -10   51.39    5.30
  -3   4  10   66.89    6.40
   3   4 -10   60.59    5.80
  -3   4  10   58.09    5.90
   3   4 -10   61.59    5.50
  -2  -4  10  291.67   11.70
   2  -4 -10  266.37   11.60
   2  -4 -10  274.07   10.30
  -2  -4  10  277.37   11.60
   2   4 -10  291.07   10.20
   2   4 -10  272.07    9.90
  -2   4  10  265.97    9.90
   2   4 -10  276.17   10.60
  -2   4  10  281.47   10.10
  -1  -4  10    1.50    3.10
   1  -4 -10    1.00    4.00
  -1  -4  10    7.40    5.00
   1  -4 -10    3.60    4.70
  -1  -4  10    7.60    4.80
   1   4 -10   -0.80    3.30
  -1   4  10   -2.30    3.90
  -1   4  10    1.60    4.40
   1   4 -10   -1.90    3.80
   0  -4 -10  214.18    8.60
   0  -4 -10  209.78   10.50
   0  -4  10  216.28    9.40
   0  -4  10  213.38   11.50
   0  -4 -10  218.68   10.10
   0  -4  10  191.88   10.30
   0   4  10  225.78   10.10
   0   4 -10  213.48    8.40
   0   4  10  198.18    9.00
   0   4 -10  218.88    9.40
   1  -4  10   11.90    4.40
  -1  -4 -10   14.90    5.10
  -1  -4 -10   21.80    4.40
   1  -4  10   20.10    5.90
  -1  -4 -10   14.90    5.00
   1  -4  10   16.00    4.10
   1   4  10   13.40    3.90
   1   4  10   20.90    4.20
  -1   4 -10   10.50    4.40
  -1   4 -10   13.90    3.40
  -2  -4 -10  157.88    9.60
   2  -4  10  147.39    9.10
   2  -4  10  158.48    9.80
  -2  -4 -10  172.78    9.00
   2  -4  10  142.89    8.50
  -2  -4 -10  136.49    8.20
   2   4  10  172.28    9.80
  -2   4 -10  144.19    8.50
   2   4  10  146.19    9.50
  -3  -4 -10   73.19    7.70
  -3  -4 -10   80.29    7.20
   3  -4  10   69.69    6.30
  -3  -4 -10   90.89    7.20
   3  -4  10   88.89    8.50
   3  -4  10   78.19    7.80
   3   4  10   74.89    6.30
  -3   4 -10   88.69    8.20
  -3   4 -10   79.79    6.40
   3   4  10   73.39    6.20
   4  -4  10   14.80    6.60
   4  -4  10   15.70    6.00
   4  -4  10   16.30    4.90
  -4  -4 -10   13.70    6.20
  -4  -4 -10   14.50    5.70
  -4  -4 -10   19.50    5.70
  -4   4 -10   17.70    5.10
  -4   4 -10   18.30    3.80
   4   4  10   12.80    5.80
   4   4  10   15.00    4.40
   5  -4  10   56.99    7.70
   5  -4  10   80.19    9.00
   5  -4  10   66.99    8.80
  -5  -4 -10   47.60    7.30
  -5  -4 -10   66.79    7.90
  -5  -4 -10   80.09    8.70
  -5  -4 -10   72.39    7.20
   5   4  10   85.09    8.10
   5   4  10   89.99    8.20
  -5   4 -10   59.49    8.30
  -5   4 -10   55.69    6.10
   6  -4  10    2.40    7.20
  -6  -4 -10    7.00    5.20
   6  -4  10   -6.80    6.00
   6  -4  10   -8.80    7.00
  -6  -4 -10   -1.90    6.60
  -6   4 -10    0.20    4.80
  -6   4 -10   -4.90    6.70
   6   4  10   -8.70    5.90
   6   4  10   -8.40    3.90
  -7  -4 -10   54.69    7.30
   7  -4  10   54.49    9.20
  -7  -4 -10   54.99    8.80
   7  -4  10   60.09    8.20
   7  -4  10   52.19    9.50
   7   4  10   40.50    7.70
   7   4  10   60.39    8.10
  -7   4 -10   41.50    6.20
  -7   4 -10   43.70    8.70
  -8  -4 -10    6.70    6.20
   8  -4  10   17.20    9.10
   8  -4  10   -2.30    7.80
  -8  -4 -10    5.40    7.50
   8   4  10    6.70    7.00
  -8   4 -10    1.00    5.20
  -8   4 -10    3.80    7.70
   8   4  10  -11.20    6.70
  -9  -4 -10    3.70    7.00
   9  -4  10   15.60    8.80
  -9  -4 -10    2.00    8.10
   9  -4  10   13.40    7.10
   9   4  10   21.10    7.80
   9   4  10    7.50    7.60
  -9   4 -10   17.60    8.60
 -11  -5  10   12.10    7.80
  11  -5 -10   -0.50    8.30
 -11  -5  10   14.80    7.70
  11  -5 -10   -1.30    6.70
 -11   5  10   17.70    8.70
 -11   5  10    7.60    7.40
  11   5 -10   11.80    7.10
 -10  -5  10   -2.20    7.00
  10  -5 -10   -3.60    7.50
 -10   5  10    3.90    6.80
  10   5 -10   -3.90    6.20
 -10   5  10    4.60    7.70
   9  -5 -10   10.40    7.80
  -9  -5  10   -2.60    6.70
  -9   5  10    4.80    7.20
   9   5 -10    4.10    6.10
  -9   5  10    1.30    6.00
  -8  -5  10    6.30    4.80
  -8  -5  10   15.30    5.80
   8  -5 -10    9.00    7.40
   8   5 -10    2.70    5.90
  -8   5  10    9.90    7.00
  -7  -5  10   -5.50    6.00
   7  -5 -10    7.00    6.80
  -7  -5  10    5.10    5.40
  -7   5  10   13.40    5.10
   7   5 -10    4.40    4.10
   7   5 -10    7.70    4.20
  -6  -5  10   11.20    4.90
   6  -5 -10   11.10    5.00
  -6  -5  10   10.00    5.50
   6   5 -10    7.50    5.70
   6   5 -10    2.60    5.30
  -6   5  10    6.00    5.50
   6   5 -10    3.40    5.40
  -6   5  10   17.50    6.40
  -5  -5  10    4.80    5.30
   5  -5 -10   -0.10    6.10
  -5  -5  10    2.50    5.70
   5   5 -10    2.70    5.20
  -5   5  10    3.60    5.70
   5   5 -10   -5.90    3.50
  -5   5  10   -3.50    5.30
   5   5 -10   -0.20    3.30
  -4  -5  10    9.40    5.70
  -4  -5  10    0.50    5.30
  -4  -5  10    1.70    3.30
   4  -5 -10   -2.30    5.80
   4   5 -10    6.90    5.20
   4   5 -10    4.00    5.00
  -4   5  10    2.60    3.80
   4   5 -10   -1.60    4.30
  -4   5  10   10.00    5.60
  -3  -5  10   24.20    6.10
   3  -5 -10   25.70    6.70
  -3  -5  10   12.70    5.70
  -3  -5  10   19.80    5.40
   3   5 -10   33.40    5.40
  -3   5  10   32.60    5.00
   3   5 -10   27.70    5.80
  -3   5  10   30.50    6.00
  -2  -5  10   12.20    4.20
  -2  -5  10    4.90    4.00
   2  -5 -10   17.40    4.60
   2  -5 -10   -2.70    5.60
   2   5 -10   10.60    5.10
  -2   5  10    5.10    5.10
  -2   5  10   13.90    4.20
   2   5 -10   11.00    4.50
   1  -5 -10   -6.30    5.50
   1  -5 -10   -1.10    4.50
  -1  -5  10    1.80    5.50
  -1  -5  10   -6.50    5.40
   1   5 -10    2.80    2.90
  -1   5  10    0.70    3.90
  -1   5  10   -7.80    4.30
   1   5 -10    8.60    4.70
   0  -5  10   -1.00    5.20
   0  -5  10   -3.00    6.00
   0  -5 -10    2.00    5.70
   0  -5 -10    1.10    5.00
   0  -5  10   -1.70    4.00
   0   5  10   -4.40    4.90
   0   5 -10    4.30    3.50
   0   5  10   10.70    5.70
   0   5 -10    0.20    3.70
  -1  -5 -10   14.60    5.90
   1  -5  10   16.60    6.60
   1  -5  10   16.70    5.20
   1  -5  10   12.90    5.20
  -1  -5 -10    8.00    6.10
   1   5  10   25.00    6.40
  -1   5 -10   18.60    5.20
  -2  -5 -10    5.10    6.20
  -2  -5 -10    2.50    6.00
   2  -5  10   12.00    5.90
   2  -5  10   18.10    7.10
   2  -5  10    4.10    4.50
  -2   5 -10    8.00    6.30
  -2   5 -10   14.40    3.80
   2   5  10   14.30    6.60
   2   5  10    3.70    5.70
   3  -5  10    9.40    7.30
  -3  -5 -10   11.70    6.70
  -3  -5 -10    5.90    6.30
   3  -5  10    3.80    6.40
   3  -5  10   10.60    6.60
  -3   5 -10    6.40    6.60
   3   5  10    3.40    4.80
  -3   5 -10    0.10    4.70
   3   5  10    3.00    6.00
   4  -5  10   -7.20    6.50
   4  -5  10    5.00    7.40
  -4  -5 -10   -3.50    6.10
   4  -5  10    1.50    6.70
  -4  -5 -10    1.60    6.90
  -4   5 -10    3.80    5.00
  -4   5 -10    8.60    7.10
   4   5  10   -2.80    4.50
   4   5  10    5.50    6.80
   5  -5  10   -2.20    4.90
   5  -5  10    4.60    7.50
   5  -5  10    7.40    5.60
  -5  -5 -10    3.40    7.30
  -5  -5 -10    1.00    6.30
   5   5  10    1.30    4.70
   5   5  10    0.60    7.00
  -5   5 -10    7.70    7.50
  -5   5 -10   -1.10    3.40
   6  -5  10    7.30    8.30
   6  -5  10   15.30    7.70
   6  -5  10   21.20    8.80
  -6  -5 -10   13.20    8.30
   6   5  10   17.60    5.60
  -6   5 -10   13.80    8.20
   6   5  10   18.50    5.80
  -7  -5 -10    3.40    6.00
   7  -5  10   17.70    9.20
   7  -5  10   -8.40    7.50
   7  -5  10    7.90    8.70
   7   5  10    0.60    5.00
  -7   5 -10    1.60    8.20
   7   5  10   -9.70    7.40
   8  -6 -10   28.70    9.50
  -8  -6  10   40.40    7.10
   8   6 -10   33.20    7.70
   8   6 -10   38.50    7.90
  -8   6  10   32.40    8.80
  -7  -6  10   66.59    9.50
   7  -6 -10   57.99    9.80
  -7   6  10   63.09    7.80
   7   6 -10   70.59    8.70
  -7   6  10   76.89    8.90
   7   6 -10   54.99    6.60
  -6  -6  10   38.40    7.80
   6  -6 -10   35.30    8.70
  -6  -6  10   28.70    6.70
  -6   6  10   47.80    6.60
   6   6 -10   32.30    7.40
  -6   6  10   50.99    8.60
   6   6 -10   41.90    7.40
  -5  -6  10   28.60    6.80
   5  -6 -10   27.90    6.40
  -5  -6  10   28.40    7.50
  -5   6  10   23.70    7.40
  -5   6  10   24.90    7.30
   5   6 -10   16.30    5.00
   5   6 -10   22.30    6.70
  -4  -6  10   33.10    5.60
   4  -6 -10   12.40    7.50
  -4  -6  10   30.80    7.30
  -4   6  10   29.00    7.20
   4   6 -10   33.90    6.60
  -4   6  10   22.80    5.30
   4   6 -10   23.20    6.70
   3  -6 -10   -0.90    7.00
  -3  -6  10    7.40    4.70
   3   6 -10   11.10    5.60
  -3   6  10    1.30    5.80
  -3   6  10   11.50    5.20
   3   6 -10    5.40    5.90
  -2  -6  10   65.59    7.00
   2  -6 -10   55.39    7.30
  -2  -6  10   66.29    6.70
   2   6 -10   65.09    6.60
  -2   6  10   64.79    8.40
   2   6 -10   68.99    7.60
  -2   6  10   59.59    7.50
  -1  -6  10   24.70    7.30
   1  -6 -10   21.50    7.50
  -1  -6  10   17.90    7.00
   1   6 -10   17.90    6.00
  -1   6  10   24.90    7.30
   0  -6 -10    5.30    7.30
   0  -6  10   20.30    7.60
   0  -6  10   12.50    7.20
   0   6  10    6.20    6.70
   0   6 -10    8.40    5.50
   1  -6  10   31.00    8.40
  -1  -6 -10   19.00    7.20
  -1  -6 -10   26.60    7.90
   1  -6  10   28.90    7.80
  -1   6 -10   21.00    7.50
  -1   6 -10   26.90    6.00
   1   6  10   32.80    7.80
   1   6  10   44.20    8.50
  -2  -6 -10   -0.20    6.70
  -2  -6 -10    2.50    7.30
   2  -6  10    5.60    5.10
   2  -6  10   11.50    7.90
   2   6  10    2.70    7.70
   2   6  10    9.60    7.10
  -2   6 -10   -1.70    5.00
  -2   6 -10   10.70    5.50
  -3  -6 -10   23.60    8.00
  -3  -6 -10    1.30    7.40
   3  -6  10    2.40    8.10
   3  -6  10   10.50    7.40
   3  -6  10    5.30    7.50
   3   6  10   -7.50    7.30
  -3   6 -10   12.60    7.80
   3   6  10   12.30    7.20
  -4  -6 -10    8.70    8.00
   4  -6  10   19.50    8.30
  -4  -6 -10    0.20    7.20
   4  -6  10    9.30    8.60
   4  -6  10    8.70    8.00
  -4   6 -10    9.70    7.90
   4   6  10    4.70    8.20
   4   6  10    9.10    7.60
  15   0 -11    8.20    5.40
 -15   0  11   -7.90    5.40
  14   0 -11    3.50    6.70
 -14   0  11   -0.30    7.70
 -13   0  11   -3.80    4.80
  13   0 -11   -4.10    5.80
 -13   0  11    2.10    6.90
  13   0 -11   -0.50    4.30
  12   0 -11   -0.30    5.60
 -12   0  11   -3.30    4.40
 -12   0  11    7.20    4.90
  12   0 -11    0.00    4.10
  12   0 -11   -2.90    3.60
 -11   0  11    1.00    4.20
 -11   0  11   -2.10    4.60
 -11   0  11    0.00    5.60
  11   0 -11    2.60    4.80
  11   0 -11   -2.10    3.90
  11   0 -11   -2.00    5.10
 -10   0  11    0.60    5.20
 -10   0  11   -1.10    3.10
  10   0 -11    2.30    2.50
  10   0 -11   -2.30    3.70
  10   0 -11   -0.80    4.60
  10   0 -11    4.80    4.30
 -10   0  11   -2.20    4.30
   9   0 -11    0.90    3.50
  -9   0  11   -2.70    4.10
  -9   0  11    2.80    4.80
   9   0 -11    1.10    3.60
   9   0 -11   -1.50    2.50
   9   0 -11   -2.20    3.00
  -9   0  11   -6.10    2.70
   8   0 -11   -0.80    4.20
   8   0 -11   -1.20    2.20
   8   0 -11    2.80    2.40
  -8   0  11    4.40    4.50
  -8   0  11   -0.30    4.10
  -8   0  11    7.70    2.90
   8   0 -11   -0.50    2.40
   7   0 -11    2.90    2.80
   7   0 -11    1.20    2.50
   7   0 -11   -1.00    2.30
  -7   0  11   -6.80    3.80
  -7   0  11   -4.90    2.30
   7   0 -11   -2.80    3.90
  -7   0  11    1.90    3.00
  -6   0  11   -1.40    2.30
  -6   0  11   -6.30    3.50
   6   0 -11    0.50    3.30
  -6   0  11   -3.10    3.70
   6   0 -11   -0.80    2.30
   6   0 -11   -4.70    3.60
  -5   0  11   -1.60    2.10
   5   0 -11   -2.80    3.00
  -5   0  11   -1.60    2.50
   5   0 -11   -1.40    2.30
  -5   0  11   -0.10    1.10
   5   0 -11   -1.30    2.20
  -4   0  11   -2.00    1.30
  -4   0  11   -4.30    3.10
  -4   0  11    1.20    3.50
   4   0 -11    0.10    3.00
   4   0 -11   -1.70    3.10
   4   0 -11    3.10    2.40
   3   0 -11   -1.90    1.60
  -3   0  11    4.10    3.30
   3   0 -11    0.70    2.00
   3   0 -11    2.20    3.10
  -3   0  11    4.60    3.20
   3   0 -11    1.50    2.10
  -3   0  11   -2.50    1.30
  -2   0  11    4.00    3.10
  -2   0  11    1.60    1.60
   2   0 -11    0.20    2.10
   2   0 -11   -0.30    2.50
   2   0 -11   -0.20    2.10
   2   0 -11    0.60    2.90
  -2   0  11   -0.10    3.20
   1   0 -11   -0.90    2.70
  -1   0  11    1.40    2.90
   1   0 -11   -4.10    2.50
  -1   0  11   -1.20    3.20
   1   0 -11    0.40    1.90
  -1   0  11    3.60    2.50
   1   0 -11   -4.70    2.80
   0   0  11    2.30    2.30
   0   0  11    0.20    1.10
   0   0  11   -2.10    3.10
   0   0 -11   -2.70    2.90
   0   0 -11   -2.80    2.70
   0   0 -11    0.00    1.30
   0   0  11    3.40    2.80
  -1   0 -11   -1.90    2.90
  -1   0 -11   -0.40    2.90
   1   0  11   -0.30    1.50
   1   0  11    0.50    1.90
   1   0  11   -0.10    2.70
   2   0  11   -2.50    2.40
  -2   0 -11   -2.20    2.00
  -2   0 -11   -5.80    3.10
   2   0  11   -3.00    2.90
   2   0  11    0.60    2.70
  -3   0 -11   -2.80    3.30
   3   0  11    6.20    2.90
   3   0  11   -0.80    2.40
   3   0  11   -3.30    2.50
  -3   0 -11    1.10    3.30
   4   0  11    2.80    4.20
   4   0  11    5.60    2.90
   4   0  11   -6.90    3.50
  -4   0 -11    5.90    2.80
  -4   0 -11    2.00    2.80
  -4   0 -11   -0.40    3.40
   5   0  11   -0.60    2.80
   5   0  11   -4.30    4.40
   5   0  11    3.00    4.30
  -5   0 -11   -3.80    2.70
  -5   0 -11    2.30    3.70
  -5   0 -11    0.70    2.80
  -6   0 -11   -4.00    3.10
   6   0  11   -2.60    3.40
  -6   0 -11   -0.40    3.90
   6   0  11   -0.10    4.70
   7   0  11    2.30    5.30
   7   0  11   -2.10    5.30
  -7   0 -11   -3.10    3.70
  -8   0 -11   -9.60    5.20
   8   0  11   -0.40    5.70
   8   0  11    0.50    5.30
   9   0  11   -2.80    5.70
   9   0  11    3.90    6.50
  -9   0 -11   -0.10    5.50
  -9   0 -11   -4.60    6.10
  10   0  11   -0.90    5.10
 -10   0 -11    3.70    6.80
 -10   0 -11   -3.50    5.70
  10   0  11    2.70    4.90
 -11   0 -11   -2.70    6.10
  11   0  11    5.50    7.90
 -11   0 -11    2.20    5.10
  11   0  11   -1.50    7.40
 -15  -1  11    1.00    8.10
  15  -1 -11   12.60    8.00
 -15  -1  11    3.80    6.80
 -15   1  11    8.90    8.60
  15   1 -11    6.20    7.00
 -14  -1  11   37.10    8.90
 -14  -1  11   12.60    5.80
  14  -1 -11   39.50    8.30
  14   1 -11   31.10    7.10
 -14   1  11   34.40    6.60
 -14   1  11   42.80    7.20
  14   1 -11   13.10    5.40
  13  -1 -11   15.10    6.80
 -13  -1  11   21.20    5.60
 -13  -1  11   21.50    7.80
 -13   1  11   25.40    6.30
 -13   1  11   20.70    7.70
  13   1 -11   16.00    6.10
  13   1 -11   17.40    5.40
 -12  -1  11  159.08   10.90
  12  -1 -11  143.19   10.90
 -12  -1  11  167.78    9.30
 -12  -1  11  143.09    8.90
  12  -1 -11  157.28    9.30
 -12   1  11  141.49   10.80
 -12   1  11  155.98    9.50
  12   1 -11  157.48    9.10
  12   1 -11  145.89    8.30
  11  -1 -11   25.00    4.40
 -11  -1  11   23.30    5.40
 -11  -1  11   24.40    5.00
  11  -1 -11   20.60    6.00
 -11  -1  11   29.10    5.20
  11  -1 -11   25.20    6.00
  11   1 -11   24.90    5.10
  11   1 -11   25.70    4.20
 -11   1  11   14.70    4.30
 -11   1  11   23.60    5.40
  11   1 -11   18.40    6.10
 -10  -1  11  148.89    8.60
  10  -1 -11  139.19    9.20
 -10  -1  11  137.19    8.00
 -10  -1  11  140.39    9.50
  10  -1 -11  132.29    7.70
  10  -1 -11  128.19   10.00
  10   1 -11  143.59    8.10
  10   1 -11  136.19    8.30
  10   1 -11  117.99    9.70
 -10   1  11  142.69    9.30
 -10   1  11  158.08   10.30
  -9  -1  11   70.29    6.20
   9  -1 -11   71.19    6.20
  -9  -1  11   63.89    7.00
   9  -1 -11   63.49    6.00
   9  -1 -11   66.89    5.40
  -9  -1  11   72.09    5.80
   9   1 -11   64.69    5.20
   9   1 -11   81.39    6.10
   9   1 -11   66.09    5.10
  -9   1  11   69.89    6.60
   9   1 -11   65.59    6.70
  -9   1  11   69.29    6.00
  -8  -1  11  272.57   11.50
   8  -1 -11  288.77   12.00
   8  -1 -11  230.08    7.60
   8  -1 -11  289.37    9.20
  -8  -1  11  270.27   10.40
  -8  -1  11  280.27    9.70
  -8   1  11  286.27   10.30
   8   1 -11  275.97    9.00
   8   1 -11  286.67   10.20
  -8   1  11  271.87   10.00
   8   1 -11  286.27   10.70
   8   1 -11  276.47    9.20
  -7  -1  11  193.38    9.30
  -7  -1  11  196.48    7.40
   7  -1 -11  184.48    7.40
  -7  -1  11  197.38    9.00
   7  -1 -11  190.58    6.20
   7  -1 -11  199.78   10.10
   7   1 -11  194.38    6.90
   7   1 -11  207.58    7.70
  -7   1  11  191.38    6.90
   7   1 -11  192.68    7.00
   7   1 -11  211.38    9.80
  -7   1  11  236.08    9.70
  -7   1  11  202.38    9.60
   6  -1 -11  131.89    6.30
  -6  -1  11  120.59    6.50
  -6  -1  11  125.39    7.70
  -6  -1  11  138.19    6.80
   6  -1 -11  125.29    7.30
   6  -1 -11  134.29    7.00
   6  -1 -11  134.89    5.10
  -6   1  11  124.79    5.10
   6   1 -11  142.99    8.20
   6   1 -11  140.79    5.70
   6   1 -11  131.59    5.10
   6   1 -11  141.79    7.30
  -6   1  11  124.89    7.40
  -6   1  11  138.59    8.10
  -5  -1  11  399.46   12.50
  -5  -1  11  400.96   12.00
   5  -1 -11  398.36   11.90
   5  -1 -11  384.06   10.10
   5  -1 -11  406.76   11.90
  -5  -1  11  412.86   11.60
   5  -1 -11  415.76   13.40
   5   1 -11  404.46   11.80
   5   1 -11  415.76   10.00
  -5   1  11  416.66   10.20
  -5   1  11  404.66   12.00
  -5   1  11  385.16   11.90
   5   1 -11  404.46   11.30
   5   1 -11  422.06   13.00
  -4  -1  11   70.09    5.60
   4  -1 -11   58.59    4.10
   4  -1 -11   60.89    5.60
  -4  -1  11   74.29    4.90
  -4  -1  11   59.89    5.20
   4  -1 -11   58.19    3.70
   4  -1 -11   65.69    4.50
   4   1 -11   64.09    4.80
   4   1 -11   55.09    4.30
  -4   1  11   66.59    4.90
  -4   1  11   75.79    5.80
  -4   1  11   59.09    3.60
   4   1 -11   57.39    4.20
  -3  -1  11  468.05   13.40
  -3  -1  11  453.65   13.10
   3  -1 -11  446.76   11.50
   3  -1 -11  450.35   12.70
   3  -1 -11  461.75   13.90
   3  -1 -11  455.05   12.20
  -3   1  11  465.45   13.20
   3   1 -11  450.35   12.10
   3   1 -11  464.25   12.30
   3   1 -11  457.25   12.70
  -3   1  11  458.35   11.20
  -2  -1  11   81.49    5.70
   2  -1 -11   78.39    4.70
   2  -1 -11   84.19    5.60
  -2  -1  11   78.79    5.00
   2  -1 -11   78.19    4.80
   2   1 -11   78.39    4.50
   2   1 -11   73.69    5.60
   2   1 -11   74.59    3.50
   2   1 -11   83.39    4.80
  -2   1  11   73.99    4.30
  -2   1  11   77.69    5.70
  -2   1  11   78.09    5.50
   1  -1 -11  124.99    5.80
   1  -1 -11  125.79    6.40
  -1  -1  11  127.49    7.10
   1  -1 -11  135.79    5.70
  -1  -1  11  132.09    7.00
  -1   1  11  134.49    7.00
   1   1 -11  129.79    6.30
   1   1 -11  128.99    6.50
   1   1 -11  134.39    6.30
  -1   1  11  137.89    6.30
  -1   1  11  125.99    5.60
   0  -1 -11  182.58    7.10
   0  -1 -11  177.18    6.70
   0  -1 -11  184.78    7.00
   0  -1  11  190.88    8.00
   0  -1  11  174.48    6.10
   0  -1  11  182.28    7.30
   0   1  11  177.58    6.30
   0   1  11  164.58    7.60
   0   1 -11  185.08    6.80
   0   1  11  181.28    6.80
   0   1 -11  176.78    7.30
   0   1 -11  171.18    7.30
  -1  -1 -11   59.19    4.60
  -1  -1 -11   58.09    4.40
   1  -1  11   60.59    5.00
   1  -1  11   64.29    5.60
  -1  -1 -11   58.19    4.10
   1  -1  11   64.39    4.20
   1   1  11   66.59    4.10
  -1   1 -11   75.29    4.70
   1   1  11   63.59    4.20
   1   1  11   79.99    5.10
  -1   1 -11   63.99    4.70
   1   1  11   67.79    4.60
   2  -1  11   94.59    6.00
   2  -1  11   87.99    6.40
  -2  -1 -11   85.29    5.10
  -2  -1 -11   85.69    5.60
  -2  -1 -11   95.09    6.50
   2  -1  11   90.49    6.30
   2   1  11   85.09    5.50
  -2   1 -11   90.19    5.70
   2   1  11   88.79    4.90
  -2   1 -11   87.39    5.30
   2   1  11   80.99    4.70
   2   1  11   88.99    5.10
   3  -1  11    4.90    2.60
  -3  -1 -11   -2.50    3.40
  -3  -1 -11    2.10    2.70
   3  -1  11    6.50    3.50
   3  -1  11    0.00    2.80
  -3  -1 -11    1.10    3.70
   3   1  11    0.80    2.20
  -3   1 -11    3.60    3.00
  -3   1 -11    1.90    2.60
   3   1  11    4.90    2.50
   3   1  11    3.90    3.80
  -4  -1 -11   88.59    6.30
   4  -1  11   82.99    5.80
  -4  -1 -11   82.69    6.20
   4  -1  11   88.69    5.90
   4  -1  11   86.89    6.90
  -4   1 -11   96.79    6.70
   4   1  11   92.69    6.40
   4   1  11   90.49    6.50
  -4   1 -11   86.19    6.20
  -4   1 -11   92.19    6.20
   4   1  11   81.79    5.40
  -5  -1 -11   17.80    4.80
  -5  -1 -11   16.10    3.70
   5  -1  11   20.50    5.40
   5  -1  11   21.70    5.10
   5  -1  11   23.40    4.30
  -5   1 -11   16.40    3.70
  -5   1 -11   14.50    4.60
  -5   1 -11   28.30    4.60
   5   1  11   15.50    5.00
   5   1  11   21.20    3.70
   5   1  11   30.80    5.00
  -6  -1 -11   50.69    6.10
   6  -1  11   58.39    6.70
   6  -1  11   56.39    5.30
   6  -1  11   61.89    7.20
  -6   1 -11   47.50    6.00
   6   1  11   46.60    4.90
   6   1  11   75.49    6.90
  -6   1 -11   44.00    4.50
   6   1  11   61.79    6.30
  -6   1 -11   66.09    6.00
  -7  -1 -11   16.00    5.70
   7  -1  11   10.00    6.10
   7  -1  11   13.20    5.80
   7  -1  11   20.00    4.50
   7  -1  11   13.60    6.50
  -7  -1 -11    8.00    5.50
   7   1  11   10.80    5.60
  -7   1 -11   16.00    4.20
   7   1  11   14.40    5.00
  -7   1 -11   18.90    5.60
   8  -1  11    3.50    6.10
  -8  -1 -11    0.60    5.60
   8  -1  11    3.70    4.30
   8  -1  11    0.20    6.70
  -8  -1 -11    1.60    3.90
  -8   1 -11   -3.00    4.70
  -8   1 -11   -3.20    3.70
   8   1  11   -0.30    5.70
   8   1  11   -2.00    3.30
   9  -1  11   15.70    5.30
   9  -1  11   25.90    7.00
   9  -1  11   26.90    8.10
  -9  -1 -11   13.00    6.70
  -9  -1 -11   24.90    5.30
  -9   1 -11   18.60    5.00
   9   1  11   36.30    5.80
  10  -1  11    4.20    6.80
  10  -1  11    7.00    5.40
  10  -1  11   -8.80    7.50
 -10  -1 -11    9.70    5.40
 -10  -1 -11    8.50    6.70
  10   1  11    3.40    6.80
 -10   1 -11    9.30    4.90
 -15  -2  11    7.50    6.60
 -15  -2  11   14.70    8.70
  15  -2 -11   10.50    6.10
  15   2 -11   15.60    5.30
 -15   2  11   -5.30    5.80
  15   2 -11    6.50    5.90
 -15   2  11   13.50    7.00
  14  -2 -11   38.40    8.80
 -14  -2  11   36.60    5.70
 -14  -2  11   31.50    7.10
 -14  -2  11   41.60    7.10
  14   2 -11   33.10    7.20
 -14   2  11   35.70    7.50
  14   2 -11   42.00    6.70
 -14   2  11   46.70    9.40
  13  -2 -11   48.70    8.40
 -13  -2  11   61.59    7.80
 -13  -2  11   50.69    6.10
 -13  -2  11   73.89    9.40
  13   2 -11   54.99    6.90
 -13   2  11   49.00    7.60
  13   2 -11   67.79    7.60
 -13   2  11   64.79    9.30
 -12  -2  11   19.30    6.20
 -12  -2  11   36.50    6.30
 -12   2  11   39.10    7.80
  12   2 -11   29.80    4.70
 -12   2  11   34.70    7.00
  12   2 -11   30.60    5.80
  11  -2 -11    0.30    5.30
 -11  -2  11    2.70    5.10
 -11  -2  11   -1.30    5.20
  11   2 -11    3.60    3.60
 -11   2  11   11.60    6.60
 -11   2  11   -2.80    5.60
  11   2 -11    5.40    4.30
 -10  -2  11    0.10    3.50
  10  -2 -11   -0.90    3.40
  10  -2 -11    2.40    5.30
 -10  -2  11    1.60    4.70
 -10  -2  11   -4.20    3.90
  10  -2 -11   -3.60    3.50
  10   2 -11    5.30    4.00
  10   2 -11    5.90    3.40
  10   2 -11   -1.40    3.70
 -10   2  11    2.20    5.30
 -10   2  11    2.80    5.60
  -9  -2  11  116.99    8.20
   9  -2 -11  118.29    8.40
   9  -2 -11  121.09    9.70
  -9  -2  11  130.59    9.10
  -9  -2  11  115.79    6.80
   9  -2 -11  123.29    7.20
   9   2 -11  121.99    8.00
  -9   2  11  137.59    8.00
   9   2 -11  122.89    6.80
   9   2 -11  129.79    8.30
  -9   2  11  131.19    8.60
   8  -2 -11   48.10    6.60
  -8  -2  11   54.19    5.80
  -8  -2  11   56.49    6.30
   8  -2 -11   60.39    6.40
  -8  -2  11   57.49    5.80
   8  -2 -11   53.89    4.40
  -8   2  11   53.19    6.30
   8   2 -11   53.29    5.50
   8   2 -11   59.39    5.30
   8   2 -11   50.29    4.20
   8   2 -11   55.89    5.60
  -8   2  11   56.99    6.30
  -7  -2  11   56.09    5.60
   7  -2 -11   57.99    6.60
   7  -2 -11   48.00    4.80
  -7  -2  11   57.79    4.70
   7  -2 -11   57.19    6.10
  -7  -2  11   56.89    5.20
  -7  -2  11   63.09    5.70
  -7   2  11   58.89    5.20
   7   2 -11   59.79    6.20
   7   2 -11   58.19    4.50
   7   2 -11   52.09    5.50
  -7   2  11   62.49    6.00
   7   2 -11   59.99    4.30
   6  -2 -11  299.77   10.40
  -6  -2  11  288.27   10.00
  -6  -2  11  289.47   11.20
  -6  -2  11  306.67   10.00
  -6  -2  11  320.97   11.20
   6  -2 -11  311.67   10.50
   6  -2 -11  295.27   12.20
   6   2 -11  319.07   10.60
  -6   2  11  315.47   11.50
  -6   2  11  315.07   10.70
  -6   2  11  284.07    8.90
   6   2 -11  280.57   10.00
   6   2 -11  296.77   10.60
   5  -2 -11    7.50    1.90
  -5  -2  11    4.00    3.30
   5  -2 -11    7.90    3.20
   5  -2 -11    5.30    2.60
  -5  -2  11    0.50    3.40
  -5  -2  11    2.70    2.90
   5  -2 -11    5.80    3.80
  -5  -2  11    2.00    3.80
  -5   2  11    5.30    2.60
  -5   2  11    4.70    3.10
   5   2 -11    4.90    2.90
   5   2 -11    2.90    3.30
  -5   2  11   -1.60    3.20
   5   2 -11   -0.10    3.50
   4  -2 -11    1.50    1.80
   4  -2 -11    0.90    3.20
  -4  -2  11   -2.50    3.50
   4  -2 -11    4.10    3.40
  -4  -2  11    0.60    2.30
  -4  -2  11    1.30    2.40
   4   2 -11    0.50    2.40
  -4   2  11   -3.10    3.90
   4   2 -11    1.30    2.20
  -4   2  11    1.60    2.50
  -4   2  11    1.10    2.70
   4   2 -11    0.80    3.20
   3  -2 -11    2.30    2.10
  -3  -2  11    5.00    3.70
  -3  -2  11   -0.50    1.60
   3  -2 -11    2.80    3.20
  -3  -2  11    3.40    3.70
   3  -2 -11    3.30    2.50
  -3   2  11    1.80    2.40
   3   2 -11    6.20    3.20
  -3   2  11    1.40    2.80
   3   2 -11    2.20    3.20
  -3   2  11    3.30    2.00
   3   2 -11    4.70    3.20
   2  -2 -11  115.49    6.90
   2  -2 -11   97.69    5.20
  -2  -2  11   96.49    6.40
  -2  -2  11  106.89    7.10
  -2  -2  11  100.49    5.00
   2  -2 -11  113.89    6.50
   2   2 -11   99.99    6.30
   2   2 -11  105.79    6.00
   2   2 -11   99.09    6.20
  -2   2  11   99.79    7.00
  -2   2  11   98.09    5.90
  -1  -2  11  478.25   14.20
   1  -2 -11  499.25   13.50
   1  -2 -11  473.35   13.70
  -1  -2  11  461.85   12.80
  -1  -2  11  476.05   14.40
   1  -2 -11  490.35   12.30
   1   2 -11  510.05   13.50
   1   2 -11  499.45   12.80
  -1   2  11  494.95   13.70
   1   2 -11  480.75   12.70
  -1   2  11  472.65   12.50
   0  -2  11    2.10    3.10
   0  -2  11    4.00    2.00
   0  -2  11    5.20    3.80
   0  -2 -11    5.40    3.10
   0  -2 -11    5.70    2.70
   0  -2 -11    0.80    2.90
   0  -2  11    4.10    2.90
   0   2 -11    6.40    2.50
   0   2 -11    7.10    2.70
   0   2  11    3.00    3.50
   0   2 -11    5.50    3.10
   0   2  11   -0.70    2.90
   0   2  11    4.20    3.40
  -1  -2 -11  115.19    6.30
  -1  -2 -11  112.99    6.60
  -1  -2 -11  107.79    7.30
   1  -2  11  121.59    7.30
   1  -2  11  113.19    6.90
   1  -2  11  114.39    7.40
   1  -2  11  119.19    5.50
  -1   2 -11  117.59    6.20
  -1   2 -11  109.59    6.80
   1   2  11  113.29    6.60
   1   2  11  111.19    5.10
   1   2  11  125.09    7.10
   1   2  11  110.89    6.20
   2  -2  11    2.90    4.40
   2  -2  11    5.20    4.10
  -2  -2 -11    8.80    4.10
  -2  -2 -11    5.80    3.10
   2  -2  11    7.80    3.20
  -2  -2 -11    4.30    3.70
   2  -2  11    6.30    4.00
  -2   2 -11   -3.20    3.40
   2   2  11    9.00    3.10
   2   2  11   11.30    3.20
   2   2  11   11.20    3.40
  -2   2 -11    7.60    3.10
   3  -2  11   10.90    4.90
   3  -2  11   18.10    5.00
  -3  -2 -11    8.90    4.50
   3  -2  11   13.40    3.90
  -3  -2 -11   14.40    4.30
   3  -2  11   13.90    4.30
  -3  -2 -11   10.30    3.40
   3   2  11   10.30    4.40
   3   2  11   10.10    3.30
  -3   2 -11    8.70    3.10
  -3   2 -11   15.20    4.20
   3   2  11    7.10    3.30
   4  -2  11    4.50    5.10
   4  -2  11    8.00    4.30
  -4  -2 -11   10.00    3.50
  -4  -2 -11    6.00    3.20
   4  -2  11    4.00    5.00
   4  -2  11    7.80    4.50
   4   2  11    5.60    3.70
  -4   2 -11    4.80    3.00
   4   2  11    0.30    4.40
  -4   2 -11    8.40    4.70
  -4   2 -11   14.10    4.40
  -5  -2 -11    3.90    4.90
  -5  -2 -11    2.70    5.00
   5  -2  11    4.30    4.40
   5  -2  11    2.00    5.60
   5  -2  11    1.90    3.40
   5  -2  11   -2.30    5.50
   5   2  11   -4.50    3.70
  -5   2 -11   12.20    4.90
   5   2  11    7.00    4.90
  -5   2 -11   -0.70    4.50
   6  -2  11   54.19    7.70
  -6  -2 -11   67.39    7.30
   6  -2  11   44.70    7.60
  -6  -2 -11   53.39    6.80
   6  -2  11   64.99    6.50
   6  -2  11   56.49    7.00
   6   2  11   52.59    5.80
   6   2  11   49.70    6.60
   6   2  11   57.89    5.90
  -6   2 -11   46.90    6.10
  -6   2 -11   58.29    6.80
  -7  -2 -11    1.40    4.20
   7  -2  11   -7.20    4.50
   7  -2  11   -4.60    4.20
   7  -2  11    6.10    4.90
  -7  -2 -11    7.90    5.90
   7  -2  11    1.30    5.90
   7   2  11    9.30    5.80
  -7   2 -11    0.00    5.10
   7   2  11  -12.50    4.20
  -7   2 -11   -2.50    5.30
   8  -2  11   20.40    5.40
   8  -2  11   23.90    7.50
  -8  -2 -11   21.40    5.50
   8  -2  11   31.10    8.30
   8  -2  11   14.90    5.40
  -8  -2 -11   17.10    6.90
   8   2  11   23.70    5.20
  -8   2 -11   19.90    6.20
  -8   2 -11   16.10    5.90
   8   2  11   22.10    5.70
   9  -2  11   10.60    7.40
   9  -2  11    7.20    7.30
  -9  -2 -11    2.40    6.80
  -9  -2 -11   21.20    7.30
   9  -2  11    4.50    8.10
  -9   2 -11   11.80    6.60
  -9   2 -11    9.70    4.50
   9   2  11    3.30    6.80
 -10  -2 -11   12.30    5.80
  10  -2  11   16.40    5.80
  10  -2  11    3.40    8.60
 -10  -2 -11   23.00    7.70
  10  -2  11    7.30    7.80
 -10   2 -11   14.30    7.00
 -10   2 -11   19.80    6.70
  10   2  11   18.20    7.50
 -14  -3  11   13.80    5.50
  14  -3 -11    9.80    8.80
 -14   3  11   23.00    7.80
  14   3 -11   14.80    6.80
 -14   3  11   12.90    6.40
  14   3 -11    6.50    6.60
  13  -3 -11   85.19   10.60
 -13  -3  11   71.19    8.80
 -13   3  11   80.39    7.80
 -13   3  11   88.39   10.10
  13   3 -11   65.69    6.60
  13   3 -11   62.39    6.30
 -12  -3  11   -3.30    4.30
  12  -3 -11    0.00    5.20
 -12  -3  11   -5.20    5.50
  12   3 -11    3.00    5.40
 -12   3  11    3.10    6.50
 -12   3  11    0.50    6.90
  12   3 -11   -3.60    5.70
  11  -3 -11  129.79   10.80
 -11  -3  11  156.58   10.80
 -11  -3  11  126.59    9.30
  11   3 -11  124.89    8.80
 -11   3  11  177.38   11.10
 -11   3  11  150.78   10.60
 -10  -3  11   88.39    8.00
  10  -3 -11   64.59    8.00
  10  -3 -11   67.29    8.20
 -10  -3  11   53.79    7.20
  10   3 -11   56.99    6.70
 -10   3  11   66.09    7.80
 -10   3  11   63.59    7.80
  -9  -3  11  223.38   11.20
  -9  -3  11  217.08   11.20
   9  -3 -11  221.38   12.10
  -9   3  11  209.58   11.80
   9   3 -11  223.58   10.50
  -9   3  11  210.38   11.30
   9   3 -11  215.48    9.40
  -8  -3  11    6.40    5.10
   8  -3 -11   13.10    3.90
   8  -3 -11   12.60    5.60
  -8  -3  11    5.60    4.90
   8   3 -11    4.20    4.40
   8   3 -11    8.00    3.90
  -8   3  11   14.30    5.30
   8   3 -11    0.80    4.70
  -8   3  11    6.00    5.40
   7  -3 -11    6.80    3.80
  -7  -3  11   -3.90    4.60
   7  -3 -11    9.10    3.90
  -7  -3  11    7.70    4.70
   7   3 -11    7.50    4.70
  -7   3  11   15.10    5.30
   7   3 -11    6.00    3.20
  -7   3  11    3.60    4.20
   7   3 -11    7.60    3.30
  -6  -3  11  305.37   11.50
  -6  -3  11  279.17   10.20
  -6  -3  11  284.97   11.80
   6  -3 -11  285.67   11.90
  -6   3  11  292.57   10.60
  -6   3  11  270.87   10.80
  -6   3  11  306.87   10.10
   6   3 -11  304.47   10.80
   6   3 -11  297.57   10.80
   6   3 -11  302.37   11.90
   5  -3 -11    3.30    4.40
   5  -3 -11   -4.60    3.50
  -5  -3  11   -2.10    3.00
  -5  -3  11   -3.90    3.90
  -5  -3  11    4.20    3.60
   5   3 -11   11.80    4.10
  -5   3  11    1.30    2.40
  -5   3  11    0.70    3.20
  -5   3  11    1.20    3.20
   5   3 -11    3.10    4.00
   5   3 -11    0.30    4.00
   4  -3 -11  407.16   13.60
  -4  -3  11  406.46   13.30
  -4  -3  11  400.86   13.10
  -4  -3  11  393.56   13.50
   4  -3 -11  417.26   12.90
  -4   3  11  429.56   12.40
  -4   3  11  431.86   13.70
   4   3 -11  411.06   13.10
   4   3 -11  401.26   12.60
   4   3 -11  427.86   12.70
   3  -3 -11    6.70    4.20
  -3  -3  11    2.50    4.00
   3  -3 -11    6.60    4.10
  -3  -3  11    2.80    4.20
  -3  -3  11    3.40    4.00
  -3   3  11    2.40    4.20
   3   3 -11   -0.40    3.30
  -3   3  11    4.70    2.60
   3   3 -11    4.60    3.80
   3   3 -11   -2.00    3.80
   2  -3 -11  162.28    6.50
  -2  -3  11  172.88    8.90
   2  -3 -11  157.48    7.40
   2  -3 -11  165.08    7.70
  -2  -3  11  152.18    6.30
  -2  -3  11  173.58    9.30
  -2   3  11  186.08    8.80
   2   3 -11  154.88    6.90
   2   3 -11  157.08    7.20
  -2   3  11  165.08    7.90
   2   3 -11  161.38    7.70
  -1  -3  11   28.10    5.10
   1  -3 -11   27.10    4.80
   1  -3 -11   22.70    4.70
   1  -3 -11   31.50    3.70
  -1  -3  11   19.50    4.00
  -1  -3  11   23.20    3.60
  -1   3  11   38.50    5.00
   1   3 -11   34.00    4.30
  -1   3  11   34.70    4.80
   1   3 -11   27.90    3.50
   1   3 -11   25.90    4.40
   0  -3  11  365.36   12.90
   0  -3  11  350.16   11.70
   0  -3 -11  364.26   11.70
   0  -3  11  378.86   13.60
   0  -3 -11  373.56   11.30
   0  -3 -11  347.07   11.60
   0   3  11  385.86   12.10
   0   3  11  363.16   11.70
   0   3 -11  374.46   11.10
   0   3 -11  361.16   11.10
   1  -3  11  375.96   13.90
   1  -3  11  373.56   13.00
   1  -3  11  370.26   12.60
  -1  -3 -11  342.87   12.80
  -1  -3 -11  355.76   11.60
  -1  -3 -11  354.56   12.20
   1   3  11  370.96   12.30
   1   3  11  362.96   11.50
  -1   3 -11  372.76   11.90
  -1   3 -11  346.27   10.70
  -2  -3 -11    6.20    4.80
   2  -3  11   -2.20    5.00
   2  -3  11    8.20    4.80
   2  -3  11    6.50    4.80
  -2  -3 -11   -3.00    3.90
  -2  -3 -11    4.10    4.10
  -2   3 -11   -2.10    2.70
   2   3  11   -0.50    3.00
   2   3  11   -3.40    3.80
  -2   3 -11    6.10    3.10
   2   3  11    4.10    4.60
   3  -3  11  234.68   10.60
   3  -3  11  291.97   12.90
  -3  -3 -11  274.17   11.00
   3  -3  11  240.08   10.20
  -3  -3 -11  239.38   11.40
  -3  -3 -11  221.68   10.10
  -3   3 -11  271.07   10.50
   3   3  11  249.68   10.40
   3   3  11  251.77    9.90
   4  -3  11   -0.50    4.90
  -4  -3 -11   -3.90    3.30
   4  -3  11   -3.90    5.60
  -4  -3 -11   -0.50    4.10
  -4  -3 -11   -5.00    3.40
   4  -3  11   -3.70    3.90
  -4   3 -11   -5.50    4.20
   4   3  11   -1.60    4.40
  -4   3 -11    4.90    5.50
   4   3  11    0.30    5.00
   5  -3  11  222.28   13.20
   5  -3  11  214.58   11.40
   5  -3  11  224.58   11.60
  -5  -3 -11  209.68   11.80
  -5  -3 -11  217.58   10.10
  -5  -3 -11  212.08   10.20
  -5   3 -11  225.68   10.60
   5   3  11  219.78   10.60
  -5   3 -11  234.98   12.40
   5   3  11  230.78   11.30
   6  -3  11   81.89    8.00
   6  -3  11   78.79    9.40
   6  -3  11   91.39    8.10
  -6  -3 -11   74.19    8.30
  -6  -3 -11   85.09    7.30
  -6   3 -11   85.49    8.50
   6   3  11   94.39    8.30
  -6   3 -11   61.49    6.80
   6   3  11   73.59    7.20
   7  -3  11    0.90    4.10
  -7  -3 -11   19.40    7.20
  -7  -3 -11    7.40    4.90
   7  -3  11    6.20    7.40
   7  -3  11   13.50    8.20
  -7   3 -11    9.50    5.60
   7   3  11    3.40    5.70
  -7   3 -11    0.90    6.50
   7   3  11    9.30    6.60
   8  -3  11   36.50    9.20
   8  -3  11   36.60    6.90
   8  -3  11   26.00    8.30
  -8  -3 -11   37.20    6.40
  -8  -3 -11   34.10    6.40
  -8   3 -11   15.80    6.10
   8   3  11   26.90    7.00
   8   3  11   34.30    7.60
  -8   3 -11   37.50    8.00
   9  -3  11    2.60    9.30
  -9  -3 -11   -1.30    5.00
  -9  -3 -11    1.60    6.60
   9  -3  11    0.00    7.90
  -9  -3 -11    6.80    7.90
  -9   3 -11   -1.40    6.00
  -9   3 -11   16.30    7.80
   9   3  11   -9.20    4.50
   9   3  11   -6.30    6.20
  13  -4 -11   62.79   10.50
 -13  -4  11   78.19    8.10
 -13   4  11   62.29    9.70
 -13   4  11   57.29    9.80
 -12  -4  11   25.10    7.90
  12  -4 -11   27.10    9.00
  12   4 -11   15.70    6.90
 -12   4  11   39.10    8.70
 -12   4  11   17.30    7.90
 -11  -4  11    8.90    7.00
  11  -4 -11   20.00    8.30
  11   4 -11   10.00    6.30
 -11   4  11   10.20    5.30
 -11   4  11   13.70    5.50
  10  -4 -11   15.80    7.80
 -10  -4  11   25.20    7.10
 -10  -4  11   14.30    6.00
 -10   4  11   25.90    5.80
 -10   4  11   17.20    6.90
  10   4 -11   30.60    6.50
   9  -4 -11   69.79    9.00
  -9  -4  11   53.99    6.10
  -9  -4  11   55.19    7.60
  -9   4  11   46.40    6.30
   9   4 -11   48.50    6.90
  -9   4  11   57.19    7.40
   8  -4 -11  103.49    9.30
  -8  -4  11  131.29    9.40
  -8  -4  11  104.89    8.50
   8   4 -11  129.39    7.90
  -8   4  11  125.89    8.40
   8   4 -11  109.19    7.50
  -8   4  11  134.99    9.70
   7  -4 -11  162.98    8.60
   7  -4 -11  189.08   11.80
  -7  -4  11  185.68   10.90
  -7  -4  11  193.18   10.90
   7   4 -11  185.68   10.30
   7   4 -11  193.48   10.50
  -7   4  11  176.48   11.40
  -7   4  11  194.08    9.80
   7   4 -11  175.68    9.40
   6  -4 -11   85.49    6.50
   6  -4 -11   81.59    8.00
  -6  -4  11   78.09    6.60
  -6  -4  11   85.79    6.80
  -6   4  11   80.49    6.20
   6   4 -11   85.59    7.20
   6   4 -11   81.59    7.30
   6   4 -11   83.79    7.10
  -6   4  11   90.69    8.10
  -6   4  11   82.39    5.90
   5  -4 -11  126.09    8.30
   5  -4 -11  140.39    9.50
  -5  -4  11  122.69    8.50
  -5  -4  11  119.19    7.90
  -5  -4  11  115.39    7.60
   5   4 -11  119.39    7.80
  -5   4  11  125.39    8.70
  -5   4  11  130.69    7.20
   5   4 -11  133.09    8.90
   5   4 -11  132.99    8.70
   4  -4 -11   -4.70    5.00
  -4  -4  11    0.80    5.00
   4  -4 -11    1.90    4.50
  -4  -4  11    4.20    4.20
  -4  -4  11    6.50    3.60
   4   4 -11    1.10    4.30
   4   4 -11    5.00    4.10
   4   4 -11    2.20    3.20
  -4   4  11    0.70    5.10
  -4   4  11    4.60    4.40
  -3  -4  11   12.80    4.00
  -3  -4  11   13.60    4.80
   3  -4 -11   12.00    4.90
   3  -4 -11   13.90    4.10
   3  -4 -11    9.20    5.30
  -3  -4  11   17.10    5.10
   3   4 -11   12.00    3.60
  -3   4  11   11.60    4.70
   3   4 -11    3.60    4.30
  -3   4  11   11.90    5.10
   3   4 -11    5.50    3.70
   2  -4 -11  117.69    8.00
   2  -4 -11  137.69    9.10
   2  -4 -11  122.89    8.70
  -2  -4  11  147.79    9.70
  -2  -4  11  151.38    9.80
  -2   4  11  144.89    8.80
   2   4 -11  128.39    7.90
  -2   4  11  133.29    8.90
   2   4 -11  126.19    7.00
   1  -4 -11  117.39    7.80
  -1  -4  11  103.89    8.40
  -1  -4  11  109.09    8.10
   1  -4 -11   90.49    7.60
   1   4 -11  108.89    7.30
  -1   4  11  104.59    7.10
   1   4 -11  100.59    7.10
  -1   4  11  105.29    6.70
   0  -4  11  286.17   11.40
   0  -4 -11  312.47   10.80
   0  -4  11  285.97   11.20
   0  -4  11  290.97   12.10
   0  -4 -11  308.97   11.30
   0  -4 -11  280.87   12.40
   0   4  11  301.27   11.10
   0   4 -11  319.87   11.70
   0   4  11  307.27   12.10
   0   4 -11  291.87   10.20
   1  -4  11   10.50    4.70
  -1  -4 -11   13.20    5.50
   1  -4  11    1.40    5.90
  -1  -4 -11   13.80    4.30
  -1  -4 -11    8.50    5.30
   1  -4  11   11.30    5.60
   1   4  11    9.60    3.90
  -1   4 -11    7.10    3.60
   1   4  11    4.10    5.10
  -1   4 -11    6.40    4.80
   2  -4  11   22.20    5.70
   2  -4  11   18.80    6.10
  -2  -4 -11   25.30    5.20
  -2  -4 -11   10.40    5.40
   2  -4  11   29.20    7.00
  -2  -4 -11   25.50    6.30
   2   4  11   25.10    4.60
  -2   4 -11   19.20    5.00
   2   4  11   19.90    5.80
   3  -4  11   -6.30    4.10
  -3  -4 -11    7.60    5.10
   3  -4  11    6.40    5.90
   3  -4  11   12.70    6.00
  -3  -4 -11    0.40    3.60
  -3  -4 -11   -0.90    5.70
  -3   4 -11   -0.70    4.70
   3   4  11   -5.40    3.80
   3   4  11   -1.50    5.30
  -3   4 -11   -4.00    5.70
  -4  -4 -11   10.20    4.80
   4  -4  11   11.60    7.00
   4  -4  11   18.20    6.70
   4  -4  11   11.40    6.50
  -4  -4 -11   10.30    5.60
  -4  -4 -11   16.60    6.00
   4   4  11   20.00    6.40
  -4   4 -11    9.40    4.80
  -4   4 -11   11.60    5.30
   4   4  11   10.90    6.00
  -5  -4 -11   37.00    6.00
  -5  -4 -11   29.60    6.30
   5  -4  11   41.30    8.20
   5  -4  11   26.00    7.90
  -5  -4 -11   47.90    7.40
   5  -4  11   51.29    7.90
  -5   4 -11   37.70    6.00
   5   4  11   42.00    5.70
  -5   4 -11   37.60    7.90
   5   4  11   30.90    7.20
  -6  -4 -11    8.10    5.50
   6  -4  11   19.40    8.00
   6  -4  11   14.00    8.00
   6  -4  11    2.00    6.60
  -6  -4 -11    7.20    6.40
   6   4  11    5.80    6.70
  -6   4 -11   -2.00    7.00
  -6   4 -11   10.30    4.00
   6   4  11   11.10    6.50
   7  -4  11   33.30    9.20
   7  -4  11   27.00    8.90
  -7  -4 -11   27.00    6.40
   7  -4  11   31.20    7.50
  -7   4 -11   35.00    8.60
   7   4  11   42.50    7.90
   7   4  11   37.20    5.90
  -7   4 -11   22.70    6.10
   8  -4  11    4.00    6.30
  -8  -4 -11   -2.70    6.50
   8  -4  11   11.70    9.50
  -8  -4 -11    6.10    8.00
   8  -4  11   10.30    7.20
   8   4  11    9.50    7.10
  -8   4 -11    5.30    4.30
   8   4  11   10.50    7.50
  -8   4 -11    7.50    8.10
 -11  -5  11    1.40    7.60
  11  -5 -11   -3.40    5.80
 -11   5  11   -8.00    7.80
 -11   5  11   -2.90    7.10
  11   5 -11    0.50    4.80
 -10  -5  11   82.59    9.80
  10  -5 -11   90.49   10.90
 -10   5  11   97.89   10.60
 -10   5  11   90.29    9.10
  10   5 -11   68.09    7.00
   9  -5 -11   12.50    7.90
  -9  -5  11   17.70    7.40
   9   5 -11   17.30    6.60
   9   5 -11   16.20    5.00
  -9   5  11   14.70    7.60
   8  -5 -11   46.40    8.70
  -8  -5  11   36.00    7.10
  -8  -5  11   58.49    8.40
   8   5 -11   40.10    7.10
  -8   5  11   55.79    8.70
   8   5 -11   45.70    7.40
  -7  -5  11   35.80    6.80
  -7  -5  11   25.10    7.20
   7  -5 -11   30.90    6.20
  -7   5  11   29.60    5.90
   7   5 -11   31.90    6.80
   7   5 -11   27.70    6.50
  -7   5  11   36.30    6.50
  -6  -5  11   14.40    6.60
   6  -5 -11   15.10    7.20
  -6  -5  11   13.40    4.70
  -6   5  11   20.30    6.80
   6   5 -11   16.20    4.60
   6   5 -11    8.30    6.00
  -6   5  11    5.50    4.10
   5  -5 -11  222.28   11.60
  -5  -5  11  222.48   12.40
  -5  -5  11  221.58   10.80
  -5   5  11  252.07   12.80
   5   5 -11  219.28   11.40
  -5   5  11  220.18   11.90
   5   5 -11  223.98   11.80
   5   5 -11  205.68   11.10
   4  -5 -11   40.10    7.40
  -4  -5  11   53.09    6.40
  -4  -5  11   44.70    5.80
  -4  -5  11   30.10    6.80
   4   5 -11   49.30    6.30
  -4   5  11   42.30    6.90
   4   5 -11   42.90    6.60
  -4   5  11   40.00    6.70
  -3  -5  11  181.28   11.90
  -3  -5  11  191.28   11.50
   3  -5 -11  197.58   12.30
   3   5 -11  184.38    9.20
  -3   5  11  189.28   11.20
   3   5 -11  208.28   10.40
  -3   5  11  213.68   11.60
   2  -5 -11    0.90    5.00
   2  -5 -11   26.60    6.80
  -2  -5  11    6.70    5.80
  -2  -5  11   10.30    6.10
   2   5 -11   16.30    4.20
   2   5 -11   10.10    4.80
  -2   5  11   18.20    4.50
  -2   5  11    7.00    5.70
  -1  -5  11   43.80    6.10
   1  -5 -11   39.90    7.30
   1  -5 -11   43.50    6.30
  -1  -5  11   57.49    7.80
   1   5 -11   45.80    6.30
  -1   5  11   53.19    6.40
  -1   5  11   45.70    6.90
   1   5 -11   44.00    5.50
   0  -5 -11   77.39    8.20
   0  -5  11   69.89    7.20
   0  -5  11   62.39    8.30
   0  -5 -11   58.19    7.50
   0   5 -11   72.19    7.00
   0   5  11   70.89    7.80
   1  -5  11   10.10    5.10
   1  -5  11   22.90    5.70
   1  -5  11   22.90    7.40
  -1  -5 -11   23.90    6.90
  -1  -5 -11    4.30    6.10
   1   5  11   15.10    6.40
   1   5  11   14.90    6.60
  -1   5 -11   26.20    5.70
  -2  -5 -11  154.28   10.60
   2  -5  11  133.39    9.80
   2  -5  11  165.08   10.90
  -2  -5 -11  142.39    9.70
   2  -5  11  170.48   12.00
   2   5  11  137.39   10.40
   2   5  11  134.09    9.70
  -2   5 -11  144.39    9.70
  -2   5 -11  139.19   10.60
  -3  -5 -11    4.60    6.80
   3  -5  11   11.40    5.80
  -3  -5 -11   13.70    6.70
   3  -5  11    2.40    6.70
   3  -5  11   19.50    6.90
  -3   5 -11    1.40    5.20
  -3   5 -11    8.20    7.20
   3   5  11   13.10    6.90
   3   5  11    9.30    4.80
  -4  -5 -11   51.29    8.00
  -4  -5 -11   59.09    8.90
   4  -5  11   72.89   10.20
   4  -5  11   47.10    8.70
   4  -5  11   55.79    9.00
   4   5  11   58.39    7.20
  -4   5 -11   59.99    6.80
  -4   5 -11   46.40    8.60
   4   5  11   65.89    6.90
  -5  -5 -11    4.90    7.70
   5  -5  11   -1.80    7.70
  -5  -5 -11   17.00    6.90
   5  -5  11  -10.40    7.10
   5  -5  11   12.70    8.50
  -5   5 -11    0.10    5.40
   5   5  11   10.20    7.30
  -5   5 -11    8.70    7.80
   5   5  11    2.80    5.10
   6  -5  11   53.79   10.30
   6  -5  11   56.69   10.30
   6  -5  11   61.49    9.60
  -6  -5 -11   70.59   10.20
   6   5  11   55.79    9.20
  -6   5 -11   67.39    9.80
   6   5  11   63.89    7.50
  -7  -6  11  154.28   11.70
   7  -6 -11  160.08   12.90
   7   6 -11  184.28   10.70
  -7   6  11  147.89   11.60
  -7   6  11  179.18   11.10
   6  -6 -11   18.40    6.40
  -6  -6  11   28.80    7.20
  -6  -6  11   22.70    8.00
  -6   6  11   17.60    7.60
  -6   6  11   12.50    7.60
   6   6 -11   13.10    5.00
   6   6 -11   26.90    7.20
   5  -6 -11    9.50    8.00
  -5  -6  11    3.00    6.40
  -5  -6  11   -0.50    6.80
  -5   6  11    7.00    5.10
  -5   6  11   11.20    5.30
   5   6 -11    7.10    6.20
   5   6 -11   12.00    6.80
  -4  -6  11    0.30    6.70
   4  -6 -11    4.30    7.60
  -4  -6  11   -2.70    6.50
   4   6 -11    3.00    4.50
  -4   6  11    5.20    6.80
  -4   6  11    4.20    4.60
   4   6 -11    2.40    5.80
   3  -6 -11    2.70    7.40
  -3  -6  11   -3.00    6.70
  -3   6  11    2.00    6.30
   3   6 -11   -1.70    6.00
  -3   6  11   -3.10    6.50
   3   6 -11    0.90    5.40
   2  -6 -11   37.70    8.70
  -2  -6  11   31.40    5.90
  -2  -6  11   52.29    8.50
   2   6 -11   48.20    7.10
  -2   6  11   37.60    6.40
   1  -6 -11   35.60    6.80
  -1  -6  11   29.10    7.90
  -1  -6  11   15.40    7.50
  -1   6  11   19.00    5.50
   1   6 -11   27.10    6.50
   0  -6  11   76.49    9.80
   0  -6  11   68.99    7.50
   0  -6 -11   60.39    7.50
   0   6  11   63.49    8.80
   0   6 -11   67.69    7.40
  -1  -6 -11   29.80    8.40
   1  -6  11   20.30    8.50
  -1  -6 -11   19.10    7.20
   1  -6  11   27.30    8.00
   1   6  11    9.20    7.10
  -1   6 -11   14.70    4.60
   1   6  11   20.80    8.30
  -1   6 -11   20.50    7.80
  -2  -6 -11   10.40    7.70
  -2  -6 -11    9.10    7.70
   2  -6  11   -5.80    8.00
   2  -6  11   -6.90    7.50
  -2   6 -11   -2.70    5.50
   2   6  11   -1.60    6.90
   2   6  11    0.40    5.50
  -2   6 -11   11.00    7.90
   3  -6  11    1.80   11.80
  -3  -6 -11   20.10    8.40
  -3  -6 -11    9.70    5.70
   3  -6  11    6.50    5.80
   3  -6  11   19.80    6.90
  -3   6 -11   12.20    6.20
  -3   6 -11    8.00    7.90
   3   6  11    6.60    8.20
   3   6  11   10.00    7.90
  15   0 -12  107.29   10.10
 -15   0  12  107.79   11.40
  14   0 -12  141.59   10.10
 -14   0  12  105.99   10.80
  13   0 -12  245.98   12.60
 -13   0  12  250.87   11.90
 -13   0  12  280.37   14.80
  13   0 -12  253.17   10.80
 -12   0  12   60.99    5.80
  12   0 -12   62.29    7.00
  12   0 -12   50.29    5.00
 -12   0  12   53.79    8.10
  11   0 -12  137.89    8.50
 -11   0  12  151.78   10.30
  11   0 -12  139.39    7.80
 -11   0  12  137.99    8.00
  11   0 -12  128.09    9.50
 -10   0  12   73.49    7.80
  10   0 -12   71.79    6.10
  10   0 -12   60.99    6.20
  10   0 -12   58.69    5.00
  10   0 -12   65.79    6.20
 -10   0  12   65.69    5.20
 -10   0  12   58.89    6.60
  -9   0  12   96.59    7.20
  -9   0  12   93.79    7.90
   9   0 -12   91.99    6.50
  -9   0  12   98.59    6.00
   9   0 -12   92.89    5.60
   9   0 -12   92.69    7.80
   9   0 -12  102.99    6.90
  -8   0  12  201.18   10.10
   8   0 -12  184.38    9.00
   8   0 -12  183.78    8.70
  -8   0  12  177.58    7.20
  -8   0  12  177.78    9.40
   8   0 -12  195.78    7.30
   8   0 -12  186.18    7.90
  -7   0  12  101.19    5.50
   7   0 -12   98.29    5.60
  -7   0  12   98.59    6.70
   7   0 -12  101.09    8.20
  -7   0  12   95.09    7.00
   7   0 -12  106.89    7.10
  -6   0  12 1141.79   26.20
   6   0 -12 1070.39   24.00
   6   0 -12 1051.49   26.20
  -6   0  12 1093.69   24.10
   6   0 -12 1110.89   25.20
  -5   0  12    6.70    2.90
   5   0 -12    8.70    2.80
   5   0 -12    1.50    3.80
  -5   0  12   11.90    4.30
   5   0 -12   10.60    3.00
  -4   0  12  362.76   11.30
   4   0 -12  354.26   10.10
   4   0 -12  363.96   11.30
  -4   0  12  358.16   11.60
   4   0 -12  379.76   10.50
   4   0 -12  357.96   11.60
   3   0 -12   12.50    3.10
  -3   0  12   11.80    2.90
  -3   0  12   15.40    2.20
  -3   0  12   19.10    4.20
   3   0 -12   12.90    3.60
   3   0 -12    9.30    2.50
   3   0 -12   12.50    3.10
   2   0 -12    4.30    2.40
  -2   0  12    0.40    3.30
  -2   0  12    1.40    3.60
   2   0 -12    6.60    3.60
   2   0 -12    5.70    2.20
  -2   0  12    8.80    2.00
   2   0 -12    1.90    3.20
   1   0 -12 1226.38   27.00
   1   0 -12 1209.48   26.60
  -1   0  12 1204.68   27.60
  -1   0  12 1199.38   25.50
   1   0 -12 1195.78   27.60
  -1   0  12 1234.08   27.20
   1   0 -12 1191.38   25.30
   0   0  12   14.50    3.50
   0   0 -12   10.50    3.40
   0   0  12   13.00    3.10
   0   0 -12   12.20    3.60
   0   0  12    4.50    2.70
   1   0  12  745.53   17.60
  -1   0 -12  750.52   18.00
   1   0  12  745.83   18.20
  -1   0 -12  732.03   17.90
  -2   0 -12    4.10    2.80
   2   0  12    5.90    3.20
  -2   0 -12    7.60    3.70
   2   0  12    9.50    4.30
   2   0  12    6.70    3.50
   3   0  12  207.38    9.80
  -3   0 -12  175.08    7.60
   3   0  12  187.58    7.90
   3   0  12  209.28    8.80
  -3   0 -12  182.88    8.80
  -4   0 -12   53.19    4.60
  -4   0 -12   60.49    5.80
   4   0  12   54.09    4.80
   4   0  12   60.79    6.50
  -4   0 -12   56.99    5.40
   4   0  12   49.20    4.60
  -5   0 -12    6.70    4.10
   5   0  12    0.10    4.90
  -5   0 -12   -1.60    4.30
   5   0  12   -3.10    4.60
  -6   0 -12  130.99    8.10
   6   0  12  153.78   10.60
  -6   0 -12  148.09    8.90
   6   0  12  148.49    9.80
   7   0  12   -0.40    5.60
  -7   0 -12   -3.90    3.80
   7   0  12   -1.40    5.70
   8   0  12  196.18   10.40
  -8   0 -12  181.28   11.90
   8   0  12  175.78    9.90
   9   0  12    5.00    6.50
  -9   0 -12   12.30    6.80
  -9   0 -12   17.20    6.50
   9   0  12    7.00    5.10
  10   0  12   -4.50    7.70
  10   0  12   -7.60    7.20
 -10   0 -12   -4.20    6.80
 -10   0 -12  -12.30    5.80
  15  -1 -12    3.50    7.90
 -15  -1  12   23.60    9.00
 -15   1  12   41.60    9.40
  15   1 -12   38.00    7.80
 -14  -1  12    9.70    8.10
  14  -1 -12   11.40    7.30
 -14  -1  12    5.60    5.40
  14   1 -12    3.50    6.40
  14   1 -12    6.30    5.40
 -14   1  12    2.40    6.00
 -14   1  12    7.10    7.80
 -13  -1  12   11.20    7.60
 -13  -1  12    2.10    5.10
  13  -1 -12   -1.30    4.60
 -13   1  12    0.20    5.80
  13   1 -12   -1.90    5.10
  13   1 -12    2.90    5.70
 -13   1  12   -1.40    7.10
  12  -1 -12   52.89    7.40
 -12  -1  12   56.69    6.30
 -12  -1  12   53.69    6.30
 -12  -1  12   52.59    8.70
  12   1 -12   55.19    5.30
 -12   1  12   64.39    7.30
 -12   1  12   76.49    8.80
  12   1 -12   44.20    6.20
  12   1 -12   59.99    6.70
 -11  -1  12  253.47   13.20
 -11  -1  12  232.58   10.30
  11  -1 -12  207.68   12.50
  11  -1 -12  232.78   10.10
  11  -1 -12  258.27   10.60
 -11  -1  12  232.28   10.70
  11   1 -12  240.68   10.70
  11   1 -12  237.98   10.50
 -11   1  12  252.67   11.90
  11   1 -12  222.78    9.40
 -11   1  12  216.68   12.40
  10  -1 -12  111.69    7.70
 -10  -1  12  121.39    7.80
 -10  -1  12  124.99    9.40
  10  -1 -12  125.99    9.30
  10  -1 -12  108.39    7.30
 -10  -1  12  114.69    7.70
  10   1 -12  107.39    6.80
 -10   1  12  115.29    8.30
 -10   1  12  126.19    9.00
  10   1 -12  107.29    7.90
  10   1 -12  105.39    6.80
  10   1 -12  109.19    7.40
   9  -1 -12  414.96   13.10
  -9  -1  12  439.36   13.10
  -9  -1  12  398.26   14.00
   9  -1 -12  412.66   14.60
  -9  -1  12  445.86   14.70
  -9  -1  12  414.06   13.90
  -9   1  12  434.06   14.60
   9   1 -12  434.16   13.50
   9   1 -12  428.86   12.50
   9   1 -12  412.86   12.20
  -9   1  12  424.06   13.90
   9   1 -12  421.66   14.10
  -8  -1  12  263.47   11.00
   8  -1 -12  284.07   11.40
  -8  -1  12  280.57   10.00
  -8  -1  12  290.77   11.70
   8  -1 -12  292.57   10.50
   8   1 -12  280.87    9.00
  -8   1  12  283.37   11.70
  -8   1  12  277.97   10.50
   8   1 -12  272.37    9.60
   8   1 -12  276.47   11.80
   8   1 -12  269.27    9.60
   7  -1 -12   11.50    3.10
  -7  -1  12   20.90    4.00
  -7  -1  12   12.80    4.50
  -7  -1  12    7.80    4.50
   7  -1 -12   11.50    4.20
   7  -1 -12    8.80    4.80
   7  -1 -12   14.10    2.50
   7   1 -12   15.50    4.80
   7   1 -12    7.50    3.30
  -7   1  12   21.20    5.20
   7   1 -12   12.30    2.80
  -7   1  12   10.50    4.60
   7   1 -12   13.90    3.30
  -6  -1  12   25.10    4.00
   6  -1 -12   26.00    2.90
   6  -1 -12   29.80    4.50
   6  -1 -12   40.00    4.80
  -6  -1  12   28.80    4.90
  -6  -1  12   30.80    4.10
   6  -1 -12   29.80    4.50
  -6   1  12   28.50    2.60
  -6   1  12   27.00    3.80
  -6   1  12   27.70    5.10
   6   1 -12   24.70    4.80
   6   1 -12   29.90    3.80
   6   1 -12   31.80    4.00
  -5  -1  12  106.49    7.50
   5  -1 -12  100.59    6.30
   5  -1 -12  101.19    6.60
   5  -1 -12   94.19    7.30
  -5  -1  12  105.89    6.40
   5  -1 -12   95.59    5.10
  -5  -1  12  114.19    6.30
   5   1 -12  101.69    6.30
  -5   1  12   96.39    6.70
   5   1 -12  103.09    6.80
  -5   1  12  106.19    6.90
   5   1 -12  100.49    7.50
  -5   1  12  107.29    4.50
   4  -1 -12  700.23   16.00
  -4  -1  12  686.43   17.90
  -4  -1  12  661.63   18.00
   4  -1 -12  668.73   16.90
   4  -1 -12  648.44   18.50
   4  -1 -12  668.13   16.80
  -4   1  12  668.63   17.90
   4   1 -12  708.43   16.80
   4   1 -12  695.93   17.30
   4   1 -12  654.03   17.40
  -4   1  12  675.63   15.50
   3  -1 -12  337.57    9.90
   3  -1 -12  354.46   11.30
   3  -1 -12  352.86   12.50
  -3  -1  12  362.56   11.90
  -3  -1  12  350.06   11.20
   3  -1 -12  363.86   10.60
   3   1 -12  343.57   10.20
   3   1 -12  368.76   11.20
  -3   1  12  360.26   11.10
   3   1 -12  364.86    9.30
   3   1 -12  344.07   10.90
  -3   1  12  356.76    9.60
  -3   1  12  365.16   11.30
  -2  -1  12  332.37   10.50
   2  -1 -12  323.77   10.80
   2  -1 -12  324.57    9.30
  -2  -1  12  318.47   11.30
  -2  -1  12  309.87   11.00
   2  -1 -12  335.47    9.80
   2   1 -12  335.17   10.40
   2   1 -12  335.17   10.60
  -2   1  12  329.27   11.20
  -2   1  12  334.67   10.40
  -2   1  12  339.57    9.40
   2   1 -12  314.97   10.60
  -1  -1  12  129.99    7.80
  -1  -1  12  136.69    5.00
   1  -1 -12  128.59    5.80
   1  -1 -12  126.69    7.20
  -1  -1  12  120.39    7.30
   1  -1 -12  127.09    5.60
  -1   1  12  135.39    6.60
  -1   1  12  133.99    6.60
   1   1 -12  145.09    6.70
  -1   1  12  135.09    6.20
   1   1 -12  139.99    6.20
   1   1 -12  128.09    7.10
   0  -1 -12   -2.90    3.40
   0  -1  12    0.80    3.90
   0  -1  12    1.30    2.20
   0  -1  12   -1.80    3.40
   0  -1 -12   -1.50    2.20
   0  -1 -12    1.30    2.20
   0   1  12    1.70    3.00
   0   1  12   -1.90    3.50
   0   1 -12    0.70    2.50
   0   1 -12   -1.60    3.30
   0   1 -12   -1.80    3.20
   0   1  12   -0.20    2.70
   0   1  12    1.30    2.30
  -1  -1 -12    4.90    2.50
   1  -1  12    0.80    2.80
  -1  -1 -12    5.10    2.30
   1  -1  12    1.40    2.50
  -1  -1 -12    8.20    3.90
   1  -1  12    3.10    4.10
  -1   1 -12   -1.40    3.20
   1   1  12    4.30    2.70
   1   1  12    6.90    2.60
  -1   1 -12    0.70    3.50
   1   1  12    5.30    3.40
   1   1  12    6.50    2.80
  -2  -1 -12   87.49    6.10
  -2  -1 -12   94.09    6.50
   2  -1  12   79.19    6.70
   2  -1  12   85.39    5.70
   2  -1  12   86.59    5.50
   2   1  12   88.69    6.00
   2   1  12   83.09    5.20
   2   1  12   90.89    5.90
  -2   1 -12   94.79    5.90
  -2   1 -12   81.09    5.90
   2   1  12   84.09    4.90
   3  -1  12  280.67    9.40
   3  -1  12  271.67   10.00
  -3  -1 -12  251.97   10.10
  -3  -1 -12  253.77   10.40
   3  -1  12  267.07   10.20
   3   1  12  240.78    9.70
  -3   1 -12  260.07   10.20
   3   1  12  242.78    9.80
  -3   1 -12  255.87    9.50
   4  -1  12  118.79    7.50
  -4  -1 -12  115.49    7.50
   4  -1  12  125.99    8.40
  -4  -1 -12  118.39    7.00
   4  -1  12  133.39    8.20
  -4   1 -12  130.69    8.30
  -4   1 -12  138.69    7.50
   4   1  12  129.89    8.90
  -4   1 -12  130.49    7.80
   4   1  12  129.59    8.40
   5  -1  12   34.50    5.00
  -5  -1 -12   24.90    5.40
   5  -1  12   45.60    6.70
   5  -1  12   34.80    4.70
  -5  -1 -12   25.30    4.40
   5   1  12   20.50    5.40
   5   1  12   35.60    5.60
  -5   1 -12   29.60    4.50
  -5   1 -12   37.90    4.70
  -5   1 -12   28.70    4.90
   6  -1  12   85.49    8.40
   6  -1  12   70.39    6.20
   6  -1  12   79.79    8.10
  -6  -1 -12   74.79    7.30
   6  -1  12   85.59    7.60
   6   1  12   66.19    6.00
  -6   1 -12   71.89    6.40
  -6   1 -12   89.39    6.60
   6   1  12   84.69    7.40
   7  -1  12   20.10    7.20
  -7  -1 -12   11.60    6.00
   7  -1  12    7.50    6.50
  -7  -1 -12    9.70    4.40
   7  -1  12   16.10    6.30
  -7   1 -12   13.10    4.40
   7   1  12    8.20    5.40
  -7   1 -12    9.20    5.00
   7   1  12    8.40    6.00
   8  -1  12    5.70    5.10
   8  -1  12   20.50    7.60
   8  -1  12   16.20    7.00
  -8  -1 -12   11.00    4.90
  -8  -1 -12   11.40    6.50
  -8   1 -12   10.50    4.60
   8   1  12   15.30    8.50
   8   1  12   19.70    4.90
   9  -1  12   -1.70    7.80
   9  -1  12    6.90    5.00
  -9  -1 -12    1.80    6.90
   9  -1  12   14.60    7.20
  -9  -1 -12   -0.80    6.60
   9   1  12    1.50    6.70
  -9   1 -12    5.30    4.80
 -10  -1 -12    4.40    7.00
  10  -1  12   16.10    8.70
 -10  -1 -12   14.30    7.90
  10  -1  12    6.00    7.60
  10  -1  12   17.90    5.90
  10   1  12    9.70    5.40
 -10   1 -12    9.80    5.40
 -14  -2  12  182.08   12.30
 -14  -2  12  167.68   11.80
 -14   2  12  174.78   10.50
  14   2 -12  146.39   10.00
 -14   2  12  166.68   11.90
  14   2 -12  137.49    9.40
 -13  -2  12    6.60    6.00
 -13  -2  12    8.80    6.50
 -13   2  12   -0.90    5.30
  13   2 -12   -2.10    5.60
 -13   2  12   12.00    6.70
  13   2 -12    8.70    5.70
 -12  -2  12  269.07   13.50
  12  -2 -12  305.77   14.90
 -12  -2  12  277.57   12.60
 -12   2  12  298.87   14.10
 -12   2  12  273.37   12.90
  12   2 -12  276.37   11.70
  12   2 -12  263.27   12.40
 -11  -2  12    3.20    5.80
 -11  -2  12   -3.90    5.00
  11  -2 -12   -0.60    6.20
  11   2 -12   -2.90    4.10
 -11   2  12   -4.00    5.70
 -11   2  12    6.80    6.50
  11   2 -12    1.20    5.10
 -10  -2  12   91.79    6.60
 -10  -2  12   77.49    7.70
  10  -2 -12   90.29    8.70
 -10  -2  12   81.29    7.00
  10  -2 -12   84.99    6.30
  10  -2 -12   94.09    8.40
 -10   2  12  102.39    8.40
  10   2 -12   79.89    8.00
  10   2 -12   76.39    6.30
  10   2 -12   84.49    7.10
  10   2 -12   73.09    6.70
 -10   2  12   98.59    8.50
  -9  -2  12  175.48   10.50
   9  -2 -12  167.88   10.50
  -9  -2  12  162.58    9.30
   9  -2 -12  173.38    9.90
  -9  -2  12  165.28    9.60
   9  -2 -12  168.18    8.70
   9   2 -12  167.78    8.70
  -9   2  12  172.18   10.60
  -9   2  12  152.78   10.40
   9   2 -12  166.78   10.50
   9   2 -12  179.88    9.50
   8  -2 -12   64.49    5.80
  -8  -2  12   57.29    6.00
   8  -2 -12   54.09    6.00
  -8  -2  12   63.79    5.90
   8  -2 -12   59.09    5.80
  -8  -2  12   58.59    6.00
  -8  -2  12   66.59    6.90
   8   2 -12   60.69    6.00
  -8   2  12   69.59    5.80
   8   2 -12   57.59    5.70
   8   2 -12   51.29    5.30
  -8   2  12   62.99    7.00
  -7  -2  12  525.65   14.80
   7  -2 -12  533.05   16.20
   7  -2 -12  525.95   16.80
   7  -2 -12  534.25   15.10
  -7  -2  12  529.55   14.90
  -7  -2  12  526.65   16.30
  -7  -2  12  554.44   16.20
   7   2 -12  532.25   16.40
   7   2 -12  526.75   15.20
  -7   2  12  546.85   15.80
  -7   2  12  517.35   15.50
  -7   2  12  526.75   13.60
   7   2 -12  542.05   14.90
   6  -2 -12   14.00    4.50
   6  -2 -12   14.20    4.00
  -6  -2  12    8.50    4.40
  -6  -2  12    6.40    3.70
  -6  -2  12   12.30    3.60
   6  -2 -12   15.30    4.20
  -6  -2  12   10.00    3.90
   6   2 -12    7.70    3.20
   6   2 -12   15.10    3.20
   6   2 -12   10.70    4.30
  -6   2  12    8.90    2.90
  -6   2  12    7.20    4.00
  -6   2  12    4.00    4.70
  -5  -2  12  540.05   15.10
   5  -2 -12  517.65   16.60
   5  -2 -12  534.25   13.70
   5  -2 -12  495.05   15.00
   5  -2 -12  517.95   14.70
  -5  -2  12  519.45   15.60
  -5  -2  12  501.85   14.60
  -5   2  12  522.55   14.30
  -5   2  12  503.35   13.30
  -5   2  12  512.65   14.90
   5   2 -12  498.85   14.20
   5   2 -12  525.75   14.60
   5   2 -12  519.25   14.80
   4  -2 -12   -1.80    3.70
  -4  -2  12    0.50    2.60
   4  -2 -12    4.50    2.20
   4  -2 -12    0.70    3.50
  -4  -2  12    2.10    4.10
  -4  -2  12    3.40    2.70
  -4   2  12    6.20    2.90
  -4   2  12    3.30    2.90
  -4   2  12   -2.60    4.20
   4   2 -12    1.80    2.50
   4   2 -12    0.70    2.50
   4   2 -12    2.40    3.50
   3  -2 -12    1.50    2.70
  -3  -2  12    0.00    4.00
  -3  -2  12    6.90    4.10
   3  -2 -12    2.10    3.40
   3  -2 -12    3.00    2.90
  -3  -2  12    3.00    1.90
   3   2 -12    6.60    3.60
  -3   2  12    9.60    3.00
   3   2 -12    2.60    3.50
   3   2 -12    4.90    3.30
  -3   2  12    1.80    4.10
  -2  -2  12   45.60    5.50
  -2  -2  12   43.10    5.30
  -2  -2  12   35.80    3.50
   2  -2 -12   34.20    4.40
   2  -2 -12   34.50    4.90
   2  -2 -12   40.00    3.80
  -2   2  12   48.40    5.40
   2   2 -12   35.40    4.10
   2   2 -12   41.10    4.60
   2   2 -12   44.70    4.70
  -2   2  12   45.00    4.30
  -1  -2  12   -6.40    3.80
  -1  -2  12   -0.20    4.20
   1  -2 -12    1.10    2.90
  -1  -2  12    3.60    3.10
   1  -2 -12   -0.50    3.10
   1  -2 -12    2.70    3.80
  -1   2  12    2.00    2.80
   1   2 -12    0.10    2.50
  -1   2  12    0.80    2.80
   1   2 -12    3.50    3.50
   1   2 -12   -1.00    2.50
  -1   2  12    0.00    2.30
   0  -2  12  555.74   15.10
   0  -2 -12  549.15   14.50
   0  -2 -12  527.85   14.50
   0  -2  12  548.05   15.80
   0  -2  12  537.45   16.30
   0  -2 -12  531.55   14.80
   0   2  12  543.65   14.60
   0   2  12  533.35   14.90
   0   2  12  530.05   13.60
   0   2 -12  543.85   14.90
   0   2 -12  508.85   13.50
   0   2 -12  556.14   14.50
  -1  -2 -12   33.20    4.60
  -1  -2 -12   31.60    5.00
  -1  -2 -12   26.70    4.00
   1  -2  12   33.60    4.70
   1  -2  12   36.30    5.10
   1  -2  12   36.90    3.70
   1  -2  12   29.20    5.10
   1   2  12   30.70    3.90
   1   2  12   26.10    4.40
   1   2  12   36.50    4.00
  -1   2 -12   32.20    4.70
   1   2  12   35.40    3.50
  -1   2 -12   34.20    4.30
   2  -2  12  204.68   10.10
  -2  -2 -12  195.08    8.00
   2  -2  12  203.58    9.70
   2  -2  12  191.38    8.00
   2  -2  12  204.18   10.70
  -2  -2 -12  187.78    8.10
  -2  -2 -12  207.68    9.90
   2   2  12  196.38    8.50
  -2   2 -12  210.18    9.20
  -2   2 -12  203.78    8.20
   2   2  12  193.98    9.10
   2   2  12  188.68    8.00
  -3  -2 -12   -1.70    4.10
  -3  -2 -12    5.30    4.70
   3  -2  12   -0.20    5.10
   3  -2  12    3.90    3.90
  -3  -2 -12    0.10    3.20
   3  -2  12   -0.60    4.20
   3  -2  12    2.80    5.00
   3   2  12    0.90    3.30
   3   2  12    0.80    3.40
   3   2  12    4.90    4.40
  -3   2 -12   -5.90    3.90
  -3   2 -12    2.10    3.20
  -4  -2 -12   16.50    5.30
  -4  -2 -12   16.70    5.30
   4  -2  12   13.80    3.70
   4  -2  12   12.40    4.60
   4  -2  12    8.20    4.30
   4  -2  12   12.90    3.80
   4   2  12   14.20    5.20
  -4   2 -12   12.50    3.60
  -4   2 -12   17.90    3.80
   4   2  12    7.10    3.80
  -4   2 -12   11.10    5.00
  -5  -2 -12  127.09    8.30
  -5  -2 -12  119.79    7.90
   5  -2  12  109.39    7.80
   5  -2  12  129.29    8.40
   5  -2  12  140.29    9.90
   5  -2  12  114.29    9.50
   5   2  12  122.09    7.80
  -5   2 -12   96.59    7.50
  -5   2 -12  140.79    9.80
   5   2  12  122.59    8.30
  -6  -2 -12   -3.30    5.70
   6  -2  12   -1.10    4.70
   6  -2  12   -6.40    5.40
   6  -2  12   -1.00    4.70
  -6  -2 -12    5.00    5.70
   6  -2  12   -1.90    6.50
  -6   2 -12    2.30    5.50
   6   2  12    2.00    4.50
   6   2  12   -3.80    3.20
  -6   2 -12    2.90    5.20
   6   2  12   -3.60    3.90
  -7  -2 -12  137.99   10.20
   7  -2  12  129.69    9.80
   7  -2  12  132.09    9.80
   7  -2  12  152.08   10.00
   7  -2  12  144.49   10.80
  -7  -2 -12  140.39   10.00
  -7   2 -12  146.69    9.90
   7   2  12  121.89    8.10
  -7   2 -12  146.89    9.40
  -8  -2 -12   15.10    7.20
   8  -2  12    0.30    5.20
   8  -2  12   -1.20    7.10
  -8  -2 -12    7.20    5.00
   8  -2  12   12.70    7.10
   8  -2  12    5.00    8.00
  -8   2 -12    5.40    6.10
  -8   2 -12    3.90    4.40
   8   2  12   -7.70    6.30
  -9  -2 -12   55.49    8.80
   9  -2  12   52.19    7.30
   9  -2  12   55.79   10.10
  -9  -2 -12   41.60    8.50
   9  -2  12   53.89    9.00
   9   2  12   44.40    8.10
  -9   2 -12   40.90    7.50
  -9   2 -12   69.49    8.30
 -14   3  12   12.40    8.90
  13  -3 -12   -0.10    8.00
 -13  -3  12   -4.50    6.50
 -13  -3  12  -12.10    9.90
 -13   3  12   -7.00    7.50
  13   3 -12    6.80    6.30
 -13   3  12   -6.20    7.10
 -12  -3  12   17.60    6.60
 -12  -3  12   21.70    6.90
  12  -3 -12   25.60    8.20
  12   3 -12   12.10    6.30
 -12   3  12   14.00    7.50
 -12   3  12   20.00    7.80
 -11  -3  12    1.90    6.00
  11  -3 -12   13.00    7.50
 -11  -3  12    9.50    6.20
 -11   3  12   12.50    6.90
 -11   3  12   12.90    5.50
  11   3 -12    6.70    5.70
 -10  -3  12  177.98   11.60
 -10  -3  12  157.28   10.90
  10  -3 -12  177.88   11.50
 -10   3  12  206.48   12.10
 -10   3  12  172.58   11.20
  10   3 -12  159.18    9.90
  10   3 -12  185.18   10.60
  -9  -3  12   89.79    7.10
  -9  -3  12   78.79    7.90
   9  -3 -12   83.39    8.40
   9   3 -12   86.29    6.40
   9   3 -12   79.19    7.10
  -9   3  12  101.79    8.90
  -9   3  12   87.99    7.20
   8  -3 -12   25.80    4.80
  -8  -3  12   14.40    5.50
  -8  -3  12   23.20    6.10
   8  -3 -12   19.00    6.10
   8   3 -12   21.70    5.50
   8   3 -12   29.70    5.30
  -8   3  12   20.70    6.20
  -8   3  12   16.40    5.40
   8   3 -12   18.10    4.50
   7  -3 -12   61.09    7.20
  -7  -3  12   64.59    7.10
  -7  -3  12   62.59    6.60
   7  -3 -12   65.89    6.00
   7   3 -12   73.79    5.60
  -7   3  12   75.09    7.40
   7   3 -12   68.99    7.00
  -7   3  12   75.49    6.60
  -7   3  12   67.39    5.40
   7   3 -12   64.59    6.20
  -6  -3  12   26.30    5.20
   6  -3 -12   19.10    4.70
   6  -3 -12   22.60    5.60
  -6  -3  12   23.70    4.50
  -6  -3  12   27.80    4.60
   6   3 -12   17.30    5.00
  -6   3  12   25.40    3.60
  -6   3  12   25.20    4.60
   6   3 -12   19.80    5.10
   6   3 -12   22.00    4.80
  -6   3  12   19.80    4.30
  -5  -3  12   23.70    5.60
  -5  -3  12   15.50    4.40
   5  -3 -12   22.20    4.90
  -5  -3  12   26.50    5.10
   5  -3 -12   25.30    5.50
   5   3 -12   19.90    4.60
   5   3 -12   27.20    5.00
   5   3 -12   27.40    4.00
  -5   3  12   23.00    4.30
  -5   3  12   19.80    4.20
  -5   3  12   26.40    4.10
  -4  -3  12   61.29    5.80
  -4  -3  12   68.39    6.30
  -4  -3  12   73.69    6.50
   4  -3 -12   72.49    6.30
   4  -3 -12   76.19    6.90
  -4   3  12   75.49    6.90
  -4   3  12   73.09    5.70
   4   3 -12   65.49    5.80
   4   3 -12   71.79    6.00
   4   3 -12   66.19    6.00
   3  -3 -12  208.08   10.00
  -3  -3  12  222.48   10.80
   3  -3 -12  217.38    9.20
  -3  -3  12  213.28   10.60
  -3   3  12  210.18    9.00
   3   3 -12  236.38    9.60
   3   3 -12  210.58    9.00
   3   3 -12  217.78    9.50
  -3   3  12  234.98   10.50
  -2  -3  12  153.18    9.80
   2  -3 -12  156.28    8.70
  -2  -3  12  132.89    9.10
   2  -3 -12  126.69    7.30
   2  -3 -12  139.99    7.10
  -2   3  12  148.09    7.90
   2   3 -12  140.29    7.10
  -2   3  12  143.69    8.70
   2   3 -12  135.89    8.00
   2   3 -12  135.59    7.70
  -1  -3  12    0.20    4.90
  -1  -3  12    8.00    3.30
   1  -3 -12   -1.70    4.30
   1  -3 -12    4.80    3.30
  -1  -3  12    6.50    4.80
   1  -3 -12   -0.90    4.00
  -1   3  12    3.80    3.10
   1   3 -12    8.80    3.80
   1   3 -12   -2.60    2.80
  -1   3  12    6.70    4.40
   0  -3  12   51.89    5.40
   0  -3 -12   59.99    5.20
   0  -3 -12   61.99    6.30
   0  -3 -12   60.89    5.90
   0  -3  12   54.99    6.90
   0  -3  12   63.19    6.60
   0   3  12   59.59    5.60
   0   3 -12   65.69    5.20
   0   3 -12   55.19    5.70
   0   3  12   72.29    6.20
   1  -3  12    3.80    4.80
   1  -3  12    3.40    3.90
  -1  -3 -12    6.20    4.20
   1  -3  12    3.40    4.40
  -1  -3 -12    1.90    3.60
  -1  -3 -12    1.80    2.80
   1   3  12    9.30    4.00
  -1   3 -12    8.70    3.70
   1   3  12    4.30    4.20
  -1   3 -12    6.80    4.40
   1   3  12   -0.60    4.60
  -2  -3 -12  127.49    8.20
  -2  -3 -12  140.19    8.80
   2  -3  12  129.99    9.00
  -2  -3 -12  124.19    7.90
   2  -3  12  139.69    8.90
   2  -3  12  143.59    9.70
  -2   3 -12  124.39    7.10
  -2   3 -12  127.49    7.00
   2   3  12  116.39    8.10
   2   3  12  136.49    7.50
   2   3  12  125.89    7.40
   3  -3  12    8.90    5.40
   3  -3  12    4.60    4.40
  -3  -3 -12    2.10    4.90
  -3  -3 -12    2.00    4.30
   3  -3  12   -5.60    5.30
  -3  -3 -12    3.30    5.60
   3   3  12    8.00    4.50
   3   3  12    8.50    5.20
  -3   3 -12   -3.50    4.60
  -4  -3 -12   44.00    5.50
  -4  -3 -12   54.59    7.00
   4  -3  12   47.90    7.70
   4  -3  12   52.49    8.00
  -4  -3 -12   59.79    7.50
   4  -3  12   50.89    5.90
  -4   3 -12   43.10    5.00
   4   3  12   57.19    6.90
  -4   3 -12   49.80    7.40
   4   3  12   52.89    6.30
  -5  -3 -12   32.70    5.30
   5  -3  12   43.30    8.30
  -5  -3 -12   30.40    7.20
   5  -3  12   41.30    6.90
  -5  -3 -12   57.09    7.50
   5  -3  12   41.90    8.00
   5   3  12   34.30    6.90
   5   3  12   41.70    6.20
  -5   3 -12   30.60    6.10
  -5   3 -12   48.10    7.40
  -6  -3 -12    0.70    4.70
   6  -3  12    4.00    7.60
  -6  -3 -12   -2.00    6.10
   6  -3  12    4.80    7.40
   6  -3  12   -3.90    5.80
   6   3  12    6.00    5.50
  -6   3 -12    6.90    6.60
  -6   3 -12    2.30    5.50
   6   3  12    4.30    6.40
  -7  -3 -12    3.30    7.10
   7  -3  12    6.90    6.10
   7  -3  12   -0.30    5.30
   7  -3  12   -3.60    8.00
  -7  -3 -12   -3.20    6.60
  -7   3 -12   -2.50    6.50
   7   3  12   -6.10    5.60
  -7   3 -12   -4.20    3.90
   7   3  12    1.50    4.70
   8  -3  12    5.70    6.50
   8  -3  12    4.90    7.90
  -8  -3 -12    1.60    7.20
  -8  -3 -12   -4.20    7.20
   8  -3  12    1.40    6.00
  -8   3 -12   -4.20    7.10
   8   3  12    8.70    5.40
   8   3  12    1.50    5.00
  -8   3 -12    9.60    6.20
  12  -4 -12   -5.40    8.40
 -12  -4  12    7.20    7.30
 -12   4  12   13.00    8.00
 -12   4  12    1.20    7.90
  12   4 -12    5.70    7.10
 -11  -4  12   31.00    6.20
 -11  -4  12   51.99    6.50
  11  -4 -12   37.50    9.10
 -11   4  12   56.29    8.60
 -11   4  12   46.00    8.80
  11   4 -12   44.00    6.10
  10  -4 -12    8.80    7.60
 -10  -4  12   17.80    6.70
 -10  -4  12   18.90    5.40
  10   4 -12   22.70    6.40
 -10   4  12   22.80    7.00
 -10   4  12   22.70    7.90
  10   4 -12   24.00    6.70
  -9  -4  12   26.40    7.00
   9  -4 -12   24.70    7.90
  -9  -4  12   23.20    7.00
   9   4 -12   17.40    6.20
  -9   4  12   27.20    7.50
   9   4 -12   20.00    6.30
  -9   4  12   29.50    6.70
  -8  -4  12   48.50    6.10
  -8  -4  12   43.30    7.20
   8  -4 -12   45.00    7.90
  -8   4  12   44.80    6.50
  -8   4  12   48.10    7.70
   8   4 -12   35.80    6.50
   8   4 -12   45.90    6.70
  -7  -4  12   -4.40    3.90
   7  -4 -12    1.90    4.30
   7  -4 -12    1.30    6.00
  -7  -4  12    4.80    4.20
   7   4 -12    4.00    3.80
  -7   4  12    6.30    6.40
  -7   4  12    5.80    4.60
   7   4 -12   11.90    5.50
   7   4 -12    5.00    4.00
   6  -4 -12  213.18   12.50
  -6  -4  12  222.28   10.60
  -6  -4  12  234.98   11.70
   6  -4 -12  226.18   10.70
   6   4 -12  220.58   11.00
  -6   4  12  230.48    9.50
  -6   4  12  241.48   12.70
   6   4 -12  245.38   11.60
   6   4 -12  228.18   11.00
   5  -4 -12    0.10    4.50
  -5  -4  12   -7.60    5.10
  -5  -4  12   -0.70    5.10
   5  -4 -12   -3.30    4.00
  -5  -4  12    0.40    4.20
   5   4 -12    1.20    3.40
  -5   4  12   -4.10    5.40
   5   4 -12   -0.80    5.00
   5   4 -12    4.80    3.40
  -5   4  12   -3.20    3.10
  -4  -4  12  120.79    9.00
   4  -4 -12  127.79    8.30
   4  -4 -12  126.99    8.40
  -4  -4  12  111.59    8.30
   4  -4 -12  124.09   10.60
  -4  -4  12  119.79    8.30
  -4   4  12  121.49    8.60
   4   4 -12  111.59    6.90
   4   4 -12  126.59    8.10
   4   4 -12  115.69    7.60
  -4   4  12  107.19    7.10
  -3  -4  12   16.00    5.30
  -3  -4  12   13.30    4.40
   3  -4 -12   13.70    4.20
   3  -4 -12   22.40    4.70
   3  -4 -12   19.00    5.80
   3   4 -12   15.30    5.00
  -3   4  12   13.00    5.00
  -3   4  12   18.80    5.70
   3   4 -12   21.30    5.20
  -2  -4  12   13.40    5.60
   2  -4 -12    8.20    5.50
   2  -4 -12   20.50    4.40
   2  -4 -12    2.80    4.50
  -2  -4  12   19.10    5.90
   2   4 -12   13.40    5.00
  -2   4  12   15.20    5.40
  -2   4  12   15.70    5.10
   2   4 -12   15.80    4.70
   1  -4 -12  163.18    9.70
  -1  -4  12  151.58    9.20
   1  -4 -12  156.18   10.30
  -1  -4  12  167.48   10.90
  -1   4  12  155.08    9.40
   1   4 -12  159.38    8.70
   1   4 -12  157.68    9.50
  -1   4  12  165.68    9.70
   0  -4  12    8.40    6.20
   0  -4 -12   20.90    5.90
   0  -4  12   27.80    5.10
   0  -4 -12   20.00    5.90
   0  -4  12   23.20    4.80
   0   4 -12   12.90    4.30
   0   4  12   23.80    5.00
   0   4  12   23.60    5.80
   0   4 -12   15.50    4.00
  -1  -4 -12  114.39    7.60
   1  -4  12  120.99    9.10
  -1  -4 -12  116.99    8.00
  -1  -4 -12  103.99    7.80
   1  -4  12  120.09    8.80
   1  -4  12  115.99    8.10
  -1   4 -12  119.79    7.30
   1   4  12  107.69    7.30
   1   4  12  136.19    8.90
  -1   4 -12  126.79    8.10
   2  -4  12   -2.50    5.20
  -2  -4 -12    7.50    5.40
   2  -4  12    3.70    6.70
  -2  -4 -12   -1.70    6.00
  -2  -4 -12   -2.00    4.60
   2  -4  12   -2.10    5.90
  -2   4 -12    4.80    5.00
   2   4  12    6.90    4.10
   2   4  12    0.20    3.90
   3  -4  12   63.69    8.10
   3  -4  12   64.69    9.00
  -3  -4 -12   56.49    8.10
  -3  -4 -12   70.09    6.40
   3  -4  12   62.09    8.00
  -3  -4 -12   58.79    7.10
   3   4  12   63.29    7.40
  -3   4 -12   59.29    8.20
  -3   4 -12   61.89    6.90
   3   4  12   62.69    7.40
  -4  -4 -12   15.90    5.80
   4  -4  12   15.10    7.50
   4  -4  12   26.10    7.20
  -4  -4 -12   13.90    7.10
   4  -4  12   18.00    5.40
  -4  -4 -12   17.50    6.40
   4   4  12   21.90    6.50
   4   4  12    6.30    6.50
  -4   4 -12    8.60    5.40
  -4   4 -12   18.90    5.70
  -5  -4 -12   33.40    8.30
   5  -4  12   30.40    6.50
  -5  -4 -12   23.20    6.10
  -5  -4 -12   32.70    7.40
   5  -4  12   21.20    8.20
   5  -4  12   31.50    7.40
  -5   4 -12   33.60    5.10
   5   4  12   14.70    7.10
   5   4  12   26.40    6.90
  -5   4 -12   26.10    7.80
  -6  -4 -12   56.99    9.40
   6  -4  12   53.59    8.60
   6  -4  12   60.99    8.10
  -6  -4 -12   50.29    8.50
   6  -4  12   66.29   10.10
   6   4  12   60.99    8.60
  -6   4 -12   56.09    9.20
   6   4  12   44.90    7.80
  -6   4 -12   51.79    7.10
   7  -4  12   -6.90    8.20
  -7  -4 -12   -0.80    6.80
   7  -4  12    8.40    7.10
  -7  -4 -12    2.70    8.10
   7  -4  12   -3.60    6.00
   7   4  12    6.10    7.10
   7   4  12    2.40    5.10
  -7   4 -12    5.30    7.90
  -7   4 -12   13.30    6.30
  10  -5 -12    3.50    8.20
 -10  -5  12    0.10    7.30
  10   5 -12   -3.50    6.70
  10   5 -12    1.50    6.60
 -10   5  12  -17.00    7.80
  -9  -5  12    5.20    7.30
  -9  -5  12    4.40    6.40
   9  -5 -12    0.20    8.00
  -9   5  12    0.90    5.50
   9   5 -12   15.00    7.00
   9   5 -12    0.30    6.20
   8  -5 -12    0.00    7.70
  -8  -5  12   -7.60    4.50
  -8  -5  12    2.70    6.20
  -8   5  12    1.70    5.60
   8   5 -12    3.40    6.30
   8   5 -12   -1.80    5.90
  -8   5  12    7.20    7.60
  -7  -5  12   34.70    7.40
  -7  -5  12   19.20    7.00
   7  -5 -12   33.30    8.30
  -7   5  12   26.70    6.70
  -7   5  12   31.70    7.80
   7   5 -12   24.50    6.70
   7   5 -12   25.90    6.80
  -6  -5  12   19.00    6.90
   6  -5 -12   15.30    7.60
  -6  -5  12    8.20    5.00
  -6   5  12   14.90    6.30
  -6   5  12   13.40    7.00
   6   5 -12    1.90    5.90
   6   5 -12   20.50    6.60
  -5  -5  12    0.80    6.30
  -5  -5  12    4.50    6.40
   5  -5 -12    7.20    7.00
  -5   5  12    6.70    6.70
   5   5 -12    3.20    5.60
   5   5 -12   10.60    6.00
  -5   5  12   21.70    6.20
  -4  -5  12    4.70    6.20
  -4  -5  12    7.80    4.60
  -4  -5  12    6.80    6.30
   4  -5 -12    0.10    6.50
   4   5 -12    4.10    5.40
  -4   5  12    6.80    5.70
   4   5 -12   -5.70    5.50
  -4   5  12   12.30    6.40
  -3  -5  12   -3.40    5.40
   3  -5 -12    3.50    4.70
  -3  -5  12   10.10    6.70
  -3   5  12   -0.40    5.70
  -3   5  12    0.30    5.70
   3   5 -12    6.60    5.20
   3   5 -12   -2.70    5.50
  -2  -5  12   16.10    6.80
  -2  -5  12   17.00    5.00
   2  -5 -12   21.50    5.40
  -2   5  12   26.60    6.30
   2   5 -12   17.50    5.80
  -2   5  12   15.60    4.90
   2   5 -12   17.10    5.30
   1  -5 -12    0.60    5.30
  -1  -5  12    5.50    6.60
  -1  -5  12    9.80    4.90
   1  -5 -12    7.80    4.80
   1   5 -12   -2.40    4.40
  -1   5  12    9.80    4.60
  -1   5  12    6.90    5.40
   1   5 -12   14.60    5.80
   0  -5 -12    1.60    6.00
   0  -5  12    5.40    6.90
   0  -5 -12   -2.40    6.10
   0  -5  12    7.30    6.70
   0   5 -12   -1.50    5.40
   0   5  12    2.20    4.50
   1  -5  12    4.50    6.90
   1  -5  12   -4.20    6.90
  -1  -5 -12   10.50    6.50
  -1  -5 -12   -5.10    6.00
  -1   5 -12    2.90    3.90
   1   5  12    2.30    4.40
   1   5  12   -0.20    6.30
   2  -5  12    1.50    5.50
  -2  -5 -12   -6.90    6.20
  -2  -5 -12    7.00    6.90
   2  -5  12  -12.20    5.50
   2  -5  12   -4.50    6.80
  -2   5 -12   -6.10    5.20
  -2   5 -12    6.50    6.90
   2   5  12   -4.50    4.50
   2   5  12   -2.40    4.50
  -3  -5 -12   -1.60    5.00
  -3  -5 -12    4.60    6.70
   3  -5  12   -7.10    7.90
   3  -5  12   -1.50    6.70
   3  -5  12   -0.70    5.10
   3   5  12    0.30    5.00
  -3   5 -12   -2.70    7.00
   3   5  12    1.10    6.90
  -3   5 -12   13.20    5.90
  -4  -5 -12   32.60    8.60
   4  -5  12   33.50    8.60
   4  -5  12   19.70    8.20
  -4  -5 -12   34.30    7.30
   4  -5  12   31.30    9.40
   4   5  12   29.00    6.10
  -4   5 -12   27.90    5.20
   4   5  12   34.50    8.10
  -4   5 -12   37.80    8.60
  -5  -5 -12    5.40    6.70
   5  -5  12    5.90    7.80
   5  -5  12   14.80    6.80
   5  -5  12    9.40    8.30
  -5  -5 -12    9.70    8.50
  -5   5 -12    1.20    5.80
   5   5  12    8.40    5.50
  -5   5 -12   11.70    8.30
   5   5  12    9.80    5.50
   6  -6 -12   27.30    9.00
  -6  -6  12   25.80    8.50
  -6  -6  12   18.10    7.40
   6   6 -12   23.50    7.30
   6   6 -12   14.60    7.20
  -6   6  12   13.70    7.90
  -6   6  12   27.30    5.90
   5  -6 -12   15.20    8.40
  -5  -6  12   27.60    6.20
  -5  -6  12   21.00    7.60
  -5   6  12   29.70    6.30
   5   6 -12   20.30    5.10
   5   6 -12   20.20    5.50
  -5   6  12   21.40    7.60
  -4  -6  12   18.40    7.60
   4  -6 -12    8.80    7.90
   4   6 -12   18.90    6.30
  -4   6  12   24.10    7.50
   4   6 -12   19.20    7.00
  -4   6  12    9.70    5.30
   3  -6 -12   40.20    8.80
  -3  -6  12   38.30    8.30
  -3   6  12   38.10    8.20
   3   6 -12   42.10    6.70
  -3   6  12   29.20    7.20
   3   6 -12   47.90    7.40
   2  -6 -12   14.90    8.20
  -2  -6  12   23.70    5.70
  -2  -6  12   36.00    8.30
  -2   6  12   17.80    7.20
   2   6 -12   15.50    5.10
  -1  -6  12   60.09    9.20
   1  -6 -12   52.39    9.20
  -1  -6  12   47.50    9.00
   1   6 -12   48.60    6.10
  -1   6  12   38.10    8.40
   0  -6  12   14.60    8.20
   0  -6  12   16.70    8.00
   0  -6 -12    5.00    7.60
   0   6  12   13.90    5.70
   0   6 -12    6.60    4.60
   0   6  12   14.30    8.00
   1  -6  12    2.20    6.00
   1  -6  12   17.30    6.10
  -1  -6 -12   21.40    7.80
  -1  -6 -12    5.50    8.10
  -1   6 -12   12.10    4.70
   1   6  12   10.10    8.00
   1   6  12    0.10    5.20
  -1   6 -12   15.00    6.00
  15   0 -13   13.40    7.50
 -15   0  13    2.90    8.50
 -14   0  13   -4.80    8.00
  14   0 -13   12.00    6.90
 -13   0  13   -1.40    7.40
  13   0 -13    0.80    5.90
  13   0 -13   -8.00    4.80
 -13   0  13   -3.50    5.40
  12   0 -13   -7.30    4.70
  12   0 -13   -4.60    5.20
 -12   0  13    2.00    6.80
 -12   0  13   -3.90    5.20
  11   0 -13   -2.10    4.60
  11   0 -13   -5.90    4.40
 -11   0  13    0.90    6.20
 -11   0  13   -5.60    4.90
  10   0 -13   -3.40    5.20
 -10   0  13    0.60    4.00
  10   0 -13   -2.10    4.50
 -10   0  13   -4.00    4.90
  10   0 -13    3.00    4.30
   9   0 -13   -2.40    4.80
   9   0 -13    4.60    3.80
   9   0 -13    8.00    4.40
  -9   0  13   -3.20    3.10
  -9   0  13    2.80    3.80
   9   0 -13    4.60    3.00
  -9   0  13    2.00    3.60
   8   0 -13    1.20    2.90
  -8   0  13   -1.00    2.80
   8   0 -13    3.10    2.90
   8   0 -13   -3.50    4.40
  -8   0  13   -3.20    4.80
  -8   0  13    2.50    4.90
  -7   0  13   -1.30    2.80
   7   0 -13   -2.80    2.90
   7   0 -13   -2.10    2.80
   7   0 -13   -3.10    4.40
  -7   0  13   -5.70    4.50
   6   0 -13   -7.80    2.50
  -6   0  13   -0.40    4.40
   6   0 -13   -1.00    4.20
  -6   0  13    0.50    4.10
   6   0 -13   -2.80    2.80
  -5   0  13   -0.20    4.00
   5   0 -13   -3.80    2.80
   5   0 -13   -0.90    3.00
   5   0 -13    1.60    3.90
  -5   0  13   -8.50    4.10
   5   0 -13    2.60    4.20
   4   0 -13   -5.40    3.60
  -4   0  13   -7.40    3.40
  -4   0  13    6.20    4.20
   4   0 -13    4.50    3.00
   4   0 -13    2.80    4.00
   4   0 -13    0.20    2.50
  -3   0  13    2.90    3.90
   3   0 -13    2.40    2.30
   3   0 -13    1.30    2.30
   3   0 -13   -0.30    3.60
  -3   0  13   -3.30    3.90
   3   0 -13    0.40    3.60
  -2   0  13   -1.60    2.00
   2   0 -13    2.20    3.20
   2   0 -13   -0.60    2.00
   2   0 -13    1.20    2.50
  -2   0  13   -1.40    3.60
   2   0 -13    2.00    3.60
  -2   0  13   -2.50    3.90
  -1   0  13   -0.70    2.40
   1   0 -13   -6.60    3.20
   1   0 -13   -1.70    3.50
  -1   0  13    7.70    3.70
  -1   0  13   -1.10    4.10
   0   0 -13    4.80    3.60
   0   0  13   -4.30    3.20
   0   0  13    0.40    2.80
   0   0  13    0.80    3.90
   0   0 -13    3.60    3.70
   1   0  13   -2.00    3.00
  -1   0 -13   -5.80    3.70
  -1   0 -13    5.80    4.00
   1   0  13    2.20    3.40
   2   0  13   -2.00    3.30
   2   0  13   -1.30    3.30
  -2   0 -13    2.40    4.00
  -2   0 -13    1.30    2.90
   2   0  13   -5.20    3.00
  -3   0 -13    2.20    4.20
   3   0  13   -7.80    3.70
   3   0  13   -1.90    3.50
  -3   0 -13    2.50    4.30
   3   0  13    0.40    3.30
   4   0  13   -8.70    5.00
   4   0  13    4.30    4.50
   4   0  13   -2.00    3.20
  -4   0 -13    2.60    3.20
  -4   0 -13   -4.10    4.50
   5   0  13   -4.80    5.30
   5   0  13    3.30    5.00
  -5   0 -13    6.00    4.60
  -5   0 -13   -2.50    4.90
  -6   0 -13   -1.60    5.40
  -6   0 -13   -0.40    4.70
   6   0  13   -1.00    3.70
   6   0  13   -0.20    6.00
   7   0  13   -1.60    4.20
   7   0  13    0.00    6.00
  -7   0 -13    1.30    4.40
   8   0  13    7.60    6.80
  -8   0 -13    4.10    6.50
   8   0  13   -0.90    4.70
  -9   0 -13    9.80    7.20
  -9   0 -13   -5.40    6.20
   9   0  13   -3.30    6.90
 -15   1  13   -7.90    8.30
  14  -1 -13   14.60    5.60
 -14  -1  13   18.00    8.80
  14   1 -13   13.90    6.50
 -14   1  13    8.90    8.20
  14   1 -13   17.70    6.00
 -14   1  13    9.10    6.60
 -13  -1  13   38.30    8.90
 -13  -1  13   23.60    5.80
  13  -1 -13   31.70    7.30
 -13   1  13   30.70    7.00
  13   1 -13   34.10    6.40
 -13   1  13   38.60    8.70
  13   1 -13   30.30    6.10
 -12  -1  13   13.30    5.10
 -12  -1  13   22.20    5.80
  12  -1 -13   15.10    6.30
 -12  -1  13   10.10    7.40
  12  -1 -13   15.30    4.80
  12   1 -13   12.80    5.30
 -12   1  13   24.40    6.10
  12   1 -13   22.30    5.80
 -12   1  13   11.80    6.40
  12   1 -13   14.30    4.40
 -11  -1  13  170.28   10.50
 -11  -1  13  145.19    8.90
 -11  -1  13  144.19    9.90
  11  -1 -13  164.48    9.30
 -11  -1  13  173.08   12.50
  11   1 -13  160.18    9.10
  11   1 -13  159.18    9.90
 -11   1  13  157.68   11.10
 -11   1  13  164.58   11.90
  11   1 -13  149.29    8.20
 -10  -1  13    8.30    5.20
 -10  -1  13    3.30    6.20
 -10  -1  13   -3.80    3.60
  10  -1 -13   -5.40    5.30
 -10  -1  13   -2.80    4.00
  10  -1 -13    2.30    3.10
  10   1 -13   -1.80    4.70
  10   1 -13    0.30    3.80
 -10   1  13   -4.60    5.40
  10   1 -13   -1.80    5.20
 -10   1  13    3.60    4.20
  10   1 -13   -1.10    3.60
  -9  -1  13   13.70    4.40
   9  -1 -13   13.70    4.50
  -9  -1  13   15.70    5.40
   9  -1 -13   15.50    4.80
  -9  -1  13   23.40    5.90
  -9   1  13   27.80    6.10
   9   1 -13   14.00    4.10
   9   1 -13   19.20    5.10
   9   1 -13   16.40    5.60
  -9   1  13   12.10    5.60
   8  -1 -13   13.40    4.90
  -8  -1  13   11.50    4.20
   8  -1 -13    7.30    4.00
  -8  -1  13   13.40    5.40
  -8  -1  13    6.50    5.10
   8  -1 -13   11.40    4.60
  -8   1  13    7.10    3.90
   8   1 -13   10.70    4.70
  -8   1  13    4.20    4.90
   8   1 -13   13.50    4.00
   8   1 -13   15.40    3.20
   7  -1 -13  170.68    7.70
  -7  -1  13  166.78    9.60
   7  -1 -13  172.48    8.90
  -7  -1  13  147.39    7.80
   7  -1 -13  158.18    8.90
  -7  -1  13  155.48    9.60
   7  -1 -13  159.98    6.30
   7   1 -13  166.88    7.90
   7   1 -13  157.98    8.40
  -7   1  13  165.48    9.30
   7   1 -13  179.98    8.80
  -7   1  13  136.39    9.40
  -6  -1  13  118.89    7.00
  -6  -1  13  140.39    8.80
   6  -1 -13  113.49    5.70
   6  -1 -13  119.49    7.70
   6  -1 -13  119.69    7.90
  -6  -1  13  122.59    7.90
   6  -1 -13  110.99    7.50
   6   1 -13  119.49    7.00
  -6   1  13  123.19    8.10
   6   1 -13  115.79    7.30
   6   1 -13  125.39    7.80
  -6   1  13  125.39    8.70
   5  -1 -13   60.59    6.40
   5  -1 -13   63.29    4.40
   5  -1 -13   51.19    5.00
   5  -1 -13   64.09    5.70
  -5  -1  13   55.99    6.00
  -5  -1  13   59.29    5.30
   5   1 -13   60.69    4.90
   5   1 -13   55.49    5.70
  -5   1  13   62.89    6.20
  -5   1  13   58.89    4.20
   5   1 -13   55.79    5.10
   4  -1 -13  107.29    6.60
   4  -1 -13   99.29    5.80
   4  -1 -13  111.09    8.30
  -4  -1  13  105.49    7.20
   4  -1 -13   97.09    6.60
  -4  -1  13   95.49    7.20
   4   1 -13  103.39    7.60
  -4   1  13  101.59    7.10
   4   1 -13   90.99    6.20
  -4   1  13  101.79    5.40
   4   1 -13  100.29    6.20
  -3  -1  13    0.90    4.00
   3  -1 -13   -2.00    3.70
  -3  -1  13   -1.40    4.20
   3  -1 -13    0.90    4.00
   3  -1 -13    1.00    2.90
   3  -1 -13    0.80    2.90
  -3   1  13    5.50    4.20
  -3   1  13    1.90    2.40
   3   1 -13    3.90    3.50
  -3   1  13   -2.30    3.60
   3   1 -13   -1.10    2.60
   3   1 -13   -4.70    3.30
   2  -1 -13  237.58    8.40
   2  -1 -13  224.18    8.60
  -2  -1  13  237.28    9.90
  -2  -1  13  202.18    9.70
  -2  -1  13  242.98    9.30
   2  -1 -13  208.38    8.30
   2   1 -13  232.58    8.40
   2   1 -13  243.68    9.40
  -2   1  13  234.98    7.80
  -2   1  13  218.08    9.80
  -2   1  13  213.28    8.90
   2   1 -13  229.38    8.20
  -1  -1  13   57.09    5.50
   1  -1 -13   60.59    5.00
   1  -1 -13   50.39    4.00
  -1  -1  13   52.09    5.70
   1  -1 -13   51.89    5.40
  -1   1  13   52.09    4.80
   1   1 -13   55.89    4.80
  -1   1  13   53.29    4.30
  -1   1  13   50.59    5.40
   1   1 -13   53.59    5.20
   1   1 -13   55.59    4.60
   0  -1  13  110.69    7.40
   0  -1  13  102.59    6.90
   0  -1 -13  107.59    6.90
   0  -1 -13  104.69    5.40
   0  -1  13   98.89    5.40
   0  -1 -13  105.89    6.90
   0   1 -13   99.89    6.00
   0   1 -13  108.69    6.60
   0   1 -13  102.99    6.60
   0   1  13   98.79    6.70
   0   1  13  103.19    6.20
   0   1  13  112.69    6.40
   1  -1  13  233.68    8.30
  -1  -1 -13  227.58   10.00
   1  -1  13  206.78    9.20
  -1  -1 -13  222.58    9.40
   1  -1  13  225.18    9.70
   1   1  13  206.98    9.40
   1   1  13  219.18    8.30
  -1   1 -13  213.88    9.40
   1   1  13  219.18    8.70
  -1   1 -13  222.08    9.20
   2  -1  13  105.39    6.30
   2  -1  13  101.89    6.80
  -2  -1 -13   98.49    6.30
   2  -1  13  100.59    7.70
  -2  -1 -13   77.19    6.50
  -2   1 -13   95.39    6.40
  -2   1 -13   94.59    6.20
   2   1  13   91.19    6.00
   2   1  13   99.29    6.00
   3  -1  13   80.39    6.50
   3  -1  13   91.49    6.40
   3  -1  13   92.39    7.70
  -3  -1 -13   80.39    6.00
  -3  -1 -13   86.89    6.80
   3   1  13   94.79    6.80
  -3   1 -13   85.79    6.00
  -3   1 -13   94.59    6.30
  -4  -1 -13   21.80    5.40
   4  -1  13   28.50    5.20
   4  -1  13   22.10    6.30
   4  -1  13   25.10    4.90
  -4  -1 -13   20.80    5.40
  -4   1 -13   18.70    4.90
  -4   1 -13   17.80    5.30
   4   1  13   16.50    4.20
   4   1  13   20.40    5.30
  -4   1 -13   34.70    4.80
   5  -1  13   66.99    6.20
   5  -1  13   59.99    6.80
  -5  -1 -13   67.39    7.00
  -5  -1 -13   64.79    6.30
   5  -1  13   81.59    8.20
  -5   1 -13   66.29    6.30
  -5   1 -13   61.09    6.80
   5   1  13   74.79    6.10
   5   1  13   53.19    7.00
  -5   1 -13   72.49    6.00
   6  -1  13   55.59    7.20
   6  -1  13   59.59    8.20
  -6  -1 -13   54.79    7.30
   6  -1  13   66.09    8.30
  -6   1 -13   48.20    7.00
   6   1  13   61.79    7.50
  -6   1 -13   55.79    7.20
   6   1  13   51.29    6.90
  -7  -1 -13  123.39    8.90
   7  -1  13  107.79   10.20
  -7  -1 -13  107.19    8.10
   7  -1  13  107.49    8.00
   7  -1  13  124.09    9.00
   7   1  13  124.29    8.20
   7   1  13  118.89    8.90
  -8  -1 -13   29.90    7.60
   8  -1  13   46.50    8.90
   8  -1  13   40.80    6.70
  -8  -1 -13   21.20    7.20
   8  -1  13   16.90    7.20
  -8   1 -13   23.00    6.90
   8   1  13   41.50    7.90
   9  -1  13  -10.50    6.90
  -9  -1 -13    3.10    6.80
   9  -1  13   11.10    8.70
   9  -1  13   11.70    7.30
  -9  -1 -13    1.60    7.30
   9   1  13    3.60    5.10
  -9   1 -13   -5.10    6.50
  14  -2 -13   25.40    6.70
 -14  -2  13   18.90    6.80
 -14  -2  13   25.10    7.60
  14   2 -13   26.70    6.80
 -14   2  13   19.60    9.00
 -14   2  13   29.40    8.00
  14   2 -13   25.50    5.90
  13  -2 -13   18.20    8.00
 -13  -2  13   22.00    7.20
 -13  -2  13   21.00    6.50
  13   2 -13    0.70    5.90
 -13   2  13    5.30    7.90
 -13   2  13   22.60    7.30
  13   2 -13   12.00    4.00
 -12  -2  13   46.40    8.00
  12  -2 -13   33.40    8.10
 -12  -2  13   30.10    6.60
  12   2 -13   32.30    5.90
 -12   2  13   47.60    8.60
 -12   2  13   32.50    6.00
  12   2 -13   33.10    6.60
 -11  -2  13   35.80    6.20
 -11  -2  13   48.30    6.70
  11  -2 -13   53.19    8.10
 -11  -2  13   68.79    8.30
  11   2 -13   40.30    6.60
 -11   2  13   41.80    6.20
  11   2 -13   39.30    5.90
 -11   2  13   48.40    6.40
  10  -2 -13    0.20    4.00
 -10  -2  13    4.10    5.00
 -10  -2  13    1.10    4.90
  10  -2 -13    4.80    6.00
 -10  -2  13    3.40    6.00
  10   2 -13    1.20    5.30
 -10   2  13    6.20    6.10
 -10   2  13   -3.70    5.80
  10   2 -13   -1.20    4.40
  -9  -2  13    1.40    5.80
   9  -2 -13    5.10    4.40
   9  -2 -13    2.90    5.70
  -9  -2  13    2.80    3.50
  -9  -2  13    5.70    4.90
   9  -2 -13   -4.90    3.80
  -9   2  13    2.60    5.90
   9   2 -13   -3.80    4.20
   9   2 -13    2.60    5.00
   9   2 -13    8.00    3.80
  -9   2  13    8.00    5.60
   8  -2 -13   28.10    4.90
  -8  -2  13   27.80    5.80
  -8  -2  13   22.10    4.40
   8  -2 -13   30.70    6.10
   8  -2 -13   23.60    6.30
  -8  -2  13   27.10    5.30
  -8  -2  13   14.10    5.90
  -8   2  13   28.00    4.90
   8   2 -13   28.60    5.80
  -8   2  13   19.90    5.50
   8   2 -13   29.20    5.50
   8   2 -13   33.20    5.10
  -7  -2  13   71.69    7.10
  -7  -2  13   59.29    5.70
  -7  -2  13   70.69    7.30
   7  -2 -13   69.49    6.30
  -7  -2  13   73.49    6.40
   7  -2 -13   58.89    7.20
   7  -2 -13   69.79    6.90
  -7   2  13   70.29    6.30
   7   2 -13   68.09    6.30
  -7   2  13   69.59    4.80
  -7   2  13   85.69    7.60
   7   2 -13   73.09    6.00
   7   2 -13   71.79    7.00
  -6  -2  13   79.79    7.10
   6  -2 -13   76.29    6.70
  -6  -2  13   85.79    7.50
  -6  -2  13   79.09    6.40
   6  -2 -13   78.79    6.90
   6  -2 -13   76.79    6.40
  -6  -2  13   72.39    6.30
   6   2 -13   82.49    6.40
  -6   2  13   79.89    7.30
  -6   2  13   78.99    6.20
  -6   2  13   87.49    5.60
   6   2 -13   89.19    6.70
   6   2 -13   74.29    5.40
  -5  -2  13   33.10    5.00
   5  -2 -13   22.80    4.90
  -5  -2  13   37.60    5.70
   5  -2 -13   33.80    5.30
  -5  -2  13   33.20    5.30
  -5   2  13   31.60    3.80
  -5   2  13   22.60    4.20
   5   2 -13   34.10    4.80
   5   2 -13   28.00    4.90
   5   2 -13   41.10    5.20
  -5   2  13   31.20    5.80
  -4  -2  13   67.69    5.60
   4  -2 -13   70.79    5.50
  -4  -2  13   60.19    5.50
   4  -2 -13   55.49    4.10
   4  -2 -13   67.49    5.30
   4   2 -13   74.69    6.00
   4   2 -13   65.29    5.60
  -4   2  13   71.39    4.70
  -4   2  13   70.69    5.70
   4   2 -13   56.19    5.50
   3  -2 -13    5.80    4.30
  -3  -2  13    8.50    4.50
  -3  -2  13    8.80    4.70
   3  -2 -13    5.40    2.90
   3  -2 -13    5.20    3.90
  -3   2  13    7.80    3.20
  -3   2  13    8.30    4.70
   3   2 -13    0.90    2.70
   3   2 -13    1.60    3.90
   3   2 -13    3.70    3.40
  -2  -2  13    4.70    4.40
   2  -2 -13    2.10    3.50
   2  -2 -13   -1.40    3.00
  -2  -2  13    5.00    4.50
   2  -2 -13    1.60    3.00
  -2  -2  13    6.80    2.90
   2   2 -13    5.70    2.90
  -2   2  13    0.10    3.20
   2   2 -13    3.70    3.20
   2   2 -13   -0.10    3.80
  -2   2  13    1.40    3.20
  -2   2  13   -0.20    4.30
  -1  -2  13   17.90    3.80
   1  -2 -13   17.00    4.00
   1  -2 -13   24.90    4.00
  -1  -2  13   17.20    3.80
  -1  -2  13   15.80    5.10
   1  -2 -13   15.50    4.50
  -1   2  13   23.90    4.80
   1   2 -13   17.70    3.40
  -1   2  13   18.10    3.60
   1   2 -13   13.60    4.20
   1   2 -13   21.30    4.50
  -1   2  13   10.70    3.90
   0  -2  13   83.29    6.30
   0  -2  13  108.19    7.60
   0  -2 -13   88.89    6.20
   0  -2 -13   91.59    6.20
   0  -2  13   85.39    7.50
   0  -2 -13   85.09    5.80
   0   2 -13   84.29    6.40
   0   2  13   80.49    5.20
   0   2 -13   88.59    6.10
   0   2  13   84.49    6.10
   0   2  13   79.19    5.60
   0   2  13   85.09    5.90
   1  -2  13   80.79    6.60
   1  -2  13   75.09    6.60
   1  -2  13   82.39    7.00
  -1  -2 -13   62.19    6.40
  -1  -2 -13   68.69    5.80
  -1  -2 -13   63.29    5.80
   1   2  13   74.99    6.20
  -1   2 -13   64.19    6.00
   1   2  13   73.19    6.00
  -1   2 -13   76.09    5.80
   1   2  13   80.49    5.40
   2  -2  13    7.60    5.10
  -2  -2 -13    7.80    3.50
   2  -2  13    6.50    3.60
   2  -2  13    0.70    5.40
   2  -2  13    7.40    3.50
  -2  -2 -13   10.00    5.10
  -2  -2 -13    8.10    4.30
   2   2  13    7.10    3.40
  -2   2 -13   15.40    3.80
   2   2  13   12.90    4.10
   2   2  13    2.50    4.50
  -2   2 -13    2.00    3.90
  -3  -2 -13   26.50    5.80
   3  -2  13   33.20    6.40
  -3  -2 -13   18.30    5.30
   3  -2  13   17.80    4.50
   3  -2  13   32.80    5.70
   3  -2  13   28.90    6.60
  -3   2 -13   29.80    4.50
  -3   2 -13   31.20    5.50
   3   2  13   30.90    4.40
   3   2  13   40.60    6.00
   4  -2  13   -1.00    4.50
   4  -2  13   -7.20    4.00
   4  -2  13   -7.60    5.80
  -4  -2 -13   11.30    5.60
  -4  -2 -13    4.10    5.20
   4  -2  13   -3.10    3.40
  -4   2 -13   -1.90    5.10
  -4   2 -13    6.60    4.20
   4   2  13   -3.80    5.00
  -4   2 -13    2.30    5.00
  -5  -2 -13   29.30    5.20
  -5  -2 -13   26.60    6.60
   5  -2  13   21.40    7.10
   5  -2  13   18.60    5.70
   5  -2  13   27.60    6.00
   5  -2  13   22.10    7.40
  -5   2 -13   28.70    6.30
   5   2  13   42.10    6.60
   5   2  13   27.90    6.20
  -5   2 -13   30.10    6.20
   6  -2  13   -1.00    5.10
  -6  -2 -13   -0.20    6.00
   6  -2  13   -4.20    5.80
  -6  -2 -13   -3.00    6.20
   6  -2  13   -2.80    7.10
   6  -2  13  -11.50    7.00
   6   2  13    5.50    5.60
  -6   2 -13    8.50    4.40
   6   2  13    2.60    4.50
  -6   2 -13    0.90    3.90
  -7  -2 -13   15.10    5.40
   7  -2  13   14.10    5.10
   7  -2  13   13.20    6.10
   7  -2  13   18.10    8.00
  -7  -2 -13    8.60    7.00
   7  -2  13   15.70    5.80
  -7   2 -13   14.20    6.40
  -7   2 -13    3.30    6.10
   7   2  13    8.60    6.80
  -8  -2 -13    2.10    5.00
   8  -2  13  -15.80    7.90
   8  -2  13    7.50    7.30
   8  -2  13   -3.70    5.40
  -8  -2 -13   -4.70    7.00
  -8   2 -13    6.30    6.60
   8   2  13   -4.10    6.80
  -8   2 -13    1.00    6.10
 -13  -3  13    3.20    6.70
  13  -3 -13   -2.50    5.80
 -13  -3  13   -2.70    6.60
 -13   3  13  -11.00    7.70
  13   3 -13    6.70    6.60
  13   3 -13    0.70    5.60
 -13   3  13    5.80    5.50
 -12  -3  13   63.89    8.10
 -12  -3  13   41.50    7.90
  12  -3 -13   80.09   10.10
  12   3 -13   46.80    5.70
 -12   3  13   54.29    8.90
  12   3 -13   51.99    6.30
 -12   3  13   46.60    8.90
 -11  -3  13   -1.30    4.60
 -11  -3  13    5.10    6.10
  11  -3 -13   -0.40    6.90
 -11   3  13    3.90    7.00
  11   3 -13   -7.60    5.30
 -11   3  13    8.30    7.00
  11   3 -13    3.30    6.10
 -10  -3  13  188.78   11.50
  10  -3 -13  192.08   11.30
 -10  -3  13  157.88   10.90
 -10   3  13  202.68   12.50
  10   3 -13  183.18   11.20
  10   3 -13  202.68   10.90
 -10   3  13  208.18   13.30
   9  -3 -13   22.30    6.70
  -9  -3  13   19.80    4.80
  -9  -3  13   16.00    6.50
   9  -3 -13   19.20    5.30
  -9   3  13   18.40    6.30
   9   3 -13   17.20    6.00
  -9   3  13   12.80    5.00
   9   3 -13   12.80    5.30
   8  -3 -13  200.38   10.30
  -8  -3  13  223.38   12.50
   8  -3 -13  216.98   12.30
  -8  -3  13  235.58   11.50
  -8   3  13  215.78    9.20
   8   3 -13  219.58   10.80
  -8   3  13  202.28    9.40
   8   3 -13  187.88   10.30
  -8   3  13  216.88   12.10
   8   3 -13  204.98   11.60
  -7  -3  13    4.60    5.60
  -7  -3  13   -4.00    4.80
   7  -3 -13    4.10    3.30
   7  -3 -13    3.00    5.50
  -7   3  13    8.20    3.90
  -7   3  13   10.30    5.90
   7   3 -13    0.60    4.80
   7   3 -13    1.20    5.00
   7   3 -13    5.40    5.00
  -7   3  13    6.70    4.50
   6  -3 -13   40.40    6.50
  -6  -3  13   38.80    4.90
  -6  -3  13   35.40    6.60
  -6  -3  13   35.10    5.20
   6  -3 -13   33.60    5.40
   6   3 -13   41.90    5.90
   6   3 -13   36.00    5.80
  -6   3  13   36.60    5.00
   6   3 -13   38.60    5.70
  -6   3  13   38.50    5.40
  -6   3  13   39.10    4.90
   5  -3 -13  302.27   11.90
  -5  -3  13  277.77   11.80
  -5  -3  13  307.17   13.10
   5  -3 -13  301.87   12.50
  -5  -3  13  321.17   11.20
   5   3 -13  305.87   11.60
  -5   3  13  275.17   11.20
   5   3 -13  278.27   11.30
  -5   3  13  293.07   10.50
   5   3 -13  293.07   11.70
  -4  -3  13    0.00    5.10
   4  -3 -13   12.20    5.20
  -4  -3  13   -5.00    4.60
   4  -3 -13    0.20    4.60
   4   3 -13    3.80    4.70
  -4   3  13    2.90    3.90
  -4   3  13   -2.50    5.10
   4   3 -13    6.70    4.50
   4   3 -13    4.60    4.00
  -3  -3  13  439.16   14.60
   3  -3 -13  448.26   14.90
  -3  -3  13  459.75   14.60
   3  -3 -13  455.65   14.90
   3   3 -13  436.86   13.60
  -3   3  13  434.86   13.30
   3   3 -13  439.16   13.30
  -3   3  13  462.45   15.00
   3   3 -13  455.95   13.90
   2  -3 -13    2.20    4.50
  -2  -3  13    1.20    5.00
   2  -3 -13    2.90    4.80
  -2  -3  13    6.30    5.50
   2  -3 -13    1.40    3.10
  -2   3  13    1.90    4.90
   2   3 -13    5.90    4.50
   2   3 -13    2.90    4.20
  -2   3  13   10.60    4.40
  -1  -3  13  128.39    9.10
   1  -3 -13  130.69    7.90
  -1  -3  13  141.99    9.80
  -1  -3  13  137.89    8.80
   1  -3 -13  131.89    8.80
   1  -3 -13  124.49    7.30
   1   3 -13  127.69    7.80
  -1   3  13  131.29    8.30
   1   3 -13  129.59    8.50
  -1   3  13  128.49    8.80
   0  -3  13   44.90    5.40
   0  -3  13   42.60    5.70
   0  -3 -13   49.00    6.00
   0  -3 -13   38.80    5.10
   0  -3 -13   46.70    6.40
   0  -3  13   43.10    6.40
   0   3  13   46.10    5.80
   0   3  13   49.30    5.00
   0   3 -13   50.49    5.90
   0   3 -13   48.20    5.30
   1  -3  13  110.79    9.00
   1  -3  13  109.59    8.50
   1  -3  13  101.39    7.80
  -1  -3 -13  130.19    8.30
  -1  -3 -13  108.39    7.60
  -1  -3 -13  116.19    7.70
   1   3  13  130.09    8.10
   1   3  13  120.99    7.90
  -1   3 -13  116.29    7.50
  -1   3 -13  110.29    7.60
   1   3  13  112.79    8.00
  -2  -3 -13  131.19    8.70
  -2  -3 -13  117.49    9.00
   2  -3  13  119.79    8.70
  -2  -3 -13  140.99    9.50
   2  -3  13  150.08   10.40
   2  -3  13  116.59    8.70
  -2  -3 -13  127.79    9.10
  -2   3 -13  126.89    7.70
   2   3  13  131.29    7.80
  -2   3 -13  145.39    7.80
   2   3  13  123.49    8.40
   2   3  13  121.29    8.40
   3  -3  13    4.10    5.60
  -3  -3 -13    2.60    5.20
   3  -3  13    2.20    6.70
  -3  -3 -13    1.70    4.20
  -3  -3 -13   -0.50    4.40
   3  -3  13    3.50    5.80
   3   3  13    6.60    5.60
  -3   3 -13   -3.70    5.00
   3   3  13    0.10    4.50
  -4  -3 -13   91.59    8.90
   4  -3  13  105.69    9.70
   4  -3  13  102.19    7.70
  -4  -3 -13   91.09    8.30
   4  -3  13   84.89    8.00
  -4   3 -13   79.39    7.30
   4   3  13   97.49    8.20
   4   3  13   81.49    7.10
  -4   3 -13   98.09    7.90
   5  -3  13   -6.80    7.20
  -5  -3 -13   -2.20    6.00
   5  -3  13   -2.50    4.90
  -5  -3 -13   -7.00    6.20
   5  -3  13   -0.70    5.90
   5   3  13   -0.40    6.10
   5   3  13    3.30    5.10
  -5   3 -13    2.10    6.40
  -5   3 -13    3.40    4.00
  -6  -3 -13   58.29    8.70
   6  -3  13   39.60    7.30
   6  -3  13   52.39    9.30
  -6  -3 -13   43.70    8.20
   6  -3  13   41.70    7.40
  -6   3 -13   52.39    8.20
  -6   3 -13   50.19    7.30
   6   3  13   43.80    7.80
   7  -3  13   11.70    8.80
  -7  -3 -13    8.90    5.50
   7  -3  13   -0.90    8.00
  -7  -3 -13    7.20    7.30
   7  -3  13    8.70    6.70
  -7   3 -13   -1.20    6.10
   7   3  13   11.30    5.20
  -7   3 -13    5.10    7.20
  12  -4 -13   40.40    9.80
 -12  -4  13   29.70    8.20
  12   4 -13   30.00    7.40
 -12   4  13   36.30    9.30
 -12   4  13   34.40    8.70
  12   4 -13   40.40    7.70
  11  -4 -13   39.70    9.50
 -11  -4  13   20.90    7.60
 -11  -4  13   22.30    7.20
 -11   4  13   35.30    9.00
  11   4 -13   25.70    7.20
  11   4 -13   23.60    7.00
 -11   4  13   42.00    8.20
 -10  -4  13   17.10    7.30
 -10  -4  13   39.70    7.90
  10  -4 -13   21.30    6.40
 -10   4  13   14.40    6.90
  10   4 -13   22.90    6.60
 -10   4  13   27.80    8.50
  10   4 -13   16.10    5.00
  -9  -4  13   -2.10    6.30
   9  -4 -13   -7.00    4.70
  -9  -4  13    4.30    4.60
   9   4 -13    2.90    5.80
  -9   4  13    3.20    7.30
  -9   4  13   -0.90    5.70
   9   4 -13   -5.60    5.70
  -8  -4  13   47.50    7.90
  -8  -4  13   61.69    8.00
   8  -4 -13   54.59    8.60
   8   4 -13   64.89    7.50
  -8   4  13   64.49    7.20
   8   4 -13   66.39    7.50
  -8   4  13   53.49    6.40
  -7  -4  13   69.89    8.10
   7  -4 -13   73.69    7.00
   7  -4 -13   73.09    8.90
  -7  -4  13   74.69    7.30
   7   4 -13   70.99    7.50
  -7   4  13   93.69    9.00
  -7   4  13   79.69    7.10
   7   4 -13   83.39    7.80
   6  -4 -13   63.49    7.10
  -6  -4  13   62.49    7.50
  -6  -4  13   55.59    7.70
   6  -4 -13   64.39    7.00
   6   4 -13   55.99    6.70
   6   4 -13   71.29    7.30
  -6   4  13   56.29    7.80
   6   4 -13   60.59    5.90
  -6   4  13   60.79    5.50
  -5  -4  13  132.89    9.40
   5  -4 -13  136.19    9.80
  -5  -4  13  107.29    8.10
   5  -4 -13  138.09    8.90
  -5  -4  13  124.79    9.60
  -5   4  13  132.29    9.70
  -5   4  13  137.79    7.80
   5   4 -13  130.09    7.80
   5   4 -13  130.89    8.60
   5   4 -13  135.19    9.40
  -4  -4  13   49.90    7.70
   4  -4 -13   55.49    6.80
   4  -4 -13   58.49    7.60
  -4  -4  13   49.00    6.90
  -4   4  13   54.09    7.30
   4   4 -13   59.99    6.60
  -4   4  13   61.89    5.50
   4   4 -13   58.99    6.70
   3  -4 -13   -1.40    5.40
   3  -4 -13   -2.10    4.40
   3  -4 -13   -3.00    5.30
  -3  -4  13    8.90    4.40
  -3  -4  13   -5.50    5.40
  -3   4  13   -0.10    5.40
  -3   4  13   -3.20    3.20
   3   4 -13   -8.10    4.60
   3   4 -13   -0.70    4.90
  -2  -4  13   17.70    6.40
  -2  -4  13    2.60    4.10
   2  -4 -13    4.10    4.00
   2  -4 -13    6.60    5.70
   2  -4 -13    8.10    5.10
   2   4 -13    7.10    4.80
  -2   4  13    8.50    3.80
  -2   4  13    5.40    5.40
   2   4 -13    4.50    5.00
   1  -4 -13   12.60    5.80
  -1  -4  13    3.50    6.00
   1  -4 -13    3.80    5.20
  -1  -4  13   -3.60    5.90
   1   4 -13    2.20    5.10
  -1   4  13    4.70    5.00
   1   4 -13   18.00    4.80
  -1   4  13   -0.10    5.10
   0  -4  13   81.49    7.60
   0  -4  13   91.39    8.50
   0  -4 -13  104.29    8.40
   0  -4 -13   90.09    8.30
   0   4  13  104.19    8.00
   0   4 -13   78.89    6.20
   0   4  13   82.39    6.80
   0   4 -13   76.59    7.40
   1  -4  13  128.89   10.40
   1  -4  13  101.99    8.00
   1  -4  13  112.89    9.50
  -1  -4 -13  118.69    9.70
  -1  -4 -13  109.69    8.60
   1   4  13   92.99    8.20
   1   4  13  104.89    8.50
  -1   4 -13  131.09    8.60
  -2  -4 -13   28.60    7.40
   2  -4  13   36.80    6.80
  -2  -4 -13   22.10    6.30
   2  -4  13   25.10    7.20
  -2  -4 -13   30.80    6.00
   2  -4  13   29.60    8.20
   2   4  13   30.80    6.90
  -2   4 -13   30.30    6.20
   2   4  13   28.80    6.30
   3  -4  13   12.80    5.90
   3  -4  13   10.10    6.90
  -3  -4 -13    8.20    5.90
  -3  -4 -13    9.60    6.10
  -3  -4 -13    5.70    6.90
   3  -4  13    8.90    6.50
   3   4  13   11.70    6.20
  -3   4 -13    8.10    5.10
  -3   4 -13    7.10    5.60
   3   4  13   15.60    6.70
  -4  -4 -13   -1.90    5.40
   4  -4  13   -6.40    6.60
  -4  -4 -13    1.20    6.20
  -4  -4 -13   10.70    7.50
   4  -4  13    1.90    5.40
   4  -4  13    7.60    7.30
  -4   4 -13   15.00    7.30
   4   4  13    7.70    6.20
   4   4  13   -3.90    6.60
  -4   4 -13    6.50    5.80
   5  -4  13    3.00    5.10
   5  -4  13   -1.10    7.60
  -5  -4 -13   -2.90    6.10
  -5  -4 -13    2.60    7.70
  -5  -4 -13    7.90    6.80
   5  -4  13    1.70    5.70
  -5   4 -13    5.90    7.60
   5   4  13   -3.50    6.60
   5   4  13    3.90    6.30
  -5   4 -13   10.40    6.10
  -6  -4 -13   27.90    8.20
   6  -4  13   17.60    9.00
  -6  -4 -13   19.70    8.60
   6  -4  13   22.70    6.10
   6  -4  13   14.90    6.70
  -6   4 -13   29.40    8.80
   6   4  13   36.10    6.50
  -6   4 -13   31.20    5.60
   6   4  13   31.40    5.90
   9  -5 -13  107.79   11.70
  -9  -5  13  107.59   10.60
  -9   5  13  107.39   11.00
  -9   5  13  104.09    8.90
   9   5 -13  118.89    9.80
   9   5 -13   93.39    7.90
  -8  -5  13   -1.60    6.90
  -8  -5  13    2.30    4.90
   8  -5 -13   -2.20    8.10
  -8   5  13   -0.40    5.90
  -8   5  13   -4.80    5.50
   8   5 -13    1.80    4.50
   8   5 -13   -2.90    6.40
  -7  -5  13   76.19    9.10
  -7  -5  13   61.19    8.80
   7  -5 -13   58.19    7.80
   7   5 -13   75.09    8.30
   7   5 -13   80.19    7.40
  -7   5  13   66.79    9.20
  -7   5  13   70.19    6.70
  -6  -5  13   36.10    7.80
  -6  -5  13   32.20    7.70
   6  -5 -13   36.00    8.40
  -6   5  13   45.80    8.10
  -6   5  13   44.90    7.00
   6   5 -13   36.70    7.00
   6   5 -13   51.69    7.70
   5  -5 -13    0.90    5.00
  -5  -5  13    1.20    6.70
  -5  -5  13    8.10    4.80
  -5   5  13    0.40    6.70
   5   5 -13    4.20    6.20
  -5   5  13    0.20    5.90
   5   5 -13    7.70    6.00
  -4  -5  13   93.79    9.50
   4  -5 -13   93.49    9.50
  -4   5  13   96.89    7.40
  -4   5  13   99.69    9.10
   4   5 -13  100.89    8.10
   4   5 -13  108.19    8.90
   3  -5 -13   26.00    7.40
  -3  -5  13   25.60    5.80
  -3  -5  13   20.70    6.60
  -3   5  13    7.60    6.20
  -3   5  13   16.80    6.50
   3   5 -13   23.30    6.00
   3   5 -13   24.60    5.00
  -2  -5  13  159.28   11.10
  -2  -5  13  176.08   11.60
   2  -5 -13  171.58   11.80
   2   5 -13  156.78    9.30
   2   5 -13  173.28   10.10
  -2   5  13  178.48   11.40
  -2   5  13  168.98   10.50
   1  -5 -13    4.50    5.80
  -1  -5  13   -1.00    6.80
  -1  -5  13   -2.20    6.90
   1  -5 -13    1.60    6.60
   1   5 -13    1.60    4.80
   1   5 -13    4.00    4.30
  -1   5  13    8.50    6.60
   0  -5  13   11.00    5.50
   0  -5  13   14.10    7.70
   0  -5 -13   29.10    7.30
   0  -5 -13   14.80    6.70
   0   5  13    4.60    6.50
   0   5 -13   16.00    4.70
  -1  -5 -13   22.90    5.50
  -1  -5 -13   17.40    7.10
   1  -5  13   10.60    7.70
   1  -5  13   22.30    6.30
  -1   5 -13   20.30    4.80
   1   5  13   19.20    7.20
   1   5  13   13.80    6.80
  -2  -5 -13    0.40    7.10
   2  -5  13    2.10    8.00
   2  -5  13   12.60    7.60
  -2  -5 -13    0.10    6.50
   2   5  13   -3.20    6.70
  -2   5 -13   -4.80    5.70
  -2   5 -13    3.10    7.30
   2   5  13    0.20    6.80
  -3  -5 -13   47.40    8.00
   3  -5  13   49.70    8.30
   3  -5  13   41.00    7.70
  -3  -5 -13   51.49    9.10
   3  -5  13   27.40    8.40
  -3   5 -13   42.80    7.10
   3   5  13   39.50    8.10
  -3   5 -13   38.80    8.90
   3   5  13   45.60    8.30
   4  -5  13    0.10    7.90
  -4  -5 -13   23.00    8.30
   4  -5  13    6.30    8.00
  -4  -5 -13   -1.80    4.60
   4  -5  13    2.60    9.00
   4   5  13    2.30    5.30
  -4   5 -13   -1.90    6.00
   4   5  13    0.40    7.30
  -4   5 -13   12.80    8.30
  -4  -6  13    0.60    5.30
   4  -6 -13   -8.00    7.80
   4   6 -13    5.50    4.90
  -4   6  13   11.10    7.40
  -4   6  13   -1.30    7.00
   4   6 -13    7.40    4.50
   3  -6 -13   10.70    8.30
  -3  -6  13    4.20    5.70
   3   6 -13    7.80    6.70
   3   6 -13    8.50    6.30
  -3   6  13    6.30    5.30
  -2  -6  13    4.20    5.70
   2  -6 -13   -0.50    5.40
  -2  -6  13    8.60    7.50
  -2   6  13   -5.50    7.00
   2   6 -13    0.40    6.40
  14   0 -14   89.49    9.10
 -14   0  14   81.29   10.50
  13   0 -14   52.39    7.40
  13   0 -14   55.99    6.60
 -13   0  14   45.30    7.30
 -13   0  14   65.89    7.90
  12   0 -14  369.06   13.20
 -12   0  14  385.26   16.80
  12   0 -14  355.36   13.60
 -12   0  14  371.76   15.00
 -11   0  14   16.90    7.10
  11   0 -14   15.40    5.20
  11   0 -14   24.80    5.70
 -11   0  14   12.60    5.90
  10   0 -14  330.77   12.30
  10   0 -14  377.16   13.10
 -10   0  14  347.27   15.00
 -10   0  14  365.26   14.40
  -9   0  14  113.19    8.60
   9   0 -14  108.49    7.60
   9   0 -14  119.79    8.50
  -9   0  14  124.19    9.30
  -8   0  14   10.20    3.50
   8   0 -14    4.50    4.70
  -8   0  14   12.30    4.20
   8   0 -14    5.00    5.20
   8   0 -14   12.60    3.60
   7   0 -14  519.95   15.30
   7   0 -14  507.05   13.80
  -7   0  14  499.55   16.20
   7   0 -14  486.25   16.70
  -7   0  14  520.35   15.30
   6   0 -14   20.90    4.00
  -6   0  14   21.00    5.20
   6   0 -14   21.40    5.00
   6   0 -14   19.40    5.30
  -6   0  14   23.20    5.40
   6   0 -14   25.00    4.00
   5   0 -14  876.91   20.50
   5   0 -14  856.61   21.50
  -5   0  14  839.32   21.70
   5   0 -14  851.01   20.40
  -5   0  14  864.61   22.10
   5   0 -14  838.92   22.30
  -4   0  14    7.90    4.50
   4   0 -14    1.20    2.90
  -4   0  14    3.30    4.60
   4   0 -14   -4.90    3.20
   4   0 -14    0.60    3.40
   4   0 -14   -0.30    4.10
  -3   0  14  424.16   13.70
   3   0 -14  426.66   12.60
  -3   0  14  415.86   13.30
   3   0 -14  432.26   13.40
   3   0 -14  426.06   14.10
   2   0 -14   90.89    6.60
  -2   0  14   99.29    6.90
  -2   0  14   99.49    7.30
   2   0 -14   92.99    6.10
   2   0 -14   89.69    6.70
   1   0 -14   11.50    4.40
  -1   0  14   12.80    4.20
  -1   0  14    4.10    2.70
  -1   0  14    7.00    4.70
   1   0 -14    2.50    3.70
   0   0 -14  276.77   10.80
   0   0  14  263.77   10.30
   0   0 -14  251.27   10.20
   0   0  14  272.97    9.00
   1   0  14   91.29    6.60
   1   0  14   74.19    5.50
  -1   0 -14   79.69    6.50
   1   0  14   87.09    6.40
  -1   0 -14   76.79    6.30
  -2   0 -14  178.08    9.60
   2   0  14  199.08   10.90
   2   0  14  177.38    8.80
   2   0  14  187.28    7.70
  -2   0 -14  193.88    9.90
  -3   0 -14    5.10    3.40
   3   0  14    5.50    3.90
   3   0  14   -9.10    5.40
   3   0  14    4.20    4.10
  -3   0 -14    7.50    4.70
  -4   0 -14   49.90    6.20
   4   0  14   42.80    7.00
   4   0  14   60.79    6.40
  -4   0 -14   53.89    5.60
  -5   0 -14   13.70    5.80
   5   0  14    3.80    5.50
  -5   0 -14   14.30    5.30
   5   0  14   19.90    6.50
   6   0  14    2.50    5.80
   6   0  14   11.10    5.10
  -6   0 -14   -1.30    5.80
  -6   0 -14    5.10    5.20
  -7   0 -14    3.60    6.50
   7   0  14    1.60    6.40
   7   0  14    6.80    5.20
  -8   0 -14    4.90    5.00
   8   0  14    8.80    5.10
   8   0  14    5.40    7.30
 -14  -1  14   39.30    9.50
  14  -1 -14   39.80    8.00
 -14  -1  14   28.90    6.30
 -14   1  14   41.30    9.20
  14   1 -14   38.40    5.50
 -14   1  14   31.60    7.50
 -13  -1  14   11.30    5.30
 -13  -1  14   21.10    6.40
 -13   1  14   26.90    8.20
  13   1 -14    9.50    5.90
 -13   1  14   24.60    7.10
 -12  -1  14    1.00    6.50
  12  -1 -14   -2.20    4.70
 -12  -1  14   -3.80    7.10
 -12  -1  14   -7.90    5.10
 -12   1  14   -3.70    6.10
 -12   1  14    0.60    7.00
  12   1 -14   -1.40    5.40
 -11  -1  14   34.90    6.40
 -11  -1  14   34.90    7.40
  11  -1 -14   23.40    5.50
 -11  -1  14   28.80    5.40
  11   1 -14   34.10    5.00
 -11   1  14   25.50    5.70
  11   1 -14   27.90    4.90
 -11   1  14   31.20    6.90
 -10  -1  14  179.48   10.90
 -10  -1  14  179.48   11.70
 -10  -1  14  154.68    8.90
  10  -1 -14  153.38    8.10
 -10   1  14  181.68   11.70
 -10   1  14  155.88    9.40
  10   1 -14  161.18    8.50
  10   1 -14  173.68   10.20
   9  -1 -14  103.39    8.40
  -9  -1  14  112.79    7.90
   9  -1 -14   94.39    7.10
  -9  -1  14  109.79    7.70
  -9  -1  14  112.29    8.40
   9  -1 -14  117.49    7.90
   9   1 -14  111.19    7.90
  -9   1  14  115.39    8.80
   9   1 -14  101.99    7.50
   9   1 -14   94.49    6.50
  -9   1  14  124.49    9.00
   8  -1 -14  191.28   10.30
  -8  -1  14  174.98   11.00
   8  -1 -14  197.98   10.00
  -8  -1  14  206.28    9.10
  -8  -1  14  192.28   10.90
   8  -1 -14  203.68   10.40
   8   1 -14  191.18    8.80
   8   1 -14  189.38    9.90
  -8   1  14  208.58   10.90
   8   1 -14  187.78   11.10
  -8   1  14  184.18    9.50
   7  -1 -14   99.89    6.80
  -7  -1  14  109.69    7.40
   7  -1 -14   96.69    7.20
  -7  -1  14  106.59    8.10
  -7  -1  14   97.69    6.60
   7  -1 -14  100.89    7.90
   7   1 -14  111.69    8.30
  -7   1  14  111.39    8.20
  -7   1  14  113.69    7.90
   7   1 -14  120.19    7.70
   7   1 -14  107.59    7.20
  -6  -1  14  114.39    8.10
   6  -1 -14  103.49    6.90
   6  -1 -14  108.09    6.00
   6  -1 -14  116.49    6.90
   6  -1 -14  103.79    7.80
  -6  -1  14  108.29    8.20
   6   1 -14  120.59    8.80
   6   1 -14  118.39    7.30
  -6   1  14  120.09    8.20
   6   1 -14   96.79    7.10
   5  -1 -14   24.80    5.00
  -5  -1  14   31.80    5.90
   5  -1 -14   27.10    3.70
   5  -1 -14   24.30    4.40
  -5  -1  14   29.70    5.60
   5  -1 -14   24.70    5.50
   5   1 -14   24.10    4.40
   5   1 -14   26.70    4.90
  -5   1  14   27.00    4.50
   5   1 -14   32.70    4.50
  -4  -1  14   20.60    5.20
   4  -1 -14   25.80    5.00
   4  -1 -14   19.40    5.20
   4  -1 -14   21.40    3.60
   4  -1 -14   14.20    3.90
  -4  -1  14   30.20    4.60
  -4   1  14   11.60    4.60
  -4   1  14   15.70    5.20
   4   1 -14   22.40    4.70
   4   1 -14   20.50    4.40
   4   1 -14   15.90    3.60
   3  -1 -14  153.88    7.60
  -3  -1  14  126.09    9.10
   3  -1 -14  135.09    7.00
   3  -1 -14  153.88    7.20
  -3  -1  14  133.59    8.80
  -3   1  14  136.89    7.10
   3   1 -14  153.58    8.60
  -3   1  14  153.58    9.10
   3   1 -14  166.68    8.60
  -3   1  14  139.99    6.20
   3   1 -14  152.38    8.00
   2  -1 -14  259.97    9.00
   2  -1 -14  243.18   10.50
  -2  -1  14  264.57   11.30
   2  -1 -14  280.57    9.70
  -2  -1  14  264.37   11.10
  -2   1  14  270.57   10.30
  -2   1  14  264.27   11.20
   2   1 -14  260.07   10.10
   2   1 -14  242.98   10.20
  -2   1  14  262.77    8.60
   2   1 -14  248.18    9.40
  -1  -1  14  252.27   10.90
  -1  -1  14  272.97   11.50
   1  -1 -14  261.77    9.90
   1  -1 -14  245.68   10.60
  -1   1  14  244.28   10.80
   1   1 -14  255.37   10.20
   1   1 -14  237.98   10.20
   1   1 -14  235.68    9.60
  -1   1  14  254.17    8.90
  -1   1  14  256.47    9.80
   0  -1  14   40.10    5.10
   0  -1 -14   37.20    4.20
   0  -1  14   33.40    5.50
   0  -1 -14   28.10    5.30
   0   1 -14   32.40    5.20
   0   1  14   35.30    5.50
   0   1 -14   46.50    5.50
   0   1  14   37.60    4.60
   0   1  14   31.00    4.30
   1  -1  14    1.80    5.30
   1  -1  14    5.10    3.30
  -1  -1 -14    3.70    3.40
  -1  -1 -14    4.80    4.20
  -1   1 -14    3.40    4.30
   1   1  14    4.70    3.80
   1   1  14    7.70    3.60
   1   1  14    8.30    4.50
  -1   1 -14   13.50    4.60
   2  -1  14   -0.80    3.60
  -2  -1 -14    1.80    3.50
   2  -1  14   -2.10    3.60
  -2  -1 -14    1.90    4.60
   2  -1  14    2.30    4.30
  -2   1 -14   -3.20    4.50
  -2   1 -14    0.40    4.00
   2   1  14    3.20    4.30
  -3  -1 -14   49.00    6.40
   3  -1  14   56.49    6.10
   3  -1  14   36.40    6.90
  -3  -1 -14   53.79    5.40
  -3   1 -14   55.69    6.50
   3   1  14   61.19    7.20
  -3   1 -14   62.19    6.00
   3   1  14   50.99    5.90
   4  -1  14   40.50    6.10
  -4  -1 -14   38.70    6.30
  -4  -1 -14   36.00    6.30
   4  -1  14   38.40    5.60
   4  -1  14   37.60    5.80
   4   1  14   42.20    6.90
   4   1  14   44.10    6.10
  -4   1 -14   36.00    5.70
  -4   1 -14   36.90    5.40
  -4   1 -14   44.70    6.40
   5  -1  14   58.99    8.20
  -5  -1 -14   53.09    7.00
   5  -1  14   56.39    6.90
  -5  -1 -14   63.69    6.40
   5  -1  14   39.70    5.80
  -5   1 -14   49.70    5.80
   5   1  14   47.40    5.70
  -5   1 -14   49.99    7.10
  -5   1 -14   40.60    6.40
   5   1  14   57.29    7.60
   6  -1  14    7.80    5.40
   6  -1  14   21.60    6.60
  -6  -1 -14   12.50    6.50
   6  -1  14   18.70    7.70
   6   1  14   25.30    6.70
   6   1  14   19.20    5.00
  -6   1 -14   16.00    6.40
  -7  -1 -14   18.40    5.60
   7  -1  14   19.90    6.20
   7  -1  14   19.80    7.10
   7  -1  14   11.70    7.70
  -7  -1 -14   14.00    7.10
   7   1  14   17.70    7.00
  -7   1 -14   23.30    7.20
   7   1  14   20.30    6.90
  -8  -1 -14   -1.90    7.10
   8  -1  14    4.80    6.00
   8  -1  14    2.50    7.10
   8  -1  14    3.40    5.80
  -8  -1 -14   -0.50    6.80
  -8   1 -14    2.40    7.10
   8   1  14   11.20    7.30
 -14   2  14    2.80    6.00
 -13  -2  14  200.98   12.10
 -13  -2  14  216.28   14.20
  13  -2 -14  215.58   15.20
  13   2 -14  226.88   12.60
  13   2 -14  208.88   11.10
 -13   2  14  231.38   14.30
 -13   2  14  216.68   14.90
 -12  -2  14    3.70    5.80
 -12  -2  14   -3.30    6.50
  12  -2 -14    7.60    7.40
 -12   2  14    0.50    6.80
  12   2 -14    2.40    5.10
  12   2 -14    0.40    6.00
 -12   2  14    7.00    7.30
 -11  -2  14  214.88   11.20
  11  -2 -14  226.88   13.70
 -11  -2  14  205.88   10.00
 -11  -2  14  188.08    9.60
  11   2 -14  188.38    9.70
 -11   2  14  224.38   13.50
  11   2 -14  202.28   10.60
 -11   2  14  217.28   13.50
 -10  -2  14   12.20    5.40
  10  -2 -14    9.50    4.90
 -10  -2  14    6.80    6.50
  10  -2 -14   11.60    4.90
 -10  -2  14    4.20    5.40
 -10   2  14    6.10    6.20
  10   2 -14    4.80    5.70
 -10   2  14    5.40    6.60
  10   2 -14    9.70    4.90
   9  -2 -14  109.79    7.70
  -9  -2  14  106.79    8.40
   9  -2 -14  106.49    8.00
  -9  -2  14  122.99    8.40
  -9  -2  14  120.79    9.50
  -9   2  14  118.99    8.80
   9   2 -14  111.19    7.70
  -9   2  14  121.49    9.60
   9   2 -14  117.39    8.20
  -8  -2  14  145.49    9.10
  -8  -2  14  148.79    8.60
   8  -2 -14  133.89   10.50
   8  -2 -14  123.69    8.20
   8  -2 -14  126.49    9.10
  -8  -2  14  132.39    9.20
  -8  -2  14  147.29    9.90
   8   2 -14  153.78    9.00
  -8   2  14  154.48   10.00
   8   2 -14  141.99   10.20
   8   2 -14  142.19    9.50
  -8   2  14  140.29    9.70
   7  -2 -14   12.40    5.90
  -7  -2  14   17.90    5.00
  -7  -2  14   17.40    6.30
   7  -2 -14   14.60    5.40
  -7  -2  14   17.90    5.00
  -7  -2  14   24.30    6.00
   7  -2 -14   23.20    5.40
   7   2 -14   16.80    4.20
  -7   2  14   18.20    6.20
  -7   2  14    9.60    4.80
   7   2 -14   12.70    3.90
   7   2 -14    9.80    4.80
  -6  -2  14  396.76   14.60
  -6  -2  14  376.16   13.10
  -6  -2  14  395.36   13.70
   6  -2 -14  399.06   13.90
   6  -2 -14  365.16   15.30
   6  -2 -14  363.76   13.30
  -6   2  14  388.06   12.40
  -6   2  14  364.46   14.20
   6   2 -14  360.16   11.80
   6   2 -14  380.26   13.00
  -6   2  14  391.66   12.90
   6   2 -14  365.36   12.10
   5  -2 -14   34.90    5.70
   5  -2 -14   34.20    5.50
  -5  -2  14   34.00    5.70
  -5  -2  14   44.20    5.40
  -5   2  14   45.30    6.50
   5   2 -14   47.60    4.90
   5   2 -14   38.00    5.30
   5   2 -14   42.30    5.70
  -5   2  14   38.10    4.00
  -4  -2  14  304.47   12.50
   4  -2 -14  299.17   11.20
  -4  -2  14  288.27   12.40
   4  -2 -14  297.17   11.80
   4  -2 -14  260.97    9.10
   4   2 -14  282.67   11.20
  -4   2  14  293.17    9.60
  -4   2  14  284.37   12.00
   4   2 -14  279.87   11.30
   4   2 -14  292.67   11.00
   3  -2 -14   -0.50    3.80
   3  -2 -14    0.10    3.10
  -3  -2  14    6.20    4.90
  -3  -2  14    1.80    3.70
   3  -2 -14    9.60    4.90
  -3   2  14    0.40    2.30
   3   2 -14    6.60    4.30
   3   2 -14    4.70    3.70
  -3   2  14    5.80    5.10
   3   2 -14    2.20    4.30
  -3   2  14    7.80    4.00
   2  -2 -14    4.60    3.60
   2  -2 -14   12.60    4.90
  -2  -2  14    5.80    4.90
  -2  -2  14    5.80    5.30
   2  -2 -14    9.70    3.60
   2   2 -14    7.40    3.40
  -2   2  14    8.90    3.80
   2   2 -14    2.20    3.40
  -2   2  14   12.70    3.90
  -2   2  14   -1.20    4.60
   2   2 -14   11.10    4.60
  -1  -2  14   60.59    5.40
   1  -2 -14   67.79    5.50
   1  -2 -14   68.59    5.50
   1  -2 -14   60.69    6.50
  -1  -2  14   69.79    6.90
  -1  -2  14   72.59    7.30
  -1   2  14   63.09    6.20
   1   2 -14   70.79    5.30
  -1   2  14   65.29    5.60
  -1   2  14   64.79    5.20
   1   2 -14   55.79    5.80
   0  -2  14    4.30    4.20
   0  -2  14    6.10    5.30
   0  -2  14    8.10    4.30
   0  -2 -14   -1.60    4.70
   0  -2 -14   13.70    3.90
   0  -2 -14    5.30    4.20
   0   2  14    6.80    4.20
   0   2  14    4.10    4.40
   0   2 -14   16.00    4.60
   0   2  14   10.30    3.60
   0   2 -14   12.00    4.70
  -1  -2 -14  237.58   10.20
  -1  -2 -14  249.28   10.90
   1  -2  14  265.57   11.80
   1  -2  14  265.37   11.60
   1  -2  14  245.38   11.40
   1   2  14  255.37   10.60
  -1   2 -14  239.48    9.60
  -1   2 -14  252.67   10.40
   1   2  14  241.88   10.80
  -2  -2 -14   19.00    5.80
   2  -2  14   22.20    5.90
   2  -2  14   12.40    6.40
   2  -2  14   16.50    5.50
  -2  -2 -14   21.50    4.30
  -2   2 -14   22.70    4.30
   2   2  14   13.40    5.20
   2   2  14   16.20    4.70
  -2   2 -14   16.90    4.50
   3  -2  14   95.29    7.80
  -3  -2 -14   82.19    7.90
  -3  -2 -14   84.19    7.60
   3  -2  14   89.79    8.60
   3  -2  14   86.59    9.00
  -3   2 -14   79.79    5.60
   3   2  14   80.09    7.10
  -3   2 -14   84.89    7.50
  -4  -2 -14    0.60    5.60
   4  -2  14   -1.60    5.30
   4  -2  14    1.30    4.90
   4  -2  14   -0.90    6.50
  -4  -2 -14   -2.20    5.80
   4  -2  14    1.70    3.80
  -4   2 -14    4.80    5.60
  -4   2 -14    4.40    5.60
   4   2  14   -1.00    5.50
   5  -2  14   48.30    6.90
   5  -2  14   62.09    8.80
   5  -2  14   56.59    7.10
  -5  -2 -14   53.79    7.80
   5  -2  14   61.79    8.90
  -5  -2 -14   45.80    6.20
   5   2  14   59.29    7.50
  -5   2 -14   48.80    7.20
  -5   2 -14   50.19    7.40
   5   2  14   55.99    7.30
   6  -2  14   80.39    7.90
   6  -2  14   91.19   10.30
  -6  -2 -14   74.79    8.80
   6  -2  14   96.99   10.50
   6  -2  14   82.79    7.30
  -6  -2 -14   74.29    8.90
  -6   2 -14   85.69    8.50
   6   2  14   78.59    8.30
   6   2  14   88.89    8.70
  -6   2 -14   89.79    8.50
  -7  -2 -14   -9.10    6.90
   7  -2  14    5.90    6.70
  -7  -2 -14   -4.10    6.80
   7  -2  14    6.70    8.10
   7  -2  14    9.40    8.20
   7   2  14   -9.60    6.60
  -7   2 -14   -2.50    6.10
  -7   2 -14    5.30    6.60
 -13   3  14   19.00    8.60
  12  -3 -14   -6.20    7.80
 -12  -3  14   -1.50    6.40
 -12  -3  14   -1.90    6.80
 -12   3  14    5.90    7.70
  12   3 -14   -9.60    6.10
 -12   3  14    4.50    7.90
  12   3 -14   -5.40    3.90
  11  -3 -14   -1.10    5.10
 -11  -3  14   -0.20    6.90
 -11  -3  14   -4.00    6.10
  11   3 -14   -2.60    5.50
 -11   3  14   -2.80    7.40
 -11   3  14   10.90    7.30
  11   3 -14   -7.60    5.90
  10  -3 -14   43.50    8.50
 -10  -3  14   50.99    7.50
 -10  -3  14   45.50    8.20
 -10   3  14   35.40    7.30
 -10   3  14   45.90    8.70
  10   3 -14   42.30    6.80
  10   3 -14   39.10    5.70
  -9  -3  14   45.00    7.20
   9  -3 -14   47.40    6.20
  -9  -3  14   39.90    6.20
   9  -3 -14   49.40    6.70
  -9   3  14   45.40    7.00
   9   3 -14   34.40    6.70
   9   3 -14   51.89    6.90
  -9   3  14   58.79    8.60
   8  -3 -14   94.69    7.80
  -8  -3  14   68.39    7.60
  -8  -3  14   89.79    8.90
   8  -3 -14   74.49    8.50
  -8   3  14   80.19    7.50
   8   3 -14   88.69    7.60
   8   3 -14   85.39    6.70
  -8   3  14   90.59    9.00
  -8   3  14   83.29    7.10
  -7  -3  14   57.99    7.80
  -7  -3  14   64.59    6.20
   7  -3 -14   51.89    6.60
   7  -3 -14   57.09    7.60
   7   3 -14   53.49    6.90
  -7   3  14   55.69    5.30
  -7   3  14   61.59    6.50
  -7   3  14   56.39    6.20
   7   3 -14   60.09    6.00
   7   3 -14   56.69    5.60
  -6  -3  14   -5.80    4.80
   6  -3 -14   -1.40    5.30
  -6  -3  14   -1.60    4.60
   6  -3 -14   -3.20    4.80
  -6  -3  14    4.80    4.30
  -6   3  14    6.30    6.00
   6   3 -14    4.70    3.50
   6   3 -14    1.20    4.80
   6   3 -14    0.60    5.10
  -6   3  14    3.30    3.80
  -5  -3  14   18.00    4.40
   5  -3 -14    4.50    5.50
   5  -3 -14   22.60    5.70
  -5  -3  14   13.20    6.30
  -5   3  14   14.10    4.30
   5   3 -14   15.10    4.00
   5   3 -14   22.80    4.10
  -5   3  14   16.10    6.40
   5   3 -14   19.50    5.60
   4  -3 -14   45.40    6.40
  -4  -3  14   34.10    6.80
   4  -3 -14   31.00    6.10
  -4  -3  14   39.80    6.60
  -4   3  14   27.60    6.40
   4   3 -14   34.90    5.10
   4   3 -14   44.80    5.00
  -4   3  14   40.60    4.20
   4   3 -14   27.20    4.40
  -3  -3  14   16.60    5.90
  -3  -3  14   19.40    6.20
   3  -3 -14    9.90    5.50
   3  -3 -14   12.10    5.30
   3   3 -14   21.50    5.30
  -3   3  14   11.00    5.70
  -3   3  14   13.80    4.60
   3   3 -14   24.90    5.40
  -2  -3  14  111.49    8.00
   2  -3 -14  130.19    8.80
   2  -3 -14  137.79    9.30
  -2  -3  14  128.79    9.60
   2   3 -14  127.59    8.10
  -2   3  14  114.09    7.20
   2   3 -14  140.09    8.70
  -2   3  14  126.69    8.20
  -2   3  14  145.79    9.70
  -1  -3  14   11.00    5.90
   1  -3 -14    4.90    5.50
   1  -3 -14   10.00    4.90
  -1  -3  14    9.70    4.60
   1  -3 -14    4.20    3.90
  -1   3  14    1.30    5.00
   1   3 -14    6.70    5.00
   1   3 -14    7.20    4.60
  -1   3  14    3.20    4.70
   0  -3 -14  129.89    9.20
   0  -3  14  144.39    9.50
   0  -3  14  131.69   10.20
   0  -3 -14  138.09    8.60
   0  -3  14  149.09    9.00
   0  -3 -14  131.49    8.50
   0   3 -14  143.49    8.60
   0   3 -14  145.49    9.40
   0   3  14  139.69    9.10
   0   3  14  128.99    8.50
   0   3  14  135.69    9.20
   1  -3  14   -0.10    4.90
  -1  -3 -14    6.30    4.20
   1  -3  14    0.60    5.80
   1  -3  14   -3.30    6.40
  -1  -3 -14    2.30    4.80
  -1  -3 -14    3.40    4.70
   1   3  14    5.10    4.30
   1   3  14    1.20    5.10
   1   3  14    5.70    4.40
  -1   3 -14    5.40    3.90
  -1   3 -14    6.50    3.20
   2  -3  14   14.30    6.30
  -2  -3 -14    7.60    4.90
  -2  -3 -14    0.80    5.90
  -2  -3 -14    5.80    6.20
   2  -3  14   -6.10    6.70
  -2  -3 -14    0.50    5.10
   2  -3  14   -2.00    5.50
  -2   3 -14    4.20    4.20
   2   3  14    3.60    5.50
   2   3  14    3.20    4.60
  -2   3 -14    6.50    4.00
   3  -3  14   13.60    6.60
  -3  -3 -14    6.80    5.90
   3  -3  14   32.50    8.00
   3  -3  14   26.10    7.20
  -3  -3 -14   25.70    7.10
   3   3  14   24.80    5.40
  -3   3 -14   14.80    6.00
   3   3  14   29.30    6.60
   4  -3  14   11.50    4.80
   4  -3  14    8.90    7.70
   4  -3  14    9.20    7.30
  -4  -3 -14   11.40    6.40
  -4  -3 -14    8.90    5.10
  -4   3 -14    9.10    6.90
  -4   3 -14   20.20    6.40
   4   3  14    7.20    6.50
  -5  -3 -14   18.20    5.40
   5  -3  14   13.00    6.90
   5  -3  14   29.10    6.40
  -5  -3 -14   29.10    7.90
   5  -3  14   29.80    8.90
   5   3  14   38.90    7.60
  -5   3 -14   44.70    8.00
  -5   3 -14   21.30    6.70
   6  -3  14    3.70    6.10
  -6  -3 -14    2.60    5.30
  -6  -3 -14   -3.40    7.40
   6  -3  14    1.50    6.60
   6  -3  14   13.20    8.30
   6   3  14   -0.20    4.80
  -6   3 -14    2.30    7.20
  -6   3 -14    0.60    6.40
 -11  -4  14  -10.90    6.60
 -11  -4  14   -6.00    7.00
  11  -4 -14    3.40    8.30
 -11   4  14   -4.20    7.90
  11   4 -14   -5.80    6.20
  11   4 -14    3.50    6.80
 -11   4  14   -2.50    7.10
  10  -4 -14    2.30    7.90
 -10  -4  14    5.00    5.40
 -10  -4  14   -1.30    6.90
  10   4 -14   -4.60    6.10
 -10   4  14    0.70    7.00
  10   4 -14    2.80    6.60
 -10   4  14    5.30    5.70
  -9  -4  14    0.00    6.80
  -9  -4  14    0.40    6.50
   9  -4 -14    3.90    7.50
  -9   4  14    1.70    5.00
  -9   4  14   10.30    7.70
   9   4 -14    0.80    4.20
   9   4 -14    5.30    6.30
   8  -4 -14   16.80    7.60
  -8  -4  14   22.40    7.40
  -8  -4  14    7.70    4.80
   8   4 -14   20.10    6.60
  -8   4  14    7.50    5.10
  -8   4  14    1.20    7.30
   8   4 -14   15.40    6.30
   7  -4 -14   53.69    8.60
   7  -4 -14   49.70    6.80
  -7  -4  14   56.69    7.90
  -7  -4  14   47.40    8.30
  -7   4  14   58.89    6.70
   7   4 -14   60.39    6.20
   7   4 -14   60.79    7.60
  -7   4  14   40.50    8.20
   6  -4 -14   23.10    6.30
  -6  -4  14   35.70    5.70
   6  -4 -14   32.20    7.50
  -6  -4  14   21.20    7.10
   6   4 -14   28.10    5.10
   6   4 -14   31.20    5.20
  -6   4  14   39.60    6.30
  -6   4  14   29.60    4.60
   5  -4 -14  155.58   10.90
   5  -4 -14  148.19    9.00
  -5  -4  14  156.88   11.00
  -5  -4  14  128.39    9.30
   5   4 -14  137.69    8.40
  -5   4  14  129.69    7.80
   5   4 -14  161.18   10.80
  -5   4  14  129.69    8.80
  -4  -4  14   -0.60    6.60
   4  -4 -14   -5.30    5.50
  -4  -4  14    3.40    5.50
   4  -4 -14   -4.00    5.90
  -4   4  14   -1.40    6.00
   4   4 -14   -4.00    3.60
  -4   4  14   -4.40    4.80
   4   4 -14   -1.00    5.30
   3  -4 -14   73.29    8.10
  -3  -4  14   60.89    8.30
  -3  -4  14   67.39    8.00
   3  -4 -14   54.69    6.80
   3  -4 -14   67.99    8.10
   3   4 -14   59.99    7.00
   3   4 -14   67.79    6.80
  -3   4  14   73.49    7.90
  -3   4  14   71.39    7.00
  -2  -4  14    3.90    6.60
  -2  -4  14   10.30    6.50
   2  -4 -14   10.00    5.80
   2  -4 -14    3.90    6.10
   2  -4 -14    4.30    5.80
   2   4 -14    5.70    5.70
  -2   4  14   11.50    5.70
   2   4 -14   10.50    5.10
  -2   4  14    1.00    5.40
   1  -4 -14   36.70    6.80
   1  -4 -14   29.80    7.20
  -1  -4  14   34.80    6.10
   1  -4 -14   33.20    6.80
  -1  -4  14   28.00    7.30
   1   4 -14   28.00    5.60
   1   4 -14   29.10    6.30
  -1   4  14   34.10    6.40
  -1   4  14   40.90    6.30
   0  -4 -14  215.18   12.10
   0  -4 -14  233.68   13.10
   0  -4  14  212.38   11.40
   0  -4  14  227.48   14.30
   0   4  14  221.78   11.80
   0   4 -14  244.88   10.50
   0   4  14  257.97   12.10
   0   4 -14  216.88   11.70
   0   4  14  219.78   11.20
   1  -4  14   51.29    8.20
   1  -4  14   44.60    8.70
  -1  -4 -14   43.30    6.90
  -1  -4 -14   50.29    8.30
   1   4  14   35.10    7.10
  -1   4 -14   33.60    6.60
   1   4  14   44.80    7.10
   2  -4  14   67.19    8.00
   2  -4  14   50.49    7.60
  -2  -4 -14   52.69    7.30
  -2  -4 -14   56.19    7.30
   2  -4  14   36.40    8.00
   2   4  14   60.89    8.00
   2   4  14   43.60    7.00
  -2   4 -14   66.79    6.50
   3  -4  14   -2.00    6.90
  -3  -4 -14   -5.20    5.70
   3  -4  14   -6.40    6.80
  -3  -4 -14    1.30    5.20
   3  -4  14   -3.00    7.80
  -3  -4 -14    5.00    6.20
   3   4  14    5.60    6.10
  -3   4 -14   -2.10    4.30
  -3   4 -14    4.40    7.20
   3   4  14   -0.60    6.80
   4  -4  14    8.50    7.70
   4  -4  14   25.90    9.00
   4  -4  14   15.10    5.70
  -4  -4 -14   16.20    8.00
  -4  -4 -14   10.40    7.00
   4   4  14   16.00    6.40
  -4   4 -14   15.90    6.50
  -4   4 -14   16.60    8.00
   4   4  14   10.20    7.20
   5  -4  14   20.10    6.00
  -5  -4 -14   -0.30    5.70
   5  -4  14    9.60    8.70
  -5  -4 -14    5.80    7.40
   5  -4  14   12.00    8.40
   5   4  14    8.90    7.60
  -5   4 -14   30.20    8.80
  -5   4 -14    6.60    6.50
   5   4  14   16.90    7.80
  -8  -5  14   14.30    5.80
  -8  -5  14   10.20    7.70
   8  -5 -14    4.50    8.40
   8   5 -14    8.20    7.00
  -8   5  14    7.90    6.40
   8   5 -14    8.60    7.10
  -8   5  14   11.80    8.40
  -7  -5  14    5.10    7.50
  -7  -5  14   -3.20    7.00
   7  -5 -14   -3.50    7.90
   7   5 -14  -10.10    6.30
  -7   5  14   10.00    6.20
   7   5 -14    3.60    6.70
  -7   5  14   -6.70    7.40
   6  -5 -14   17.80    6.20
  -6  -5  14   19.30    7.70
  -6  -5  14    7.00    7.00
  -6   5  14   10.90    5.50
  -6   5  14   10.00    6.20
   6   5 -14    9.20    4.90
   6   5 -14   16.00    5.00
  -5  -5  14    3.40    7.20
   5  -5 -14   -4.90    7.00
  -5   5  14    5.40    5.20
   5   5 -14    4.50    6.50
   5   5 -14    5.20    4.60
  -5   5  14    8.00    4.50
  -4  -5  14  -11.50    6.90
   4  -5 -14    5.70    7.20
   4   5 -14    4.80    4.50
  -4   5  14   -3.60    6.50
  -4   5  14   -6.00    6.00
   4   5 -14   -1.70    5.80
  -3  -5  14   -2.90    6.40
   3  -5 -14    7.70    6.80
  -3  -5  14   -6.40    4.80
  -3   5  14    0.00    6.00
  -3   5  14    7.80    6.50
   3   5 -14    0.80    5.60
   3   5 -14    2.70    6.20
  -2  -5  14   -2.30    7.20
   2  -5 -14    0.40    5.00
  -2  -5  14   -1.60    7.10
  -2   5  14    1.60    4.70
  -2   5  14    7.10    6.10
   2   5 -14    2.50    6.20
   2   5 -14   -0.80    5.20
  -1  -5  14   12.90    7.50
   1  -5 -14    2.90    6.70
   1  -5 -14    1.70    6.30
  -1  -5  14   14.40    5.80
  -1   5  14    4.40    4.80
   1   5 -14    4.70    6.20
   0  -5 -14    4.40    6.80
   0  -5  14    4.00    7.70
   0  -5  14   -1.10    5.20
   0  -5 -14   10.80    7.00
   0   5  14    5.80    6.70
   0   5 -14   -1.50    6.00
   0   5  14   -1.50    6.50
   1  -5  14    4.40    7.70
   1  -5  14   12.10    8.40
  -1  -5 -14    3.40    7.00
  -1  -5 -14   -0.40    7.00
   1   5  14   -0.30    6.90
   1   5  14   -3.90    7.00
  -1   5 -14   -3.80    6.10
  -2  -5 -14   -6.10    6.60
   2  -5  14    0.10    6.20
  -2  -5 -14   -9.70    7.20
   2  -5  14   -0.60    5.40
   2   5  14    5.30    7.20
  -2   5 -14    4.80    8.00
   2   5  14   -0.50    6.80
  -2   5 -14   -4.50    6.10
 -14   0  15   -1.40    5.90
 -14   0  15  -10.40    6.60
 -13   0  15  -14.90    7.30
  13   0 -15   -4.60    5.40
 -13   0  15    1.10    6.30
  12   0 -15   -0.30    4.00
 -12   0  15   -2.40    7.30
 -12   0  15    0.70    6.50
  11   0 -15    1.60    5.50
 -11   0  15    0.50    6.30
 -11   0  15   -6.70    6.90
 -10   0  15   -4.70    6.30
 -10   0  15   -5.20    5.80
  10   0 -15    8.30    5.50
   9   0 -15   -4.10    3.50
   9   0 -15   -0.50    4.10
  -9   0  15    4.80    6.10
   8   0 -15    1.10    3.60
  -8   0  15   -1.10    5.30
   8   0 -15    3.70    5.10
   8   0 -15   -1.40    3.40
  -8   0  15    8.60    5.60
   7   0 -15    5.10    5.00
  -7   0  15   -8.10    5.10
  -7   0  15   -2.70    3.70
   7   0 -15    2.30    3.60
   7   0 -15   -0.80    3.90
   7   0 -15   -4.50    3.40
   6   0 -15   -2.50    3.50
  -6   0  15    2.20    4.00
   6   0 -15    0.90    3.60
   6   0 -15    5.90    4.90
  -6   0  15   -1.20    5.10
   6   0 -15   -1.20    3.60
  -5   0  15   -2.20    3.40
   5   0 -15    0.90    4.70
   5   0 -15   -0.70    4.80
   5   0 -15   -2.60    3.80
  -5   0  15    1.10    5.10
   5   0 -15    4.50    3.70
   4   0 -15    1.00    3.90
  -4   0  15   -7.00    4.60
  -4   0  15   -6.30    4.80
   4   0 -15   -2.40    4.30
   4   0 -15   -4.30    3.10
   3   0 -15   -4.80    4.50
   3   0 -15   -4.70    3.80
  -3   0  15   -6.70    4.50
   3   0 -15    2.90    4.20
  -3   0  15   -1.50    3.50
   2   0 -15    0.50    4.40
   2   0 -15   -0.70    4.00
   2   0 -15   -7.30    3.90
  -2   0  15    1.80    4.90
  -2   0  15   -0.70    3.10
   1   0 -15    3.40    3.30
  -1   0  15   -2.80    4.80
  -1   0  15    2.30    4.40
   1   0 -15    1.30    4.20
   0   0 -15   -2.20    3.30
   0   0  15   -1.00    4.20
   0   0 -15   -4.30    3.00
  -1   0 -15   -0.60    3.40
   1   0  15   -3.30    5.40
   1   0  15    0.00    3.70
  -1   0 -15    4.20    3.40
   1   0  15   -1.70    2.90
   2   0  15    0.40    3.90
  -2   0 -15    2.70    5.00
   2   0  15   -2.80    2.90
   2   0  15    3.60    5.70
  -2   0 -15   -6.80    4.80
  -3   0 -15   -9.80    4.70
   3   0  15   -2.80    4.20
   3   0  15   -1.90    4.40
  -3   0 -15    0.60    5.30
  -4   0 -15   -1.90    5.10
  -4   0 -15   -5.00    5.40
   4   0  15    6.40    5.20
   4   0  15   -4.80    6.40
   5   0  15    8.40    6.90
   5   0  15    5.20    5.60
  -5   0 -15    0.90    4.30
  -5   0 -15   -7.20    5.10
   6   0  15    2.80    7.10
   6   0  15   -3.40    5.90
  -6   0 -15    5.60    6.60
  -6   0 -15    6.30    5.50
   7   0  15    4.80    6.80
  -7   0 -15   -5.10    6.80
   7   0  15    9.20    7.80
 -14   1  15    8.30    8.70
 -13  -1  15   42.50    6.70
 -13   1  15   48.70    6.50
 -13   1  15   41.30    9.20
  13   1 -15   45.70    7.10
 -12  -1  15   21.50    7.30
  12  -1 -15   12.40    5.70
 -12  -1  15   17.90    6.30
 -12   1  15   10.00    5.20
  12   1 -15    6.90    5.90
 -12   1  15    5.20    7.60
 -11  -1  15    1.20    5.90
  11  -1 -15   10.60    5.60
  11  -1 -15    9.30    6.20
 -11  -1  15    2.30    6.60
  11   1 -15   -0.90    5.40
 -11   1  15    1.60    4.80
 -11   1  15    6.80    6.80
  11   1 -15    3.10    4.20
 -10  -1  15   50.79    7.30
 -10  -1  15   43.10    5.80
  10  -1 -15   53.09    5.60
  10  -1 -15   57.19    7.40
 -10  -1  15   48.60    8.00
 -10   1  15   51.99    7.90
  10   1 -15   44.70    6.70
 -10   1  15   62.29    8.10
  10   1 -15   56.69    5.80
   9  -1 -15   30.60    6.20
  -9  -1  15   20.40    6.30
  -9  -1  15   19.30    4.90
  -9  -1  15   22.50    5.30
   9  -1 -15   21.60    5.80
  -9   1  15   19.60    6.40
   9   1 -15   26.20    4.80
  -9   1  15   19.30    6.60
   9   1 -15   30.90    6.00
  -8  -1  15    3.70    5.70
  -8  -1  15   10.70    4.50
   8  -1 -15   14.90    5.30
   8  -1 -15    3.60    5.20
  -8  -1  15    8.00    4.40
   8   1 -15   13.60    4.20
   8   1 -15    8.40    4.30
  -8   1  15   -0.10    5.80
   8   1 -15    5.40    5.40
  -8   1  15   15.90    5.80
   7  -1 -15   25.50    5.10
  -7  -1  15   23.90    6.30
  -7  -1  15   31.40    5.30
   7  -1 -15   25.30    5.20
   7  -1 -15   31.40    4.70
   7   1 -15   29.20    5.00
  -7   1  15   28.50    6.40
   7   1 -15   25.60    4.70
   7   1 -15   35.10    6.00
   6  -1 -15  161.28    8.90
   6  -1 -15  160.88    9.50
   6  -1 -15  168.78    7.50
   6  -1 -15  151.78    8.10
  -6  -1  15  160.28   10.80
  -6  -1  15  156.18   10.60
   6   1 -15  165.88    9.50
  -6   1  15  155.08   10.60
   6   1 -15  171.58    8.80
   6   1 -15  170.28   10.30
   5  -1 -15   80.49    7.80
   5  -1 -15   81.39    5.50
   5  -1 -15   96.99    7.50
   5  -1 -15   69.39    5.90
  -5  -1  15   73.49    7.50
  -5  -1  15   68.89    7.20
   5   1 -15   76.09    5.90
   5   1 -15   66.39    5.30
   5   1 -15   76.89    6.90
  -5   1  15   76.19    7.50
  -5   1  15   86.09    7.20
   4  -1 -15    2.50    3.50
  -4  -1  15    0.70    3.70
   4  -1 -15   16.20    5.20
   4  -1 -15   11.90    3.80
  -4  -1  15    6.80    5.20
   4  -1 -15    8.50    5.00
  -4   1  15    7.30    4.70
   4   1 -15    6.80    4.80
  -4   1  15   16.70    5.60
   4   1 -15    4.50    4.40
   4   1 -15    6.20    4.40
   3  -1 -15    7.80    3.90
   3  -1 -15    3.00    3.60
  -3  -1  15   13.60    5.40
   3  -1 -15    1.00    4.80
  -3  -1  15   14.70    5.40
  -3  -1  15    6.60    3.80
  -3   1  15   -0.30    4.90
   3   1 -15    4.10    4.10
  -3   1  15    7.30    4.60
   3   1 -15    6.10    4.30
   3   1 -15    5.90    3.50
   2  -1 -15   -2.80    4.60
  -2  -1  15    4.60    3.90
   2  -1 -15   -0.70    3.80
  -2  -1  15   -2.80    4.60
   2   1 -15   -0.80    3.70
  -2   1  15    2.80    4.40
  -2   1  15   -0.90    3.50
   2   1 -15   -1.50    4.50
   2   1 -15    1.50    4.40
  -1  -1  15  289.07   12.80
  -1  -1  15  289.17   12.10
   1  -1 -15  268.77   10.80
   1  -1 -15  282.47   10.80
   1   1 -15  290.27   11.50
  -1   1  15  287.37   12.40
  -1   1  15  281.67   10.90
   1   1 -15  294.17   11.40
   1   1 -15  271.27   10.80
   0  -1  15   86.19    8.20
   0  -1  15   84.09    6.60
   0  -1 -15   98.19    7.10
   0  -1 -15   81.79    7.40
   0   1  15   89.49    6.00
   0   1  15   82.39    6.40
   0   1 -15   94.19    7.10
   0   1 -15  104.19    7.30
   0   1  15   80.29    6.20
   1  -1  15   82.59    7.30
   1  -1  15   84.29    8.30
  -1  -1 -15   77.09    6.00
  -1  -1 -15   70.99    7.10
  -1   1 -15   90.99    7.20
   1   1  15   70.29    5.80
  -1   1 -15   83.39    6.80
   1   1  15   80.89    6.20
   1   1  15   96.69    7.50
  -2  -1 -15   53.69    6.70
   2  -1  15   54.79    6.50
  -2  -1 -15   55.79    6.50
   2  -1  15   61.29    7.70
   2   1  15   51.69    6.00
  -2   1 -15   50.89    5.20
  -2   1 -15   69.39    7.00
  -3  -1 -15   19.00    6.00
   3  -1  15   11.70    6.70
   3  -1  15    5.00    5.00
  -3  -1 -15   13.40    5.80
   3   1  15    7.70    3.70
  -3   1 -15    3.30    5.60
   3   1  15    0.40    6.10
  -3   1 -15    0.10    4.80
   4  -1  15   35.20    7.70
   4  -1  15   28.70    5.80
  -4  -1 -15   35.60    6.80
  -4  -1 -15   37.60    6.90
   4  -1  15   35.40    5.90
  -4   1 -15   37.90    5.80
   4   1  15   27.30    6.30
  -4   1 -15   19.80    6.30
  -4   1 -15   27.00    6.80
   4   1  15   35.80    7.30
   5  -1  15   12.10    7.30
  -5  -1 -15   36.50    7.00
   5  -1  15   26.70    6.30
   5  -1  15   14.10    5.70
  -5  -1 -15   20.70    6.80
   5   1  15   21.10    6.40
   5   1  15   26.90    7.30
  -5   1 -15   20.00    6.70
  -6  -1 -15   31.50    7.50
   6  -1  15   46.80    9.00
   6  -1  15   47.30    9.10
   6  -1  15   34.00    7.10
   6   1  15   31.40    7.10
  -6   1 -15   47.40    7.60
   6   1  15   47.90    8.10
   7  -1  15   33.80    6.10
  -7  -1 -15   52.29    8.50
  -7  -1 -15   39.40    6.70
   7  -1  15   34.80    9.20
   7   1  15   44.10    8.30
   7   1  15   47.00    8.20
  -7   1 -15   32.50    6.30
  13  -2 -15   12.30    8.50
 -13  -2  15    2.80    7.30
 -13  -2  15   11.10    6.20
 -13   2  15    0.30    7.90
  13   2 -15    8.40    5.60
 -13   2  15    6.30    5.60
  13   2 -15   10.70    6.70
 -12  -2  15   19.10    7.60
  12  -2 -15   39.70    8.60
 -12  -2  15   17.10    4.90
 -12   2  15   15.60    5.90
  12   2 -15   21.80    6.90
  12   2 -15   24.80    5.80
 -12   2  15   14.90    5.70
 -11  -2  15   22.50    6.30
  11  -2 -15   42.60    8.30
 -11  -2  15   25.30    8.00
 -11  -2  15   32.40    6.80
 -11   2  15   34.40    6.50
  11   2 -15   26.70    5.80
  11   2 -15   50.99    7.60
 -11   2  15   38.90    8.00
 -10  -2  15   -9.00    6.60
 -10  -2  15    1.20    5.30
 -10  -2  15    0.60    6.00
  10  -2 -15   -4.00    5.10
  10  -2 -15    4.90    6.40
 -10   2  15    7.30    6.90
  10   2 -15   -7.90    5.80
  10   2 -15   -1.50    4.80
 -10   2  15    0.20    6.30
  -9  -2  15    3.80    5.00
  -9  -2  15   10.50    6.80
  -9  -2  15    3.30    6.00
   9  -2 -15    7.50    5.40
   9  -2 -15   10.40    6.20
  -9   2  15    0.00    6.60
   9   2 -15    5.80    5.00
  -9   2  15    5.80    5.80
   9   2 -15    3.60    5.60
   8  -2 -15    7.00    5.50
  -8  -2  15    4.00    6.20
  -8  -2  15   11.10    5.20
  -8  -2  15   10.80    4.90
   8  -2 -15    4.90    5.70
   8   2 -15    5.80    5.00
  -8   2  15    7.10    5.40
  -8   2  15   16.20    6.50
   8   2 -15   15.90    4.40
  -7  -2  15   77.69    7.30
  -7  -2  15   92.99    8.60
   7  -2 -15   86.89    7.80
   7  -2 -15   86.49    6.70
  -7  -2  15   93.69    8.90
  -7  -2  15   77.39    7.00
  -7   2  15  100.79    7.60
   7   2 -15   76.59    7.50
  -7   2  15   78.19    7.00
   7   2 -15   80.99    6.90
   7   2 -15   75.29    7.10
   6  -2 -15    6.60    5.20
  -6  -2  15    2.00    5.00
  -6  -2  15   -3.10    5.80
   6  -2 -15    7.30    3.90
   6   2 -15    2.30    4.60
   6   2 -15    4.50    5.00
   6   2 -15    8.50    5.30
  -6   2  15    8.60    4.40
  -5  -2  15   42.50    6.90
   5  -2 -15   38.50    5.80
  -5  -2  15   30.00    5.00
   5  -2 -15   42.10    5.30
   5   2 -15   49.00    6.20
   5   2 -15   55.39    6.20
  -5   2  15   30.30    6.40
   5   2 -15   38.00    4.90
   4  -2 -15   49.99    5.50
   4  -2 -15   45.70    6.00
  -4  -2  15   56.19    7.30
  -4  -2  15   54.89    7.10
  -4   2  15   55.69    5.00
   4   2 -15   46.00    5.70
  -4   2  15   51.19    7.00
  -4   2  15   64.69    6.30
   4   2 -15   67.19    6.40
   4   2 -15   59.19    6.20
   3  -2 -15   -1.60    4.00
   3  -2 -15   -0.50    5.10
  -3  -2  15    1.80    3.90
  -3  -2  15   -6.50    5.40
   3  -2 -15    3.80    3.60
  -3   2  15   13.80    4.60
   3   2 -15    4.10    3.40
  -3   2  15    5.40    4.10
   3   2 -15    1.90    4.90
   3   2 -15    5.60    3.90
  -3   2  15    8.50    3.70
   2  -2 -15    2.20    3.70
  -2  -2  15    0.90    3.80
   2  -2 -15   -0.70    5.00
  -2  -2  15    7.90    4.30
   2  -2 -15   -0.70    3.80
  -2   2  15   -0.40    5.10
  -2   2  15    1.90    3.80
  -2   2  15    3.30    2.90
   2   2 -15    3.40    4.80
   2   2 -15    6.70    3.40
   1  -2 -15    7.10    3.80
  -1  -2  15    5.30    4.00
   1  -2 -15    8.50    3.90
   1  -2 -15    4.00    4.20
  -1  -2  15   12.40    4.80
  -1  -2  15    6.90    4.10
  -1   2  15   13.00    5.30
   1   2 -15    7.60    3.60
  -1   2  15    6.40    4.10
  -1   2  15    6.90    4.00
   1   2 -15    8.20    4.90
   0  -2 -15   19.40    4.90
   0  -2  15   17.60    5.00
   0  -2  15   18.40    4.70
   0  -2 -15   20.00    5.90
   0  -2  15   11.00    4.90
   0   2  15   27.60    5.60
   0   2 -15   28.20    5.30
   0   2 -15   20.80    4.40
   0   2  15   21.00    4.80
   1  -2  15    7.80    6.70
   1  -2  15    4.40    5.20
   1  -2  15   13.90    5.90
  -1  -2 -15    8.50    5.20
  -1  -2 -15   11.10    5.70
   1   2  15   14.20    5.30
   1   2  15   25.00    5.20
  -1   2 -15    7.10    4.00
  -1   2 -15   17.70    5.10
   2  -2  15    2.90    5.90
   2  -2  15    1.30    5.50
   2  -2  15    4.70    6.70
  -2  -2 -15   -6.00    5.20
  -2  -2 -15   -0.90    4.00
   2   2  15    0.60    3.60
  -2   2 -15   -1.70    3.70
  -2   2 -15    7.70    4.80
   2   2  15   -1.40    4.60
   3  -2  15   37.70    8.20
  -3  -2 -15   50.89    7.50
   3  -2  15   51.59    6.50
   3  -2  15   55.29    7.20
  -3  -2 -15   49.90    7.00
  -3   2 -15   39.30    5.70
  -3   2 -15   35.20    5.40
   3   2  15   49.99    6.80
   4  -2  15   -0.70    5.50
  -4  -2 -15   -1.90    5.90
  -4  -2 -15    7.70    6.50
   4  -2  15    1.30    7.00
   4  -2  15    2.40    5.30
  -4   2 -15    1.60    5.80
   4   2  15    3.30    5.90
   4   2  15   -2.30    6.20
  -4   2 -15   12.50    4.70
   5  -2  15    4.00    5.40
   5  -2  15   -1.80    5.60
   5  -2  15    7.90    8.00
  -5  -2 -15   -2.50    4.70
  -5  -2 -15   -7.60    6.60
   5   2  15   -1.50    6.40
  -5   2 -15    4.90    6.20
   5   2  15   -3.10    6.30
  -5   2 -15    2.90    4.70
   6  -2  15   -3.80    5.70
   6  -2  15    0.90    8.20
   6  -2  15  -12.10    8.00
  -6  -2 -15    3.70    7.30
  -6  -2 -15   -1.50    6.90
   6   2  15   -2.00    6.70
  -6   2 -15    5.60    4.80
   6   2  15   10.90    7.00
  -6   2 -15   11.00    6.50
  12  -3 -15   33.50    9.40
 -12  -3  15   31.30    8.40
 -12  -3  15   28.90    7.60
  12   3 -15   19.20    7.30
 -12   3  15   34.40    8.30
  12   3 -15   24.50    6.70
 -12   3  15   29.30    8.70
 -11  -3  15   64.99    8.40
 -11  -3  15   38.00    8.50
  11  -3 -15   52.79    7.50
  11   3 -15   71.39    8.20
  11   3 -15   47.50    7.40
 -11   3  15   48.00    7.30
 -11   3  15   77.19    9.10
 -10  -3  15    1.50    6.20
  10  -3 -15    3.60    7.30
 -10  -3  15   -0.20    7.20
  10   3 -15   -3.70    5.60
  10   3 -15    6.60    6.40
 -10   3  15    8.30    6.60
 -10   3  15    4.10    5.20
   9  -3 -15  179.98   11.20
  -9  -3  15  201.78   13.80
   9  -3 -15  210.48   13.70
  -9  -3  15  202.88   11.90
   9   3 -15  212.18   11.50
  -9   3  15  208.88   14.00
   9   3 -15  165.78    9.60
  -9   3  15  211.78   12.00
   8  -3 -15    3.60    5.70
   8  -3 -15   12.60    6.80
  -8  -3  15   17.80    6.30
  -8  -3  15   15.40    7.40
   8   3 -15    5.10    5.80
   8   3 -15   29.10    6.40
  -8   3  15   13.10    5.50
  -8   3  15   21.60    5.80
   7  -3 -15  147.29    9.70
  -7  -3  15  159.58   11.20
   7  -3 -15  166.18   11.50
  -7  -3  15  149.88   10.50
   7   3 -15  144.39    9.60
  -7   3  15  173.78   12.20
   7   3 -15  158.38   10.40
   6  -3 -15    2.70    5.80
  -6  -3  15    6.70    5.40
   6  -3 -15    0.70    4.10
  -6  -3  15    4.50    5.60
  -6  -3  15    3.20    6.50
   6   3 -15    9.30    5.40
  -6   3  15    4.40    6.60
   6   3 -15    3.60    5.10
  -6   3  15    3.40    2.90
   6   3 -15    8.20    5.60
   5  -3 -15   46.10    6.90
  -5  -3  15   58.49    8.00
   5  -3 -15   49.50    7.30
  -5  -3  15   53.79    6.00
  -5   3  15   49.30    4.60
   5   3 -15   53.49    6.80
   5   3 -15   48.60    6.70
  -5   3  15   61.09    7.90
   5   3 -15   44.40    5.10
   4  -3 -15  151.58   10.50
   4  -3 -15  143.19    9.50
  -4  -3  15  152.18   10.30
  -4  -3  15  140.09    9.90
   4   3 -15  155.78    9.40
  -4   3  15  131.29    8.40
  -4   3  15  147.39    9.10
   4   3 -15  166.38   10.00
   3  -3 -15    2.00    5.60
  -3  -3  15    6.30    6.10
   3  -3 -15   -1.60    4.90
  -3  -3  15   -1.50    6.00
   3   3 -15    0.00    5.00
  -3   3  15   -0.90    4.20
   3   3 -15    8.10    5.30
  -3   3  15   -4.10    5.60
  -2  -3  15  136.69   10.10
   2  -3 -15  125.49    8.70
  -2  -3  15  126.89   10.10
   2  -3 -15  146.09    8.80
  -2   3  15  146.39    8.80
   2   3 -15  123.49    7.90
   2   3 -15  130.39    7.70
  -2   3  15  126.69    8.40
   1  -3 -15    7.50    4.40
  -1  -3  15   -0.70    5.90
  -1  -3  15    3.80    4.90
   1  -3 -15    8.20    6.10
   1  -3 -15   -4.10    4.70
  -1   3  15    2.70    4.90
   1   3 -15   -1.10    4.80
   1   3 -15    3.70    3.80
  -1   3  15    6.20    3.80
   0  -3  15   81.39    7.50
   0  -3 -15   84.99    8.50
   0  -3 -15   94.19    7.40
   0  -3 -15   77.09    7.00
   0  -3  15   77.79    9.30
   0   3 -15   90.29    6.20
   0   3  15   86.99    7.30
   0   3 -15   74.69    6.40
   0   3  15   89.69    7.30
   1  -3  15   14.40    5.00
  -1  -3 -15   13.10    5.60
   1  -3  15   12.40    7.50
  -1  -3 -15    8.50    4.90
   1  -3  15   18.20    5.80
   1   3  15    9.60    5.10
  -1   3 -15   10.20    4.40
   1   3  15   -0.70    5.40
  -1   3 -15   10.90    4.90
  -2  -3 -15   19.90    6.20
  -2  -3 -15   31.70    7.20
   2  -3  15   15.10    6.60
   2  -3  15    9.70    7.90
   2  -3  15   18.10    5.10
  -2  -3 -15   21.90    7.10
   2   3  15   25.50    5.00
  -2   3 -15   17.00    4.90
  -3  -3 -15   38.60    8.20
   3  -3  15   52.39    8.40
   3  -3  15   45.20    9.00
   3  -3  15   42.30    6.30
  -3  -3 -15   27.40    5.40
  -3   3 -15   41.30    7.10
   3   3  15   43.00    7.40
  -4  -3 -15   -1.50    4.60
   4  -3  15   -0.90    6.40
  -4  -3 -15   -5.10    4.80
   4  -3  15   -8.90    7.80
   4  -3  15    7.90    7.70
   4   3  15   -5.20    6.50
  -4   3 -15    4.50    6.20
  -4   3 -15    2.80    6.90
  -5  -3 -15   40.00    8.70
   5  -3  15   36.00    7.00
   5  -3  15   49.20    8.20
   5  -3  15   40.20    9.40
  -5  -3 -15   34.70    6.30
   5   3  15   33.80    8.00
  -5   3 -15   41.90    6.80
  -5   3 -15   36.30    7.50
  10  -4 -15   45.50    9.70
 -10  -4  15   26.50    8.50
 -10  -4  15   35.60    6.50
  10   4 -15   46.50    7.90
  10   4 -15   32.20    5.80
 -10   4  15   34.50    9.20
  -9  -4  15   17.40    6.20
   9  -4 -15    9.00    7.90
  -9  -4  15   -2.60    6.80
   9   4 -15   15.60    5.00
   9   4 -15   12.70    6.90
  -9   4  15   13.30    6.00
  -8  -4  15    1.50    7.40
   8  -4 -15   -7.60    7.20
  -8  -4  15    2.50    6.60
   8   4 -15    7.40    6.60
   8   4 -15   -3.30    4.20
  -8   4  15   -0.70    7.30
  -8   4  15    5.70    5.70
  -7  -4  15   31.00    8.10
   7  -4 -15   26.60    6.30
   7  -4 -15   30.20    6.80
  -7  -4  15   26.80    5.60
   7   4 -15   20.90    6.60
  -7   4  15   23.80    5.90
  -7   4  15   18.90    5.70
   7   4 -15   30.00    6.90
   6  -4 -15   32.10    6.90
   6  -4 -15   27.20    7.80
  -6  -4  15   38.50    8.20
   6   4 -15   19.20    6.50
   6   4 -15   22.10    6.70
  -6   4  15   32.70    5.80
  -6   4  15   27.20    7.90
  -5  -4  15   45.90    7.30
  -5  -4  15   53.79    8.70
   5  -4 -15   35.70    7.80
   5  -4 -15   35.40    5.80
   5   4 -15   46.20    7.00
  -5   4  15   37.30    7.90
  -5   4  15   34.90    6.00
   5   4 -15   40.00    5.50
  -4  -4  15   53.29    8.00
   4  -4 -15   55.39    7.90
   4  -4 -15   57.39    8.00
  -4  -4  15   53.09    7.00
  -4   4  15   55.89    6.80
  -4   4  15   66.49    6.90
   4   4 -15   51.19    7.20
   4   4 -15   53.39    5.70
   3  -4 -15   27.70    6.60
  -3  -4  15   22.00    7.40
   3  -4 -15   33.20    7.40
   3  -4 -15   22.50    6.70
  -3  -4  15   27.00    5.80
  -3   4  15   13.40    6.50
  -3   4  15   16.40    5.90
   3   4 -15   21.90    6.40
   3   4 -15   32.80    6.20
   2  -4 -15    1.30    6.00
  -2  -4  15   -0.70    6.90
  -2  -4  15   -1.10    4.60
   2  -4 -15    9.20    6.80
   2  -4 -15    1.80    6.20
   2   4 -15   12.00    4.50
  -2   4  15    2.10    5.70
  -2   4  15   12.10    5.80
   2   4 -15    6.90    5.40
   1  -4 -15   28.50    6.90
   1  -4 -15   21.60    6.90
   1  -4 -15   28.10    7.40
  -1  -4  15   22.60    7.50
  -1  -4  15   35.70    8.30
   1   4 -15   25.50    5.20
  -1   4  15   18.80    6.30
  -1   4  15   18.80    6.10
   1   4 -15   20.70    5.60
   0  -4  15    4.80    5.00
   0  -4 -15   -4.90    6.40
   0  -4 -15   -3.40    5.70
   0  -4  15   -4.40    7.30
   0   4  15   -6.40    5.90
   0   4  15    0.40    5.60
   0   4 -15    1.20    4.20
   0   4 -15   -2.60    4.80
   1  -4  15   11.10    6.10
  -1  -4 -15   15.30    6.30
   1  -4  15   19.80    7.80
  -1  -4 -15   26.60    6.10
  -1   4 -15   13.20    4.80
   1   4  15   23.60    5.20
   1   4  15   20.50    6.50
   2  -4  15   43.30    9.40
  -2  -4 -15   27.60    6.80
   2  -4  15   40.30    8.70
  -2  -4 -15   27.50    8.50
   2   4  15   30.60    5.70
   2   4  15   35.80    5.90
  -2   4 -15   46.70    6.00
  -3  -4 -15    8.30    8.00
   3  -4  15   37.80    9.80
  -3  -4 -15    7.60    4.90
   3  -4  15   18.70    7.80
   3  -4  15    7.30    7.10
  -3   4 -15    0.60    7.70
  -3   4 -15    8.50    4.80
   3   4  15   12.20    7.10
  -4  -4 -15    3.90    8.00
   4  -4  15   -6.30    7.40
   4  -4  15   10.60    8.10
  -4  -4 -15    2.90    6.90
  -4   4 -15   -0.90    8.00
  -4   4 -15   -4.40    6.30
   4   4  15    3.30    7.40
   7  -5 -15    3.60    8.50
  -7  -5  15   20.40    7.90
  -7  -5  15   -2.30    5.40
   7   5 -15    7.90    7.10
  -7   5  15    3.60    6.10
  -7   5  15    2.90    5.80
   7   5 -15    5.60    5.10
  -6  -5  15   45.40    9.00
   6  -5 -15   33.00    9.10
   6   5 -15   41.90    7.90
  -6   5  15   28.90    5.40
   6   5 -15   37.70    7.70
  -6   5  15   32.50    8.40
   5  -5 -15    6.20    7.80
  -5  -5  15   14.40    8.00
  -5   5  15   11.20    7.60
   5   5 -15   13.10    6.70
  -5   5  15    2.60    6.30
   5   5 -15    8.30    5.00
  -4  -5  15    5.00    5.60
   4  -5 -15    9.50    5.70
   4   5 -15    3.90    4.40
  -4   5  15   -1.90    4.90
  -4   5  15    2.50    6.20
   4   5 -15   12.60    6.70
  -3  -5  15   50.89    8.60
  -3  -5  15   50.49    7.60
   3  -5 -15   56.99    8.90
  -3   5  15   74.89    8.50
  -3   5  15   70.99    7.00
   3   5 -15   63.29    6.80
   3   5 -15   65.29    7.60
  -2  -5  15   -2.70    7.60
   2  -5 -15    4.30    7.30
  -2  -5  15    3.70    7.30
   2   5 -15   -0.50    6.60
   2   5 -15    6.30    5.80
  -2   5  15   -1.90    6.20
   1  -5 -15   95.99    9.80
   1  -5 -15   98.99    9.80
  -1  -5  15   94.99   10.90
  -1  -5  15   84.19   10.30
  -1   5  15   94.69    9.50
   1   5 -15  111.59    9.50
   0  -5  15    6.30    8.40
   0  -5 -15    4.60    7.20
   0  -5 -15    4.00    7.40
   0  -5  15    3.10    5.80
   0   5 -15   14.70    6.80
   0   5  15   13.40    7.30
   0   5  15    8.30    7.10
 -13   0  16   43.90    9.40
 -13   0  16   47.20    8.00
  13   0 -16   48.60    7.30
 -12   0  16    7.80    6.70
  12   0 -16    7.70    6.10
 -12   0  16    8.20    7.80
 -11   0  16  399.16   14.80
  11   0 -16  410.56   15.40
 -10   0  16    1.00    6.20
  10   0 -16    1.80    5.80
 -10   0  16   12.80    5.10
   9   0 -16  198.68   11.30
  -9   0  16  182.18   11.90
  -9   0  16  195.68   12.50
  -8   0  16   13.40    6.40
   8   0 -16    9.50    4.30
  -8   0  16   19.30    6.50
   8   0 -16   16.10    4.90
   8   0 -16   10.90    4.10
  -7   0  16   25.80    6.70
   7   0 -16   35.60    6.30
   7   0 -16   17.80    4.30
  -7   0  16   35.80    6.80
   7   0 -16   25.60    4.80
   6   0 -16  271.37   12.10
   6   0 -16  236.38   10.10
  -6   0  16  318.67   11.90
   6   0 -16  280.37   10.40
   6   0 -16  260.07   13.00
  -5   0  16   -6.40    5.40
   5   0 -16    7.00    4.10
   5   0 -16    3.10    3.80
   5   0 -16    4.20    5.10
  -5   0  16    6.00    5.80
   4   0 -16  448.36   16.00
   4   0 -16  440.46   13.40
   4   0 -16  465.85   15.20
  -4   0  16  504.85   16.10
  -4   0  16  468.45   16.40
   3   0 -16    3.00    5.10
  -3   0  16   12.60    4.40
   3   0 -16   13.50    4.80
  -3   0  16   13.30    4.20
   3   0 -16    8.80    4.80
   2   0 -16  207.28   10.20
   2   0 -16  232.08   11.10
  -2   0  16  237.48   12.00
  -2   0  16  233.18   11.30
  -1   0  16   19.20    6.10
   1   0 -16   14.90    4.30
  -1   0  16   17.70    5.40
   1   0 -16   21.70    5.30
   0   0  16    8.60    4.40
   0   0 -16    2.70    5.20
   0   0 -16    4.30    3.50
   0   0  16    4.60    4.70
   1   0  16  167.18   10.70
  -1   0 -16  186.28   10.80
  -1   0 -16  167.18   10.40
   1   0  16  153.58    9.50
   2   0  16    7.10    4.70
  -2   0 -16   -9.00    5.30
   2   0  16   -5.40    4.40
  -2   0 -16    6.40    5.60
  -3   0 -16  150.18    9.20
  -3   0 -16  156.28    9.10
   3   0  16  147.39    9.70
   3   0  16  186.28   11.60
  -4   0 -16    0.00    5.50
  -4   0 -16   -5.80    6.10
   4   0  16    2.40    5.20
   4   0  16    1.10    7.10
   5   0  16   23.10    6.10
  -5   0 -16   20.10    6.20
  -5   0 -16   35.00    7.40
   5   0  16   15.40    6.20
  -6   0 -16   13.00    5.40
   6   0  16   13.20    6.70
   6   0  16   -5.00    7.60
 -13  -1  16   14.50    6.00
  13  -1 -16   10.40    7.50
 -13   1  16   11.40    8.20
 -13   1  16    2.40    6.80
  13   1 -16   23.50    6.90
 -12  -1  16   17.10    6.80
  12  -1 -16   25.60    7.60
  12  -1 -16   33.30    6.60
 -12  -1  16   26.80    8.20
  12   1 -16   20.80    6.80
 -12   1  16   28.40    8.60
 -12   1  16   35.70    7.90
  11  -1 -16    0.80    6.40
 -11  -1  16   -3.30    7.10
 -11  -1  16   -2.00    6.30
  11  -1 -16    3.10    5.60
  11   1 -16   -0.60    6.00
 -11   1  16   -2.40    6.80
 -11   1  16    2.30    6.60
 -10  -1  16   35.60    7.90
  10  -1 -16   35.00    5.20
 -10  -1  16   28.00    7.00
  10  -1 -16   24.20    6.50
 -10   1  16   35.10    7.60
 -10   1  16   34.10    7.50
  10   1 -16   23.40    6.60
  10   1 -16   25.20    5.20
   9  -1 -16  116.09    8.70
  -9  -1  16  111.69    9.40
  -9  -1  16  106.09    8.10
   9  -1 -16   97.49    8.30
  -9  -1  16  108.79    9.70
  -9   1  16  102.99    9.00
   9   1 -16  115.09    8.70
  -9   1  16   95.59    9.10
   9   1 -16  109.69    7.30
   8  -1 -16   84.69    7.70
  -8  -1  16   71.39    8.30
  -8  -1  16   83.59    7.50
   8  -1 -16   87.29    7.90
   8   1 -16   84.89    7.80
   8   1 -16   86.19    6.70
  -8   1  16   86.29    8.80
  -7  -1  16  120.49    9.50
   7  -1 -16  149.88    8.60
  -7  -1  16  123.29    9.80
   7  -1 -16  135.69    9.40
   7   1 -16  130.39    8.80
  -7   1  16  136.79    9.90
   7   1 -16  140.19    8.70
  -7   1  16  136.19    9.40
   7   1 -16  126.79   11.10
  -6  -1  16   59.99    7.70
   6  -1 -16   66.49    9.40
   6  -1 -16   69.49    6.40
  -6  -1  16   67.39    8.00
   6  -1 -16   68.19    6.40
   6   1 -16   63.79    5.40
   6   1 -16   66.29    7.10
   6   1 -16   53.29    6.90
  -6   1  16   63.59    7.20
  -6   1  16   69.79    7.90
   5  -1 -16   11.90    4.00
  -5  -1  16   10.90    4.60
   5  -1 -16    8.80    5.70
   5  -1 -16    9.80    4.20
  -5  -1  16    8.50    6.00
   5  -1 -16    7.40    4.00
   5   1 -16   11.10    5.00
  -5   1  16    7.90    5.50
  -5   1  16   12.60    6.00
   5   1 -16    7.10    4.70
   5   1 -16   13.10    5.60
  -4  -1  16    0.90    5.40
  -4  -1  16    3.70    5.70
  -4  -1  16    8.70    6.00
   4  -1 -16    1.30    2.70
   4  -1 -16    8.60    5.40
   4   1 -16   -0.70    5.00
   4   1 -16    4.40    4.60
  -4   1  16   -0.40    3.50
  -4   1  16    8.20    4.30
   4   1 -16   -2.30    4.30
  -3  -1  16   63.39    7.30
   3  -1 -16   58.19    5.80
  -3  -1  16   60.89    7.30
   3  -1 -16   65.49    7.00
   3   1 -16   48.20    5.90
  -3   1  16   56.59    7.20
   3   1 -16   60.49    5.40
   3   1 -16   66.39    6.70
  -3   1  16   56.09    5.50
  -2  -1  16   16.80    6.20
  -2  -1  16   19.00    5.90
   2  -1 -16    5.10    3.30
   2  -1 -16    9.60    4.30
   2   1 -16    8.80    5.40
   2   1 -16   11.30    3.80
  -2   1  16   10.50    5.80
  -2   1  16    3.40    4.70
   2   1 -16   17.10    4.70
  -1  -1  16   83.79    8.40
   1  -1 -16   89.39    7.90
   1  -1 -16   88.69    7.00
  -1  -1  16   86.39    7.80
  -1   1  16   93.09    7.20
   1   1 -16   93.69    7.60
  -1   1  16   77.29    6.60
   1   1 -16   98.99    7.70
   0  -1 -16   91.09    6.60
   0  -1 -16   89.79    8.00
   0  -1  16  111.29    8.20
   0  -1  16   99.59    8.00
   0   1  16   94.29    7.30
   0   1  16   90.99    6.80
   0   1  16   86.89    7.10
   0   1 -16   75.39    7.20
   0   1 -16  111.69    7.90
   1  -1  16   45.50    6.70
   1  -1  16   27.70    7.40
  -1  -1 -16   46.00    6.50
  -1  -1 -16   37.70    5.40
  -1   1 -16   46.00    6.80
   1   1  16   42.70    5.40
  -1   1 -16   35.60    6.10
   2  -1  16   -4.20    6.50
  -2  -1 -16   -0.70    5.70
   2  -1  16   -9.90    4.90
  -2  -1 -16   -2.10    3.70
   2   1  16    9.60    6.50
   2   1  16    7.40    4.90
  -2   1 -16   -0.60    5.70
  -2   1 -16    0.30    5.20
   3  -1  16   20.10    5.80
  -3  -1 -16    9.30    6.30
  -3  -1 -16    4.00    6.20
   3  -1  16    8.00    5.30
   3   1  16    5.40    6.90
  -3   1 -16   10.30    5.50
   3   1  16    5.60    3.90
  -3   1 -16   -3.60    5.80
   4  -1  16    5.20    7.60
  -4  -1 -16    3.10    4.50
  -4  -1 -16   -0.40    6.00
  -4   1 -16    2.60    5.40
   4   1  16   -2.70    7.00
  -4   1 -16   15.90    4.90
   4   1  16    6.10    5.80
   5  -1  16   35.20    8.90
  -5  -1 -16   51.89    8.10
  -5  -1 -16   40.80    7.70
   5  -1  16   26.90    6.40
  -5   1 -16   39.60    7.70
   5   1  16   48.80    7.40
   5   1  16   52.89    7.10
   6  -1  16   -0.90    8.00
  -6  -1 -16   -2.10    4.90
   6  -1  16    2.90    8.30
   6   1  16    5.00    5.50
   6   1  16    7.30    4.80
  -6   1 -16    7.90    7.10
 -12  -2  16  118.99   11.10
 -12  -2  16  128.19    8.90
  12  -2 -16  109.59   11.10
 -12   2  16  128.89   11.10
  12   2 -16  111.89    8.60
  12   2 -16  115.29    9.40
 -12   2  16  144.29   11.30
  11  -2 -16    8.70    7.10
 -11  -2  16   -4.40    5.40
 -11  -2  16   10.00    6.50
 -11  -2  16   11.60    7.80
  11  -2 -16   -1.50    6.50
  11   2 -16    1.90    4.60
 -11   2  16   -4.30    7.20
  11   2 -16    5.20    5.40
 -11   2  16    7.00    7.00
  10  -2 -16  114.89   10.20
 -10  -2  16   99.79    8.30
 -10  -2  16  100.19   10.20
  10  -2 -16  104.09    7.60
 -10  -2  16  113.49    9.70
  10   2 -16  109.49    8.90
 -10   2  16  139.69   10.30
 -10   2  16  116.09   10.40
  10   2 -16   97.29    7.90
  -9  -2  16   21.10    7.10
  -9  -2  16   24.80    5.90
   9  -2 -16   32.10    7.10
   9  -2 -16   12.70    6.10
  -9  -2  16   13.80    5.70
  -9   2  16   14.40    6.40
   9   2 -16   19.50    6.40
   9   2 -16   23.60    5.80
  -9   2  16   31.00    7.80
   8  -2 -16  103.69    7.70
   8  -2 -16   61.29    7.70
  -8  -2  16  104.79    9.30
  -8  -2  16   81.29    7.50
  -8  -2  16   69.29    7.50
   8   2 -16   90.59    8.20
  -8   2  16   85.79    7.80
  -8   2  16   75.09    7.50
   8   2 -16   80.39    7.20
  -7  -2  16   39.80    6.60
  -7  -2  16   44.00    6.20
   7  -2 -16   46.20    6.90
   7  -2 -16   49.40    7.10
   7   2 -16   45.90    5.10
   7   2 -16   49.30    7.00
  -7   2  16   55.29    7.90
  -6  -2  16   -4.40    5.50
   6  -2 -16    6.50    5.20
  -6  -2  16   -6.90    6.10
   6  -2 -16   -5.50    5.50
   6   2 -16    0.50    4.90
   6   2 -16   -5.90    5.20
  -6   2  16    4.00    6.00
   6   2 -16    3.80    5.10
   5  -2 -16  246.08   11.40
   5  -2 -16  238.58   12.50
  -5  -2  16  251.67   13.40
  -5  -2  16  252.67   13.10
  -5   2  16  241.78   12.80
  -5   2  16  248.78   11.80
   5   2 -16  248.38   11.60
   5   2 -16  236.18   10.00
   5   2 -16  247.08   11.80
  -4  -2  16    2.30    4.50
  -4  -2  16   16.10    4.90
   4  -2 -16    4.20    4.80
   4  -2 -16   14.90    6.10
   4   2 -16   12.10    5.30
   4   2 -16   12.30    4.80
  -4   2  16   14.30    5.30
  -4   2  16   12.50    4.70
   4   2 -16    0.50    5.30
   3  -2 -16  277.67   10.80
  -3  -2  16  296.17   13.90
  -3  -2  16  311.17   14.60
   3  -2 -16  284.17   13.20
  -3   2  16  287.07   11.80
  -3   2  16  268.47   13.00
   3   2 -16  296.97   12.20
   3   2 -16  298.37   12.30
  -2  -2  16    9.70    6.50
  -2  -2  16   20.20    6.60
   2  -2 -16    5.30    4.20
   2  -2 -16   11.90    4.50
  -2   2  16    5.70    4.50
   2   2 -16    4.80    5.30
  -2   2  16   11.50    5.80
  -2   2  16    9.10    4.10
   2   2 -16   15.50    4.30
  -1  -2  16   28.40    6.80
   1  -2 -16   30.80    6.40
   1  -2 -16   26.40    5.40
  -1  -2  16   27.30    7.30
   1   2 -16   48.90    6.40
   1   2 -16   24.80    6.20
  -1   2  16   23.70    4.70
  -1   2  16   25.00    5.10
   0  -2 -16   74.79    6.20
   0  -2  16   73.59    8.90
   0  -2  16   66.89    6.80
   0  -2  16   77.19    8.30
   0  -2 -16   81.59    7.10
   0   2  16   81.99    7.70
   0   2  16   75.49    5.70
   0   2 -16   89.19    7.40
   0   2 -16   77.39    6.50
   1  -2  16   37.40    6.50
  -1  -2 -16   34.30    7.10
   1  -2  16   42.50    8.20
   1  -2  16   36.40    6.90
  -1  -2 -16   24.80    6.00
  -1   2 -16   31.50    5.10
   1   2  16   22.70    5.60
  -1   2 -16   30.70    4.70
   1   2  16   33.40    6.10
   2  -2  16  187.88   12.30
  -2  -2 -16  188.38   11.60
   2  -2  16  210.28   10.90
   2  -2  16  211.98   12.50
  -2  -2 -16  171.58   11.10
   2   2  16  200.38   10.90
  -2   2 -16  185.68    9.80
   3  -2  16    0.50    6.70
   3  -2  16    4.40    6.00
  -3  -2 -16    0.60    6.60
  -3  -2 -16    7.30    6.20
   3  -2  16   -4.30    7.50
  -3   2 -16    0.60    6.00
   3   2  16    1.50    4.10
  -4  -2 -16   63.19    6.90
   4  -2  16   62.29    7.90
   4  -2  16   65.09    9.40
   4  -2  16   70.59    8.10
   4   2  16   72.99    8.90
  -4   2 -16   53.69    8.00
   4   2  16   75.59    8.10
  -4   2 -16   63.99    8.10
  -5  -2 -16    5.00    7.10
   5  -2  16    9.00    8.60
   5  -2  16    2.30    7.90
  -5  -2 -16    3.50    5.40
   5  -2  16   -2.40    4.20
  -5   2 -16    0.80    7.00
   5   2  16   10.40    6.80
  -5   2 -16    7.60    7.00
   5   2  16    3.50    7.10
  11  -3 -16   14.30    8.30
 -11  -3  16    5.70    6.50
 -11  -3  16   -0.60    7.80
 -11   3  16    8.40    7.20
  11   3 -16    1.40    6.20
 -11   3  16   -2.70    8.20
  11   3 -16    1.70    4.90
  10  -3 -16  -13.50    7.00
 -10  -3  16   -0.90    7.60
 -10  -3  16    1.50    6.50
 -10   3  16    0.20    6.20
  10   3 -16    1.40    6.60
  10   3 -16   -6.10    5.70
 -10   3  16   -9.40    7.50
   9  -3 -16    2.80    7.40
  -9  -3  16   19.30    8.00
   9  -3 -16   15.20    6.20
  -9  -3  16   22.20    6.80
   9   3 -16    7.90    6.30
   9   3 -16   18.90    7.00
  -9   3  16   14.60    6.00
  -9   3  16   12.90    6.60
   8  -3 -16   57.19    8.40
  -8  -3  16   53.99    7.30
   8  -3 -16   47.90    7.60
  -8  -3  16   56.19    6.50
   8   3 -16   52.89    7.30
   8   3 -16   48.80    7.30
  -8   3  16   59.39    9.20
   7  -3 -16   18.90    6.70
  -7  -3  16   17.60    5.80
   7  -3 -16   25.30    6.80
   7   3 -16   29.80    6.60
  -7   3  16   14.10    7.40
   7   3 -16   18.00    5.00
   6  -3 -16   43.60    7.60
  -6  -3  16   42.80    7.10
   6  -3 -16   34.50    7.40
  -6  -3  16   47.50    6.90
  -6   3  16   33.30    7.70
   6   3 -16   29.90    5.10
   6   3 -16   31.30    5.20
   5  -3 -16   11.60    6.00
   5  -3 -16    8.70    6.20
  -5  -3  16   24.40    7.40
  -5  -3  16   16.60    5.10
   5   3 -16   22.60    6.10
  -5   3  16    8.40    6.60
   5   3 -16   15.10    6.00
  -4  -3  16   -0.70    6.60
  -4  -3  16    3.80    6.40
   4  -3 -16   -4.00    4.30
   4  -3 -16    1.00    5.60
  -4   3  16   -6.00    4.20
   4   3 -16   -5.90    5.40
   4   3 -16    4.80    4.10
  -4   3  16   -5.50    6.00
   3  -3 -16    4.30    5.30
  -3  -3  16   17.40    7.10
   3  -3 -16    9.90    4.90
  -3  -3  16    7.30    7.00
  -3   3  16    8.60    4.60
   3   3 -16    2.40    4.00
  -3   3  16    4.00    4.40
   3   3 -16    4.50    5.60
  -2  -3  16    6.50    6.90
   2  -3 -16    8.30    6.40
  -2  -3  16    7.20    7.20
   2  -3 -16   10.20    5.30
   2   3 -16   10.80    5.70
   2   3 -16    5.30    5.60
  -2   3  16    8.70    6.00
  -2   3  16    4.80    3.80
   1  -3 -16   44.10    7.70
  -1  -3  16   44.30    7.00
  -1  -3  16   51.69    8.30
   1  -3 -16   34.50    6.10
  -1   3  16   51.49    7.00
  -1   3  16   49.50    6.50
   1   3 -16   51.29    7.00
   1   3 -16   55.89    6.70
   0  -3 -16    7.60    6.60
   0  -3  16   -4.70    7.20
   0  -3  16    4.60    6.70
   0  -3 -16   -2.70    5.00
   0   3  16   -1.20    5.40
   0   3 -16    6.50    5.40
   0   3 -16    2.40    6.00
   0   3  16   -1.90    5.20
   1  -3  16   28.70    8.60
   1  -3  16   30.30    7.60
  -1  -3 -16   29.20    6.50
  -1  -3 -16   25.80    6.00
  -1   3 -16   26.50    5.70
  -1   3 -16   40.80    7.00
   1   3  16   34.60    6.80
   2  -3  16    3.80    6.40
  -2  -3 -16   -3.20    5.80
  -2  -3 -16    0.10    6.90
   2  -3  16   11.70    7.00
  -2  -3 -16   -0.50    6.80
   2  -3  16    2.50    8.30
  -2   3 -16    2.20    4.50
   2   3  16    8.00    6.20
   3  -3  16    0.30    6.90
  -3  -3 -16    0.90    7.50
  -3  -3 -16    3.50    6.30
   3  -3  16    0.60    7.20
   3  -3  16  -13.50    8.00
  -3   3 -16   -1.40    7.00
   3   3  16    0.30    4.70
  -3   3 -16   -3.00    4.40
   4  -3  16    2.30    8.10
   4  -3  16   -2.00    6.90
  -4  -3 -16   -1.60    5.50
  -4  -3 -16    5.10    5.10
   4  -3  16   11.50    8.80
  -4   3 -16    4.60    5.10
  -4   3 -16   -3.50    4.50
   4   3  16    2.30    6.90
  -9  -4  16   20.60    7.60
  -9  -4  16   23.10    8.90
   9  -4 -16   38.80    9.10
   9   4 -16   33.10    7.70
   9   4 -16   19.50    7.10
  -9   4  16   34.20    9.00
  -8  -4  16   10.70    8.10
  -8  -4  16   18.00    7.40
   8  -4 -16   35.90    9.00
   8   4 -16   16.50    7.10
   8   4 -16   21.80    7.20
  -8   4  16   26.90    6.80
   7  -4 -16   32.40    8.60
  -7  -4  16   33.80    6.80
   7  -4 -16   34.60    7.60
   7   4 -16   35.80    5.80
  -7   4  16   39.50    8.80
   7   4 -16   43.50    7.80
  -6  -4  16   75.39    8.20
   6  -4 -16   71.19    8.60
   6  -4 -16   76.29    9.60
   6   4 -16   72.39    8.20
   6   4 -16   78.29    8.40
  -6   4  16   64.19    7.20
  -6   4  16   80.39    9.50
   5  -4 -16   14.10    5.10
  -5  -4  16   17.90    7.00
  -5  -4  16   32.20    8.40
   5  -4 -16    8.70    6.90
   5   4 -16   14.20    6.60
  -5   4  16   15.70    7.40
  -5   4  16   26.00    6.00
   5   4 -16   34.20    7.00
  -4  -4  16   54.49    8.60
   4  -4 -16   58.99    8.50
   4  -4 -16   57.59    8.10
  -4  -4  16   64.29    9.60
   4   4 -16   53.69    7.40
   4   4 -16   44.40    7.50
  -4   4  16   59.49    7.30
  -4   4  16   65.19    8.40
  -3  -4  16    2.90    7.10
  -3  -4  16   -4.50    7.10
   3  -4 -16  -13.10    6.40
   3  -4 -16    6.80    6.10
   3  -4 -16    8.10    6.20
  -3   4  16   -5.80    6.10
   3   4 -16   -8.30    5.50
   3   4 -16    1.40    6.00
  -3   4  16   -2.70    5.50
  -2  -4  16   63.39    9.70
   2  -4 -16   72.89    8.50
   2  -4 -16   68.39    8.70
  -2  -4  16   77.79    9.40
   2  -4 -16   67.59    9.30
   2   4 -16   76.99    8.40
  -2   4  16   67.89    7.60
   2   4 -16   56.59    7.20
  -2   4  16   76.69    8.30
   1  -4 -16   15.80    7.40
  -1  -4  16    3.30    7.90
   1  -4 -16    4.80    6.10
   1  -4 -16   -2.20    6.80
  -1  -4  16   14.90    7.80
   1   4 -16    9.10    6.40
   1   4 -16    2.30    5.50
  -1   4  16   10.40    6.10
  -1   4  16    1.80    4.30
   0  -4 -16   22.20    7.80
   0  -4 -16   26.20    6.80
   0  -4  16   11.30    8.40
   0  -4  16   12.20    8.00
   0   4  16   28.00    7.00
   0   4 -16   29.20    5.60
   1  -4  16   49.80    7.80
   1  -4  16   58.59    7.60
  -1  -4 -16   38.90    8.70
  -1   4 -16   60.09    6.80
   1   4  16   43.00    7.90
   2  -4  16   -3.40    8.60
   2  -4  16    6.10    8.00
  -2  -4 -16  -17.10    7.30
   2   4  16   -5.90    6.50
  -2   4 -16    0.20    4.80
  12   0 -17   -3.80    6.20
 -12   0  17   -7.80    4.40
 -12   0  17   -6.70    7.50
 -11   0  17    1.40    6.90
 -11   0  17  -11.60    7.30
  11   0 -17    0.80    6.40
  10   0 -17   -5.50    4.20
  10   0 -17    4.20    5.70
 -10   0  17   -2.50    6.90
 -10   0  17    2.50    6.70
   9   0 -17   -7.40    5.80
  -9   0  17   -3.30    4.60
   9   0 -17   -0.50    5.20
  -9   0  17    3.60    4.80
   8   0 -17   -8.70    5.60
   8   0 -17   -7.60    4.40
  -8   0  17    2.80    6.60
  -8   0  17   -7.20    6.30
   7   0 -17    1.20    4.00
   7   0 -17   -0.90    4.10
  -7   0  17    6.00    6.60
  -7   0  17    0.20    4.50
   6   0 -17   -1.90    4.10
  -6   0  17    1.50    6.30
   6   0 -17    5.50    4.50
  -6   0  17    1.50    6.20
  -5   0  17   -0.90    5.90
  -5   0  17   -2.70    6.00
   5   0 -17   -2.90    3.50
   5   0 -17   -2.00    3.80
   5   0 -17    1.90    4.50
   4   0 -17    1.00    5.40
   4   0 -17    0.80    4.60
  -4   0  17    6.80    6.40
  -4   0  17   -9.30    5.60
   4   0 -17    4.10    5.20
  -3   0  17   -0.80    6.10
   3   0 -17   -1.20    5.50
   3   0 -17   -0.50    3.30
  -3   0  17    2.80    5.60
  -2   0  17   -3.70    5.80
   2   0 -17   -2.00    4.80
   2   0 -17    0.20    5.50
  -2   0  17    4.30    5.50
  -1   0  17    2.10    5.20
   1   0 -17   -4.20    5.10
  -1   0  17   -8.70    6.10
   1   0 -17    2.00    5.80
   0   0 -17   -1.00    5.50
   0   0 -17    4.80    5.90
   0   0  17   -0.50    5.10
   0   0  17   -1.90    6.40
   1   0  17   -3.10    4.60
   1   0  17   -4.60    4.70
  -1   0 -17   -3.10    5.80
  -1   0 -17   -1.90    5.90
   2   0  17  -12.80    6.70
  -2   0 -17    9.30    5.90
  -2   0 -17    2.30    4.20
  -3   0 -17    1.30    6.10
   3   0  17    8.20    7.70
  -3   0 -17   -5.70    6.20
   4   0  17    7.80    7.80
  -4   0 -17    5.90    6.70
  -4   0 -17    5.30    6.10
   5   0  17    4.10    8.30
  -5   0 -17    2.10    5.40
  -5   0 -17   -3.90    6.00
 -12  -1  17   59.59    9.50
 -12  -1  17   34.90    7.80
  12  -1 -17   39.70    8.20
  12  -1 -17   38.60    7.40
 -12   1  17   39.60    8.90
  12   1 -17   49.50    6.30
 -12   1  17   54.29    8.70
  11  -1 -17    1.50    6.40
 -11  -1  17   -2.40    6.60
  11  -1 -17   13.60    6.40
 -11  -1  17    6.10    5.60
  11   1 -17   22.30    6.60
 -11   1  17    0.90    7.40
 -11   1  17    7.30    5.40
  10  -1 -17   18.30    5.00
 -10  -1  17   27.60    7.60
 -10  -1  17   23.20    8.40
  10  -1 -17   22.50    6.90
 -10   1  17   16.50    7.70
  10   1 -17   36.00    7.10
  10   1 -17   29.60    5.50
  -9  -1  17   91.79    9.70
  -9  -1  17   97.79    8.20
   9  -1 -17   95.39    8.30
   9  -1 -17  105.59    8.90
  -9   1  17   95.39    9.60
   9   1 -17   83.99    7.20
   9   1 -17   86.29    7.00
  -8  -1  17   -0.40    6.70
   8  -1 -17   -1.80    6.00
  -8  -1  17    2.80    6.70
   8  -1 -17   -1.60    5.20
  -8   1  17   10.30    7.00
   8   1 -17    8.80    5.00
  -8   1  17   -0.60    4.50
   8   1 -17   -2.80    5.90
  -7  -1  17   62.79    8.40
   7  -1 -17   60.19    6.80
   7  -1 -17   50.79    6.20
  -7  -1  17   57.19    8.30
   7   1 -17   52.99    7.40
   7   1 -17   39.20    5.90
  -7   1  17   53.29    6.40
  -7   1  17   50.19    6.50
   6  -1 -17   15.60    5.00
  -6  -1  17   17.00    7.00
   6  -1 -17   18.00    4.80
  -6  -1  17   11.50    6.90
   6   1 -17   12.70    6.00
  -6   1  17   12.10    6.20
   6   1 -17   25.60    5.60
  -6   1  17   13.80    4.80
   5  -1 -17   44.10    5.20
  -5  -1  17   55.09    6.40
  -5  -1  17   64.69    7.70
  -5  -1  17   62.79    8.20
   5  -1 -17   45.00    6.00
  -5   1  17   51.89    6.40
   5   1 -17   41.60    6.60
   5   1 -17   51.79    7.10
   5   1 -17   54.39    6.40
  -5   1  17   54.09    7.30
  -4  -1  17   37.80    7.10
   4  -1 -17   23.70    4.00
   4  -1 -17   38.80    5.50
  -4  -1  17   33.20    7.20
  -4  -1  17   38.20    7.40
   4   1 -17   33.80    5.90
  -4   1  17   29.10    7.00
   4   1 -17   25.70    4.90
  -4   1  17   36.20    6.60
   4   1 -17   31.10    5.80
  -3  -1  17   17.60    6.60
  -3  -1  17   17.00    6.50
   3  -1 -17   13.10    6.00
   3  -1 -17   14.90    4.80
   3   1 -17   13.70    5.00
  -3   1  17    9.10    6.30
  -3   1  17   13.20    5.50
   3   1 -17   17.20    5.60
   3   1 -17   17.20    5.90
   2  -1 -17   14.90    6.10
   2  -1 -17   18.00    5.30
  -2  -1  17   12.20    6.20
  -2  -1  17   12.70    6.80
  -2   1  17    7.20    5.20
   2   1 -17    7.60    5.30
   2   1 -17    9.10    4.30
  -2   1  17   12.80    6.40
  -1  -1  17   10.70    7.00
   1  -1 -17    6.40    5.30
   1  -1 -17    5.40    6.10
  -1  -1  17    9.50    6.00
   1   1 -17    9.70    5.90
   1   1 -17    1.90    5.40
  -1   1  17    8.00    6.10
  -1   1  17    9.80    4.90
   0  -1 -17   71.49    7.20
   0  -1 -17   68.89    6.90
   0  -1  17   53.19    8.40
   0  -1  17   79.29    8.10
   0   1 -17   67.79    7.40
   0   1  17   65.89    6.60
   0   1 -17   73.69    7.50
   1  -1  17    5.80    6.00
  -1  -1 -17   10.80    5.80
   1  -1  17   -9.20    6.70
  -1  -1 -17   -2.00    6.10
  -1   1 -17   -2.10    5.80
  -1   1 -17   -6.80    5.30
  -2  -1 -17    2.70    6.40
   2  -1  17    2.80    7.30
  -2  -1 -17    6.50    6.00
   2  -1  17    1.60    5.60
  -2   1 -17    2.60    4.60
   2   1  17   11.50    7.30
  -2   1 -17    4.90    5.80
  -3  -1 -17    4.00    6.50
   3  -1  17    4.50    7.80
  -3  -1 -17    1.60    4.70
   3  -1  17    6.50    5.70
   3   1  17    4.40    5.30
  -3   1 -17    5.50    4.20
   3   1  17   16.60    5.70
  -3   1 -17    4.00    4.60
  -4  -1 -17    0.30    6.50
   4  -1  17    3.80    7.60
  -4  -1 -17   15.60    7.30
   4  -1  17    8.00    5.90
   4   1  17    9.00    6.10
  -4   1 -17   -7.80    6.50
  -4   1 -17   -0.50    5.70
   4   1  17    5.50    7.70
  -5  -1 -17   19.30    5.80
   5  -1  17   35.50    9.50
  -5  -1 -17   26.10    7.40
   5  -1  17   40.60    9.20
   5   1  17   24.70    8.50
   5   1  17   18.40    6.80
  -5   1 -17   22.30    7.60
 -11  -2  17   16.50    7.20
  11  -2 -17   14.30    6.70
 -11  -2  17   18.20    8.60
 -11  -2  17   13.90    6.20
  11  -2 -17    3.30    7.20
  11   2 -17   21.60    6.20
 -11   2  17   15.40    6.40
 -11   2  17   10.10    7.30
  11   2 -17   23.80    7.30
  10  -2 -17   49.20    7.50
 -10  -2  17   48.50    7.20
  10  -2 -17   62.09    8.60
 -10  -2  17   36.50    8.90
 -10  -2  17   48.40    8.10
 -10   2  17   50.39    9.10
  10   2 -17   38.70    7.70
 -10   2  17   57.59    8.30
  10   2 -17   41.40    6.60
  -9  -2  17   -5.60    5.40
  -9  -2  17    3.50    5.30
   9  -2 -17   -4.50    6.00
   9  -2 -17   -8.00    6.10
   9   2 -17    1.30    6.40
   9   2 -17    3.30    5.40
  -9   2  17   -3.70    5.90
  -9   2  17    2.30    7.30
  -8  -2  17   -2.90    7.20
   8  -2 -17   -3.40    6.00
   8  -2 -17    0.40    6.20
   8   2 -17    5.80    4.40
   8   2 -17    0.90    5.50
  -8   2  17    7.50    7.10
   7  -2 -17   -4.40    5.90
  -7  -2  17   -1.10    5.00
  -7  -2  17    4.50    4.30
   7  -2 -17    0.00    5.60
  -7   2  17   -1.30    6.80
   7   2 -17    0.10    5.30
   7   2 -17    0.40    5.90
  -6  -2  17    1.60    4.70
   6  -2 -17    6.70    6.60
  -6  -2  17  -10.90    5.70
   6  -2 -17    4.60    5.30
  -6   2  17   -5.10    5.60
  -6   2  17    1.30    6.60
   6   2 -17    2.10    5.70
   6   2 -17   -0.60    5.20
   5  -2 -17   66.49    6.90
  -5  -2  17   72.39    8.50
  -5  -2  17   85.49    9.20
   5  -2 -17   70.29    7.40
   5   2 -17   76.89    6.70
  -5   2  17   65.29    8.40
   5   2 -17   73.29    7.50
   5   2 -17   52.69    6.80
  -5   2  17   84.59    7.80
  -4  -2  17   -1.30    6.60
  -4  -2  17    2.40    4.60
   4  -2 -17    8.70    6.50
   4  -2 -17   -6.60    5.40
   4   2 -17   -1.90    5.40
  -4   2  17   -1.40    3.80
  -4   2  17   -1.30    6.20
   4   2 -17   -2.60    5.70
  -3  -2  17   56.99    7.00
  -3  -2  17   63.59    8.30
   3  -2 -17   76.99    8.50
  -3   2  17   59.89    5.80
   3   2 -17   57.09    5.90
   3   2 -17   63.39    7.40
  -3   2  17   66.99    7.00
  -2  -2  17    0.10    6.50
   2  -2 -17   -6.10    6.00
  -2  -2  17    9.80    7.30
   2  -2 -17    3.30    4.60
  -2   2  17   -2.70    5.80
   2   2 -17    2.60    5.70
   2   2 -17   -2.40    5.60
  -2   2  17   -3.00    5.10
  -1  -2  17   -1.70    4.50
   1  -2 -17    5.00    4.50
   1  -2 -17    6.00    5.30
  -1  -2  17    8.20    7.30
   1   2 -17    0.80    5.60
   1   2 -17    2.50    5.60
  -1   2  17   -1.60    5.90
   0  -2 -17    9.10    6.40
   0  -2  17    5.70    7.50
   0  -2  17   -0.10    4.40
   0  -2 -17    7.90    5.60
   0   2  17    7.80    5.00
   0   2 -17    4.70    4.10
   0   2 -17    7.00    6.00
   0   2  17   -1.30    5.70
  -1  -2 -17    3.70    6.70
   1  -2  17    8.30    6.60
   1  -2  17  -11.40    7.30
  -1  -2 -17    5.50    5.90
   1  -2  17    2.40    5.80
   1   2  17    9.90    5.90
   1   2  17   -2.90    5.10
  -1   2 -17   -1.50    4.10
  -1   2 -17  -11.50    5.30
   2  -2  17   12.60    6.10
   2  -2  17   12.00    6.60
   2  -2  17   10.40    7.00
  -2  -2 -17    4.00    6.30
  -2  -2 -17    8.80    7.10
  -2   2 -17    1.90    6.40
   2   2  17    2.60    5.80
  -2   2 -17   10.90    5.70
   3  -2  17   -7.90    6.20
   3  -2  17    4.20    6.00
  -3  -2 -17   -3.20    7.00
  -3  -2 -17    2.70    4.70
   3  -2  17    0.70    7.30
   3   2  17    5.70    6.00
  -3   2 -17    2.30    6.60
  -4  -2 -17    4.20    6.90
   4  -2  17   -1.90    7.70
   4  -2  17    2.50    8.30
   4  -2  17   -6.60    6.30
   4   2  17   -6.90    7.00
  -4   2 -17   -2.50    6.80
   4   2  17   -0.10    6.40
 -10  -3  17   12.80    6.20
  10  -3 -17   -6.30    7.70
 -10  -3  17    2.50    4.60
  10   3 -17    4.00    6.90
 -10   3  17    3.70    8.20
  10   3 -17    7.50    4.60
  -9  -3  17   -5.50    8.00
   9  -3 -17    1.80    5.20
  -9  -3  17   -4.50    6.20
   9  -3 -17    6.80    6.60
   9   3 -17    3.50    6.60
   9   3 -17    2.90    4.50
  -9   3  17  -11.00    7.50
  -8  -3  17   97.89   10.70
   8  -3 -17  100.69    9.90
   8  -3 -17   98.59    9.60
  -8   3  17  117.79   10.90
   8   3 -17   93.59    7.70
   8   3 -17  108.39    7.70
   7  -3 -17   -4.30    4.40
   7  -3 -17    5.60    6.70
  -7  -3  17  -10.10    7.70
   7   3 -17    2.60    6.10
   7   3 -17    8.30    6.50
  -7   3  17    0.60    5.30
  -6  -3  17   91.89    9.20
   6  -3 -17   89.59    9.20
   6  -3 -17  115.79    9.90
  -6  -3  17  113.79   10.80
   6   3 -17  117.59    9.10
  -6   3  17  121.29    9.00
   6   3 -17  121.99    9.20
   5  -3 -17    0.40    5.90
  -5  -3  17   -2.90    5.20
  -5  -3  17    4.80    4.90
   5  -3 -17    1.50    6.60
   5   3 -17   -0.60    6.00
  -5   3  17    0.80    4.70
   5   3 -17   -4.30    4.00
  -4  -3  17   29.30    7.80
  -4  -3  17   17.50    7.60
   4  -3 -17   22.10    6.40
   4  -3 -17   17.00    7.10
   4   3 -17   21.50    6.50
  -4   3  17   29.70    7.50
  -4   3  17   28.40    7.30
   4   3 -17   31.40    5.30
   3  -3 -17   42.20    8.10
   3  -3 -17   42.50    6.70
  -3  -3  17   38.10    8.20
  -3  -3  17   41.60    9.00
   3   3 -17   35.20    7.10
   3   3 -17   50.19    7.20
  -3   3  17   39.00    7.60
  -2  -3  17    7.00    7.30
  -2  -3  17   -0.20    7.70
   2  -3 -17   -4.80    6.60
  -2   3  17    3.10    6.00
  -2   3  17    1.50    5.10
   2   3 -17    8.70    6.00
   2   3 -17    1.90    6.00
  -1  -3  17   48.20    7.50
   1  -3 -17   50.19    8.30
  -1  -3  17   55.79    7.20
  -1   3  17   39.50    7.10
   1   3 -17   74.49    8.00
  -1   3  17   63.59    7.10
   1   3 -17   57.79    6.10
   0  -3  17    6.40    5.90
   0  -3  17    5.40    7.30
   0  -3 -17    6.60    5.00
   0   3  17   11.00    6.10
   0   3 -17    3.70    4.10
   0   3 -17   12.60    6.70
   0   3  17    3.30    5.90
   1  -3  17   86.39    9.60
  -1  -3 -17   72.29    9.50
  -1  -3 -17   74.99    8.20
   1  -3  17   79.09   10.40
   1   3  17   66.49    6.50
  -1   3 -17   81.09    8.70
   2  -3  17    8.50    8.70
   2  -3  17    6.20    7.30
  -2  -3 -17    2.00    6.50
  -2  -3 -17    0.00    7.30
   2   3  17    1.70    6.50
  -2   3 -17    1.30    4.60
  -3  -3 -17    2.80    7.00
   3  -3  17   -7.10    7.50
  -3   3 -17    1.30    5.00
  -3   3 -17    6.50    7.50
  -7  -4  17   -4.90    7.90
   7  -4 -17   -2.10    4.90
   7  -4 -17    9.50    7.80
  -7   4  17   -5.90    7.70
   7   4 -17    3.40    6.60
   7   4 -17    0.40    6.70
  -6  -4  17   30.60    9.00
   6  -4 -17   40.30    8.20
   6  -4 -17   28.60    8.30
  -6   4  17   23.90    8.20
   6   4 -17   31.40    7.60
   6   4 -17   37.50    6.10
   5  -4 -17    2.40    6.80
   5  -4 -17   10.60    5.50
  -5  -4  17    6.60    8.50
  -5  -4  17   22.30    8.90
   5   4 -17    4.00    6.50
   5   4 -17    4.90    6.70
  -5   4  17   -2.40    7.10
  -4  -4  17    9.80    8.00
  -4  -4  17   23.10    8.20
   4  -4 -17   27.00    7.70
   4  -4 -17   14.60    7.50
   4   4 -17   21.30    6.80
  -4   4  17   24.60    7.50
  -4   4  17   16.40    5.90
   4   4 -17   25.10    7.10
  -3  -4  17   23.40    6.70
   3  -4 -17   20.70    7.40
   3  -4 -17   29.50    7.40
  -3  -4  17   42.90    9.20
   3  -4 -17   21.40    8.10
  -3   4  17   32.30    6.10
   3   4 -17   31.40    7.50
  -3   4  17   27.20    6.40
   3   4 -17   35.40    7.10
  -2  -4  17   18.10    8.40
   2  -4 -17   14.90    7.50
   2  -4 -17   13.20    8.10
  -2  -4  17   10.60    8.50
   2  -4 -17   21.50    6.90
  -2   4  17   24.40    6.80
  -2   4  17   17.10    6.70
   2   4 -17   17.00    6.40
   2   4 -17   10.60    6.80
   1  -4 -17   -5.20    6.90
   1  -4 -17   -4.10    7.50
  -1  -4  17  -10.30    8.10
  -1  -4  17   -0.50    5.40
   1  -4 -17   -3.50   10.10
   1   4 -17    1.40    5.70
   1   4 -17    4.80    6.60
  -1   4  17    0.20    6.20
   0  -4  17   -2.10    7.90
   0  -4  17   -1.80    8.40
   0  -4 -17    9.20    7.70
   0   4  17   -1.40    6.40
   0   4 -17    0.70    6.80
 -11   0  18    8.20    7.40
  11   0 -18   12.00    7.00
 -11   0  18    3.40    8.10
  11   0 -18   17.50    6.60
  10   0 -18  145.89   10.40
 -10   0  18  143.19   11.40
  10   0 -18  162.48   10.90
 -10   0  18  132.19   10.80
  -9   0  18   73.79    9.10
   9   0 -18   58.29    8.00
  -9   0  18   59.89    9.20
  -8   0  18   49.80    8.50
  -8   0  18   49.60    6.90
   8   0 -18   35.60    7.50
   7   0 -18   18.10    5.00
  -7   0  18   24.40    7.80
  -7   0  18   17.70    7.30
   7   0 -18   14.10    6.60
  -6   0  18  109.49    9.70
   6   0 -18   83.09    8.50
   6   0 -18   76.49    6.90
  -6   0  18   94.09    9.50
   5   0 -18  121.19    8.10
  -5   0  18  158.88   11.00
  -5   0  18  141.49    9.90
   5   0 -18  149.59    9.90
   4   0 -18    6.50    5.10
  -4   0  18   12.70    6.60
   4   0 -18   15.70    6.40
  -4   0  18   17.40    7.20
  -3   0  18   51.79    7.60
   3   0 -18   56.39    7.60
   3   0 -18   45.10    5.30
  -3   0  18   45.90    8.10
   2   0 -18   15.00    6.50
  -2   0  18   16.20    6.30
   2   0 -18   21.30    6.10
   1   0 -18  246.08   13.30
  -1   0  18  248.18   13.00
  -1   0  18  248.18   14.60
   1   0 -18  265.97   12.50
   0   0 -18   59.09    7.80
   0   0  18   46.90    7.00
   0   0 -18   48.00    7.30
   0   0  18   58.59    8.70
  -1   0 -18   14.10    6.80
   1   0  18   32.10    6.50
  -1   0 -18   19.50    6.90
   2   0  18   64.99    9.60
  -2   0 -18   35.60    7.30
  -2   0 -18   54.29    8.00
   3   0  18   11.60    8.20
  -3   0 -18    4.40    6.60
  -3   0 -18    7.30    7.10
  -4   0 -18   44.80    6.80
 -11  -1  18   -4.40    6.90
 -11  -1  18   20.70    6.60
  11  -1 -18    1.80    6.70
  11  -1 -18    3.70    6.60
  11   1 -18   14.30    7.10
 -11   1  18    9.10    5.80
  10  -1 -18   14.70    6.70
  10  -1 -18    5.30    4.80
 -10  -1  18    8.10    8.00
 -10  -1  18   21.30    7.80
 -10   1  18    2.10    7.60
 -10   1  18    5.10    7.70
  10   1 -18   10.20    5.10
   9  -1 -18    7.80    6.20
  -9  -1  18   19.50    6.00
   9  -1 -18   20.50    7.20
  -9  -1  18   11.50    8.00
   9   1 -18   16.00    7.00
  -9   1  18   16.70    5.80
  -9   1  18    9.20    7.50
   9   1 -18   15.90    5.60
   8  -1 -18   11.80    5.90
   8  -1 -18   15.60    6.80
  -8  -1  18   13.80    7.70
  -8  -1  18   21.90    8.00
  -8   1  18   23.90    7.60
  -8   1  18   20.60    7.50
   8   1 -18   18.90    5.70
   8   1 -18   24.10    7.00
   7  -1 -18  136.99    9.30
  -7  -1  18  131.79   10.90
  -7  -1  18  122.29   10.60
   7   1 -18  129.89    9.00
   7   1 -18  127.59    8.40
  -7   1  18  117.19   10.00
   6  -1 -18   23.30    7.10
  -6  -1  18   18.40    7.00
  -6  -1  18   25.20    7.90
  -6  -1  18   35.00    8.00
  -6   1  18   23.00    7.40
   6   1 -18   40.90    5.70
  -6   1  18   37.00    7.40
   6   1 -18   36.10    6.10
   5  -1 -18   83.59    8.60
  -5  -1  18   79.19    9.30
  -5  -1  18   84.69    8.00
  -5  -1  18   89.29    9.10
   5   1 -18   76.39    7.30
  -5   1  18   69.89    8.20
  -5   1  18   68.79    8.70
   5   1 -18   88.29    7.30
   4  -1 -18    0.50    4.50
  -4  -1  18   -2.10    6.60
  -4  -1  18    7.00    6.70
   4  -1 -18    2.10    4.70
   4   1 -18    2.60    6.00
   4   1 -18    2.60    5.40
  -4   1  18   -3.20    6.50
  -4   1  18   -1.00    4.10
  -3  -1  18   -3.40    4.70
  -3  -1  18    5.80    6.40
   3  -1 -18    0.20    6.30
   3  -1 -18   -2.00    4.80
  -3   1  18    1.20    4.60
   3   1 -18    1.80    5.90
   3   1 -18   -7.60    5.30
  -3   1  18   -5.70    5.60
  -2  -1  18   29.10    7.10
  -2  -1  18   33.70    6.30
   2  -1 -18   33.80    7.50
   2  -1 -18   26.00    6.00
   2   1 -18   36.70    7.00
  -2   1  18   42.40    6.70
  -2   1  18   33.00    7.50
   2   1 -18   30.60    6.80
  -1  -1  18   13.30    5.60
  -1  -1  18   -2.40    6.20
   1  -1 -18    6.80    4.80
   1  -1 -18   13.40    4.40
   1   1 -18   -5.50    6.00
  -1   1  18    7.20    6.50
  -1   1  18    1.20    5.10
   1   1 -18    9.20    4.50
   0  -1  18   17.50    7.80
   0  -1  18   26.00    7.10
   0  -1 -18   15.00    6.20
   0  -1 -18   11.90    6.90
   0   1 -18   17.20    6.40
   0   1 -18   32.20    7.00
   1  -1  18   41.40    7.20
  -1  -1 -18   30.70    6.90
  -1  -1 -18   30.10    7.50
   1  -1  18   41.10    8.80
  -1   1 -18   33.20    7.00
   1   1  18   37.80    8.50
  -1   1 -18   30.10    7.20
  -2  -1 -18   -3.40    6.50
   2  -1  18    8.70    4.60
  -2  -1 -18    5.30    5.00
   2  -1  18   -7.80    7.70
  -2   1 -18   10.20    5.10
  -2   1 -18    5.50    6.20
   2   1  18   -9.70    7.20
   3  -1  18    9.60    7.40
  -3  -1 -18   11.00    7.40
   3  -1  18   -1.60    5.80
  -3  -1 -18    1.80    6.90
   3   1  18    5.20    6.00
  -3   1 -18    5.20    6.30
  -3   1 -18   -2.30    6.80
  10  -2 -18    4.30    6.90
 -10  -2  18   14.90    6.30
 -10  -2  18    7.10    6.40
  10  -2 -18    3.60    6.80
  10   2 -18    8.20    5.90
 -10   2  18   19.90    8.70
  10   2 -18    7.00    7.00
   9  -2 -18   33.20    6.00
  -9  -2  18   40.80    9.30
   9  -2 -18   42.30    7.70
   9   2 -18   38.20    6.80
  -9   2  18   38.50    8.80
   9   2 -18   33.80    7.70
   8  -2 -18   12.30    6.70
   8  -2 -18   16.70    7.10
  -8  -2  18   17.30    8.30
   8   2 -18   25.60    7.20
   8   2 -18   13.70    6.10
  -8   2  18    7.50    5.60
   7  -2 -18   60.29    7.60
  -7  -2  18   70.99    9.70
  -7  -2  18   83.59    8.90
   7  -2 -18   71.59    7.40
  -7   2  18   76.89    9.60
   7   2 -18   76.09    7.80
  -7   2  18   64.89    7.00
   7   2 -18   56.79    8.00
  -6  -2  18   40.10    6.90
   6  -2 -18   33.10    6.50
  -6  -2  18   43.90    8.20
   6  -2 -18   23.80    7.40
   6   2 -18   25.90    6.40
  -6   2  18   40.90    8.30
   6   2 -18   46.30    7.40
  -6   2  18   31.40    7.10
   5  -2 -18    2.20    6.80
  -5  -2  18   13.90    7.30
  -5  -2  18    2.20    7.20
   5   2 -18    9.80    5.90
  -5   2  18    7.20    6.20
  -5   2  18   11.40    7.20
   5   2 -18    6.50    6.50
  -4  -2  18  110.49   10.30
   4  -2 -18  108.59    9.80
  -4  -2  18  111.99   10.40
   4   2 -18  116.49    9.10
   4   2 -18   96.59    8.50
  -4   2  18  118.19    8.70
  -4   2  18   95.69    8.40
   3  -2 -18    5.90    5.10
  -3  -2  18    2.30    7.30
  -3  -2  18    9.30    7.50
   3   2 -18   10.40    6.10
  -3   2  18    8.10    5.70
  -3   2  18    9.70    6.70
   3   2 -18   12.90    4.90
  -2  -2  18  155.88   10.60
   2  -2 -18  117.79    8.80
  -2  -2  18  126.39   11.10
   2   2 -18  132.99    9.10
   2   2 -18  142.79    9.80
  -2   2  18  138.79    9.80
  -1  -2  18   13.70    6.20
   1  -2 -18    7.30    5.70
  -1  -2  18   16.60    7.60
   1  -2 -18    4.70    6.80
   1   2 -18   14.10    6.70
  -1   2  18    7.40    6.60
   1   2 -18    7.50    6.10
   0  -2 -18   61.09    7.60
   0  -2  18   53.99    8.30
   0  -2 -18   50.59    8.60
   0  -2  18   51.09    7.80
   0   2  18   63.19    7.90
   0   2 -18   43.60    7.70
   0   2 -18   52.79    7.30
  -1  -2 -18   56.59    6.60
  -1  -2 -18   54.49    8.80
   1  -2  18   52.89    8.40
   1  -2  18   59.59    8.00
  -1   2 -18   65.29    6.90
   2  -2  18   17.70    7.50
   2  -2  18   10.90    7.10
   2  -2  18    6.30    8.60
  -2  -2 -18   16.50    7.10
  -2  -2 -18    6.20    7.50
  -2   2 -18    7.10    6.90
  -2   2 -18   17.30    6.30
   8  -3 -18   16.20    7.50
  -8  -3  18   10.10    8.70
   8  -3 -18   17.80    5.60
  -8   3  18   12.30    8.20
   8   3 -18   19.00    6.90
   8   3 -18   12.50    7.40
  -7  -3  18   23.10    8.90
   7  -3 -18   22.70    6.00
   7  -3 -18   14.90    7.50
  -7   3  18   19.50    8.20
   7   3 -18   14.90    5.10
   7   3 -18   23.10    7.20
  -6  -3  18   19.80    7.30
   6  -3 -18    9.90    6.70
   6  -3 -18   21.80    7.70
  -6  -3  18   21.30    8.70
  -6   3  18   17.80    7.90
   6   3 -18   17.90    7.00
  -6   3  18   13.50    6.60
   6   3 -18   18.70    6.80
   5  -3 -18   16.40    6.60
   5  -3 -18   12.50    5.60
  -5  -3  18   15.00    7.60
  -5  -3  18    5.70    8.00
   5   3 -18   11.30    6.70
  -5   3  18   13.30    7.70
  -5   3  18   14.10    4.60
   5   3 -18   13.60    6.60
  -4  -3  18    3.80    5.50
  -4  -3  18   10.70    7.90
   4  -3 -18   18.90    7.70
   4  -3 -18    3.50   10.20
   4   3 -18    7.30    4.90
   4   3 -18    9.40    6.60
  -4   3  18    3.60    7.00
  -3  -3  18    6.60    7.90
  -3  -3  18   -2.40    5.50
   3  -3 -18   -9.30    6.70
   3   3 -18   -6.30    4.20
   3   3 -18   -1.20    6.40
  -3   3  18   -3.10    6.50
  -2  -3  18   -7.20    8.00
  -2  -3  18    1.40    5.40
   2  -3 -18   -5.20    7.40
   2   3 -18   -6.80    6.20
   2   3 -18    3.30    6.20
  -2   3  18    6.00    6.70
  -1  -3  18   14.60    9.00
   1  -3 -18   17.70    6.00
  -1  -3  18   27.90    8.50
  -1   3  18   11.90    6.60
   1   3 -18   10.50    6.30
   1   3 -18    6.70    6.90
   0  -3 -18    9.40    7.70
   0  -3  18   11.20    7.80
   0  -3  18    4.10    6.30
   0   3  18    4.20    6.60
   0   3  18   -3.40    6.00
   0   3 -18   10.70    7.00
   0   3 -18    6.90    6.10
  -1  -3 -18    6.90    7.90
  -1   3 -18   -4.80    6.50
  10   0 -19    2.50    7.00
 -10   0  19   -4.70    5.10
 -10   0  19    0.60    8.00
  -9   0  19   -7.10    7.30
   9   0 -19   -6.10    4.70
  -9   0  19    2.40    7.70
  -8   0  19   -6.20    5.10
   8   0 -19   -1.50    6.70
  -8   0  19    1.50    7.60
  -7   0  19    4.20    7.80
   7   0 -19    7.70    6.80
  -7   0  19   -6.50    7.10
   6   0 -19    4.90    6.60
   6   0 -19   -4.60    4.80
  -6   0  19   -2.20    7.00
  -6   0  19   -7.20    7.50
   5   0 -19   -3.20    5.10
  -5   0  19   -1.40    6.70
  -5   0  19    2.80    7.40
   5   0 -19    3.70    6.50
   4   0 -19    2.80    6.60
  -4   0  19   -7.90    6.50
   4   0 -19    0.80    5.40
  -4   0  19   -0.50    5.00
   3   0 -19    5.00    6.70
   3   0 -19   -3.50    5.50
  -3   0  19   -4.40    6.40
  -3   0  19  -11.30    6.70
  -2   0  19   -1.90    6.20
  -2   0  19   -7.80    5.00
   2   0 -19   -8.20    5.60
   2   0 -19   -1.50    6.40
  -1   0  19   -1.60    7.40
   1   0 -19   -5.90    4.10
   1   0 -19   -6.30    6.60
  -1   0  19    4.10    6.30
   0   0 -19   -6.70    6.70
   0   0  19    3.80    5.90
   0   0 -19   -8.30    6.30
   0   0  19   14.40    8.30
   1   0  19    4.40    8.10
  -1   0 -19   -1.10    4.60
  -1   0 -19    3.00    4.90
   2   0  19    6.50    6.20
  -2   0 -19    2.00    4.90
  -2   0 -19    6.60    7.40
 -10  -1  19   35.00    8.80
 -10   1  19   24.70    8.50
  -9  -1  19   30.30    8.90
  -9  -1  19   26.00    6.60
   9  -1 -19   27.30    7.80
  -9   1  19   11.70    8.20
   9   1 -19   12.80    7.40
  -9   1  19   18.10    8.10
   9   1 -19   23.40    7.50
   8  -1 -19   34.00    7.80
  -8  -1  19   40.80    8.90
  -8  -1  19   42.70    9.10
  -8  -1  19   48.60    7.80
   8   1 -19   30.80    6.10
  -8   1  19   32.10    6.60
   8   1 -19   32.40    7.70
  -8   1  19   30.70    8.30
  -7  -1  19   -3.30    7.50
   7  -1 -19   11.80    7.20
  -7  -1  19   -7.50    7.30
  -7  -1  19    5.40    6.60
  -7   1  19   -1.80    4.90
  -7   1  19    1.30    7.40
   7   1 -19    1.40    5.40
   7   1 -19    3.60    6.60
  -6  -1  19   21.20    7.30
  -6  -1  19   18.30    8.00
   6  -1 -19   24.10    7.60
  -6  -1  19   23.40    8.30
   6   1 -19   35.70    6.40
   6   1 -19   27.30    7.30
  -6   1  19   36.90    8.30
  -6   1  19   28.30    7.80
   5  -1 -19   38.60    8.00
  -5  -1  19   22.70    6.00
  -5  -1  19   19.40    7.50
   5   1 -19   28.30    7.30
  -5   1  19   10.20    6.90
  -5   1  19   10.30    7.50
   5   1 -19   11.00    6.00
  -4  -1  19   65.19    9.10
   4  -1 -19   43.40    8.40
   4  -1 -19   54.89    7.00
  -4  -1  19   59.59    7.30
   4   1 -19   50.39    7.20
  -4   1  19   50.99    7.70
   4   1 -19   60.59    8.20
  -4   1  19   65.19    7.60
  -3  -1  19   36.90    8.00
  -3  -1  19   45.80    9.10
   3  -1 -19   56.79    7.00
   3  -1 -19   35.80    6.30
   3   1 -19   45.20    5.90
  -3   1  19   48.90    8.60
   3   1 -19   33.10    5.90
  -3   1  19   44.00    7.20
  -2  -1  19   31.90    8.70
   2  -1 -19    7.80    7.30
  -2  -1  19   11.10    5.40
   2  -1 -19   19.50    6.30
   2   1 -19   21.10    6.90
  -2   1  19   25.40    7.70
  -2   1  19   11.30    6.10
   2   1 -19   27.90    7.00
  -1  -1  19    0.30    4.70
   1  -1 -19    2.00    7.10
   1  -1 -19    1.90    5.90
  -1  -1  19    1.60    8.20
   1   1 -19   10.40    5.10
   1   1 -19    8.50    4.80
  -1   1  19    3.10    6.90
   0  -1  19   10.40    6.80
   0  -1  19   -0.10    8.10
   0  -1 -19    1.90    7.10
   0  -1 -19  -10.20    5.90
   0   1 -19   -1.20    6.50
   0   1 -19   -1.00    6.70
   1  -1  19   31.50    7.00
  -1  -1 -19   28.30    8.00
   1  -1  19   27.30    7.30
  -1  -1 -19   35.50    7.70
  -1   1 -19   20.50    7.10
   1   1  19   31.70    8.80
  -1   1 -19   23.30    7.50
  -9   2  19   38.80    9.40
  -8  -2  19   -4.80    8.30
   8  -2 -19   -1.80    6.30
   8  -2 -19    3.00    7.30
  -8   2  19    5.20    8.10
   8   2 -19    2.10    5.00
  -8   2  19    2.80    7.20
   8   2 -19   -4.50    4.10
   7  -2 -19    6.70    7.40
  -7  -2  19   10.80    7.10
  -7  -2  19    4.30    8.20
  -7   2  19    6.80    7.00
   7   2 -19    5.20    4.50
   7   2 -19   -3.60    6.70
  -7   2  19   -1.00    5.40
   6  -2 -19   -2.80    7.20
  -6  -2  19   -5.20    7.80
  -6  -2  19  -10.20    6.80
  -6   2  19    4.40    4.80
  -6   2  19    5.90    5.40
   6   2 -19   -1.60    6.10
   6   2 -19    2.00    6.70
  -5  -2  19    1.10    5.60
  -5  -2  19   -0.60    7.50
   5  -2 -19   -1.90    7.20
   5   2 -19   -0.20    6.60
  -5   2  19   -2.60    6.10
  -5   2  19    0.60    7.20
   5   2 -19    1.60    6.00
  -4  -2  19   20.90    8.10
   4  -2 -19   13.90    7.90
  -4  -2  19   17.70    8.10
  -4   2  19   12.60    7.50
   4   2 -19   22.30    5.50
  -4   2  19    6.80    6.20
   4   2 -19   14.70    5.00
  -3  -2  19    2.70    5.50
   3  -2 -19   -3.10    7.20
  -3  -2  19    4.20    5.70
  -3   2  19    8.50    7.20
   3   2 -19    5.70    6.50
   3   2 -19    9.30    6.80
   2  -2 -19    7.10    7.40
  -2  -2  19    1.40    8.30
  -2  -2  19   11.90    7.90
   2   2 -19    7.10    4.70
  -2   2  19    2.00    7.00
   2   2 -19   11.20    6.70
  -1  -2  19    3.50    8.40
  -1  -2  19    9.90    7.70
   1  -2 -19    5.80    5.90
   1  -2 -19    5.00    5.30
   1   2 -19    0.10    6.60
  -1   2  19   -0.90    4.70
   1   2 -19    9.90    6.60
   0  -2 -19    2.60    7.40
   0  -2  19    8.20    7.40
   0  -2 -19    3.00    6.30
   0  -2  19  -11.70    8.40
   0   2 -19    9.90    6.70
   0   2  19   12.10    6.80
   0   2 -19    4.00    6.80
  -6   3  19    3.60    5.60
  -5  -3  19   56.39    9.90
   5  -3 -19   60.99    9.60
  -5  -3  19   49.10    9.50
   5   3 -19   41.10    6.10
  -5   3  19   70.29    7.80
   5   3 -19   50.59    8.10
  -4  -3  19   -3.70    8.10
   4  -3 -19    2.70    7.80
  -4  -3  19   -6.90    5.40
   4   3 -19    3.80    6.40
   4   3 -19   -3.90    4.80
  -4   3  19   -8.50    7.00
   3  -3 -19   14.30    8.00
  -3  -3  19   16.30    9.20
  -3  -3  19   20.90    6.90
   3   3 -19   26.80    7.50
  -3   3  19   16.10    7.50
   3   3 -19   18.10    5.60
   8   0 -20    5.70    7.10
  -8   0  20   -6.70    7.80
  -8   0  20   12.80    8.30
   7   0 -20   49.30    8.60
  -7   0  20   49.40    9.20
  -7   0  20   55.79    7.90
  -6   0  20    5.70    5.50
   6   0 -20   -2.10    7.00
  -6   0  20   -2.30    7.90
   6   0 -20   14.90    6.70
   5   0 -20    3.40    5.60
   5   0 -20    9.20    7.10
  -5   0  20   20.10    7.80
  -5   0  20    1.00    8.00
  -4   0  20   17.30    5.80
  -4   0  20   22.20    6.30
   4   0 -20   15.40    4.70
   4   0 -20    8.50    7.50
  -3   0  20   26.30    7.60
   3   0 -20   23.20    6.70
  -3   0  20   22.50    6.50
   3   0 -20    9.60    7.20
  -2   0  20    1.00    6.40
  -2   0  20   10.60    6.10
   2   0 -20   16.00    6.60
   2   0 -20    6.90    7.30
   1   0 -20    4.00    7.30
  -1   0  20   -4.80    6.20
   1   0 -20    1.80    4.70
  -1   0  20    0.00    5.60
  -8   1  20   -5.00    7.70
   7  -1 -20   -2.10    7.60
  -7  -1  20    3.80    5.10
  -7  -1  20   20.10    8.50
  -7  -1  20    5.50    8.30
  -7   1  20    8.40    6.10
   7   1 -20    5.40    4.30
  -7   1  20    9.30    7.90
   7   1 -20    4.70    7.10
  -6  -1  20   39.40    8.40
  -6  -1  20   51.49    9.50
   6  -1 -20   22.90    8.00
   6   1 -20   36.80    6.90
  -6   1  20   48.20    7.40
   6   1 -20   27.60    7.90
  -6   1  20   42.40    8.40
  -5  -1  20   36.10    8.60
   5  -1 -20   39.50    8.60
  -5  -1  20   44.40    7.40
  -5   1  20   28.60    8.00
   5   1 -20   41.00    8.10
   5   1 -20   37.70    7.30
  -5   1  20   47.50    7.40
   4  -1 -20   15.40    7.80
  -4  -1  20   11.20    8.00
  -4  -1  20    0.60    8.00
  -4   1  20   14.70    6.80
   4   1 -20    6.00    7.20
   4   1 -20    7.40    6.60
  -4   1  20   16.10    8.20
  -3  -1  20   11.20    8.60
  -3  -1  20   25.80    8.10
   3  -1 -20   16.20    7.80
   3  -1 -20   25.20    6.60
  -3   1  20   17.50    8.00
   3   1 -20   11.90    6.70
  -3   1  20   26.50    7.20
   3   1 -20   25.70    5.90
   2  -1 -20   12.20    6.50
  -2  -1  20    7.00    8.50
   2  -1 -20   -2.50    5.00
  -2  -1  20   -5.50    5.00
   2   1 -20    3.00    7.00
   2   1 -20    0.20    6.60
  -2   1  20   -2.20    5.20
  -1  -1  20    5.80    8.70
  -1  -1  20    4.30    5.20
   1  -1 -20    4.00    7.50
   1  -1 -20   -1.20    6.40
   1   1 -20    5.40    5.00
   1   1 -20    2.50    5.00
  -5   2  20   17.50    8.30
   4  -2 -20   -4.00    5.40
  -4   2  20    4.60    7.60
   4   2 -20    9.40    7.40
   0   0   0    0.00    0.00

_computing_structure_solution     'SHELXT 2014/5 (Sheldrick, 2014)'
;
loop_
_space_group_symop_operation_xyz
'x, y, z'
'-x, y+1/2, -z+1/2'
'-x, -y, -z'
'x, -y-1/2, z-1/2'
loop_
_atom_site_label
_atom_site_type_symbol
_atom_site_fract_x
_atom_site_fract_y
_atom_site_fract_z
_atom_site_U_iso_or_equiv
_atom_site_adp_type
_atom_site_occupancy
_atom_site_site_symmetry_order
_atom_site_calc_flag
_atom_site_refinement_flags_posn
_atom_site_refinement_flags_adp
_atom_site_refinement_flags_occupancy
_atom_site_disorder_assembly
_atom_site_disorder_group
Br1 Br 0.92682(2) 0.29323(4) 0.29381(2) 0.03565(7) Uani 1 1 d . . . . .
C1 C 0.71540(16) 0.8184(3) 0.45057(13) 0.0247(3) Uani 1 1 d . . . . .
C2 C 0.83933(18) 0.8481(4) 0.45822(16) 0.0351(4) Uani 1 1 d . . . . .
C3 C 0.90086(18) 0.6939(4) 0.41266(17) 0.0364(5) Uani 1 1 d . . . . .
C4 C 0.84106(17) 0.5011(3) 0.35819(13) 0.0271(4) Uani 1 1 d . . . . .
C5 C 0.72055(16) 0.4605(3) 0.34963(12) 0.0247(3) Uani 1 1 d . . . . .
C6 C 0.65605(15) 0.6163(3) 0.39524(11) 0.0213(3) Uani 1 1 d . . . . .
C7 C 0.52762(15) 0.5696(3) 0.38121(11) 0.0211(3) Uani 1 1 d . . . . .
C8 C 0.45589(16) 0.3758(3) 0.33160(12) 0.0260(4) Uani 1 1 d . . . . .
C9 C 0.34164(16) 0.4199(4) 0.33940(13) 0.0270(4) Uani 1 1 d . . . . .
Cu1 Cu 0.5000 1.0000 0.5000 0.02228(7) Uani 1 2 d S . P . .
H1 H 0.295(2) 0.704(5) 0.4089(17) 0.037(7) Uiso 1 1 d . . . . .
H2 H 0.2671 0.3376 0.3185 0.032 Uiso 1 1 d R U . . .
H3 H 0.4793 0.2475 0.2959 0.031 Uiso 1 1 d R U . . .
H4 H 0.6821 0.3254 0.3085 0.030 Uiso 1 1 d R U . . .
H5 H 0.9829 0.7163 0.4192 0.044 Uiso 1 1 d R U . . .
H6 H 0.8764 0.9900 0.4923 0.042 Uiso 1 1 d R U . . .
N1 N 0.45866(13) 0.7188(3) 0.41696(10) 0.0227(3) Uani 1 1 d . . . . .
N2 N 0.34578(14) 0.6249(3) 0.39083(11) 0.0258(3) Uani 1 1 d . . . . .
O1 O 0.66406(11) 0.9777(2) 0.49569(10) 0.0290(3) Uani 1 1 d . . . . .
loop_
_atom_site_aniso_label
_atom_site_aniso_U_11
_atom_site_aniso_U_22
_atom_site_aniso_U_33
_atom_site_aniso_U_23
_atom_site_aniso_U_13
_atom_site_aniso_U_12
Br1 0.03254(11) 0.03429(12) 0.04555(13) -0.00506(9) 0.01989(9) 0.00038(8)
Cu1 0.02559(15) 0.01865(14) 0.02281(14) -0.00383(11) 0.00691(11) -0.00302(11)
O1 0.0262(6) 0.0253(6) 0.0363(7) -0.0101(5) 0.0101(5) -0.0052(5)
N1 0.0243(7) 0.0210(7) 0.0224(7) -0.0027(6) 0.0055(6) -0.0040(6)
N2 0.0232(7) 0.0264(8) 0.0276(8) -0.0052(6) 0.0066(6) -0.0036(6)
C4 0.0291(9) 0.0240(8) 0.0309(9) 0.0016(7) 0.0128(7) 0.0017(7)
C1 0.0276(8) 0.0204(8) 0.0265(8) -0.0003(7) 0.0082(7) -0.0022(7)
C9 0.0286(9) 0.0253(8) 0.0252(8) -0.0045(7) 0.0040(7) -0.0064(7)
C3 0.0254(9) 0.0327(10) 0.0530(13) -0.0072(9) 0.0138(9) -0.0051(8)
C2 0.0277(9) 0.0291(10) 0.0484(12) -0.0115(9) 0.0099(8) -0.0085(8)
C7 0.0273(8) 0.0201(8) 0.0161(7) 0.0004(6) 0.0064(6) -0.0024(6)
C5 0.0300(9) 0.0225(9) 0.0225(8) -0.0013(6) 0.0084(7) -0.0018(7)
C6 0.0255(8) 0.0195(8) 0.0188(7) 0.0012(6) 0.0059(6) -0.0029(6)
C8 0.0312(9) 0.0245(9) 0.0222(8) -0.0048(7) 0.0072(7) -0.0042(7)
loop_
_atom_type_symbol
_atom_type_description
_atom_type_scat_dispersion_real
_atom_type_scat_dispersion_imag
_atom_type_scat_source
C C 0.0033 0.0016 'International Tables Vol C Tables 4.2.6.8 and 6.1.1.4'
H H 0.0000 0.0000 'International Tables Vol C Tables 4.2.6.8 and 6.1.1.4'
Br Br -0.2901 2.4595 'International Tables Vol C Tables 4.2.6.8 and 6.1.1.4'
Cu Cu 0.3201 1.2651 'International Tables Vol C Tables 4.2.6.8 and 6.1.1.4'
N N 0.0061 0.0033 'International Tables Vol C Tables 4.2.6.8 and 6.1.1.4'
O O 0.0106 0.0060 'International Tables Vol C Tables 4.2.6.8 and 6.1.1.4'
loop_
_geom_angle_atom_site_label_1
_geom_angle_atom_site_label_2
_geom_angle_atom_site_label_3
_geom_angle
_geom_angle_site_symmetry_1
_geom_angle_site_symmetry_3
O1 Cu1 O1 180.0 3_676 .
O1 Cu1 N1 90.54(6) 3_676 3_676
O1 Cu1 N1 89.46(6) . 3_676
O1 Cu1 N1 89.47(6) 3_676 .
O1 Cu1 N1 90.53(6) . .
N1 Cu1 N1 180.0 3_676 .
C1 O1 Cu1 129.63(11) . .
C7 N1 N2 106.85(14) . .
C7 N1 Cu1 130.78(12) . .
N2 N1 Cu1 122.15(12) . .
C9 N2 N1 111.02(16) . .
C9 N2 H1 133.9(17) . .
N1 N2 H1 115.1(17) . .
C5 C4 C3 120.59(17) . .
C5 C4 Br1 120.28(14) . .
C3 C4 Br1 119.13(14) . .
O1 C1 C2 117.75(16) . .
O1 C1 C6 125.17(16) . .
C2 C1 C6 117.08(17) . .
N2 C9 C8 107.54(16) . .
N2 C9 H2 117.9 . .
C8 C9 H2 134.5 . .
C2 C3 C4 119.68(18) . .
C2 C3 H5 120.7 . .
C4 C3 H5 119.6 . .
C3 C2 C1 122.26(18) . .
C3 C2 H6 121.7 . .
C1 C2 H6 115.8 . .
N1 C7 C8 108.91(15) . .
N1 C7 C6 121.81(15) . .
C8 C7 C6 129.28(16) . .
C4 C5 C6 120.59(16) . .
C4 C5 H4 117.2 . .
C6 C5 H4 122.2 . .
C5 C6 C1 119.78(15) . .
C5 C6 C7 118.31(15) . .
C1 C6 C7 121.87(16) . .
C9 C8 C7 105.69(16) . .
C9 C8 H3 126.3 . .
C7 C8 H3 127.8 . .
loop_
_geom_bond_atom_site_label_1
_geom_bond_atom_site_label_2
_geom_bond_distance
_geom_bond_site_symmetry_2
Br1 C4 1.9025(18) .
Cu1 O1 1.9111(13) 3_676
Cu1 O1 1.9111(13) .
Cu1 N1 1.9241(14) 3_676
Cu1 N1 1.9241(14) .
O1 C1 1.317(2) .
N1 C7 1.334(2) .
N1 N2 1.352(2) .
N2 C9 1.335(2) .
N2 H1 0.82(2) .
C4 C5 1.378(3) .
C4 C3 1.379(3) .
C1 C2 1.411(3) .
C1 C6 1.421(2) .
C9 C8 1.372(3) .
C9 H2 0.9422 .
C3 C2 1.376(3) .
C3 H5 0.9313 .
C2 H6 0.9529 .
C7 C8 1.411(2) .
C7 C6 1.460(2) .
C5 C6 1.404(2) .
C5 H4 0.9736 .
C8 H3 0.9496 .
