#------------------------------------------------------------------------------
#$Date: 2022-06-21 11:09:27 +0300 (Tue, 21 Jun 2022) $
#$Revision: 276123 $
#$URL: file:///home/coder/svn-repositories/cod/cif/8/10/54/8105436.cif $
#------------------------------------------------------------------------------
#
# This file is available in the Crystallography Open Database (COD),
# http://www.crystallography.net/
#
# All data on this site have been placed in the public domain by the
# contributors.
#
data_8105436
loop_
_publ_author_name
'Lo, Kong Mun'
'Lee, See Mun'
'Tiekink, Edward R.T.'
_publ_section_title
;
 Crystal structure of hexanedihydrazide, C6H14N4O2
;
_journal_issue                   5
_journal_name_full
'Zeitschrift f\"ur Kristallographie - New Crystal Structures'
_journal_page_first              1257
_journal_page_last               1258
_journal_paper_doi               10.1515/ncrs-2020-0301
_journal_volume                  235
_journal_year                    2020
_chemical_formula_moiety         'C6 H14 N4 O2'
_chemical_formula_sum            'C6 H14 N4 O2'
_chemical_formula_weight         174.21
_space_group_crystal_system      monoclinic
_space_group_IT_number           14
_space_group_name_Hall           '-P 2ybc'
_space_group_name_H-M_alt        'P 1 21/c 1'
_atom_sites_solution_hydrogens   mixed
_atom_sites_solution_primary     direct
_atom_sites_solution_secondary   difmap
_audit_creation_method           SHELXL-2018/3
_cell_angle_alpha                90
_cell_angle_beta                 97.546(2)
_cell_angle_gamma                90
_cell_formula_units_Z            2
_cell_length_a                   12.2878(3)
_cell_length_b                   4.84420(10)
_cell_length_c                   7.09310(10)
_cell_measurement_reflns_used    4874
_cell_measurement_temperature    100(2)
_cell_measurement_theta_max      75.7130
_cell_measurement_theta_min      3.6020
_cell_volume                     418.557(15)
_computing_cell_refinement       'CrysAlisPro [1]'
_computing_data_collection       'CrysAlisPro [1]'
_computing_data_reduction        'CrysAlisPro [1]'
_computing_molecular_graphics    'ORTEP-3 for Windows [4]'
_computing_publication_material  'SHELXL-2018/3 [3]'
_computing_structure_refinement  'SHELXL-2018/3 [3]'
_computing_structure_solution    'SHELXT 2014/5 [2]'
_diffrn_ambient_environment      N~2~
_diffrn_ambient_temperature      100(2)
_diffrn_detector                 'CCD plate'
_diffrn_detector_area_resol_mean 5.2558
_diffrn_detector_type            AtlasS2
_diffrn_measured_fraction_theta_full 1.000
_diffrn_measured_fraction_theta_max 1.000
_diffrn_measurement_device       'four-circle diffractometer'
_diffrn_measurement_device_type  'XtaLAB Synergy, Dualflex, AtlasS2'
_diffrn_measurement_method       '\w scans'
_diffrn_radiation_monochromator  mirror
_diffrn_radiation_type           CuK\a
_diffrn_radiation_wavelength     1.54184
_diffrn_reflns_av_R_equivalents  0.0374
_diffrn_reflns_av_unetI/netI     0.0151
_diffrn_reflns_Laue_measured_fraction_full 1.000
_diffrn_reflns_Laue_measured_fraction_max 1.000
_diffrn_reflns_limit_h_max       14
_diffrn_reflns_limit_h_min       -14
_diffrn_reflns_limit_k_max       5
_diffrn_reflns_limit_k_min       -5
_diffrn_reflns_limit_l_max       8
_diffrn_reflns_limit_l_min       -8
_diffrn_reflns_number            9520
_diffrn_reflns_point_group_measured_fraction_full 1.000
_diffrn_reflns_point_group_measured_fraction_max 1.000
_diffrn_reflns_theta_full        67.044
_diffrn_reflns_theta_max         67.044
_diffrn_reflns_theta_min         3.628
_diffrn_source                   'micro-focus sealed X-ray tube'
_exptl_absorpt_coefficient_mu    0.883
_exptl_absorpt_correction_T_max  1.000
_exptl_absorpt_correction_T_min  0.824
_exptl_absorpt_correction_type   gaussian
_exptl_absorpt_process_details   'CrysAlisPro [1]'
_exptl_crystal_colour            colourless
_exptl_crystal_density_diffrn    1.382
_exptl_crystal_description       prism
_exptl_crystal_F_000             188
_exptl_crystal_size_max          0.115
_exptl_crystal_size_mid          0.092
_exptl_crystal_size_min          0.035
_refine_diff_density_max         0.234
_refine_diff_density_min         -0.223
_refine_diff_density_rms         0.042
_refine_ls_extinction_coef       0.0089(16)
_refine_ls_extinction_expression Fc^*^=kFc[1+0.001xFc^2^\l^3^/sin(2\q)]^-1/4^
_refine_ls_extinction_method     'SHELXL-2018/3 (Sheldrick 2018)'
_refine_ls_goodness_of_fit_ref   1.085
_refine_ls_hydrogen_treatment    mixed
_refine_ls_matrix_type           full
_refine_ls_number_parameters     65
_refine_ls_number_reflns         747
_refine_ls_number_restraints     3
_refine_ls_restrained_S_all      1.083
_refine_ls_R_factor_all          0.0317
_refine_ls_R_factor_gt           0.0290
_refine_ls_shift/su_max          0.000
_refine_ls_shift/su_mean         0.000
_refine_ls_structure_factor_coef Fsqd
_refine_ls_weighting_details
'w=1/[\s^2^(Fo^2^)+(0.0390P)^2^+0.2264P] where P=(Fo^2^+2Fc^2^)/3'
_refine_ls_weighting_scheme      calc
_refine_ls_wR_factor_gt          0.0805
_refine_ls_wR_factor_ref         0.0829
_reflns_Friedel_coverage         0.000
_reflns_Friedel_fraction_full    .
_reflns_Friedel_fraction_max     .
_reflns_number_gt                692
_reflns_number_total             747
_reflns_threshold_expression     'I > 2\s(I)'
_cod_data_source_file            suppl_ncrs-2020-0301_suppl.cif
_cod_data_source_block           shelx
_cod_original_sg_symbol_H-M      'P 21/c'
_cod_database_code               8105436
_shelx_shelxl_version_number     2018/3
_shelx_space_group_comment
;
The symmetry employed for this shelxl refinement is uniquely defined
by the following loop, which should always be used as a source of
symmetry information in preference to the above space-group names.
They are only intended as comments.
;
_shelx_estimated_absorpt_t_min   0.905
_shelx_estimated_absorpt_t_max   0.970
_shelx_res_file
;
TITL exp_1101
    shelx.res
    created by SHELXL-2018/3 at 10:21:03 on 01-Apr-2020
CELL  1.54184  12.2878   4.8442   7.0931   90.000   97.546   90.000
ZERR     2.00   0.0003   0.0001   0.0001    0.000    0.002    0.000
LATT   1
SYMM  - X, 1/2 + Y, 1/2 - Z
SFAC  C    H    N    O
UNIT  12   28   8    4
MERG   2
FMAP   2
PLAN   5
SIZE     0.035   0.092   0.115
ACTA
BOND   $H
DFIX  0.88 0.01 N1 H1n N1 H2n N2 H3n
CONF
L.S.  18
TEMP  -173
WGHT    0.039000    0.226400
EXTI    0.008929
FVAR      11.41320
O1    4    0.226759    0.822316    0.396707    11.00000    0.01670    0.00938 =
         0.02492   -0.00010    0.00147    0.00065
N1    3    0.072342    0.473765    0.200032    11.00000    0.01305    0.01497 =
         0.01975    0.00120   -0.00120    0.00162
H1N   2    0.091286    0.543335    0.093042    11.00000   -1.20000
H2N   2    0.044626    0.614293    0.257827    11.00000   -1.20000
N2    3    0.170314    0.390599    0.314155    11.00000    0.01332    0.00939 =
         0.02061    0.00098   -0.00100    0.00123
H3N   2    0.182998    0.212877    0.325751    11.00000   -1.20000
C1    1    0.241860    0.569631    0.403183    11.00000    0.01301    0.01163 =
         0.01459    0.00082    0.00480   -0.00016
C2    1    0.343797    0.445623    0.512771    11.00000    0.01439    0.01042 =
         0.01665    0.00027    0.00108    0.00004
AFIX  23
H2A   2    0.341970    0.242617    0.496574    11.00000   -1.20000
H2B   2    0.344997    0.486234    0.649818    11.00000   -1.20000
AFIX   0
C3    1    0.448033    0.560126    0.445099    11.00000    0.01444    0.01169 =
         0.01639    0.00054    0.00112   -0.00031
AFIX  23
H3A   2    0.446770    0.518220    0.308222    11.00000   -1.20000
H3B   2    0.449129    0.763354    0.459953    11.00000   -1.20000

AFIX   0
HKLF    4




REM  exp_1101
REM wR2 = 0.0829, GooF = S = 1.085, Restrained GooF = 1.083 for all data
REM R1 = 0.0290 for 692 Fo > 4sig(Fo) and 0.0317 for all 747 data
REM 65 parameters refined using 3 restraints

END

WGHT      0.0297      0.2044

REM Highest difference peak  0.234,  deepest hole -0.223,  1-sigma level  0.042
Q1    1   0.3966  0.4999  0.4777  11.00000  0.05    0.23
Q2    1   0.2954  0.4994  0.4461  11.00000  0.05    0.21
Q3    1   0.5000  0.5000  0.5000  10.50000  0.05    0.18
Q4    1   0.3388  0.3062  0.5415  11.00000  0.05    0.14
Q5    1   0.1850  0.4613  0.4212  11.00000  0.05    0.12
;
_shelx_res_checksum              78291
_shelx_hkl_file
;
  -1   0   0 3663.09 153.160  13
   1   0   0 3511.01 167.239  41
   2   0   0 152573. 3469.63  38
   2   0   0 142835. 3407.67  41
  -2   0   0 145686. 3367.55  13
   3   0   0 68680.9 1853.86  38
   3   0   0 63131.6 1774.71  41
  -3   0   0 67585.0 1718.69  13
   4   0   0 20810.2 879.047  38
  -4   0   0 18531.9 720.970  13
  -4   0   0 22301.2 976.503  12
   4   0   0 19683.4 796.842  41
  -5   0   0 28058.9 840.818  42
  -5   0   0 28378.4 1003.37  40
  -5   0   0 25682.4 1219.16  12
  -5   0   0 26763.4 973.742  13
   5   0   0 27551.7 1091.00  41
   5   0   0 27012.2 1172.47  38
  -6   0   0 22140.0 1215.08  12
  -6   0   0 22846.6 931.683  40
   6   0   0 21580.6 1016.32  41
  -6   0   0 22179.4 722.558  42
   6   0   0 21466.8 1117.02  38
  -6   0   0 20216.3 871.530  13
  -7   0   0 98657.0 3411.94  12
   7   0   0 101943. 3250.76  38
  -7   0   0 103894. 3127.59  30
  -7   0   0 100956. 2872.04  40
   7   0   0 103034. 3081.09  41
  -7   0   0 101276. 2800.83  13
   8   0   0 25655.5 1446.49  38
   8   0   0 25934.4 1307.28  41
  -8   0   0 26266.1 1000.02  34
   8   0   0 26047.2 1090.03  10
  -8   0   0 25259.1 1143.16  40
   8   0   0 25054.8 1048.34   7
  -8   0   0 27484.7 1616.42  12
  -8   0   0 26213.1 1017.45  20
  -8   0   0 26282.7 1087.17  11
  -8   0   0 25019.8 1088.80   6
  -8   0   0 26751.4 1372.89  30
   8   0   0 26709.0 1066.66   8
   9   0   0 28679.2 1635.22  38
  -9   0   0 29132.0 1524.32  30
   9   0   0 27202.9 1197.13  10
  -9   0   0 27454.9 1211.15   6
  -9   0   0 27791.8 1183.63  11
   9   0   0 27347.6 1152.17   7
  -9   0   0 28494.4 1774.83  12
  -9   0   0 28374.7 1121.17  20
  -9   0   0 27751.0 1090.96  34
   9   0   0 27412.7 1158.87   8
 -10   0   0 79576.7 2470.98  11
 -10   0   0 83805.8 2365.11  34
 -10   0   0 73114.3 2501.03   6
 -10   0   0 77470.0 2364.41  20
  10   0   0 77317.6 2435.96   7
  10   0   0 79992.0 3140.34  38
  10   0   0 74505.0 2485.46  10
  10   0   0 77443.2 3042.65  29
 -10   0   0 76865.2 2275.76  19
 -10   0   0 78507.3 2971.34  30
  10   0   0 80344.7 2446.48   8
  11   0   0 929.393 331.792  29
  11   0   0 304.738 245.561  38
 -11   0   0 902.672 255.356   6
 -11   0   0 1572.19 246.010  19
 -11   0   0 1404.70 292.704  11
 -11   0   0 1371.57 284.978  20
 -11   0   0 1314.84 410.397  30
  11   0   0 949.089 250.711   8
  11   0   0 1291.86 263.071   7
  12   0   0 25787.1 1163.26   7
 -12   0   0 24371.1 1195.88   6
 -12   0   0 24263.9 986.952  19
 -12   0   0 23649.3 1106.17  11
 -13   0   0 20543.8 948.886  11
  13   0   0 20627.0 976.019   7
  13   0   0 22444.0 1066.48   4
 -13   0   0 21112.9 1032.30   6
 -13   0   0 20725.9 815.705  19
  14   0   0 337.155 150.800   4
 -14   0   0-51.0152 129.526   6
 -14   0   0 80.0375 98.5276  11
   0   1   0 17.1046 89.2060   3
   0  -1   0-38.7559 49.9829  38
   1   1   0 19866.1 706.106  29
  -1   1   0 21764.5 703.676  27
  -1   1   0 19928.7 727.356   3
  -1   1   0 19155.6 694.967  30
  -1  -1   0 19194.3 599.647  12
   1  -1   0 18540.4 668.837  38
  -1  -1   0 19588.8 659.072  39
   1   1   0 18377.4 712.764   3
   1   1   0 21296.6 693.905  27
   2   1   0 2925.96 129.350  38
  -2  -1   0 3005.59 215.881  39
   2  -1   0 3374.71 301.157  38
   2   1   0 2966.77 251.406   3
  -2   1   0 2919.64 195.473  40
   2   1   0 3583.57 239.278  27
   2   1   0 3057.91 273.511  41
   2  -1   0 2901.80 162.327  41
  -2  -1   0 2948.58 244.685  12
  -2   1   0 2922.12 251.391   3
  -2   1   0 3070.30 260.981  30
   2   1   0 3150.22 272.304  29
  -2   1   0 3248.70 240.683  27
   2  -1   0 2992.28 142.789  13
  -3   1   0 57671.3 1686.22  12
   3   1   0 54170.2 1541.28   3
  -3  -1   0 56950.6 1747.52  13
  -3  -1   0 54164.4 1679.40  12
   3   1   0 54402.3 1696.11  41
  -3   1   0 53225.0 1634.34  30
   3  -1   0 51708.6 1393.02  41
  -3   1   0 56231.6 1537.38   3
  -3  -1   0 54135.1 1475.25  39
   3   1   0 53952.5 1422.05  38
   3  -1   0 55329.6 1724.85  38
   3   1   0 58275.0 1682.51  29
  -3   1   0 56383.4 1421.21  40
   4   1   0 25169.4 872.265  38
   4  -1   0 23874.1 806.910  41
  -4   1   0 25468.0 782.399  40
  -4   1   0 26793.9 842.756   3
  -4   1   0 24834.3 1075.57  12
   4   1   0 25702.6 1055.14  29
   4  -1   0 25262.2 1115.14  38
  -4  -1   0 25343.1 1084.54  13
   4   1   0 24939.7 836.095   3
  -4  -1   0 23835.5 832.484  39
  -4  -1   0 25111.1 1093.28  12
  -4   1   0 26746.6 1052.13  30
   4   1   0 24271.4 1068.83  41
  -5  -1   0 194451. 5085.75  13
  -5   1   0 188365. 4554.77  40
   5   1   0 187720. 5063.11  41
   5   1   0 196227. 4527.66   3
   5  -1   0 194340. 4679.49  41
  -5   1   0 208087. 4520.24   3
  -5   1   0 194154. 5149.03  12
   5   1   0 190323. 4793.18  38
  -5   1   0 193492. 5018.45  30
   5  -1   0 194679. 5179.65  38
   5   1   0 197640. 5056.86  29
  -5  -1   0 194550. 5177.83  12
  -6   1   0 1391.53 277.613  30
   6   1   0 1417.45 255.322  38
  -6  -1   0 1228.08 327.435  12
  -6   1   0 2017.95 371.928  12
   6  -1   0 1443.56 215.155  41
   6  -1   0 1528.65 347.482  38
  -6  -1   0 1435.28 304.928  13
   6   1   0 1592.23 342.084  41
   6   1   0 1083.55 265.595  29
   7   1   0 37690.1 1705.83  29
   7   1   0 38067.1 1382.92  10
   7   1   0 40053.5 1379.82   8
  -7  -1   0 39585.9 1867.47  12
  -7   1   0 37687.1 1659.09  30
   7   1   0 36978.6 1511.52  38
  -7   1   0 37405.6 1347.94   6
   7  -1   0 38355.5 1304.31   7
  -7   1   0 39768.0 1343.24  35
   7   1   0 38614.3 1342.32   7
   7  -1   0 41159.4 1401.01  41
  -7  -1   0 36765.4 1356.14  11
  -7   1   0 37981.0 1831.10  12
  -7  -1   0 39503.2 1671.07  13
   7  -1   0 40330.1 1856.35  38
  -7   1   0 36370.8 1274.95  34
   8  -1   0 26338.4 1098.30  10
   8  -1   0 26448.5 1078.32   7
  -8  -1   0 23713.4 1097.65  11
  -8   1   0 25303.5 1042.95  34
  -8  -1   0 28547.7 1033.39  20
  -8   1   0 28459.0 1138.92  35
  -8   1   0 25875.4 962.381  33
  -8  -1   0 25678.7 1596.40  12
  -8  -1   0 28269.8 1421.63  13
  -8   1   0 26088.0 1120.04   6
   8   1   0 25765.9 1460.26  29
   8   1   0 26226.1 1108.25   7
   8  -1   0 26463.2 1570.90  38
  -8   1   0 25635.8 1418.07  30
   8  -1   0 25937.8 1053.05   8
   8   1   0 26545.8 1149.19  10
  -8   1   0 28266.8 1076.41  20
  -8   1   0 27030.8 1046.20  11
   8   1   0 27050.6 1315.62  38
  -8  -1   0 26646.1 1129.31   6
   8   1   0 26587.1 1140.08   8
  -9   1   0 6358.11 496.151  20
  -9   1   0 6907.02 513.274  34
  -9  -1   0 5635.05 625.174  40
  -9   1   0 5803.39 519.421   6
   9   1   0 5573.37 495.649   7
  -9   1   0 5776.76 460.089  11
   9   1   0 5771.98 511.580   8
   9   1   0 6126.36 639.416  38
  -9  -1   0 6244.76 533.473   6
  -9  -1   0 5432.14 513.131  11
   9   1   0 6421.64 743.391  29
  -9   1   0 5652.00 684.479  30
   9  -1   0 6449.66 812.297  38
   9  -1   0 6012.32 491.175   7
   9  -1   0 6051.32 511.953  10
   9  -1   0 6409.21 481.772   8
  -9  -1   0 5856.27 799.656  12
  -9  -1   0 6522.32 679.440  13
  10  -1   0 30363.5 1210.49   8
  10   1   0 30259.0 1765.05  29
  10  -1   0 27878.6 1249.54  10
 -10   1   0 29596.9 1197.43  11
  10   1   0 28742.8 1286.75   7
  10  -1   0 31445.9 1279.13   7
 -10  -1   0 31399.1 1673.15  30
 -10  -1   0 31017.7 1350.20  11
 -10   1   0 29992.6 1704.01  30
 -10   1   0 31467.7 1252.73  34
 -10   1   0 28034.9 1283.69   6
  10  -1   0 29708.2 1873.53  38
 -10   1   0 28437.5 1224.38  20
 -10  -1   0 29985.4 1325.29   6
 -11   1   0 1648.27 344.805   6
  11  -1   0 927.167 212.315   8
  11  -1   0 2051.20 319.947   7
  11   1   0 1255.12 301.482   7
 -11  -1   0 1643.37 328.991  11
 -11   1   0 1781.39 305.306  20
 -11  -1   0 1697.74 393.113  30
  11   1   0 1613.72 447.036  29
 -11  -1   0 1390.85 298.527   6
 -11   1   0 1449.28 251.122  11
  11  -1   0 1480.72 468.791  38
  11   1   0 1290.11 285.808   4
 -11   1   0 1301.00 255.671  34
 -11   1   0 1080.47 379.539  30
 -11   1   0 1639.28 275.065  19
  12   1   0 8135.04 626.174   7
  12   1   0 8118.38 627.468   4
  12  -1   0 8455.55 608.037   7
 -12   1   0 8261.49 535.781  11
 -12  -1   0 8202.95 638.425  11
 -12  -1   0 8484.31 642.172   6
 -12   1   0 7966.37 546.802  19
 -12   1   0 8355.07 645.122   6
 -12   1   0 7933.18 567.349  34
 -12   1   0 9022.57 618.122  20
  13  -1   0 4649.04 413.086   7
 -13  -1   0 4827.99 446.293   6
 -13   1   0 4369.87 365.761  19
 -13  -1   0 5403.00 464.901  11
 -13   1   0 3506.75 307.106  24
  13   1   0 4065.56 400.982   4
 -13   1   0 4440.18 427.641   6
  14   1   0 5750.80 385.890   4
  14   1   0 4492.24 281.292  17
 -14   1   0 6614.24 440.789   6
 -14  -1   0 6710.49 440.641  11
  14  -1   0 5678.37 385.120   7
 -14   1   0 6543.98 368.076  19
 -14  -1   0 6191.51 426.713   6
  14  -1   0 6577.73 463.008   4
 -14   1   0 4888.91 299.818  24
   0   2   0 160730. 3834.04   1
   0  -2   0 160596. 4149.52  39
   0  -2   0 153476. 3726.21  38
   0   2   0 163496. 3799.05  28
   0   2   0 159391. 4254.20   3
   0  -2   0 156599. 4115.61  13
   1  -2   0-57.6939 87.8905  13
   1   2   0-62.4423 87.4226   1
  -1  -2   0 15.9913 132.094  39
  -1   2   0-6.33509 71.9430  28
   1   2   0 60.9093 153.325   3
  -1   2   0 92.2001 135.776   3
  -1  -2   0-57.5317 134.597  13
  -1   2   0-67.7061 125.370  27
   1  -2   0-19.4316 97.0127  38
   1   2   0 61.4457 84.5452  28
  -1   2   0 106.990 85.5963   1
   1   2   0-45.1181 138.074  27
   2   2   0 36006.9 1403.09   3
   2  -2   0 34532.2 1291.44  38
  -2   2   0 36908.8 1087.62   1
  -2   2   0 34641.6 1043.13  28
   2  -2   0 35259.2 1121.44  13
   2   2   0 35296.4 1344.60  29
  -2  -2   0 33388.7 1243.52  39
  -2   2   0 36410.3 1399.35   3
   2   2   0 35103.4 1081.18   1
   2   2   0 39764.4 1353.22  27
  -2  -2   0 33574.3 1423.79  13
   2   2   0 33258.5 1036.03  28
  -2  -2   0 34680.8 1051.95  12
  -3  -2   0 11781.9 604.363  12
  -3  -2   0 11255.6 799.147  13
  -3  -2   0 12065.3 634.497  39
   3   2   0 10814.3 476.066  28
  -3   2   0 12300.3 495.908  28
  -3   2   0 11727.6 507.973   1
   3   2   0 11094.6 505.118   1
  -3   2   0 12505.8 737.945   3
   3   2   0 11589.8 729.980   3
   3  -2   0 11311.6 724.097  38
   3   2   0 11358.9 722.736  29
  -4   2   0 15547.9 827.787   3
  -4  -2   0 14300.4 957.944  13
  -4   2   0 15044.5 569.697  28
   4   2   0 15150.4 600.870   1
   4   2   0 14921.0 826.674   3
   4  -2   0 15094.0 933.819  38
  -4   2   0 14754.2 585.360   1
  -4  -2   0 15028.8 716.004  39
  -4   2   0 14962.5 891.920  30
   4   2   0 14242.6 564.091  28
  -4  -2   0 15632.0 823.572  12
   4   2   0 14194.6 883.491  29
   5   2   0 25156.9 1288.46  29
  -5  -2   0 24490.7 1202.62  12
   5   2   0 23209.5 800.575   1
  -5   2   0 25484.7 799.268  28
  -5  -2   0 20285.4 1270.79  13
   5  -2   0 24336.1 1315.20  38
  -5   2   0 24431.8 805.406   1
  -5   2   0 23395.6 1234.75  30
  -5  -2   0 24284.5 960.101  39
   5   2   0 24153.1 1079.02   3
   5   2   0 23818.3 782.392  28
  -5   2   0 24186.1 1066.01   3
   6   2   0 3226.96 297.330  18
  -6   2   0 3652.93 485.278  30
  -6  -2   0 2687.28 307.773  11
   6   2   0 3385.77 356.636   3
  -6  -2   0 3337.53 477.046  12
  -6   2   0 3589.93 327.222  35
   6   2   0 2929.67 277.840  36
   6  -2   0 3235.29 507.066  38
  -6   2   0 3167.37 292.037  24
  -6   2   0 3133.99 286.469  21
   6   2   0 3384.74 480.070  29
  -6  -2   0 3559.94 530.025  13
  -7  -2   0 3701.36 586.358  13
  -7  -2   0 3627.89 384.114  11
  -7   2   0 3198.33 335.985  33
   7  -2   0 3304.97 541.648  38
  -7   2   0 3552.88 367.289  34
  -7   2   0 4158.56 392.571  35
  -7   2   0 3356.36 319.871  21
  -7   2   0 3523.11 344.453   6
  -7   2   0 2923.51 299.042  24
   7   2   0 3811.90 319.125  36
  -7   2   0 3186.79 496.535  30
   7   2   0 4667.92 605.654  29
   7   2   0 3486.28 380.856   4
   7   2   0 2922.55 315.307  18
  -7  -2   0 3649.79 538.008  12
  -8  -2   0 12970.2 1113.52  13
  -8   2   0 14330.4 728.675  33
  -8   2   0 13832.6 758.150   6
   8  -2   0 14956.2 1251.94  38
  -8  -2   0 14792.1 774.354   6
   8  -2   0 13564.5 739.842   7
  -8   2   0 13546.1 749.200  20
  -8   2   0 12938.2 1079.04  30
  -8   2   0 13408.2 766.024  35
   8   2   0 12746.4 769.386   4
   8   2   0 15170.2 675.524  36
  -8  -2   0 13979.1 1149.49  12
  -8   2   0 13583.5 755.030  34
  -8  -2   0 12745.8 780.361  11
   8   2   0 14348.0 703.532  18
  -8   2   0 12419.0 662.736  24
   8   2   0 14059.0 1123.28  29
  -9   2   0-43.8292 88.3622  24
   9  -2   0-63.7399 334.836  38
  -9   2   0 121.648 217.559  30
  -9   2   0 106.666 141.391  34
  -9  -2   0 286.644 188.204  11
   9   2   0 34.8003 120.414  18
  -9  -2   0 535.291 196.938   6
  -9   2   0 112.321 145.212   6
   9   2   0-346.013 223.006  29
  -9   2   0 183.013 122.370  33
   9   2   0-65.7493 148.136   4
  -9  -2   0-325.914 301.668  13
   9  -2   0-118.726 128.756   7
  -9   2   0 15.5917 135.166  20
 -10  -2   0 17909.7 1346.79  13
 -10   2   0 19086.7 1392.49  30
  10  -2   0 18935.8 931.905   7
  10  -2   0 17396.1 1449.42  38
 -10  -2   0 18276.6 1302.53  40
  10   2   0 19185.6 1427.06  29
  10   2   0 17893.8 934.783   4
 -10  -2   0 17669.2 915.531   6
 -10   2   0 19113.1 943.313   6
 -10   2   0 18809.1 933.696  20
 -10   2   0 19503.0 868.750  33
 -10  -2   0 16740.4 970.179  11
 -10   2   0 16639.2 813.894  24
  10   2   0 19287.6 821.462  18
 -10   2   0 17872.3 931.892  34
  11   2   0 9481.75 647.748   4
 -11  -2   0 10543.6 730.348  11
 -11   2   0 10874.8 694.522  34
 -11   2   0 11990.6 611.811  33
 -11   2   0 10553.8 661.354  19
  11  -2   0 11396.2 681.523   7
 -11  -2   0 11015.4 682.925   6
 -11   2   0 10290.8 583.290  24
 -11   2   0 12480.4 726.234  20
 -11   2   0 9643.56 643.647   6
 -12  -2   0 8904.32 553.910   6
 -12   2   0 9076.61 565.208  19
 -12   2   0 6689.73 426.692  24
 -12   2   0 7743.06 525.289   6
 -12   2   0 8675.59 574.995  34
 -12  -2   0 8543.24 603.738  11
 -12   2   0 9008.09 572.654  20
  12  -2   0 7808.25 526.541   7
  12   2   0 7339.85 508.225   4
  13  -2   0 64.8203 94.5032   7
 -13  -2   0-246.799 131.131   6
 -13  -2   0 252.664 157.789  11
 -13   2   0-41.8046 123.070  19
 -13   2   0 145.391 118.142  20
  13   2   0 162.437 95.0454  17
   0   3   0 97.6254 203.054   3
   0   3   0-64.1181 122.026  28
   0   3   0 14.1955 77.0748  25
   0   3   0-68.7198 73.3284  22
   0  -3   0 247.121 178.062  39
   0   3   0 31.4065 89.0313  21
   0   3   0-37.3334 126.627   1
   0   3   0 26.4757 90.1174  23
   0   3   0-21.8443 95.2540   5
   0   3   0 267.367 102.372  26
   0   3   0-10.7957 94.7247  36
   0  -3   0 131.377 136.560  13
  -1   3   0 6790.00 695.302   3
  -1   3   0 8204.53 480.198  28
   1   3   0 7644.76 440.480  26
  -1   3   0 7941.63 494.827   1
  -1   3   0 7874.89 428.731  25
   1   3   0 7783.02 462.837  36
   1   3   0 7362.17 456.274  28
   1   3   0 8295.58 475.713  21
  -1   3   0 8127.96 463.719  21
   1   3   0 7685.81 440.318  23
  -1   3   0 7795.97 452.560   5
  -1   3   0 8526.03 459.433  26
  -1  -3   0 7028.73 691.752  13
   1   3   0 8193.63 459.471   5
  -1   3   0 8002.20 445.448  23
   1  -3   0 7109.14 585.868  13
   1  -3   0 7086.05 677.902  39
   1   3   0 6761.00 697.350   3
   1   3   0 8059.09 444.264  22
  -1  -3   0 7916.76 676.651  39
   1   3   0 7423.40 480.398   1
   1   3   0 7327.29 442.367  18
   1   3   0 8593.74 454.119  25
  -1   3   0 8267.99 452.153  22
   2   3   0 12077.8 566.171  26
   2   3   0 11230.8 588.003  21
  -2   3   0 11987.5 558.092  22
  -2   3   0 12173.6 624.322   1
   2   3   0 11569.8 566.238   5
  -2   3   0 11317.6 901.759   3
   2  -3   0 11330.8 901.581  39
  -2  -3   0 11711.9 936.244  13
  -2   3   0 11738.6 591.430  28
  -2  -3   0 11424.7 784.315  39
  -2   3   0 12185.6 547.697  25
  -2   3   0 11731.0 586.462  21
  -2   3   0 12548.8 569.379  26
   2   3   0 12312.1 570.694  23
   2   3   0 12432.3 606.183  18
   2   3   0 11940.7 560.632  22
   2   3   0 11448.0 553.506  24
  -2   3   0 11454.4 563.232   5
  -2   3   0 11693.9 559.564  23
   2   3   0 10888.5 582.084  36
   2   3   0 12055.4 625.604   1
   2   3   0 12249.5 582.518  25
   2   3   0 11901.3 928.350   3
   2   3   0 11613.0 593.135  17
   2   3   0 11488.2 588.880  28
   3   3   0 1608.27 193.086  23
  -3   3   0 1675.55 200.184  22
   3   3   0 2058.81 241.281  36
   3  -3   0 1234.00 263.994  38
   3   3   0 2121.41 239.577  28
   3   3   0 2175.82 229.115  22
  -3   3   0 2112.93 211.773  26
   3   3   0 1895.30 241.189   1
   3   3   0 2262.32 263.325  18
  -3   3   0 1983.76 244.143   1
   3   3   0 2047.69 391.505   3
  -3   3   0 1890.41 369.685   3
  -3   3   0 1851.60 223.288  28
   3   3   0 2040.99 222.951   5
   3   3   0 2236.90 237.145  26
  -3   3   0 2108.28 213.438  24
   3   3   0 2237.10 250.130  25
   3   3   0 1985.06 248.597  15
  -3   3   0 2177.22 227.950   5
   3   3   0 2076.35 257.103  17
  -3   3   0 2417.74 250.835  23
  -3   3   0 2198.09 227.235  25
   3   3   0 2408.84 250.884  24
  -3  -3   0 1490.59 390.186  13
  -3  -3   0 1634.85 283.481  39
  -3   3   0 2379.02 258.025  21
  -4   3   0 3658.53 510.623   3
   4   3   0 4718.13 381.136   1
  -4   3   0 4808.79 375.287   1
  -4   3   0 5025.96 353.358  23
  -4   3   0 4907.10 353.868   5
  -4  -3   0 5923.51 522.881  39
  -4   3   0 5147.75 366.256  28
  -4   3   0 4746.33 343.296  24
  -4   3   0 4814.84 320.626  26
   4   3   0 4892.04 340.778  23
   4   3   0 5057.92 354.464   5
   4   3   0 4748.21 384.179  36
   4   3   0 5340.18 609.319   3
   4   3   0 5011.04 388.556  18
  -4   3   0 4445.42 342.638  35
  -4  -3   0 4887.39 668.707  13
   4  -3   0 5894.17 624.059  38
   4   3   0 5359.96 351.506  22
  -4   3   0 5175.51 389.427  21
   4   3   0 4840.56 407.055  17
   4   3   0 4810.15 359.821  28
  -4   3   0 4470.92 322.004  22
  -5  -3   0 53432.1 2514.95  13
  -5   3   0 53502.6 1567.29  22
   5   3   0 55599.7 1585.08  22
  -5   3   0 52955.3 1718.13  35
  -5   3   0 57047.8 1669.25   1
  -5   3   0 52495.3 1742.92  33
  -5   3   0 55160.3 1632.23  28
  -5   3   0 52799.5 1596.46   5
  -5   3   0 54294.0 1642.51  24
   5   3   0 55028.9 1634.51  28
   5   3   0 55287.3 1746.58  18
   5   3   0 54610.7 2188.80   3
   5  -3   0 56667.0 2348.86  38
   5   3   0 56393.7 1736.87  36
   5   3   0 56783.1 1612.17   5
  -5   3   0 55560.1 2173.99   3
   5   3   0 56102.5 1681.21   1
  -5   3   0 55807.2 1717.72  21
  -6   3   0 12087.2 609.698  24
   6   3   0 11509.9 637.371  36
  -6  -3   0 11998.5 1139.63  13
  -6   3   0 10811.7 622.879  21
   6  -3   0 13135.9 1094.27  38
   6   3   0 11750.7 670.569  18
  -6   3   0 10684.6 651.115  33
  -6   3   0 10345.7 632.116  35
  -6   3   0 11768.5 679.140  34
  -7  -3   0 13140.8 1218.19  13
   7  -3   0 12116.1 1119.95  38
   7   3   0 11910.8 1086.02  29
   7   3   0 12917.7 674.002  36
  -7  -3   0 11959.4 699.144  11
  -7   3   0 11315.7 696.647  34
  -7   3   0 11158.2 687.417  35
  -7   3   0 11775.6 615.656  24
  -7   3   0 11572.6 661.915  20
  -7   3   0 10926.7 671.377  33
   7   3   0 11971.2 678.392  18
  -7   3   0 12034.9 673.883  21
  -8   3   0 213.102 178.066  34
  -8   3   0 662.749 218.364  33
   8   3   0 262.136 246.860  29
   8   3   0 433.287 157.318  18
  -8   3   0 240.273 144.660  35
  -8  -3   0 421.467 160.090  11
  -8   3   0 253.604 98.1846  24
   8  -3   0 494.274 251.050  38
   8   3   0 308.948 130.916  36
  -8  -3   0 185.489 286.463  13
   8  -3   0 478.254 169.662   7
  -8   3   0 144.095 133.459  20
  -8   3   0 351.175 140.970  21
  -9  -3   0 4785.07 744.516  13
  -9   3   0 4635.65 446.612  34
   9   3   0 4573.46 399.556  18
  -9   3   0 4956.77 376.989  24
   9   3   0 4999.50 382.928  36
  -9  -3   0 5251.76 483.202  11
  -9   3   0 5365.91 442.976  33
   9   3   0 4896.19 463.004  17
   9  -3   0 4091.69 707.877  38
   9  -3   0 5365.54 436.813   7
   9  -3   0 4878.76 682.055  39
  -9   3   0 5014.94 435.761  20
  10   3   0 6537.21 461.023  18
 -10   3   0 7363.46 548.337  34
 -10   3   0 8303.28 529.533  33
 -10   3   0 6736.91 414.970  24
 -10   3   0 7185.04 508.078  19
  10   3   0 7767.85 549.311  17
 -10   3   0 7675.35 519.510  20
 -10  -3   0 7224.62 547.363  11
  10  -3   0 7097.72 478.248   7
 -11  -3   0 1924.37 263.772  11
  11   3   0 1831.95 260.529  17
 -11   3   0 1975.72 236.308  33
 -11   3   0 1941.91 253.301  20
 -11   3   0 1363.92 245.521  34
 -11   3   0 1958.24 257.256  19
  11   3   0 1516.49 195.162  18
 -12   3   0 164.145 103.414  19
 -12   3   0-22.7580 80.3633  33
 -12  -3   0-65.6340 89.7543  11
  12   3   0 99.0879 95.3816  15
 -12   3   0 63.7027 88.5244  20
 -12   3   0 164.687 117.328  34
  12   3   0-43.1850 93.7315  17
   0   4   0 190.230 133.291  26
   0   4   0 12.2279 95.6164  18
   0   4   0 87.9800 242.972   3
   0   4   0-30.3758 126.194   1
   0   4   0-98.7829 118.490  36
   0   4   0 193.180 141.361  28
   0   4   0 8.05201 108.459   5
   0   4   0 160.385 143.892  23
   0   4   0 116.286 112.939  21
   0  -4   0-182.193 266.793  39
   0   4   0 132.205 127.391  22
   0   4   0 112.199 105.545  25
   0   4   0 148.672 113.471  24
   1   4   0 688.626 176.418  22
  -1   4   0 331.694 158.212  21
   1   4   0 370.113 156.677  28
  -1   4   0 431.577 145.794  36
   1   4   0 473.963 162.360  21
  -1   4   0 353.859 126.209  18
  -1  -4   0 281.108 244.560  13
   1   4   0 209.292 151.072  23
   1  -4   0 419.404 235.103  39
  -1   4   0 356.049 190.241   1
  -1   4   0 501.269 130.066  22
  -1   4   0 210.336 148.065  23
   1   4   0 360.030 116.443  24
  -1  -4   0-38.2900 214.419  39
  -1   4   0 431.907 123.984  25
  -1   4   0 274.545 91.3009  24
  -1   4   0 439.079 161.955  26
  -1   4   0 294.034 126.033   5
  -1   4   0 415.741 139.333  33
   1   4   0 485.054 143.176  17
  -1   4   0 347.775 155.870  28
   1   4   0 415.443 127.742  18
   1   4   0 489.391 175.308  26
   1   4   0 521.818 167.176  36
  -1   4   0 460.378 309.843   3
   1   4   0 442.669 168.600   1
   1   4   0 500.053 150.000   5
   1   4   0 502.461 239.042   3
   1   4   0 658.554 169.085  25
  -2   4   0 14313.1 757.021  28
  -2   4   0 16354.1 730.318  26
   2   4   0 14420.5 1192.95   3
  -2  -4   0 14040.1 1028.61  39
  -2   4   0 14153.8 1176.72   3
  -2   4   0 14745.4 676.423  25
  -2   4   0 14834.2 720.663  23
   2   4   0 15035.0 712.172  22
  -2   4   0 14109.9 652.537  24
  -2   4   0 13879.0 704.439  33
  -2   4   0 14058.5 693.486  22
  -2   4   0 13683.3 768.894   1
   2  -4   0 14166.4 1177.22  39
  -2   4   0 14333.9 723.718   5
   2   4   0 13690.1 773.730   1
   2   4   0 14695.5 755.997  21
  -2   4   0 14525.9 743.817  21
   2   4   0 15113.3 736.176   5
   2   4   0 14553.5 746.810  36
   2   4   0 15341.4 743.291  17
  -2   4   0 13865.8 650.910  36
   2   4   0 14542.5 765.832  28
   2   4   0 13824.3 708.161  18
  -2  -4   0 12565.4 1101.92  13
   2   4   0 14541.8 715.285  23
   3   4   0 15391.0 781.537  36
  -3   4   0 13437.8 732.181  28
   3   4   0 13277.2 680.432  22
  -3   4   0 15805.0 711.754  26
   3  -4   0 15186.0 1242.45  39
  -3   4   0 13773.3 758.701   1
  -3   4   0 13490.1 1131.38   3
   3   4   0 15330.0 1210.98   3
   3   4   0 13600.5 733.671  28
  -3   4   0 15782.8 751.381   5
  -3   4   0 15499.9 719.971  22
  -3   4   0 13564.8 719.188  33
   3   4   0 15602.4 780.435  21
  -3   4   0 15166.9 670.603  24
   3   4   0 14614.0 755.010  17
   3   4   0 12091.9 696.973  18
   3   4   0 14585.6 722.150  15
  -3  -4   0 14183.2 1233.90  13
   3   4   0 13423.7 691.199   5
   3   4   0 14839.4 785.357   1
  -3   4   0 13820.1 740.079  21
  -3   4   0 14955.5 667.860  25
  -4   4   0 1010.55 182.166   5
   4   4   0 1117.87 211.758  21
   4   4   0 1214.50 204.066   5
  -4   4   0 1219.56 212.884  33
  -4  -4   0 952.811 322.751  13
   4   4   0 978.797 175.500  22
  -4   4   0 1022.06 198.268  34
   4   4   0 1232.47 229.090  36
   4   4   0 1209.93 218.774   1
  -4   4   0 709.100 294.420   3
   4   4   0 441.398 245.651   3
  -4   4   0 960.472 194.883   1
   4  -4   0 935.738 377.325  39
  -4   4   0 1131.40 215.551  21
   4   4   0 1283.79 239.060  17
  -4   4   0 901.327 171.991  22
   4   4   0 1143.95 223.598  15
  -4   4   0 1260.84 181.143  24
   4   4   0 1061.09 224.527  18
  -5   4   0 10715.7 955.617   3
   5   4   0 10771.3 569.509   5
   5   4   0 11659.8 677.414  21
  -5   4   0 10155.0 609.226  34
   5   4   0 11371.0 656.329  15
   5   4   0 10953.8 671.587  17
   5  -4   0 9728.69 1019.81  39
   5   4   0 12453.3 667.735   1
   5   4   0 10251.4 950.262   3
  -5   4   0 11509.9 568.548  22
  -5   4   0 11921.0 597.998   5
  -5  -4   0 11432.9 1193.82  13
  -5   4   0 12306.8 648.930   1
   5   4   0 11907.5 579.821  22
   5   4   0 11674.7 675.682  36
  -5   4   0 10631.4 658.573  33
  -5   4   0 11699.7 665.743  21
   5   4   0 10900.4 661.752  18
   6   4   0 7041.90 504.336  36
   6   4   0 5966.11 469.130  21
  -6   4   0 7497.71 544.205  33
  -6   4   0 6785.67 490.976  21
   6   4   0 6343.95 487.221  18
  -6  -4   0 5660.28 837.049  13
   6   4   0 6832.94 395.300  22
   6   4   0 6824.81 525.557  17
   6   4   0 6751.55 498.013  15
  -6   4   0 6427.17 397.896   5
  -6   4   0 6416.62 479.367  34
   6  -4   0 6942.30 853.850  39
   7   4   0 4684.04 429.949  17
  -7   4   0 4551.39 393.968  34
   7   4   0 4901.00 414.666  21
  -7   4   0 4864.55 430.945  33
   7   4   0 4590.26 408.280  18
   7   4   0 4558.78 394.374  36
  -7   4   0 4086.09 335.774  19
   7   4   0 4174.82 392.071  15
  -7   4   0 4279.42 382.864  21
   8   4   0 872.888 184.628  15
   8   4   0 628.235 158.761  21
   8   4   0 897.602 190.072  18
   8   4   0 746.930 169.306  36
  -8   4   0 960.768 197.627  33
   8   4   0 755.553 185.963  17
  -8   4   0 682.235 164.087  34
  -8   4   0 1367.03 196.485  19
   9   4   0 748.459 145.817  21
  -9   4   0 601.464 154.382  34
   9   4   0 622.697 162.364  15
   9   4   0 583.168 131.663  36
   9   4   0 764.246 161.409  18
   9   4   0 775.498 172.950  17
  -9   4   0 591.864 164.942  33
  -9   4   0 745.418 146.622  19
  10   4   0 114.170 90.8832  17
 -10   4   0 216.632 83.0970  19
  10   4   0 137.993 87.1861  15
  10   4   0 405.177 116.118  18
 -10   4   0 128.714 100.797  33
 -10   4   0 340.350 129.042  34
  10   4   0 198.584 82.9479  21
   0   5   0 64.7344 114.184  22
   0   5   0-45.4568 133.413   1
   0   5   0 294.761 127.206  36
   0   5   0-42.6517 114.418  21
   0   5   0-166.457 114.927   5
   1   5   0 1682.22 233.409   5
  -1   5   0 1567.29 221.974  22
  -1   5   0 2250.71 284.179  21
   1   5   0 2201.65 291.904   1
  -1   5   0 1789.82 250.735   5
  -1   5   0 2090.31 219.702  36
   1   5   0 2377.81 267.028  36
   1   5   0 2061.86 246.779  22
   1   5   0 2068.43 269.790  21
  -1   5   0 2003.33 278.370   1
   1   5   0 1697.44 213.024  18
   2   5   0 153.882 118.178  36
   2   5   0 149.525 99.7400  21
   2   5   0 224.158 105.052  18
  -2   5   0 213.765 136.069   1
   2   5   0 129.408 92.3996  22
   2   5   0 137.109 134.471   1
  -2   5   0 188.144 110.604  22
  -2   5   0 122.393 109.036   5
  -2   5   0-4.01354 96.4401  21
   2   5   0 125.794 101.521   5
  -3   5   0 57.8386 98.1740  33
   3   5   0-81.9376 124.034   1
   3   5   0 28.7485 88.6927   5
  -3   5   0-52.6697 98.1175  22
   3   5   0-98.1724 121.186  21
  -3   5   0-70.6291 114.987  21
   3   5   0 87.3323 110.000  18
   3   5   0 173.137 100.860  22
  -3   5   0-116.866 125.164   1
   3   5   0 167.372 126.882  36
  -3   5   0 105.259 108.063   5
  -4   5   0 17446.1 728.216   5
   4   5   0 18690.4 734.833   5
   4   5   0 18554.1 800.632   1
   4   5   0 19181.6 804.861  21
  -4   5   0 18690.8 798.498  21
  -4   5   0 17563.6 707.706  22
  -4   5   0 20047.9 815.196   1
   4   5   0 19858.1 818.759  36
   4   5   0 17395.5 759.884  18
   4   5   0 18500.0 715.985  22
  -4   5   0 17759.7 749.153  33
   5   5   0 4731.53 338.975  17
  -5   5   0 4934.13 308.542   5
   5   5   0 4533.98 293.253   5
  -5   5   0 4919.19 360.439  21
   5   5   0 4944.63 367.631  36
  -5   5   0 4481.15 285.980  22
   5   5   0 4764.15 351.103  18
   5   5   0 4520.06 289.107  22
   5   5   0 4992.57 360.784  21
  -5   5   0 5214.36 365.177  33
   5   5   0 5147.01 351.425   1
  -6   5   0 12552.5 577.462  33
   6   5   0 12991.2 573.314  21
  -6   5   0 11204.6 548.800  21
   6   5   0 13137.5 584.579  18
   6   5   0 11888.1 564.736  36
   6   5   0 12690.1 561.669  17
   7   5   0 5.72115 64.1812  17
   7   5   0 81.2806 80.0956  18
   7   5   0 99.7947 77.4495  21
   7   5   0 77.9759 73.4640  36
  -7   5   0 23.4336 78.2533  33
 -14   0   1-88.3918 120.583  11
 -14   0   1-89.4767 131.357   6
  14   0  -1-192.213 162.174   4
 -13   0   1 83.7747 182.499   6
 -13   0   1-66.9413 136.821  11
  13   0  -1 45.6814 160.558   4
 -13   0   1 65.9158 106.480  19
  12   0  -1 177.393 164.985   7
 -12   0   1 168.320 204.744   6
 -12   0   1-119.594 180.058  11
  12   0  -1 72.5818 200.146   4
 -12   0   1 141.264 150.252  19
  12   0  -1-38.4461 230.035  29
  11   0  -1-19.7211 145.311   7
 -11   0   1-63.3937 228.792  30
 -11   0   1-225.537 167.841  11
 -11   0   1 27.3098 157.388   6
 -11   0   1 52.6004 129.863  19
  11   0  -1 147.860 232.034  29
  10   0  -1-124.569 137.060   7
 -10   0   1 6.45420 157.825   6
 -10   0   1 282.533 169.230  20
  10   0  -1-67.5575 221.677  41
 -10   0   1 253.799 204.569  30
 -10   0   1 66.6816 150.037  11
  10   0  -1-263.826 270.351  38
 -10   0   1-62.2877 128.874  19
  -9   0   1-97.2777 138.949  20
  -9   0   1 24.4320 142.944  11
  -9   0   1-16.5506 144.065   6
  -9   0   1-216.861 168.945  30
   9   0  -1 113.704 182.860   7
  -9   0   1 176.140 121.830  34
  -9   0   1-76.8600 121.286  19
   9   0  -1-178.769 224.340  41
   8   0  -1-14.0109 139.790   8
   8   0  -1-198.036 154.425  41
  -8   0   1 78.2654 122.462  20
  -8   0   1-76.0251 117.933   6
  -8   0   1-164.262 127.051  19
   8   0  -1-115.026 168.223  38
  -8   0   1-219.197 208.355  30
  -8   0   1-71.6275 110.043  13
  -8   0   1-150.683 113.841  34
  -8   0   1 6.69256 133.020  11
   8   0  -1 9.07219 144.101   7
  -7   0   1-78.3530 114.371  13
  -7   0   1 32.2397 114.945  40
   7   0  -1 37.9443 144.812  41
  -7   0   1 69.6072 120.181  30
   7   0  -1 18.1671 170.593  38
   6   0  -1 77.7005 203.799  38
   6   0  -1-113.967 146.803  41
  -6   0   1 154.740 141.618  30
  -6   0   1 79.3233 127.348  13
   5   0  -1 90.2205 178.510  38
   5   0  -1 47.0379 123.212  41
  -5   0   1 134.096 128.401  30
  -5   0   1-143.967 134.941  13
  -5   0   1 48.6097 40.4112  32
  -4   0   1-10.3463 52.0176  32
   4   0  -1 161.832 128.329  41
  -4   0   1 74.7628 94.1860  30
  -4   0   1-21.9314 109.097  13
  -3   0   1-18.4508 76.6035  30
  -3   0   1-66.4077 121.737  13
  -3   0   1 88.1197 95.4191  39
   3   0  -1 21.8571 117.588  41
  -3   0   1-12.5442 58.1848  32
  -2   0   1 20.3801 63.9548  32
  -2   0   1 30.0629 60.2400  30
  -2   0   1-92.0460 103.598  39
   2   0  -1-78.2402 71.6562  42
   2   0  -1-11.9666 88.6109  41
  -2   0   1 57.5442 91.6708  13
  -1   0   1 4.39399 57.5661  32
   1   0  -1 12.7474 59.6611  42
   1   0  -1 5.81122 61.6322  40
   1   0  -1-16.8255 71.8202  41
  -1   0   1 31.0300 62.2991  39
   0   0  -1-15.7469 76.6554  40
   0   0   1-8.06038 48.6905  39
   0   0  -1-39.0037 66.3579  42
   0   0   1 55.7389 56.5341  32
   1   0   1-4.03542 51.2459  29
   1   0   1 20.1812 41.2225  39
  -1   0  -1 12.5727 83.8662  40
   1   0   1-11.9875 87.0866  38
  -1   0  -1-0.50538 80.6108  42
   1   0   1 26.1841 57.3203  32
   2   0   1 5.74243 44.9940  39
  -2   0  -1 140.678 113.831  40
   2   0   1-53.9427 65.6670  32
   2   0   1 92.3487 75.5540  29
  -2   0  -1 67.3872 92.0976  42
   2   0   1 28.3522 105.352  38
   3   0   1 29.1463 51.3515  32
  -3   0  -1-5.42233 111.015  40
   3   0   1 195.949 160.021  38
  -3   0  -1-92.4287 99.3228  42
  -4   0  -1-50.5973 151.753  40
  -4   0  -1 113.889 174.097  12
  -4   0  -1-34.3645 89.2581  42
   4   0   1 3.04258 44.8081  27
   4   0   1 118.384 45.7967  32
   4   0   1 33.7526 147.010  38
  -5   0  -1 15.4663 123.747  40
   5   0   1 218.947 180.841  38
  -5   0  -1-221.542 195.879  12
  -5   0  -1-28.8798 88.6099  42
  -5   0  -1-68.8975 112.577  13
  -6   0  -1 70.3006 117.301  42
   6   0   1-61.3749 164.682  38
  -6   0  -1 138.831 130.592  40
  -6   0  -1-51.3483 124.918  13
  -6   0  -1 11.3555 178.009  12
   7   0   1-118.382 152.337  29
   7   0   1-12.7586 116.534   8
  -7   0  -1 112.002 235.481  12
   7   0   1-144.162 130.450   7
   7   0   1 95.9501 114.113  10
  -7   0  -1 6.60020 128.941  40
   7   0   1-403.259 213.749  38
  -7   0  -1-47.4079 126.945   6
  -7   0  -1-43.5643 107.877  42
   8   0   1-2.72871 142.279   7
  -8   0  -1 120.140 141.313   6
  -8   0  -1-271.015 241.322  12
   8   0   1-99.1187 157.426  29
  -8   0  -1 59.2124 113.018  20
  -8   0  -1-125.727 145.475  40
  -8   0  -1-160.720 242.873  30
  -8   0  -1 140.154 157.097  34
   8   0   1 25.9304 132.529  10
   8   0   1 91.2484 168.962  38
   8   0   1-55.5394 138.643   8
   9   0   1-89.6125 175.604  10
   9   0   1 161.786 140.570   8
  -9   0  -1 151.409 222.051  12
  -9   0  -1-73.6644 114.553  34
  -9   0  -1 65.8106 163.688   6
   9   0   1-113.466 161.193   7
  -9   0  -1-92.1617 206.419  30
  -9   0  -1-52.6287 186.152  11
   9   0   1-84.6634 164.420  29
   9   0   1-6.90449 238.042  38
  -9   0  -1-214.837 194.312  20
 -10   0  -1 169.156 175.104  11
  10   0   1 418.375 281.771  29
 -10   0  -1 50.9492 146.536  20
  10   0   1 173.329 272.762  38
  10   0   1-58.5739 169.968   7
  10   0   1 272.237 176.946   8
 -10   0  -1-53.8674 142.958  34
  10   0   1-17.5780 151.751  10
 -10   0  -1 129.099 236.342  30
 -10   0  -1-52.3233 262.932  12
 -10   0  -1 219.894 215.153   6
  11   0   1-148.910 171.126   7
 -11   0  -1-70.6530 148.216  20
  11   0   1 115.313 128.736   8
  11   0   1 62.6170 162.586  10
 -11   0  -1 66.8988 189.532   6
 -11   0  -1 472.616 238.308  30
  11   0   1-586.613 383.284  29
  11   0   1 327.963 270.165  38
 -11   0  -1-91.4241 144.689  11
 -11   0  -1-81.4813 118.973  19
 -12   0  -1 110.404 164.984  20
 -12   0  -1-84.9631 104.416  19
 -12   0  -1 84.6941 191.478   6
  12   0   1 34.7649 154.787   8
  12   0   1-343.776 187.421   7
 -12   0  -1-137.486 143.739  11
  13   0   1-39.5125 139.942   7
  13   0   1 105.649 151.157   4
 -13   0  -1 37.2751 129.539  11
 -13   0  -1 160.086 149.832   6
 -14   0  -1-71.5498 92.3023  11
  14   0   1 20.3418 106.074   7
 -14   0  -1-98.3823 106.018   6
  14   0   1-269.464 147.541   4
 -14   1   1 14018.5 688.277   6
 -14  -1   1 13027.5 665.477   6
  14   1  -1 13768.5 679.702   4
 -14   1   1 14179.5 608.889  19
 -14   1   1 11264.8 549.486  24
  14  -1  -1 13485.8 707.699   4
 -14  -1   1 14225.8 691.929  11
 -13  -1   1 5192.87 472.288  11
 -13   1   1 4339.51 373.903  24
 -13   1   1 5125.83 470.454   6
  13   1  -1 4413.61 323.071  17
  13  -1  -1 4144.56 378.500   7
 -13   1   1 5031.80 403.073  19
  13   1  -1 5391.02 480.456   4
 -13  -1   1 4983.27 449.877   6
 -12  -1   1 5284.81 520.477   6
 -12   1   1 4643.50 425.867  19
 -12   1   1 4757.11 493.722   6
  12   1  -1 5220.66 510.525   4
 -12  -1   1 4976.44 499.949  11
  12  -1  -1 4769.95 430.739   7
 -12   1   1 4900.75 468.005  20
 -12   1   1 4779.41 421.270  11
 -11   1   1 44897.3 2160.65  30
  11  -1  -1 43995.8 1602.78   7
 -11   1   1 44120.8 1594.50  19
  11   1  -1 45688.9 1775.58   4
  11  -1  -1 44050.8 2371.78  38
 -11   1   1 43977.3 1581.86  11
 -11   1   1 46627.0 1670.12  34
 -11  -1   1 44534.1 1725.72   6
 -11   1   1 45804.3 1749.43   6
 -11  -1   1 44425.4 1740.71  11
  11   1  -1 46557.0 1705.17   7
 -11   1   1 44821.2 1644.56  20
  11   1  -1 47783.4 2328.56  29
  10  -1  -1 922.181 407.582  38
 -10   1   1 880.754 212.489  19
  10   1  -1 804.735 284.865  29
 -10   1   1 836.806 301.656  30
 -10   1   1 845.296 192.225  20
 -10   1   1 865.810 229.382  34
  10  -1  -1 938.296 230.651   7
 -10   1   1 792.146 250.860   6
  10   1  -1 1073.04 270.084   7
 -10   1   1 1240.45 231.171  11
 -10  -1   1 371.592 214.833  30
  10   1  -1 739.566 257.745   4
 -10  -1   1 817.793 251.985  11
 -10  -1   1 904.749 234.806   6
  -9  -1   1 27353.6 1465.71  13
   9   1  -1 26524.6 1558.59  29
   9   1  -1 27251.1 1248.64   4
  -9   1   1 27886.0 1127.30  20
  -9   1   1 27012.0 1016.03  33
  -9   1   1 27138.8 1125.54  34
  -9  -1   1 26398.8 1178.01   6
  -9   1   1 26218.2 1088.92  11
  -9   1   1 25292.5 1457.83  30
   9  -1  -1 25498.0 1071.99   7
  -9  -1   1 27060.4 1376.49  30
   9   1  -1 25435.3 1355.77  38
   9  -1  -1 26547.3 1707.98  38
  -9  -1   1 25330.2 1169.98  11
   9   1  -1 26049.9 1567.07  41
  -9   1   1 27453.3 1200.51   6
   9   1  -1 27054.6 1158.03   7
   8  -1  -1 1140.83 275.487  41
  -8   1   1 1455.91 234.730  20
   8  -1  -1 1672.15 256.172   7
  -8   1   1 1064.46 285.826  30
   8   1  -1 1390.02 242.614   7
   8   1  -1 1152.99 336.080  41
   8   1  -1 1270.10 269.541   4
  -8  -1   1 1584.17 269.408  11
  -8   1   1 1947.11 302.604   6
  -8  -1   1 1468.36 251.838   6
  -8  -1   1 1904.00 387.333  13
  -8   1   1 1463.69 189.621  33
  -8   1   1 2026.82 252.263  11
   8   1  -1 1837.94 337.395  38
  -8   1   1 1355.28 227.609  34
   8   1  -1 1518.82 368.810  29
   8  -1  -1 1579.41 405.685  38
  -7   1   1 548.987 195.490  30
   7   1  -1 690.084 207.515  38
  -7   1   1 386.580 156.242  20
   7  -1  -1 718.077 298.112  38
   7   1  -1 290.822 188.994  41
   7   1  -1 335.058 164.719   7
   7  -1  -1 322.691 148.972  41
  -7  -1   1 451.227 219.154  13
  -7  -1   1 378.126 131.785  11
  -7   1   1 393.492 163.517  34
   7   1  -1 170.452 181.089  29
  -7   1   1 464.895 156.724   6
   6  -1  -1 14570.2 795.259  41
   6   1  -1 15278.9 804.584  38
  -6   1   1 14331.5 854.809  30
  -6  -1   1 14897.8 804.886  39
   6  -1  -1 14604.0 991.253  38
   6   1  -1 15776.8 966.034  41
  -6  -1   1 14636.8 918.213  13
   5  -1  -1 14204.8 893.655  38
  -5   1   1 16630.9 615.116  27
   5   1  -1 15359.4 879.861  41
  -5   1   1 15195.2 819.048  30
   5   1  -1 15312.2 661.496   3
  -5  -1   1 15605.6 900.933  13
   5   1  -1 15321.0 729.068  38
   5  -1  -1 14937.5 756.005  41
  -5  -1   1 14119.3 744.408  39
  -4  -1   1 1693.37 290.487  13
   4  -1  -1 1505.34 215.248  41
  -4  -1   1 1335.90 208.605  39
  -4   1   1 1820.18 206.167   3
   4   1  -1 1830.41 290.146  41
  -4   1   1 1758.43 252.392  30
   4   1  -1 1193.99 179.109   3
  -4   1   1 1636.89 174.208  27
   3   1  -1 48448.8 1546.56  41
   3  -1  -1 45290.4 1409.80  41
   3  -1  -1 45800.6 1160.15  42
  -3   1   1 53500.4 1452.09   3
  -3   1   1 51107.1 1369.69  27
  -3  -1   1 45758.5 1566.40  13
   3   1  -1 47385.5 1457.11  29
  -3   1   1 49131.6 1493.29  30
   3   1  -1 43784.2 1445.67   3
  -3  -1   1 46797.4 1456.15  39
   2   1  -1 139351. 3491.48  41
  -2  -1   1 134238. 3456.80  39
  -2   1   1 148618. 3491.64   3
  -2   1   1 141088. 3391.91  27
   2   1  -1 139556. 3397.37  29
  -1   1   1 342781. 8432.83  32
   1   1  -1 364041. 8511.55  42
   1   1  -1 363159. 8406.61  41
  -1  -1   1 407590. 8578.91  13
  -1   1   1 346480. 8488.75   3
  -1  -1   1 374190. 8491.51  39
   1   1  -1 404685. 8354.58  29
   0  -1   1 169920. 4004.70  38
   0   1   1 169588. 4066.03  32
   0   1  -1 169070. 4095.53  42
   0   1  -1 173307. 4121.04  40
   0   1  -1 173471. 3908.40  41
   0   1  -1 170357. 3845.52  12
   0  -1   1 167061. 4044.90  13
   0   1   1 166727. 4114.34   3
   0  -1   1 172135. 4109.00  39
  -1  -1  -1 4389.40 341.976  12
   1   1   1 4380.91 319.915   3
   1   1   1 4127.75 320.938  29
  -1   1  -1 4547.58 261.051  12
   1  -1   1 4277.84 322.422  39
   1   1   1 4746.04 303.432  27
  -1   1  -1 4679.41 329.571  40
   1   1   1 4471.14 308.870  32
  -1   1  -1 4392.25 277.608  30
  -1   1  -1 4885.09 325.984  42
   1  -1   1 4419.48 255.905  13
   1  -1   1 4832.99 338.241  38
   2   1   1 55401.4 1501.69  27
   2   1   1 52314.2 1620.95  29
   2   1   1 57013.1 1498.65  38
  -2   1  -1 57022.6 1559.17  42
  -2  -1  -1 52844.9 1683.06  12
  -2   1  -1 54069.2 1562.97  30
   2   1   1 54647.1 1567.38   3
  -2  -1  -1 52301.3 1278.37  39
  -2   1  -1 56128.5 1592.93  40
  -2   1  -1 53592.7 1566.42  12
   2  -1   1 51882.6 1652.58  38
  -3   1  -1 74797.1 2107.53   3
  -3   1  -1 76894.2 2145.16  40
  -3  -1  -1 78804.2 2349.92  12
   3   1   1 77931.3 2025.11  27
   3   1   1 79371.4 2083.30   3
   3   1   1 79154.3 2079.01  38
  -3   1  -1 77097.3 2191.35  30
  -3   1  -1 76883.0 2228.95  12
   3   1   1 74743.5 2232.37  29
   3  -1   1 74546.8 2302.17  38
  -3   1  -1 77982.3 2078.18  42
   4   1   1 595.728 182.269  29
   4  -1   1 773.535 233.613  38
  -4   1  -1 811.607 232.809  12
  -4  -1  -1 651.288 247.975  12
  -4   1  -1 775.705 160.364   3
  -4   1  -1 1074.78 212.584  40
   4   1   1 796.508 128.152  27
   4   1   1 903.090 151.772   3
  -4   1  -1 977.191 154.415  42
   4   1   1 974.109 180.354  38
  -4   1  -1 790.995 207.493  30
  -5   1  -1 32500.4 1027.73   3
  -5   1  -1 31565.8 1063.96  42
   5   1   1 33228.4 1254.06  38
  -5  -1  -1 32802.2 1385.89  13
   5  -1   1 31333.6 1459.78  38
  -5   1  -1 31505.4 1440.60  12
   5   1   1 32758.9 995.354  27
   5   1   1 31608.2 1364.89  29
  -5   1  -1 32267.9 1360.63  30
  -5   1  -1 31950.8 1206.68  40
  -5  -1  -1 30942.9 1485.07  12
   6   1   1 16334.7 890.681  38
  -6   1  -1 16738.4 1067.38  12
  -6   1  -1 16172.0 825.151  40
  -6  -1  -1 15496.7 945.767  13
  -6  -1  -1 16649.4 1117.52  12
  -6   1  -1 15589.3 962.633  30
   6   1   1 15010.8 944.027  29
   6  -1   1 15974.4 1067.52  38
  -7  -1  -1 15355.9 889.802  42
  -7  -1  -1 16393.7 1213.79  12
   7  -1   1 16840.8 1173.78  38
   7  -1   1 15899.3 783.879   7
  -7  -1  -1 16962.6 838.659   6
   7   1   1 16520.8 823.027  10
  -7   1  -1 16934.1 888.750  40
  -7   1  -1 15175.2 1029.62  30
  -7  -1  -1 17272.8 1048.63  13
   7   1   1 17775.5 820.588   7
  -7  -1  -1 17429.6 1081.79  40
   7  -1   1 16204.8 786.044   8
   7   1   1 16873.9 984.247  38
  -7   1  -1 15488.3 1125.52  12
   7   1   1 17152.2 1103.74  29
  -7   1  -1 16563.1 815.073   6
   7   1   1 15119.4 679.011  18
  -7   1  -1 16372.7 790.645  35
   7  -1   1 17464.0 823.622  10
   7   1   1 16528.1 811.726   8
   8  -1   1-148.135 139.751   7
  -8   1  -1-109.428 256.178  12
  -8   1  -1 126.117 121.560  11
   8  -1   1 137.149 262.598  38
   8  -1   1 52.8045 125.569  10
   8   1   1-34.9509 139.140   8
   8  -1   1-152.784 139.893   8
  -8  -1  -1-40.5942 260.772  12
  -8  -1  -1-7.63585 142.237  42
  -8  -1  -1-87.3665 195.608  40
   8   1   1 3.88665 114.537  10
  -8   1  -1 30.3986 122.376   6
  -8  -1  -1 88.8727 130.611   6
   8   1   1 26.2663 136.087   7
  -8  -1  -1-735.709 256.361  13
  -8   1  -1-17.8744 119.398  34
   8   1   1-90.4285 143.919  38
   8   1   1 181.031 199.406  29
  -8   1  -1-11.6175 225.967  30
  -8   1  -1-165.681 139.082  35
   8   1   1 49.4847 107.901  18
  -9   1  -1 1438.08 367.477  30
  -9   1  -1 1794.00 297.964  35
   9  -1   1 1589.29 258.795   7
  -9   1  -1 1691.53 263.839  34
   9  -1   1 1020.75 245.988  10
  -9  -1  -1 966.280 372.692  12
  -9   1  -1 1849.51 308.825   6
  -9  -1  -1 1295.07 256.793   6
  -9  -1  -1 1392.63 263.832  11
  -9   1  -1 1245.17 366.770  12
  -9  -1  -1 1084.26 336.867  40
   9  -1   1 1392.88 244.334   8
  -9   1  -1 1503.48 269.792  20
  -9   1  -1 1245.02 218.671  11
   9  -1   1 1588.30 480.442  38
   9   1   1 1368.77 290.297  10
   9   1   1 1733.59 289.809   8
   9   1   1 1580.65 220.330  18
   9   1   1 2019.77 314.819   7
   9   1   1 1548.98 393.838  29
  10  -1   1 96469.1 2877.08   7
  10  -1   1 98706.9 3846.84  38
 -10   1  -1 95888.3 3559.84  30
  10  -1   1 96787.0 2905.34  10
  10  -1   1 92388.7 3326.37  29
 -10  -1  -1 97456.5 2961.47  11
 -10   1  -1 93889.1 2805.83  20
 -10  -1  -1 94809.8 2936.81   6
 -10   1  -1 92716.4 2724.62  11
  10   1   1 92143.7 2894.66   8
 -10  -1  -1 93211.1 3367.82  40
 -10  -1  -1 102422. 4050.56  12
  10   1   1 94662.2 3566.36  29
 -10   1  -1 93490.0 2899.76   6
 -10   1  -1 96455.0 2787.07  34
  10  -1   1 103424. 2900.05   8
  10   1   1 99313.5 2930.68   7
 -11  -1  -1 3549.29 434.078   6
 -11   1  -1 3638.75 361.973  11
  11  -1   1 3004.85 378.356  10
 -11   1  -1 3878.33 446.524   6
 -11   1  -1 3647.52 397.077  34
 -11   1  -1 4129.45 632.030  30
  11   1   1 4788.55 703.009  29
  11  -1   1 3974.06 669.467  38
 -11  -1  -1 3852.77 456.431  11
  11  -1   1 3839.30 441.440   7
 -11  -1  -1 3258.60 529.828  30
  11  -1   1 3282.47 384.504   8
 -11   1  -1 3264.67 380.658  20
  11   1   1 4100.32 430.431   4
  11   1   1 3681.40 448.105   7
 -12   1  -1 432.239 194.830   6
 -12   1  -1 312.147 156.956  19
 -12  -1  -1 364.047 207.727  11
  12   1   1 530.403 189.331   4
 -12   1  -1 354.731 153.510  34
  12  -1   1 413.927 147.725   8
 -12  -1  -1 272.166 195.340   6
 -12   1  -1 194.979 174.827  20
  12   1   1 759.377 252.756   7
 -12   1  -1 656.964 160.490  11
  12  -1   1 707.050 215.452   7
 -13   1  -1 270.230 142.787   6
 -13  -1  -1 189.217 132.667   6
 -13  -1  -1 41.5435 127.597  11
 -13   1  -1 86.1437 128.763  20
  13  -1   1-71.2874 129.675   7
 -13   1  -1 223.128 111.659  19
 -14  -1  -1-111.863 106.803   6
 -14   1  -1 16.9967 97.7748   6
 -14   1  -1 54.8665 83.9986  19
  14  -1   1 15.7804 110.002   4
 -14  -1  -1 15.1018 92.7462  11
  14  -1   1-19.6492 109.180   7
  13   2  -1 3618.39 284.704  17
 -13  -2   1 3958.67 310.585   6
  13   2  -1 3596.72 325.337   4
 -13   2   1 3823.68 289.852  24
 -13   2   1 4276.78 353.475  19
 -13  -2   1 4534.49 394.198  11
 -13   2   1 3491.40 314.480   6
 -12   2   1 1234.73 201.719  24
 -12   2   1 1308.68 257.399  19
 -12   2   1 1638.50 265.631  20
 -12   2   1 1102.59 215.513   6
  12   2  -1 1771.28 293.246   4
  12   2  -1 1344.70 202.456  17
 -12  -2   1 1861.05 266.599   6
 -12   2   1 1662.90 214.386  33
 -12  -2   1 1815.90 292.743  11
 -11   2   1 359.512 163.331  33
 -11   2   1 370.113 192.926  34
  11  -2  -1 765.439 411.750  38
 -11  -2   1 49.7576 137.558   6
 -11   2   1 338.211 176.762  19
 -11   2   1 156.105 117.297  24
 -11   2   1 488.019 197.903  20
  11   2  -1 14.4803 172.111   4
 -11  -2   1 223.147 204.374  11
 -11   2   1 77.6713 131.505   6
  10   2  -1 1597.77 232.762  18
 -10   2   1 1539.68 279.328   6
  10   2  -1 1482.64 289.052   4
 -10   2   1 1991.80 272.498  33
 -10   2   1 1357.87 250.157  24
  10   2  -1 2517.16 528.123  29
  10  -2  -1 1703.45 492.941  38
 -10   2   1 1928.49 312.373  34
 -10  -2   1 2775.89 559.519  13
  10  -2  -1 1756.04 244.828   7
 -10  -2   1 2071.75 344.759  11
 -10   2   1 1262.52 262.443  20
 -10   2   1 1599.00 285.511  19
 -10  -2   1 1835.30 278.116   6
   9   2  -1 7198.85 824.203  29
   9   2  -1 7784.47 488.025  18
   9   2  -1 7976.49 630.432   4
  -9  -2   1 7959.17 619.064  11
  -9   2   1 8046.50 551.620  33
   9  -2  -1 9057.89 1009.64  38
  -9   2   1 7201.42 529.114  24
  -9   2   1 7900.32 568.319  20
  -9  -2   1 7798.16 867.781  13
  -9   2   1 7473.70 571.863   6
  -9  -2   1 8463.93 590.166   6
   9  -2  -1 7929.45 535.963   7
  -9   2   1 7840.92 592.285  34
  -8   2   1 11861.2 705.773  34
  -8  -2   1 13934.4 748.372   6
   8   2  -1 13585.6 669.500  18
  -8  -2   1 12478.7 1085.59  13
  -8  -2   1 13575.9 789.167  11
  -8   2   1 13031.1 691.331  24
  -8   2   1 13266.7 707.597  33
  -8   2   1 13691.3 1072.53  30
  -8   2   1 12173.9 727.073   6
  -8   2   1 13081.2 710.077  20
   8   2  -1 12988.2 799.203   4
   8  -2  -1 12810.9 1154.65  38
   8   2  -1 12443.4 1058.54  29
  -7  -2   1 515.723 195.603  39
   7   2  -1 225.547 232.822  29
  -7   2   1 42.5788 132.260  33
  -7   2   1-16.6676 115.930   6
  -7   2   1 193.547 119.513  21
   7   2  -1 113.452 114.363  18
  -7  -2   1 140.718 146.475  11
   7  -2  -1 33.2885 207.965  38
   7   2  -1 318.693 201.738   4
   7   2  -1 87.0929 191.003  41
   7   2  -1-34.2494 131.663  36
  -7  -2   1-78.2737 262.874  13
  -7   2   1 241.899 161.238  20
  -7   2   1 14.7743 118.544  34
  -7   2   1 51.2707 195.204  30
  -7   2   1 326.986 138.717  24
  -6  -2   1 47738.1 2075.95  13
   6   2  -1 43491.9 1405.23  18
   6  -2  -1 42505.8 1969.19  38
   6   2  -1 43498.7 1879.48  29
  -6   2   1 40711.5 1370.47  20
  -6   2   1 48217.9 1602.87   3
   6   2  -1 43875.7 1362.63  36
  -6   2   1 42322.5 1386.36  24
  -6   2   1 44234.7 1437.74  35
  -6   2   1 42097.8 1416.17  33
  -6  -2   1 42476.1 1651.55  39
  -6   2   1 46291.1 1417.53  21
   6   2  -1 44984.1 1629.17   3
  -6  -2   1 42070.8 1468.49  11
   6   2  -1 46764.5 1557.67   4
  -6   2   1 42924.6 1431.14  34
   6   2  -1 45018.1 1950.39  41
  -5   2   1 7163.22 506.075  27
   5   2  -1 6636.17 570.741   3
   5   2  -1 6372.39 604.760  29
  -5  -2   1 6850.06 703.443  13
   5   2  -1 6597.15 365.957  28
  -5  -2   1 7042.64 567.625  39
   5  -2  -1 6316.89 446.453  41
   5   2  -1 6428.32 629.854  41
  -5   2   1 7049.38 540.342   3
   5  -2  -1 6902.85 692.583  38
  -5   2   1 7563.76 381.701   1
   5   2  -1 7009.35 400.458   1
  -4   2   1 1076.78 143.824   1
   4   2  -1 1152.37 267.457  41
   4   2  -1 1137.02 170.794   1
   4   2  -1 1118.62 257.295  29
  -4  -2   1 1414.12 335.501  13
   4   2  -1 1096.11 150.583  28
   4  -2  -1 1430.85 311.676  38
  -4  -2   1 1179.28 240.938  39
  -4   2   1 1675.54 263.242  27
  -4   2   1 959.993 141.553   2
   4  -2  -1 1158.76 187.758  41
  -4   2   1 1358.90 162.432  31
   4   2  -1 979.090 256.409   3
  -4   2   1 1488.36 258.546   3
   3   2  -1 74744.9 2275.58  29
  -3  -2   1 74354.6 2281.44  39
  -3   2   1 73757.1 1913.36  28
   3  -2  -1 72173.7 2090.68  41
  -3   2   1 79597.2 2360.80   3
   3   2  -1 74222.3 2316.64  41
  -3   2   1 74874.9 1920.11   2
  -3   2   1 80577.2 2273.12  27
   3   2  -1 69609.5 1962.84   1
   3   2  -1 72502.9 2383.20   3
  -3  -2   1 71144.5 2458.12  13
  -3   2   1 72290.8 1908.14  31
  -3   2   1 76093.1 1944.83   1
   3   2  -1 70485.6 1919.64  28
   3  -2  -1 71866.9 2344.12  38
  -2   2   1 6735.33 492.982  27
   2   2  -1 6659.09 478.626  29
   2   2  -1 6106.26 462.189  41
  -2   2   1 6767.31 355.201   2
  -2   2   1 6602.63 533.285   3
  -2   2   1 6337.61 342.911  31
  -2   2   1 6151.71 354.419   1
  -2  -2   1 5903.71 542.317  13
  -2   2   1 6546.98 349.017  28
   2   2  -1 5553.98 362.533   1
   2   2  -1 5984.75 540.175   3
  -2  -2   1 5604.22 480.970  39
   2   2  -1 6493.10 358.105  28
  -1   2   1 111690. 2886.90  27
  -1   2   1 101773. 2947.64   3
   1   2  -1 95626.6 2960.74   3
  -1   2   1 101032. 2507.92  28
   1   2  -1 93163.5 2544.88   1
  -1   2   1 100162. 2493.88  31
  -1  -2   1 102380. 2914.89  13
   1   2  -1 100299. 2517.63  28
  -1   2   1 100685. 2536.60   1
  -1   2   1 103013. 2510.26   2
  -1  -2   1 101722. 2881.40  39
   0   2   1 40558.2 1546.36   3
   0  -2   1 40972.0 1243.32  38
   0   2  -1 41716.4 1601.70   3
   0  -2  -1 40990.1 1345.40  12
   0   2   1 43192.1 1204.91  31
   0   2  -1 40659.6 1252.97   1
   0   2   1 41365.4 1201.52  28
   0   2   1 40909.2 1461.08  27
   0  -2   1 40905.3 1520.53  39
   0  -2   1 41011.1 1442.34  13
   0   2   1 43686.0 1213.47   2
   0   2  -1 42125.8 1216.68  28
   0   2   1 41222.5 1225.70   1
   1   2   1-5.80684 84.4595  31
  -1   2  -1 72.9884 87.1621  28
   1   2   1 54.6526 82.1985  28
   1   2   1 88.8021 132.359  27
  -1  -2  -1-38.8766 110.947  39
  -1   2  -1 115.927 153.078   3
   1   2   1 36.7357 148.275   3
   1   2   1 60.4442 89.7732   1
   1  -2   1 31.5328 114.767  38
   1  -2   1 32.5175 141.148  39
   1  -2   1 72.9324 106.270  13
  -1  -2  -1-60.3933 113.397  12
  -1   2  -1 7.91487 93.0777   1
   1   2   1 16.6932 83.2219   2
   2   2   1 31483.3 1037.31   1
  -2   2  -1 35467.5 1050.94  28
   2  -2   1 33695.6 1049.97  13
   2   2   1 34685.9 1025.43  31
   2  -2   1 32754.0 1298.05  38
   2   2   1 36042.9 1042.50   2
  -2   2  -1 33941.3 1402.69   3
  -2  -2  -1 32543.4 1257.27  12
   2   2   1 33143.2 1356.42   3
  -2   2  -1 33474.2 1076.79   1
   2   2   1 33496.8 1031.28  28
   2  -2   1 35892.0 1433.01  39
   2   2   1 35803.1 1309.93  27
  -2  -2  -1 33343.4 1135.52  39
  -3  -2  -1 3229.33 259.877  39
  -3   2  -1 3468.97 255.802  28
  -3   2  -1 3015.81 368.929  30
  -3   2  -1 3256.66 263.527   1
   3   2   1 3382.37 259.221   1
   3  -2   1 3045.69 395.355  38
   3   2   1 2987.09 392.989  29
   3   2   1 3087.56 366.187   3
  -3   2  -1 3246.07 385.853   3
   3   2   1 3270.62 239.249  31
   3   2   1 3143.70 243.545   2
  -3  -2  -1 3190.74 377.335  12
   3   2   1 3920.79 387.164  27
   4   2   1 3058.46 437.011  29
  -4   2  -1 2953.93 236.718  28
  -4   2  -1 2907.26 361.011   3
  -4   2  -1 2630.77 381.393  30
   4   2   1 2741.30 348.345   3
   4   2   1 2602.39 223.174   1
  -4  -2  -1 3115.01 405.329  12
  -4  -2  -1 3427.76 491.692  13
  -4   2  -1 2674.53 236.398   1
   4   2   1 2963.98 333.093  27
   4  -2   1 2266.36 374.325  38
   5   2   1 64276.7 1964.85   8
   5   2   1 61819.6 1854.61  18
   5  -2   1 62272.3 2451.27  38
   5   2   1 61871.9 2383.84  29
  -5   2  -1 66570.7 1939.98  35
   5   2   1 68971.7 1754.24   1
  -5   2  -1 66815.4 1746.60  28
   5   2   1 67082.5 2117.62   3
   5   2   1 64483.2 1848.89  36
  -5   2  -1 65338.3 2139.83   3
  -5   2  -1 62144.8 2325.34  30
  -5  -2  -1 63413.0 2409.87  12
  -5  -2  -1 68507.5 2568.93  13
   6   2   1 2200.76 293.061   8
   6   2   1 2844.02 472.400  29
   6  -2   1 2245.08 466.150  38
  -6  -2  -1 3225.13 534.151  13
   6   2   1 2221.13 285.147   7
  -6  -2  -1 2423.92 440.944  12
   6  -2   1 3284.49 353.616   8
   6   2   1 2035.75 243.960  36
  -6   2  -1 2650.05 254.769  21
  -6   2  -1 2484.07 296.612  35
   6   2   1 2306.85 264.866  18
  -6   2  -1 2723.26 438.218  30
   7   2   1 5619.04 467.568   7
  -7  -2  -1 5149.70 727.151  13
  -7  -2  -1 5451.85 443.215   6
   7   2   1 5151.14 666.621  29
  -7   2  -1 4935.26 417.749   6
  -7   2  -1 4848.65 434.618  35
  -7  -2  -1 4914.32 674.637  12
  -7   2  -1 4565.70 359.727  21
   7  -2   1 5426.54 725.469  38
   7  -2   1 4673.80 402.079   8
   7   2   1 4759.67 400.959  18
   7   2   1 5409.03 396.736  36
   7  -2   1 5040.50 438.546  10
  -7   2  -1 5475.85 672.884  30
   8   2   1 451.909 136.451  36
   8  -2   1 665.505 183.875  10
   8   2   1 975.108 363.754  29
  -8  -2  -1 544.447 174.878   6
  -8   2  -1 831.563 315.090  30
  -8   2  -1 535.222 169.876   6
   8  -2   1 22.1379 294.143  38
  -8  -2  -1 781.015 218.543  11
   8   2   1 855.027 212.323   7
   8   2   1 767.151 194.502  18
   8  -2   1 638.219 176.044   7
  -8  -2  -1 1162.29 419.830  12
   8  -2   1 775.093 206.132   8
  -8   2  -1 705.806 176.741  33
  -8  -2  -1 718.509 353.563  13
  -8   2  -1 851.675 208.259  34
  -8   2  -1 781.031 188.403  35
  -8  -2  -1 666.140 291.277  40
   9   2   1 3707.09 645.241  29
  -9  -2  -1 5159.67 698.666  13
  -9  -2  -1 4272.54 710.116  12
  -9  -2  -1 5279.32 706.473  40
  -9   2  -1 4822.12 453.621  20
   9  -2   1 3698.00 676.442  38
  -9   2  -1 4827.56 683.525  30
   9  -2   1 4466.38 449.269   7
  -9  -2  -1 4007.12 472.091  11
   9  -2   1 3995.92 410.571  10
   9   2   1 5223.16 420.284  18
   9  -2   1 4613.80 421.770   8
   9  -2   1 3140.02 524.219  39
  -9  -2  -1 3703.36 422.487   6
  -9   2  -1 3850.46 420.445  34
  -9   2  -1 4395.40 453.369  35
  -9   2  -1 5043.30 427.761  33
  -9   2  -1 3963.80 414.349   6
  10   2   1 141.273 92.8017  18
 -10   2  -1-15.5319 253.481  30
 -10   2  -1-175.388 150.661   6
 -10  -2  -1 164.869 178.684   6
 -10  -2  -1 65.5099 274.126  40
  10  -2   1-35.4783 137.619  10
 -10   2  -1-11.7890 170.236  34
 -10  -2  -1-139.607 159.925  11
 -10   2  -1-62.5000 162.870  20
 -10   2  -1-147.988 134.659  33
  10  -2   1-184.455 418.175  38
  10  -2   1-51.0898 168.779   7
  10   2   1 39.7399 228.394  29
 -11   2  -1 37.3961 125.893   6
 -11  -2  -1 157.705 160.958   6
  11   2   1 181.901 94.5551  18
 -11   2  -1 51.1935 142.296  34
 -11  -2  -1 165.382 168.227  11
 -11   2  -1 418.288 228.182  20
  11  -2   1-133.389 161.944   7
 -12   2  -1 3232.20 322.340   6
 -12  -2  -1 3464.89 336.094   6
 -12   2  -1 3794.65 360.259  34
 -12  -2  -1 3850.83 392.521  11
 -12   2  -1 3603.73 351.226  19
  12  -2   1 4220.34 383.192   7
 -12   2  -1 3379.03 350.242  20
 -13   2  -1 147.704 103.569  20
  13  -2   1 169.626 122.039   7
 -13  -2  -1 239.174 96.1634   6
 -13   2  -1 411.222 126.448  19
 -13  -2  -1 482.942 149.855  11
  12   3  -1 3035.18 297.855  15
 -12  -3   1 2949.23 287.746  11
  12   3  -1 2486.63 243.841  17
 -12   3   1 3621.47 301.944  19
 -12   3   1 3670.94 273.962  33
 -11  -3   1 634.645 182.084  11
  11   3  -1 373.468 112.262  18
 -11   3   1 462.679 135.416  33
 -11   3   1 459.401 132.368  20
 -11   3   1 113.316 74.2273  24
  11   3  -1 132.884 104.949  17
 -11   3   1 243.778 134.403  19
 -11   3   1 209.542 148.593  34
  11   3  -1 287.597 159.070  15
 -10   3   1 7314.95 513.693  19
 -10   3   1 6889.73 498.583  33
 -10  -3   1 6785.65 523.961  11
  10   3  -1 6583.44 498.117  17
  10   3  -1 7370.36 464.801  18
 -10   3   1 7560.19 554.854  34
 -10   3   1 6063.67 439.198  24
  10   3  -1 6654.83 490.622   4
  10   3  -1 6832.20 540.033  15
 -10   3   1 6901.52 491.433  20
   9   3  -1 29188.7 1067.52  36
   9   3  -1 30041.3 1771.20  29
   9   3  -1 29962.4 1226.06   4
  -9   3   1 30076.3 1156.21  24
  -9  -3   1 28659.5 1846.19  13
   9  -3  -1 30245.6 1906.61  38
  -9   3   1 29624.8 1232.20  34
  -9  -3   1 29427.8 1231.90  11
  -9   3   1 30171.3 1166.07  20
  -9   3   1 30185.3 1201.45  19
   9   3  -1 31964.5 1160.38  18
  -9   3   1 30308.4 1210.96  33
   9   3  -1 30920.2 1244.00  17
  -8  -3   1 28012.3 1819.38  13
  -8   3   1 27677.1 1096.60  24
  -8  -3   1 27985.2 1169.64  11
  -8   3   1 25854.0 1106.04  21
   8   3  -1 25795.1 1623.46  29
  -8   3   1 25621.1 1094.66  19
   8   3  -1 26994.6 1038.39  36
   8   3  -1 27529.9 1167.65  17
  -8   3   1 26698.0 1147.96  34
  -8   3   1 26659.0 1131.07  33
   8   3  -1 26421.6 1090.68  18
   8   3  -1 25280.9 1139.08   4
   8  -3  -1 27617.8 1778.57  38
  -8   3   1 26461.7 1066.03  20
  -7  -3   1 74.8330 236.337  13
  -7   3   1 50.3858 150.237  33
   7   3  -1 297.006 156.459  17
   7   3  -1-97.1839 118.769  36
   7  -3  -1-419.870 290.065  38
  -7   3   1-126.604 124.331  21
  -7  -3   1 581.974 185.842  11
   7   3  -1-0.77944 144.641   4
  -7   3   1 67.9981 123.519  20
   7   3  -1 8.61018 115.068  18
  -7   3   1-34.9647 123.383  34
  -7   3   1 13.2153 111.098  24
  -6   3   1 10385.0 632.246  33
   6   3  -1 10060.7 607.239  18
  -6  -3   1 10300.2 1056.71  13
  -6   3   1 9953.22 790.206   3
   6   3  -1 10178.6 525.158  28
   6   3  -1 8500.02 828.051  29
   6   3  -1 9893.51 547.348   1
   6   3  -1 9836.65 636.528  17
  -6   3   1 9890.39 518.140  25
  -6   3   1 9385.47 585.228  21
  -6   3   1 9254.18 563.364  24
  -6   3   1 9041.89 561.477  35
   6   3  -1 10680.0 875.075   3
   6   3  -1 9304.21 612.151   4
   6  -3  -1 9005.29 910.227  38
  -6   3   1 10576.0 536.728   1
  -6   3   1 10133.5 563.356  20
   6   3  -1 9853.91 578.949  36
  -6   3   1 8974.30 578.716  34
   5   3  -1 13439.8 741.096  15
   5   3  -1 13900.9 1015.84   3
  -5  -3   1 10634.1 1029.26  13
   5   3  -1 12546.5 665.622  36
  -5  -3   1 14271.5 932.958  39
   5   3  -1 12647.5 705.975  17
  -5   3   1 13915.3 605.032  26
  -5   3   1 12748.5 610.045  25
   5  -3  -1 13195.1 1028.77  38
  -5   3   1 12679.2 607.569   5
  -5   3   1 12918.4 585.136  23
   5   3  -1 12874.3 590.551  22
   5   3  -1 13059.3 671.184   1
  -5   3   1 13858.1 675.126  24
  -5   3   1 13642.0 648.031   1
   5   3  -1 13470.4 612.272   5
  -5   3   1 12823.3 589.336  22
   5   3  -1 13195.6 636.893  28
   5   3  -1 12198.2 704.888   4
  -5   3   1 12862.4 936.301   3
  -5   3   1 11898.3 647.368  34
   5   3  -1 12858.0 689.386  18
  -5   3   1 13711.2 688.203  21
  -5   3   1 12866.9 693.022  33
  -4   3   1 3411.82 283.513  26
   4   3  -1 2959.46 315.806   1
   4   3  -1 3610.42 531.427   3
  -4   3   1 3793.86 338.064  21
   4   3  -1 3512.93 331.788  36
  -4   3   1 3523.72 322.017   1
  -4   3   1 3046.33 294.208  34
  -4   3   1 3572.44 290.733  23
   4   3  -1 3224.51 307.563  28
  -4  -3   1 2914.05 440.456  39
  -4   3   1 3668.44 324.849  24
  -4   3   1 3300.10 289.887   5
   4   3  -1 3307.73 295.284   5
  -4   3   1 3339.77 471.584   3
   4   3  -1 4124.54 311.244  22
   4  -3  -1 3062.86 476.191  38
   4   3  -1 3152.63 320.022  18
  -4  -3   1 3297.55 557.932  13
  -4   3   1 3272.19 279.991  22
   4   3  -1 3804.26 372.995   4
   4   3  -1 3815.71 364.766  15
  -4   3   1 3572.33 335.312  33
  -4   3   1 3336.90 290.929  25
   4   3  -1 3209.89 331.879  17
   3  -3  -1 376.588 194.153  38
   3   3  -1 423.930 117.273  15
  -3  -3   1 196.175 197.758  13
  -3   3   1 425.875 135.474  25
   3   3  -1 129.743 152.809   4
  -3   3   1 328.037 218.594  27
   3   3  -1 323.867 123.348  36
  -3   3   1 344.905 138.562  33
   3   3  -1 569.651 154.082  18
  -3   3   1 444.140 151.392  22
   3   3  -1 581.128 171.501   1
  -3   3   1 287.418 125.628  24
   3   3  -1 495.898 283.340   3
  -3   3   1 384.378 125.926  23
  -3   3   1 243.287 192.487   3
   3   3  -1 292.847 91.4430   5
  -3   3   1 479.856 131.467  21
   3   3  -1 423.938 133.273  17
  -3  -3   1 391.024 177.341  39
  -3   3   1 529.401 140.654   5
  -3   3   1 261.270 91.9803  26
  -3   3   1 474.466 148.824   1
   3   3  -1 362.181 107.542  22
   3   3  -1 485.480 141.442  28
   2   3  -1 40705.3 1343.77  28
   2   3  -1 40878.7 1362.67  15
   2  -3  -1 40940.3 1616.77  13
   2   3  -1 43579.7 1328.89   5
   2   3  -1 41110.7 1356.64  17
  -2   3   1 42577.3 1347.40  28
  -2   3   1 40481.4 1354.13   1
  -2   3   1 46103.1 1818.61  27
  -2   3   1 40859.6 1847.83   3
  -2   3   1 40325.6 1279.64  26
  -2   3   1 38747.5 1288.07   5
  -2   3   1 40923.9 1319.55  21
   2   3  -1 39700.3 1866.27   3
  -2   3   1 39375.0 1268.02  22
   2   3  -1 38141.2 1368.35   1
  -2   3   1 41335.9 1290.26  25
  -2   3   1 40989.4 1289.87  23
  -2   3   1 38491.7 1291.49  33
   2   3  -1 40012.4 1327.74  18
  -2  -3   1 41136.0 1767.30  39
  -2   3   1 40902.4 1313.31  24
  -2  -3   1 38610.2 1816.97  13
   2   3  -1 42076.2 1295.81  22
   2   3  -1 41801.3 1351.22  36
  -1   3   1 51797.7 1966.79  27
   1   3  -1 47701.0 1436.12  23
  -1   3   1 48314.2 1516.07   1
   1   3  -1 47156.4 1539.86   1
  -1   3   1 47656.0 1446.53  24
   1  -3  -1 48810.1 1892.69  13
  -1   3   1 45115.3 1405.25  22
   1   3  -1 43877.4 2024.92   3
  -1   3   1 46923.4 2017.53   3
   1   3  -1 49417.1 1483.98  36
  -1   3   1 46704.0 1448.62  21
  -1   3   1 47475.3 1433.51  25
  -1  -3   1 48087.0 1944.55  13
  -1  -3   1 46497.8 1936.08  39
  -1   3   1 44678.0 1428.15   5
  -1   3   1 44949.7 1416.25  23
  -1   3   1 47186.7 1476.16  28
   1   3  -1 48336.2 1486.53  17
   1   3  -1 46434.2 1448.50   5
   1   3  -1 46555.4 1425.40  22
   1   3  -1 46562.7 1485.23  28
   1   3  -1 46779.1 1477.72  15
  -1   3   1 46995.9 1430.40  26
   1   3  -1 46517.4 1470.55  21
   1   3  -1 47625.5 1455.78  18
   0   3  -1 44150.2 1394.68  16
   0   3  -1 44710.9 1351.67  23
   0  -3  -1 40652.9 1824.10  13
   0   3   1 41736.6 1327.18  25
   0   3   1 43310.1 1348.49  36
   0  -3   1 41860.7 1698.37  13
   0   3  -1 45199.5 1345.46  26
   0   3   1 44999.5 1822.78  27
   0   3   1 44449.0 1357.11  24
   0   3   1 40156.3 1867.52   3
   0   3  -1 42294.7 1341.97  36
   0  -3  -1 45199.8 1782.15  39
   0   3   1 42797.1 1331.17  26
   0   3   1 39726.8 1381.84   1
   0   3   1 42455.2 1333.08  23
   0   3  -1 43376.2 1366.45  21
   0   3  -1 41532.9 1321.47  18
   0   3   1 40030.4 1323.81   5
   0   3  -1 42975.0 1390.70  28
   0   3   1 44758.3 1339.71  22
   0   3  -1 40924.4 1918.93   3
   0   3  -1 43792.2 1360.18   5
   0   3  -1 42984.9 1445.37   1
   0   3   1 40302.5 1355.09  28
   0   3  -1 40585.9 1313.37  22
   0   3   1 43926.2 1356.49  21
   0   3  -1 42546.9 1368.77  17
   0  -3   1 42778.7 1853.99  39
  -1   3  -1-2.59650 88.1918  28
   1   3   1 49.7111 99.9527  24
   1   3   1-119.863 139.201  36
   1   3   1 131.825 196.781   3
  -1  -3  -1 46.1521 105.523  39
   1   3   1 217.975 93.0382  22
   1   3   1 122.559 84.8083  28
  -1   3  -1 151.078 224.237   3
   1  -3   1-80.6369 133.918  13
  -1  -3  -1-126.606 228.724  13
   1   3   1 103.065 91.1621  25
  -1   3  -1 7.58613 108.190   5
   1   3   1 7.10361 91.8365  26
   1   3   1 57.3822 79.1814  21
  -1   3  -1 85.8424 105.991   1
   1   3   1 1.38449 80.8770   5
   1   3   1-16.0539 87.0655  23
   1   3   1 329.850 160.095   1
   1   3   1 12.3859 96.7090  18
  -1   3  -1 51.4863 75.9447  21
  -1   3  -1 66.2982 90.2360  36
  -1   3  -1 54.5444 86.0123  18
  -1   3  -1 3.11232 78.2192  22
  -1   3  -1 147.875 127.809  26
   1   3   1-83.3959 214.512  27
   1  -3   1 87.4041 158.280  39
  -1   3  -1-60.9511 107.944  16
   2   3   1 4902.07 550.026  27
  -2   3  -1 5234.02 409.716   1
   2   3   1 6153.35 662.932   3
   2   3   1 5787.45 377.228  26
   2   3   1 5235.59 381.596  21
   2   3   1 5028.04 353.990  23
  -2   3  -1 4831.35 357.679   5
   2   3   1 5035.14 369.952  25
  -2   3  -1 4748.56 369.460  28
   2   3   1 5593.46 385.994  24
  -2   3  -1 4971.80 341.211  36
  -2   3  -1 4629.30 589.701   3
   2   3   1 4967.66 386.535   1
   2   3   1 5807.11 407.995  36
   2   3   1 5530.22 364.085  22
   2   3   1 5310.89 388.168  18
  -2   3  -1 4913.32 350.965  22
  -2  -3  -1 5638.13 678.046  13
  -2   3  -1 6074.81 371.310  26
  -2  -3  -1 5444.98 492.271  39
   2   3   1 4921.96 375.035  17
  -2   3  -1 5528.40 388.539  16
   2  -3   1 5948.38 661.392  39
  -2   3  -1 5325.11 377.294  21
   2   3   1 5440.55 372.016   5
  -3   3  -1 122.018 199.805   3
   3   3   1 97.2454 77.7701  21
  -3   3  -1-58.1750 91.2105   1
  -3   3  -1 138.581 87.7289   5
  -3  -3  -1-37.0025 192.888  13
   3   3   1-20.6012 92.6659  22
   3  -3   1 116.732 207.290  39
   3   3   1 43.1092 113.534  36
   3  -3   1 184.089 145.163  38
   3   3   1 242.533 121.257  25
   3   3   1 121.092 92.3183  23
   3   3   1-7.22623 101.363  24
   3   3   1 43.3887 113.281   5
   3   3   1-3.20021 89.9085  26
  -3   3  -1 127.130 112.163  28
   3   3   1 99.0578 105.804  18
  -3   3  -1-54.4279 84.5206  22
  -3   3  -1-125.657 92.6255  21
   3   3   1-39.0706 149.405   3
   3   3   1 145.738 103.277   1
   4   3   1 21489.7 814.245  23
  -4   3  -1 20978.1 863.281  21
   4   3   1 21736.3 1268.48   3
  -4   3  -1 21102.1 852.264  28
   4   3   1 21537.8 835.448  26
  -4   3  -1 21507.8 886.377   1
   4   3   1 21471.0 879.717  25
  -4   3  -1 20390.6 823.553   5
   4   3   1 20573.9 814.431   5
  -4   3  -1 20657.1 1250.05   3
   4  -3   1 20557.2 1346.71  39
   4   3   1 21204.5 800.091  22
  -4   3  -1 20701.9 803.968  22
  -4  -3  -1 21513.6 1464.32  13
   4   3   1 20676.8 890.759  18
   4   3   1 20466.2 895.094  36
   4  -3   1 22457.3 1288.82  38
   4   3   1 22517.5 891.392   1
  -5   3  -1 66605.5 2511.25   3
  -5   3  -1 68706.2 1946.91  28
   5  -3   1 69383.5 2817.72  39
   5   3   1 66014.3 1917.49  26
   5   3   1 70899.3 1901.82  23
  -5   3  -1 65481.8 2076.00  35
   5   3   1 68979.6 2077.25  18
   5   3   1 68250.9 1900.68   5
   5  -3   1 68495.6 2725.44  38
  -5   3  -1 69469.4 2012.40  21
   5   3   1 70492.4 1980.45   1
   5   3   1 68097.6 1878.36  22
   5   3   1 71728.6 2564.47   3
  -5   3  -1 67028.1 1909.00   5
   5   3   1 67509.1 2050.45  36
  -5   3  -1 68763.1 1977.87   1
  -5  -3  -1 65168.3 2906.38  13
  -6  -3  -1 862.457 192.577  11
   6   3   1 702.128 184.895  36
  -6   3  -1 753.417 164.733  21
   6  -3   1 694.190 340.866  39
  -6  -3  -1 759.578 357.907  13
  -6   3  -1 422.334 138.343  35
   6   3   1 530.811 167.427  18
   6  -3   1 709.240 266.999  38
  -7  -3  -1 21782.2 1582.91  13
   7   3   1 15266.3 810.106  36
  -7   3  -1 19020.7 947.878  35
   7  -3   1 20719.1 1422.89  39
   7  -3   1 18269.0 1395.82  38
  -7  -3  -1 20036.7 955.215  11
   7   3   1 23898.5 999.173  18
  -7   3  -1 23618.6 996.348  33
   8   3   1 5496.59 458.456  18
  -8   3  -1 4889.22 460.836  34
   8  -3   1 4979.73 753.931  38
  -8   3  -1 5419.13 464.961  33
   8  -3   1 5319.13 724.921  39
  -8   3  -1 4971.37 471.924  35
  -8  -3  -1 4800.01 463.109  11
  -8  -3  -1 5485.41 794.622  40
   8   3   1 5749.04 436.929  36
  -8  -3  -1 6020.74 835.920  13
  -9   3  -1 11737.8 726.233  35
   9  -3   1 12589.0 730.361   7
  -9   3  -1 12229.9 704.841  20
   9   3   1 14020.2 663.980  36
  -9  -3  -1 13182.0 763.537  11
  -9   3  -1 12052.6 682.249  33
   9   3   1 12414.3 692.634  18
  -9   3  -1 12412.7 738.442  34
 -10   3  -1 1624.32 245.273  20
 -10   3  -1 1146.34 236.660  34
  10   3   1 1426.28 189.390  36
 -10  -3  -1 1179.75 243.669  11
  10  -3   1 1184.88 220.439   7
 -10   3  -1 1523.26 230.238  33
  10   3   1 1295.14 204.819  18
  10   3   1 1205.06 173.805  21
 -11   3  -1 6363.13 391.840  33
  11   3   1 6316.57 438.387  17
 -11   3  -1 6466.06 441.725  20
 -11  -3  -1 5739.15 436.164  11
 -11   3  -1 6181.05 453.547  34
  11   3   1 5976.74 378.083  18
 -11   3  -1 6248.22 430.595  19
  12   3   1 8885.28 456.610  17
 -12  -3  -1 8450.58 454.822  11
  12  -3   1 8508.41 420.007   7
  12   3   1 9024.07 469.062  15
 -12   3  -1 9789.49 496.659  34
 -12   3  -1 9360.97 468.742  20
 -12   3  -1 9779.72 471.921  19
 -10   4   1 134.803 112.958  33
  10   4  -1 283.679 94.1215  21
  10   4  -1 617.480 148.054  17
  10   4  -1 293.783 94.4372  18
  10   4  -1 342.277 119.288  15
   9   4  -1 21902.6 802.050  36
   9   4  -1 21894.3 907.519  17
  -9   4   1 21745.8 895.992  33
   9   4  -1 22232.3 928.669  15
   9   4  -1 22016.0 890.559  21
   9   4  -1 22528.3 856.533  18
  -9   4   1 22598.7 872.653  34
   8   4  -1 551.236 167.121  18
   8   4  -1 386.697 147.057  15
  -8   4   1 612.310 126.631  24
   8   4  -1 287.225 151.478  17
  -8   4   1 336.204 141.865  33
   8   4  -1 635.755 172.741  21
  -8   4   1 664.512 157.810  19
  -8   4   1 336.191 124.919  34
   8   4  -1 579.510 148.197  36
  -7   4   1 8901.10 583.741  33
   7   4  -1 9046.48 602.747  15
   7   4  -1 9867.52 619.684  17
  -7   4   1 8266.19 519.687  34
  -7   4   1 8858.79 511.997  24
   7   4  -1 9720.81 606.647  21
   7   4  -1 9569.99 561.930  36
   7   4  -1 8938.10 572.402  18
  -7   4   1 7943.51 549.025  21
   6   4  -1 5101.88 401.875   1
  -6  -4   1 4996.17 791.581  13
  -6   4   1 5291.44 384.862   1
  -6   4   1 4977.66 398.391  34
   6   4  -1 4694.32 434.498  15
  -6   4   1 4477.49 323.756  22
  -6   4   1 4943.66 444.248  33
   6   4  -1 4851.49 336.937  22
  -6   4   1 5045.25 354.271   5
   6   4  -1 5196.07 351.900   5
   6   4  -1 5384.70 446.202  18
  -6   4   1 4374.18 397.540  21
   6  -4  -1 3920.31 694.212  39
   6   4  -1 5060.58 458.474  17
   6   4  -1 5287.68 442.844  36
  -6   4   1 4998.99 386.720  24
   6   4  -1 5181.58 450.498  21
  -5   4   1 94120.9 2757.68  33
  -5   4   1 95221.1 2748.31  21
   5  -4  -1 89249.0 3638.79  39
   5   4  -1 95085.2 2675.30  28
  -5   4   1 101448. 2726.57   1
   5   4  -1 97030.3 2594.01  22
   5   4  -1 101848. 2763.19   1
   5   4  -1 100708. 2816.70  21
  -5   4   1 97627.5 3470.66   3
  -5   4   1 96156.0 2589.21  22
  -5   4   1 95962.5 2661.91  24
  -5   4   1 97283.2 2630.64   5
  -5   4   1 98793.5 2587.13  26
  -5  -4   1 93404.0 3803.15  13
  -5   4   1 99115.1 2595.76  25
   5   4  -1 99942.8 2814.91  15
   5   4  -1 98333.8 3537.83   3
   5   4  -1 97546.8 2804.56  17
   5   4  -1 95612.8 2751.27  36
   5   4  -1 99387.6 2778.66  18
   5   4  -1 95413.4 2609.24   5
  -4   4   1 750.562 153.855  22
  -4   4   1 590.455 176.224  33
  -4   4   1 591.604 153.191  26
   4   4  -1 507.318 159.746   5
   4   4  -1 673.614 163.048  22
  -4   4   1 789.367 188.035   5
  -4   4   1 920.968 378.860   3
  -4   4   1 838.251 173.673  25
   4   4  -1 667.132 162.132   1
  -4   4   1 763.409 179.145   1
   4   4  -1 478.382 147.520  28
  -4   4   1 468.264 152.806  21
  -4   4   1 425.628 183.161  23
   4   4  -1 542.510 320.230   3
   4   4  -1 678.143 176.744  18
   4   4  -1 694.279 201.516  21
   4  -4  -1 598.745 370.483  39
   4   4  -1 820.951 179.955  17
  -4   4   1 671.046 162.333  24
   4   4  -1 964.721 209.094  15
   4   4  -1 562.055 180.909  36
  -4  -4   1 1072.28 393.154  13
  -3   4   1 7328.36 507.988  33
   3   4  -1 7308.48 531.490  16
   3   4  -1 7656.01 533.298  28
  -3  -4   1 8033.25 900.773  13
   3   4  -1 7408.69 528.456  36
   3   4  -1 8226.84 895.356   3
   3   4  -1 7865.90 574.342   1
  -3   4   1 8604.15 512.629  26
  -3   4   1 8944.32 925.691   3
  -3   4   1 8382.65 511.781  23
   3   4  -1 8446.96 567.593  21
   3   4  -1 7624.97 528.106  18
  -3   4   1 8531.74 548.237  21
   3   4  -1 8344.54 521.555   5
  -3   4   1 8618.42 576.510   1
   3   4  -1 9296.83 531.153  22
   3  -4  -1 7563.63 853.156  39
  -3  -4   1 9239.07 861.058  39
  -3   4   1 8092.06 496.751  25
   3   4  -1 8722.44 565.223  15
   3   4  -1 8702.16 575.274  17
  -3   4   1 7986.26 501.984  24
  -2   4   1 1982.44 260.830  23
   2   4  -1 1618.02 254.142  18
   2   4  -1 1788.66 262.301  16
   2   4  -1 1888.39 258.878  15
  -2   4   1 1657.13 228.253  24
   2  -4  -1 695.721 266.358  39
  -2  -4   1 1731.87 432.570  13
  -2   4   1 1555.43 233.356  21
   2   4  -1 1390.12 234.350  28
   2   4  -1 1884.63 272.083  21
  -2   4   1 1819.10 226.187  36
  -2   4   1 1969.16 249.410  33
  -2   4   1 1671.90 226.257  25
  -2   4   1 1380.01 228.991   5
   2   4  -1 1649.05 420.716   3
  -2   4   1 1586.33 230.182  22
  -2   4   1 1618.78 406.948   3
   2   4  -1 1753.62 257.249  17
  -2  -4   1 2081.75 443.599  39
   2   4  -1 1834.90 256.947  22
   2   4  -1 1712.18 286.987   1
  -2   4   1 1335.94 221.539  26
   2   4  -1 1931.53 267.412  36
  -2   4   1 1722.73 274.193   1
   2   4  -1 1752.90 250.118   5
   1   4  -1 582.509 194.157   1
   1   4  -1 283.265 125.479  18
  -1   4   1 223.387 159.929   1
  -1   4   1 195.559 252.316   3
   1   4  -1 558.524 183.343  28
  -1   4   1 583.198 162.147  21
  -1   4   1 413.979 137.885  25
  -1   4   1 706.043 163.524  36
   1   4  -1 516.482 131.729  16
  -1   4   1 374.628 158.510  26
   1   4  -1 562.276 172.656   5
  -1   4   1 461.498 129.353  24
   1   4  -1 357.792 148.206  22
   1   4  -1 568.893 330.651   3
  -1  -4   1 833.925 292.754  39
  -1   4   1 526.436 158.420  23
   1  -4  -1 404.801 218.145  39
   1   4  -1 780.529 192.043  17
  -1   4   1 516.675 144.891   5
  -1   4   1 337.879 139.628  22
   1   4  -1 328.888 142.410  21
   1   4  -1 546.819 177.708  36
   0   4   1 3350.47 336.773  26
   0   4  -1 3196.60 365.424  28
   0   4   1 3302.60 325.206  23
   0   4  -1 3596.27 349.231   5
   0   4   1 3763.23 347.424  36
   0   4  -1 3140.19 304.529  18
   0   4   1 3816.93 350.494  25
   0   4   1 3953.44 346.065  24
   0   4   1 3439.51 302.162  18
   0   4   1 3581.84 349.529   5
   0  -4  -1 3404.90 543.484  39
   0   4  -1 1926.98 436.091   3
   0   4   1 3854.24 620.326   3
   0   4   1 3179.57 320.703  22
   0   4  -1 3237.85 320.348  22
   0   4   1 3499.74 343.684  21
   0   4  -1 3093.71 326.985  21
   0  -4  -1 3624.74 555.317  13
   0  -4   1 3246.71 557.994  39
   0   4  -1 3717.94 344.763  16
   0   4  -1 3527.58 402.933   1
   0   4   1 3691.54 386.588   1
   0   4  -1 3519.37 336.706  36
   1   4   1 30500.3 1163.25  36
   1   4   1 31611.2 1159.28  25
   1   4   1 29956.8 1146.78   5
  -1   4  -1 29832.3 1801.52   3
  -1   4  -1 29596.9 1249.31   1
  -1   4  -1 29258.9 1095.13  36
  -1   4  -1 30116.6 1210.13  28
   1   4   1 31021.1 1141.37  26
   1   4   1 30647.5 1136.34  24
   1   4   1 30627.6 1237.27   1
   1   4   1 29341.5 1152.32  21
   1   4   1 29889.6 1123.09  23
  -1   4  -1 30078.8 1153.06   5
   1   4   1 30761.6 1133.39  22
  -1   4  -1 29030.2 1115.26  22
   1  -4   1 31102.7 1790.50  39
   1   4   1 31026.1 1807.11   3
  -1   4  -1 29372.7 1152.39  21
  -1  -4  -1 28160.7 1722.95  13
  -1   4  -1 30324.1 1122.42  16
   1   4   1 28459.5 1096.89  18
  -1   4  -1 30926.2 1088.14  18
   2   4   1 20640.8 885.285   5
   2   4   1 20851.3 878.223  23
  -2   4  -1 18878.0 936.749   1
  -2   4  -1 19130.1 912.832  28
   2   4   1 18549.7 859.338  25
  -2   4  -1 19009.7 1390.82   3
   2   4   1 19961.7 870.175  26
   2   4   1 20151.1 1405.37   3
   2   4   1 20478.2 884.182  24
  -2   4  -1 19598.5 879.718   5
   2   4   1 20094.6 948.440   1
   2   4   1 19661.7 889.292  21
   2   4   1 19413.5 843.923  22
  -2   4  -1 19798.0 854.204  22
   2   4   1 18933.7 861.604  18
  -2  -4  -1 18598.7 1427.55  13
  -2   4  -1 18564.2 871.483  21
   2  -4   1 19903.8 1423.82  39
  -2   4  -1 19325.0 807.708  36
   2   4   1 19847.6 907.696  36
   2   4   1 19080.1 835.057  17
   3   4   1 3544.82 341.451   5
   3   4   1 3735.18 340.016  26
  -3   4  -1 3474.01 352.688  28
  -3   4  -1 3492.89 362.879   1
   3   4   1 3184.37 321.620  17
   3   4   1 3381.23 319.358  22
  -3  -4  -1 3065.44 594.261  13
   3   4   1 3727.21 332.397  23
  -3   4  -1 3101.55 319.371   5
   3  -4   1 3220.77 567.402  39
   3   4   1 3145.79 357.147   1
  -3   4  -1 3542.32 576.639   3
   3   4   1 3484.18 581.787   3
  -3   4  -1 3717.68 331.129  22
  -3   4  -1 3289.67 343.683  21
   3   4   1 3703.00 362.546  18
   3   4   1 3489.95 359.157  36
   3   4   1 3123.70 321.730  21
  -3   4  -1 3262.54 326.273  35
  -4   4  -1 58347.4 1935.60  33
  -4   4  -1 63424.9 2661.83   3
   4  -4   1 61668.7 2793.35  39
  -4   4  -1 61521.4 1898.18  28
  -4  -4  -1 58680.9 2891.36  13
  -4   4  -1 61691.6 1937.72   1
  -4   4  -1 60297.8 1886.58  35
   4   4   1 63540.0 2663.01   3
  -4   4  -1 62114.8 1912.86  21
   4   4   1 59655.5 1827.76   5
  -4   4  -1 59098.8 1831.34   5
   4   4   1 62596.6 1820.87  23
   4   4   1 65376.5 1965.04   1
   4   4   1 61192.6 1811.73  22
   4   4   1 63733.6 1974.61  36
  -4   4  -1 62488.1 1816.37  22
   4   4   1 61621.6 1911.11  21
   4   4   1 59255.6 1924.78  18
   4   4   1 61899.0 1924.01  17
   5   4   1 39631.0 1421.26  17
  -5   4  -1 40089.1 1366.51   1
  -5  -4  -1 38897.9 2261.52  13
   5   4   1 39146.8 1284.48   5
   5   4   1 39996.5 1269.64  22
  -5   4  -1 37491.3 1274.97   5
   5   4   1 38864.8 1373.48  21
   5   4   1 36801.7 1397.39  36
  -5   4  -1 38342.3 1381.09  35
  -5   4  -1 38860.3 1439.90  33
   5  -4   1 36534.8 2089.32  39
  -5   4  -1 40701.5 1267.04  22
  -5   4  -1 40052.4 1386.43  21
   5   4   1 38733.9 1419.24  18
  -5   4  -1 40329.5 1344.55  28
   5   4   1 42314.5 1396.38   1
   6   4   1 3430.33 369.872  18
   6   4   1 2814.51 307.726  15
  -6   4  -1 3455.59 341.593  35
   6   4   1 2865.18 338.304  36
   6   4   1 2967.82 344.183  17
  -6   4  -1 2974.72 281.505  20
   6  -4   1 2551.02 576.174  39
  -6   4  -1 3354.06 370.403  33
   6   4   1 2809.40 305.141  21
  -6   4  -1 3258.54 326.627  21
  -6  -4  -1 2537.00 614.498  13
  -6   4  -1 3508.43 359.426  34
   7   4   1 3408.10 314.968  21
   7   4   1 3826.94 368.685  17
  -7   4  -1 3725.99 363.898  33
   7   4   1 4200.17 379.744  18
  -7   4  -1 3703.31 318.352  20
  -7   4  -1 3802.81 358.866  35
   7   4   1 3937.31 353.630  15
   7   4   1 3347.84 334.434  36
  -7   4  -1 3792.40 335.813  21
  -7   4  -1 3487.73 355.794  34
   8   4   1 16492.1 687.963  21
   8   4   1 16515.7 725.689  36
   8   4   1 14388.0 699.423  15
  -8   4  -1 15736.8 756.368  33
   8   4   1 17074.7 766.757  18
   8  -4   1 16642.2 753.033   7
   8   4   1 17948.1 798.484  17
  -8   4  -1 16273.3 694.261  20
  -8   4  -1 16210.5 770.657  34
  -9   4  -1 8493.17 446.357  19
   9  -4   1 7640.14 433.966   7
   9   4   1 8639.68 472.574  18
   9   4   1 7903.35 470.603  17
   9   4   1 7560.85 434.652  15
   9   4   1 8244.28 427.036  36
  -9   4  -1 7743.37 464.357  33
  -9   4  -1 7577.10 469.273  34
 -10   4  -1 8883.21 441.538  33
  10   4   1 8989.73 448.853  17
 -10   4  -1 8593.64 405.224  19
  10   4   1 8521.21 423.806  18
 -10   4  -1 9451.04 472.324  34
  -7   5   1 4371.53 297.716  33
   7   5  -1 4645.79 295.053  36
   7   5  -1 4163.15 290.857  21
   7   5  -1 4931.12 308.890  18
  -6   5   1 3495.74 287.219  33
  -6   5   1 3195.62 275.946  21
   6   5  -1 3765.77 301.170  21
   6   5  -1 3791.58 297.415  18
   6   5  -1 3759.13 292.183  36
   5   5  -1 5098.30 360.636  18
   5   5  -1 4660.10 350.115  36
  -5   5   1 4520.00 288.490  22
  -5   5   1 4560.68 350.958  21
   5   5  -1 5245.63 374.249  21
  -5   5   1 4627.38 307.002   5
   5   5  -1 4894.69 306.358   5
   5   5  -1 4707.48 342.491   1
   5   5  -1 4936.96 300.112  22
  -5   5   1 4562.42 334.512  33
  -4   5   1 30421.0 1067.78   1
   4   5  -1 29750.6 1075.96  21
   4   5  -1 28644.5 979.595   5
  -4   5   1 27239.1 982.416   5
   4   5  -1 28266.1 1059.56   1
  -4   5   1 26554.1 954.786  22
   4   5  -1 28270.3 961.428  22
  -4   5   1 29021.9 1056.92  21
   4   5  -1 29820.3 1063.20  36
  -4   5   1 26746.6 967.610  33
   4   5  -1 29171.0 1035.59  18
   3   5  -1 1421.89 207.967   5
  -3   5   1 1264.18 189.066   5
   3   5  -1 1529.06 222.984  36
   3   5  -1 1621.86 214.398  18
  -3   5   1 1451.02 173.947  24
  -3   5   1 1257.31 217.912   1
   3   5  -1 1627.20 207.765  22
  -3   5   1 1350.73 198.149  22
   3   5  -1 1161.93 206.668   1
  -3   5   1 1534.24 215.992  21
   3   5  -1 1750.18 246.656  21
  -2   5   1 10420.8 571.660   5
   2   5  -1 10618.8 635.507   1
   2   5  -1 10520.1 574.289  36
  -2   5   1 10180.0 512.016  24
  -2   5   1 10403.0 552.625  22
   2   5  -1 10310.7 548.398  22
  -2   5   1 10275.4 613.109   1
   2   5  -1 10490.2 592.956  21
  -2   5   1 11479.9 606.319  21
   2   5  -1 9808.42 530.354  18
   2   5  -1 10745.7 575.212   5
  -1   5   1 6403.74 449.408   5
  -1   5   1 7433.97 521.827   1
   1   5  -1 7086.93 426.878  18
  -1   5   1 6955.37 416.902  24
   1   5  -1 6531.99 463.944  21
   1   5  -1 6807.57 465.162   5
  -1   5   1 6879.49 463.908  21
  -1   5   1 6358.17 435.402  22
   1   5  -1 7249.88 457.165  22
  -1   5   1 6406.53 386.124  36
   1   5  -1 7242.50 519.233   1
   1   5  -1 6801.28 449.134  36
   0   5   1 19940.3 832.188  22
   0   5   1 18910.0 782.575  36
   0   5   1 19882.5 849.992  21
   0   5  -1 19578.4 759.155  18
   0   5  -1 20949.1 947.331   1
   0   5   1 20457.9 862.363   5
   0   5  -1 18899.0 840.166   5
   0   5   1 20107.0 917.920   1
   0   5  -1 19376.1 823.284  22
   0   5  -1 20012.0 862.128  21
   0   5  -1 19824.8 802.775  36
  -1   5  -1 12734.1 704.594   1
   1   5   1 12517.4 611.814  36
   1   5   1 12485.0 635.975  21
   1   5   1 11760.3 622.887   5
  -1   5  -1 11756.9 624.293   5
   1   5   1 11212.8 536.638  18
   1   5   1 12669.7 622.424  22
  -1   5  -1 11507.4 599.477  22
  -1   5  -1 12797.1 646.150  21
   1   5   1 12834.6 698.607   1
  -1   5  -1 11621.8 558.003  36
  -2   5  -1 1598.22 197.367  33
   2   5   1 1497.52 201.828  22
  -2   5  -1 1677.44 226.382   5
  -2   5  -1 1610.34 206.629  22
   2   5   1 1465.36 220.931  21
   2   5   1 1505.91 193.113  18
  -2   5  -1 1581.18 242.846   1
   2   5   1 1644.84 226.949  36
   2   5   1 1558.85 237.089   1
  -2   5  -1 1570.08 223.970  21
   2   5   1 1379.60 210.671   5
  -3   5  -1 19970.2 797.877  33
   3   5   1 20691.2 877.991   1
  -3   5  -1 20041.0 864.029   1
  -3   5  -1 20035.1 803.452   5
   3   5   1 19802.6 797.234   5
   3   5   1 20032.0 835.955  36
   3   5   1 19619.6 788.670  18
  -3   5  -1 20122.3 780.503  22
  -3   5  -1 20388.6 829.409  21
   3   5   1 20073.6 817.686  21
   3   5   1 20052.2 782.904  22
  -4   5  -1 4706.89 356.806  33
  -4   5  -1 4721.44 328.427   5
  -4   5  -1 5066.83 368.070   1
   4   5   1 5052.56 370.082   1
   4   5   1 5001.85 370.441  36
   4   5   1 4773.85 343.527  21
   4   5   1 4301.57 335.050  18
   4   5   1 4824.27 321.156  22
  -4   5  -1 4587.46 308.938  22
  -4   5  -1 4713.20 346.317  21
   4   5   1 4647.22 319.542   5
  -5   5  -1 328.267 99.3436  33
  -5   5  -1 319.307 85.7334  22
   5   5   1 174.344 102.494  18
  -5   5  -1 200.817 81.4527   5
   5   5   1 242.965 94.4826  21
  -5   5  -1 153.222 90.1822  21
   5   5   1 201.782 127.169  36
  -6   5  -1 258.365 120.456  33
   6   5   1 380.068 103.852  18
   6   5   1 365.948 102.588  36
   6   5   1 377.051 89.7544  21
 -14   0   2 26937.3 1083.22   6
 -14   0   2 26121.2 992.903  11
  14   0  -2 26216.1 1086.06   4
 -13   0   2 10487.2 663.961  11
 -13   0   2 9830.44 682.520   6
 -13   0   2 9582.42 551.705  19
  13   0  -2 9967.76 706.374   4
  12   0  -2 233.351 215.920   4
 -12   0   2 66.6326 176.436   6
 -12   0   2 196.675 153.683  19
 -12   0   2 310.758 208.898  11
 -11   0   2 626.263 220.884  11
  11   0  -2 569.235 185.870   7
 -11   0   2 324.388 217.456   6
  11   0  -2 356.731 227.382  41
 -11   0   2 450.386 183.004  19
  11   0  -2 368.634 338.363  38
  11   0  -2 321.463 229.406   4
 -10   0   2 56641.9 1981.80  11
 -10   0   2 56847.3 1858.59  19
  10   0  -2 58724.2 2592.71  38
 -10   0   2 53035.8 1980.10   6
  10   0  -2 54063.6 2034.23   4
  10   0  -2 56416.1 2502.28  41
  10   0  -2 56980.1 1864.11   7
  -9   0   2 23094.6 1127.51   6
   9   0  -2 28739.8 1607.16  41
  -9   0   2 24821.7 1275.79  30
   9   0  -2 24723.2 1047.96   7
  -9   0   2 24447.1 1121.24  11
  -9   0   2 25385.8 1048.69  19
   9   0  -2 26854.6 1591.46  38
  -8   0   2 32606.7 1456.67  13
  -8   0   2 33674.6 1327.79   6
  -8   0   2 33149.6 1296.71  11
   8   0  -2 31766.0 1204.44   7
   8   0  -2 34200.6 1721.38  38
  -8   0   2 34006.9 1435.20  30
  -8   0   2 33262.1 1207.18  19
   8   0  -2 35899.5 1722.77  41
  -7   0   2 75.0749 126.741  30
   7   0  -2 374.515 229.284  41
  -7   0   2 155.407 113.682   6
   7   0  -2 313.595 186.421  38
  -7   0   2 188.559 151.628  11
  -7   0   2-23.1299 145.418  13
  -7   0   2 99.5303 112.286  20
  -7   0   2 110.142 111.236  19
  -6   0   2 3248.87 336.275  30
  -6   0   2 2792.40 248.760  32
   6   0  -2 3185.69 469.491  41
  -6   0   2 2837.49 377.088  13
  -6   0   2 2955.23 217.142  27
  -5   0   2 50886.0 1500.20  30
  -5   0   2 47482.4 1434.28  32
  -5   0   2 48715.5 1693.22  13
  -4   0   2 397111. 9876.05  39
  -4   0   2 449505. 9569.25  30
   4   0  -2 413464. 9555.48  42
  -4   0   2 428533. 9629.47  32
  -4   0   2 425382. 9881.42  13
   4   0  -2 408379. 9932.39  41
   3   0  -2 356888. 8399.16  41
  -3   0   2 356945. 8366.36  13
   3   0  -2 354611. 8152.83  42
  -3   0   2 364489. 8381.65  39
  -3   0   2 358309. 8186.51  32
   2   0  -2 45430.5 1373.25  40
  -2   0   2 46999.4 1385.00  32
  -2   0   2 49443.7 1517.64  13
   2   0  -2 46110.8 1379.19  42
   2   0  -2 47958.2 1496.08  41
  -2   0   2 47074.5 1449.52  39
  -1   0   2 926193. 20977.8  32
  -1   0   2 928366. 20983.1  39
   1   0  -2 928970. 21019.7  42
   1   0  -2 999999. 21096.9  41
   1   0  -2 976884. 21029.8  40
   0   0   2 34669.2 1099.53  32
   0   0  -2 28987.1 1122.37  40
   0   0   2 37056.9 1050.03  39
  -1   0  -2 1363.53 246.102  42
   1   0   2 1279.33 195.855  32
   1   0   2 1394.84 240.678  38
  -1   0  -2 1004.93 225.724  40
   1   0   2 1347.29 165.314  39
   2   0   2 8133.39 457.554  32
  -2   0  -2 7486.53 532.843  42
   2   0   2 8589.77 365.810  39
  -2   0  -2 6832.06 554.224  40
   2   0   2 5480.78 576.492  38
   2   0   2 5062.94 359.115  29
  -2   0  -2 4644.05 493.525  12
   3   0   2 61941.5 1801.35  29
  -3   0  -2 64059.9 2048.35  40
  -3   0  -2 62830.5 2151.24  12
   3   0   2 67534.1 2106.22  38
   3   0   2 65419.0 1611.08  39
  -3   0  -2 64577.7 1972.21  42
   3   0   2 64202.6 1773.07  32
  -4   0  -2 188465. 4905.27  40
   4   0   2 191630. 4984.02  38
   4   0   2 193925. 4677.41  29
   4   0   2 182300. 4267.18  39
  -4   0  -2 192532. 4785.53  42
   4   0   2 194002. 4479.82  32
  -4   0  -2 190896. 5126.61  12
   5   0   2 48120.4 1651.68  29
  -5   0  -2 47504.6 2030.73  12
  -5   0  -2 49828.8 1700.20  42
   5   0   2 47492.1 1355.53  32
   5   0   2 49156.7 1368.28  27
   5   0   2 46969.3 1893.07  38
   6   0   2 3855.67 505.083  38
   6   0   2 4229.89 361.161   7
   6   0   2 4302.85 377.301  10
  -6   0  -2 4574.02 428.724  13
  -6   0  -2 4061.46 380.614   6
  -6   0  -2 3578.65 457.219  40
  -6   0  -2 3905.90 577.289  12
   6   0   2 3520.10 411.798  29
  -6   0  -2 3935.69 425.402  42
   6   0   2 3393.42 351.507   8
   7   0   2 425.501 185.079  10
   7   0   2 499.756 199.881   8
   7   0   2 571.382 207.121  14
   7   0   2 591.361 220.351   7
   7   0   2 524.854 228.283  29
  -7   0  -2 307.857 154.951  35
  -7   0  -2 955.856 381.668  12
  -7   0  -2 1091.27 326.429  40
   7   0   2 776.608 338.084  38
  -7   0  -2 661.813 214.138   6
  -7   0  -2 1033.55 255.842  42
   8   0   2 4054.92 403.495  14
   8   0   2 3721.64 508.279  29
  -8   0  -2 3637.67 665.189  12
   8   0   2 4310.59 432.404   7
  -8   0  -2 3654.44 430.740   6
  -8   0  -2 3948.04 543.132  40
   8   0   2 3955.19 430.254  10
   8   0   2 4127.32 600.912  38
   8   0   2 3968.77 417.682   8
  -9   0  -2 144063. 4543.37  40
  -9   0  -2 160000. 5324.75  12
  -9   0  -2 144371. 4110.73   6
   9   0   2 146461. 4106.13  10
   9   0   2 148025. 4073.06   8
   9   0   2 148054. 4023.34   7
   9   0   2 153853. 4929.45  38
   9   0   2 149954. 4562.76  29
  -9   0  -2 148301. 3867.47  20
  -9   0  -2 149231. 4772.69  30
  10   0   2-336.789 314.355  29
 -10   0  -2 146.388 153.630  20
  10   0   2 2.73753 167.802   8
 -10   0  -2 400.172 304.765  30
 -10   0  -2 12.4425 341.704  12
  10   0   2-112.869 163.121  10
 -10   0  -2-91.2576 205.909   6
 -10   0  -2-165.562 165.592  11
  10   0   2-301.040 190.274   7
  11   0   2 5522.06 527.309   7
 -11   0  -2 5704.28 506.213  11
 -11   0  -2 5298.28 442.693  20
 -11   0  -2 4917.30 853.308  12
 -11   0  -2 4721.32 679.926  30
  11   0   2 5302.45 539.573  10
  11   0   2 4863.15 494.217   8
 -11   0  -2 5278.25 531.361   6
 -12   0  -2 8825.30 640.511   6
 -12   0  -2 8940.42 593.280  11
 -12   0  -2 8564.55 526.323  20
  12   0   2 9130.76 631.461   7
  12   0   2 7758.36 608.711   8
  13   0   2 646.943 188.832   7
 -13   0  -2 671.404 207.160   6
 -13   0  -2 966.047 184.030  11
  13   0   2 519.266 154.747   4
  14   1  -2 8617.47 426.059  15
 -14  -1   2 9947.14 558.375   6
 -14   1   2 11197.4 604.176   6
 -14  -1   2 11364.7 595.253  11
 -14   1   2 9674.17 496.431  24
  14   1  -2 10426.3 589.338   4
  14  -1  -2 9834.16 584.608   4
 -14   1   2 10752.0 521.539  19
 -13  -1   2 6072.93 497.040   6
 -13   1   2 5943.72 410.131  11
  13  -1  -2 6386.94 537.458   4
 -13  -1   2 7001.87 537.801  11
 -13   1   2 5895.64 504.866   6
 -13   1   2 5244.38 419.936  24
 -13   1   2 5890.20 444.961  19
  13   1  -2 6036.05 515.457   4
  12  -1  -2 2235.81 389.799   4
 -12   1   2 1866.31 318.044   6
 -12  -1   2 2368.13 365.070   6
 -12   1   2 2635.02 333.521  19
 -12   1   2 2893.02 330.104  11
  12   1  -2 2958.08 401.654   4
 -12  -1   2 2673.31 376.982  11
  11   1  -2 14133.0 1196.87  29
 -11  -1   2 16124.0 931.345   6
 -11   1   2 14313.6 799.147  11
 -11  -1   2 15170.4 908.170  11
 -11   1   2 14221.5 671.288  25
 -11   1   2 15670.2 844.922  19
  11  -1  -2 16395.5 1375.50  38
  11   1  -2 16269.4 970.339   4
 -11   1   2 15688.6 936.171   6
  11   1  -2 15352.7 1264.82  41
 -10   1   2 6845.34 565.696  20
 -10   1   2 6944.27 558.392  19
 -10   1   2 6715.30 536.035  11
  10   1  -2 6604.66 795.001  29
 -10  -1   2 6414.53 573.752   6
  10   1  -2 5149.31 731.767  41
 -10  -1   2 7749.13 644.215  11
 -10   1   2 6464.63 452.120  25
 -10   1   2 7236.83 497.865  33
 -10  -1   2 5802.65 681.790  13
  10   1  -2 5817.25 590.285   4
 -10   1   2 6797.51 597.433   6
 -10   1   2 6572.87 742.850  30
  10  -1  -2 5805.84 802.258  38
 -10  -1   2 7138.06 493.005  19
  -9   1   2 25457.6 1015.26  33
   9   1  -2 25378.2 1586.55  41
  -9   1   2 22065.5 1329.36  30
  -9   1   2 26161.4 1131.29  34
  -9   1   2 26037.5 1195.55   6
   9  -1  -2 26183.8 1677.59  38
  -9  -1   2 23276.2 1420.46  13
  -9   1   2 24238.8 1075.27  11
  -9  -1   2 25357.7 1163.01   6
  -9  -1   2 23270.9 1135.04  11
  -9  -1   2 25372.1 1009.21  19
   9   1  -2 26881.0 1545.66  29
  -9   1   2 24611.1 1067.83  19
  -9   1   2 24990.6 1084.15  20
   9  -1  -2 27189.0 1445.92  41
   9   1  -2 25827.6 1229.71   4
  -8   1   2 9602.06 559.706  33
   8   1  -2 9415.65 883.422  41
   8   1  -2 8266.40 638.901   4
  -8   1   2 10403.2 611.704  20
   8   1  -2 9791.56 850.107  29
  -8   1   2 8211.75 612.717   6
  -8  -1   2 9350.29 831.449  13
  -8   1   2 8932.26 569.839  11
  -8  -1   2 8012.65 600.321  11
  -8  -1   2 9416.87 535.211  19
  -8   1   2 9759.99 616.630  34
  -8  -1   2 9017.77 617.460   6
   8  -1  -2 9056.89 786.082  41
  -8   1   2 8990.70 568.605  19
   8  -1  -2 9715.14 943.993  38
  -8   1   2 9170.31 760.581  30
   8   1  -2 9422.96 756.387  38
  -7   1   2 15150.0 781.702   6
   7   1  -2 14877.9 824.256   4
  -7   1   2 15350.2 700.871  33
  -7  -1   2 15430.1 983.411  39
  -7  -1   2 14116.0 1015.49  13
  -7  -1   2 14751.2 769.423   6
  -7  -1   2 13901.5 738.026  30
  -7   1   2 16054.8 952.809  30
  -7  -1   2 13983.5 754.561  11
  -7   1   2 14704.7 718.841  20
  -7   1   2 14563.8 719.741  11
   7   1  -2 14376.3 1052.58  41
  -7   1   2 15999.9 755.135  34
   7  -1  -2 16216.6 997.584  41
   7   1  -2 14124.6 885.781  38
   7  -1  -2 14579.2 1096.62  38
  -7   1   2 15263.6 716.051  19
  -6  -1   2 55108.1 1647.80  30
  -6   1   2 57593.0 1626.24  27
   6   1  -2 51326.7 1746.36   3
   6   1  -2 52901.4 2107.87  41
  -6   1   2 55109.8 1942.85  30
   6  -1  -2 55056.1 2003.75  41
  -6  -1   2 55635.4 2122.63  13
  -6  -1   2 53021.2 1995.61  39
  -6  -1   2 56893.8 1647.57  32
   5  -1  -2 32682.4 1372.94  41
  -5  -1   2 31437.7 1370.74  39
  -5  -1   2 35318.4 1063.69  30
   5   1  -2 33496.3 1502.51  41
  -5  -1   2 33472.1 1502.67  13
  -5   1   2 34780.5 1159.56  27
  -4  -1   2 2454.53 317.280  39
  -4  -1   2 3263.39 191.207  30
  -4  -1   2 3349.71 410.006  13
   4  -1  -2 2513.15 180.073  42
  -4   1   2 3028.75 276.166  27
  -4   1   2 2783.19 300.666  32
   4   1  -2 2701.38 352.398  41
   4  -1  -2 3207.79 360.168  41
  -3  -1   2 1887.25 335.646  13
  -3   1   2 2197.32 278.929  27
   3   1  -2 1958.52 311.801  42
   3   1  -2 2203.25 345.918  41
   3  -1  -2 1407.01 178.692  42
   3  -1  -2 1350.61 291.976  41
  -3  -1   2 2106.91 293.402  39
  -3   1   2 2154.61 297.520  32
  -2  -1   2 145.902 190.543  39
   2  -1  -2 279.341 129.364  42
  -2   1   2 360.918 180.064   3
  -2  -1   2 593.543 209.840  13
  -2   1   2 626.469 179.959  27
  -2   1   2 363.524 172.414  32
   2   1  -2 541.540 198.387  42
   2   1  -2 270.946 154.797  41
   2  -1  -2 313.282 120.551  40
   2   1  -2 142.844 116.689  29
  -1   1   2 8324.47 513.205  32
  -1  -1   2 7753.42 535.977  13
   1  -1  -2 7047.79 424.707  40
   1   1  -2 7395.61 293.388  29
  -1   1   2 8353.41 487.138  27
   1   1  -2 7828.30 542.234  40
  -1   1   2 8527.43 551.483   3
  -1  -1   2 7866.46 513.992  39
   1   1  -2 8344.73 544.559  42
   1   1  -2 8122.10 464.915  41
   1  -1  -2 7156.96 459.706  42
   0   1  -2 69164.0 1833.85  41
   0   1   2 68866.4 1983.62  32
   0  -1   2 65557.9 1969.42  13
   0   1  -2 68946.5 1707.62  30
   0   1  -2 69693.2 2052.06  42
   0   1   2 66227.6 1931.42  27
   0   1   2 74368.5 2092.86   3
   0  -1   2 68489.9 2033.81  38
   0  -1   2 69571.3 2010.09  39
   0  -1  -2 66304.3 1948.38  40
   0   1  -2 68739.8 2064.51  40
   1  -1   2 37061.2 1224.98  13
  -1   1  -2 37339.4 1138.41  30
   1   1   2 37605.7 1248.82  27
  -1   1  -2 38885.7 1357.28  42
  -1   1  -2 36801.2 1256.59  12
   1   1   2 42892.1 1389.73   3
   1  -1   2 36408.9 1351.53  38
  -1   1  -2 37638.5 1073.54  41
  -1  -1  -2 37484.7 1339.76  40
  -1   1  -2 39303.0 1384.53  40
   1  -1   2 37706.7 1295.01  39
   1   1   2 40148.7 1298.84  32
  -2  -1  -2 84454.2 2551.81  40
  -2   1  -2 89788.9 2561.01  40
  -2   1  -2 87892.8 2504.42  42
  -2   1  -2 86394.7 2488.53  12
  -2  -1  -2 85354.2 2678.38  12
   2   1   2 87840.1 2375.68  27
   2  -1   2 85297.6 2584.40  38
   2   1   2 90058.4 2408.93  32
  -2   1  -2 86811.6 2365.15  30
   2  -1   2 89966.2 2448.85  39
  -2   1  -2 86631.4 2090.39  41
   3  -1   2 350.542 156.332  38
  -3   1  -2 830.257 181.660  30
   3  -1   2 618.611 166.031  39
  -3   1  -2 447.908 195.821  40
   3   1   2 604.223 149.526  27
  -3   1  -2 712.576 185.910  12
  -3  -1  -2 540.741 236.080  12
   3   1   2 743.632 198.689  29
  -3  -1  -2 525.974 205.693  40
  -3   1  -2 575.607 186.471  42
  -3   1  -2 694.777 86.4024  41
   3   1   2 808.840 186.706  32
   3  -1   2 714.193 110.706  29
   3   1   2 872.738 218.113  38
  -3   1  -2 703.042 117.571  28
  -4   1  -2 175630. 4632.33  40
  -4   1  -2 172232. 4569.68  30
  -4   1  -2 174603. 4070.15  28
  -4   1  -2 164548. 4693.78  12
  -4  -1  -2 167621. 4922.70  12
   4   1   2 180139. 4303.41  27
   4   1   2 173293. 4617.13  29
  -4   1  -2 179689. 4509.24  42
   4  -1   2 177908. 4448.77  39
   4  -1   2 150037. 4705.97  38
   4   1   2 180321. 4592.66  38
  -4  -1  -2 193782. 4863.67  40
   4   1   2 173457. 4039.49   2
   5  -1   2 1425.58 199.139  32
  -5  -1  -2 1858.27 421.125  12
  -5   1  -2 2040.87 360.112  30
  -5  -1  -2 1403.26 352.601  40
  -5   1  -2 1526.20 358.556  12
   5   1   2 1796.29 230.293  27
   5   1   2 1446.05 276.653  38
  -5   1  -2 1229.79 229.155   3
  -5   1  -2 1624.18 325.963  40
   5   1   2 1524.19 330.448  29
  -5   1  -2 1711.00 300.779  42
  -5  -1  -2 1928.33 368.406  42
   5  -1   2 1438.34 272.005  39
   5  -1   2 1625.26 403.642  38
   6   1   2 40324.5 1675.91  38
  -6  -1  -2 38462.0 1780.43  40
   6   1   2 41513.6 1361.37  14
  -6  -1  -2 38538.1 1957.43  12
  -6   1  -2 39303.5 1738.18  30
  -6   1  -2 37700.5 1367.05   6
  -6  -1  -2 38363.4 1400.16   6
  -6   1  -2 39497.1 1652.98  40
   6   1   2 37964.2 1372.69  10
   6  -1   2 37395.5 1383.41  10
  -6   1  -2 38618.2 1464.70  42
   6   1   2 38570.5 1376.02   8
  -6   1  -2 40746.8 1883.33  12
   6   1   2 40205.6 1355.10   7
   6  -1   2 37685.7 1372.37   8
   6   1   2 37802.4 1707.98  29
  -6  -1  -2 39083.7 1646.21  42
   6  -1   2 40140.7 1462.35  29
   6  -1   2 36905.2 1459.53  39
   6  -1   2 37751.6 1850.36  38
  -6   1  -2 38991.3 1348.10  35
   7   1   2 22164.8 970.886   7
   7   1   2 21885.3 971.792  14
  -7   1  -2 20647.8 1271.67  30
  -7  -1  -2 20512.6 1222.93  13
   7  -1   2 21971.6 1093.71  29
   7   1   2 21377.4 1283.05  29
  -7  -1  -2 21244.8 1492.82  12
  -7   1  -2 19365.2 958.670   6
  -7  -1  -2 20902.6 1011.30   6
  -7  -1  -2 20611.6 1300.31  40
   7  -1   2 20117.8 978.912   8
   7   1   2 20524.0 821.501  36
   7  -1   2 21325.1 1422.73  38
  -7   1  -2 22164.4 975.590  35
   7  -1   2 22088.4 1021.06  10
   7   1   2 21033.7 993.276  10
  -7  -1  -2 21023.7 1174.90  42
  -7   1  -2 21451.1 1198.80  40
  -7   1  -2 21814.8 1421.97  12
   7   1   2 22020.0 1000.72   8
   7   1   2 22418.7 1250.04  38
   7  -1   2 22264.7 894.070  14
   7  -1   2 20981.6 956.232   7
  -8   1  -2 3790.06 420.283   6
   8  -1   2 3908.77 369.722  14
   8  -1   2 3175.86 389.881   8
  -8   1  -2 3525.03 358.152  34
   8  -1   2 3889.84 413.535   7
   8   1   2 4076.43 575.959  29
  -8   1  -2 2932.24 581.956  12
  -8  -1  -2 3358.12 489.342  13
  -8  -1  -2 4099.32 710.042  12
   8   1   2 4306.13 423.512   7
  -8  -1  -2 3760.83 438.954   6
  -8   1  -2 3559.01 390.662  35
  -8   1  -2 4210.69 594.342  30
   8  -1   2 3252.05 395.983  10
   8   1   2 3879.17 431.113  10
  -8  -1  -2 4449.63 537.273  42
  -8   1  -2 3502.91 487.915  40
  -8  -1  -2 4294.77 627.993  40
   8  -1   2 4841.39 740.822  38
   8   1   2 4042.35 538.469  38
   8   1   2 3863.82 426.327   8
   9   1   2 32504.4 1344.60   7
   9  -1   2 32450.6 1359.85   7
  -9   1  -2 34415.4 1861.60  30
   9   1   2 32984.2 1796.74  29
  -9   1  -2 31083.5 1364.74   6
  -9  -1  -2 31546.5 1395.70   6
  -9  -1  -2 32685.5 2097.99  12
   9  -1   2 33513.2 1367.32   8
  -9   1  -2 29610.2 1224.70  11
   9  -1   2 35477.4 2046.96  38
   9   1   2 33911.8 1200.21  18
   9  -1   2 33866.6 1403.11  10
  -9  -1  -2 30843.6 1758.10  40
  -9   1  -2 31810.9 1249.68  34
   9   1   2 32317.9 1392.37  10
  -9   1  -2 33339.5 1355.21  35
  -9   1  -2 32899.1 2001.40  12
   9   1   2 32128.4 1380.39   8
 -10   1  -2 264.213 143.605  34
  10   1   2 250.860 172.394   7
  10  -1   2 311.053 215.027   7
  10   1   2 482.196 217.266   8
 -10   1  -2 343.388 323.427  30
  10   1   2 843.950 274.770  29
 -10   1  -2 292.981 269.224  12
 -10  -1  -2 288.941 250.361  12
 -10  -1  -2 480.001 253.237   6
 -10   1  -2 690.420 179.119  11
 -10  -1  -2 797.614 257.157  11
  10   1   2 303.526 182.303  10
  10  -1   2 107.506 258.760  38
  10  -1   2 487.464 199.576  10
  10   1   2 456.925 153.499  18
 -10   1  -2 256.255 151.478  20
 -10   1  -2 612.453 220.078   6
  10  -1   2 482.135 204.811   8
 -10  -1  -2 497.475 260.903  40
  11   1   2 4725.05 481.202   7
 -11   1  -2 5043.26 419.244  34
 -11   1  -2 4431.66 463.502   6
 -11   1  -2 4454.20 388.135  11
 -11  -1  -2 4972.93 517.964  11
  11  -1   2 3508.41 429.812  10
 -11   1  -2 4393.19 427.834  20
  11   1   2 5019.39 499.694   8
  11  -1   2 4903.52 488.474   7
  11  -1   2 4807.36 467.087   8
 -11  -1  -2 4802.46 499.720   6
  12  -1   2-14.2250 171.228  10
 -12   1  -2 38.3455 131.338   6
 -12   1  -2-18.4824 121.879  20
 -12  -1  -2 74.3109 141.480  11
  12  -1   2 28.4002 143.577   8
 -12  -1  -2 163.419 151.693   6
 -12   1  -2-13.4698 107.812  34
  12  -1   2 154.976 156.722   7
  12   1   2 54.1841 150.430   7
  13  -1   2 3333.83 323.656   7
 -13  -1  -2 3338.30 322.713   6
 -13  -1  -2 3706.13 345.738  11
 -13   1  -2 3472.56 265.781  19
 -13   1  -2 3805.87 308.005  20
 -13   1  -2 3629.45 332.274   6
  13   2  -2 9423.02 515.008  15
 -13  -2   2 9924.96 581.869  11
 -13   2   2 8657.39 478.553  24
  13  -2  -2 8999.00 556.724   4
 -13   2   2 9838.48 536.195  19
  13   2  -2 10200.8 571.528   4
  12   2  -2 5131.51 433.470  15
  12   2  -2 4838.31 356.283  17
 -12  -2   2 5374.72 419.711   6
 -12   2   2 5834.07 463.280   6
 -12  -2   2 5139.17 470.858  11
 -12   2   2 5255.11 412.193  24
 -12   2   2 5402.02 380.069  33
 -12   2   2 4912.55 432.039  19
  12   2  -2 5382.90 479.207   4
  12  -2  -2 5222.73 469.558   4
  11   2  -2 296.732 125.405  17
  11   2  -2 607.698 189.426   4
 -11   2   2 533.926 173.656  33
 -11   2   2 613.874 201.697   6
 -11  -2   2 755.969 197.445   6
 -11  -2   2 854.935 238.001  11
 -11   2   2 565.333 165.968  24
 -11   2   2 581.624 188.557  19
 -10   2   2 4179.69 453.887   6
  10   2  -2 5178.19 725.887  29
 -10  -2   2 3715.47 415.288   6
 -10   2   2 4570.00 446.030  20
 -10   2   2 4021.48 326.870  25
 -10   2   2 4793.19 436.229  24
 -10   2   2 4347.43 402.996  33
 -10  -2   2 3651.11 624.938  13
  10  -2  -2 4195.33 733.015  38
 -10  -2   2 4205.79 478.367  11
  10   2  -2 4953.00 511.960   4
 -10   2   2 4829.66 475.920  34
  10   2  -2 4336.52 402.960  17
 -10   2   2 4323.68 449.845  19
  -9   2   2 1322.96 208.609  25
  -9   2   2 1734.02 275.219  33
  -9  -2   2 1397.84 429.882  13
  -9   2   2 1657.73 279.777   6
  -9  -2   2 1813.67 311.608   6
   9   2  -2 1137.47 234.127  17
   9  -2  -2 1352.48 412.647  38
   9   2  -2 919.994 301.951  29
  -9  -2   2 1263.33 273.680  11
   9   2  -2 1228.35 304.299   4
  -9   2   2 1212.42 218.045  24
   9   2  -2 1251.04 374.020  41
  -9   2   2 1068.29 233.431  20
   9   2  -2 1332.50 212.478  18
  -9   2   2 1349.04 277.137  34
  -9   2   2 1003.93 240.690  19
   8   2  -2 1192.99 282.993   4
   8   2  -2 467.385 236.141  41
  -8  -2   2 860.806 230.600  11
   8   2  -2 892.866 313.324  29
  -8  -2   2 1338.50 393.173  13
   8  -2  -2 1319.97 417.217  38
  -8   2   2 880.965 255.925   6
  -8   2   2 833.048 187.007  24
  -8   2   2 929.754 172.536  25
  -8   2   2 903.460 214.925  20
  -8   2   2 1033.38 204.378  19
  -8   2   2 803.083 208.562  34
  -8   2   2 1310.02 247.515  33
   8   2  -2 1083.82 190.793  18
   8   2  -2 837.631 188.258  17
  -7   2   2 768.994 189.813  34
   7   2  -2 1235.73 307.712  29
  -7  -2   2 2089.26 473.519  13
   7   2  -2 836.000 160.176  36
   7   2  -2 1224.76 203.801  18
  -7   2   2 1162.00 221.716   6
  -7   2   2 1188.14 216.834  20
  -7  -2   2 894.165 195.308  11
  -7   2   2 1018.84 174.207  25
   7   2  -2 1063.01 200.286  17
  -7   2   2 1446.88 228.564  24
  -7   2   2 1072.33 202.976  33
   7  -2  -2 1089.23 385.951  38
   7   2  -2 1252.73 340.420  41
  -7   2   2 1228.78 224.353  21
  -7  -2   2 756.236 264.296  39
  -7   2   2 1143.77 237.141  19
   7   2  -2 975.596 226.413   4
  -6   2   2 45497.5 1442.51  25
   6   2  -2 47889.5 2067.97  41
   6   2  -2 45587.5 1653.16   4
  -6   2   2 45302.2 1456.47  20
  -6  -2   2 53318.4 2247.44  13
  -6   2   2 46027.3 1545.59   6
   6   2  -2 46376.8 1913.43  29
  -6   2   2 48236.0 1509.06  21
   6   2  -2 46265.1 1839.57   3
  -6   2   2 51082.1 1714.17  27
  -6  -2   2 46088.2 1565.75  11
  -6   2   2 45623.9 1498.60  24
  -6   2   2 45949.6 1499.74  19
   6  -2  -2 47824.8 1806.60  41
  -6   2   2 46493.8 1526.39  33
   6  -2  -2 45989.9 2136.40  38
  -6  -2   2 47484.2 1925.09  39
   6   2  -2 49222.5 1488.94  18
  -6   2   2 46888.3 1362.83  31
   6   2  -2 48218.6 1447.41  36
   6   2  -2 44271.3 1421.61   1
  -6   2   2 45045.4 1509.87  34
   6   2  -2 47880.5 1534.58  17
  -5   2   2 806.203 149.196  31
  -5   2   2 1014.57 180.845  21
   5   2  -2 967.065 249.126  29
  -5  -2   2 1351.57 353.622  13
   5   2  -2 1105.55 169.597  28
  -5   2   2 871.336 207.648  27
  -5   2   2 930.149 162.579  24
  -5   2   2 830.839 224.597   3
   5   2  -2 1093.23 190.534  17
  -5   2   2 1171.41 197.207  33
  -5   2   2 827.344 150.190  25
   5   2  -2 825.912 258.317   3
   5   2  -2 1475.55 327.115  41
  -5   2   2 941.799 151.357   2
   5   2  -2 1317.30 234.598   4
  -5   2   2 937.324 150.735   1
   5  -2  -2 838.188 230.306  41
  -5  -2   2 672.113 233.032  39
  -5   2   2 1341.31 206.599  19
   5   2  -2 1046.25 187.727   1
   5   2  -2 1298.74 203.487  18
   5   2  -2 800.229 166.606  36
  -4   2   2 9684.68 477.179  31
  -4  -2   2 8924.99 791.323  13
   4   2  -2 10785.6 695.101  29
   4   2  -2 10272.3 779.997   3
  -4   2   2 11914.9 712.762  27
   4   2  -2 11205.5 794.637  41
   4  -2  -2 10303.1 701.211  41
  -4   2   2 11804.4 777.292   3
  -4  -2   2 10845.7 769.799  39
   4   2  -2 10001.8 542.226   1
   4   2  -2 10025.2 500.569  28
  -4   2   2 11618.1 529.227   1
  -4   2   2 10668.9 509.268   2
  -3  -2   2 3720.73 471.751  13
  -3   2   2 3812.17 285.192  31
  -3   2   2 4146.81 297.874   2
   3  -2  -2 4236.32 440.068  41
   3   2  -2 3988.09 377.848  29
   3   2  -2 3685.35 288.254  28
  -3   2   2 4278.44 432.089  27
   3   2  -2 3949.86 427.899  41
   3   2  -2 3656.53 471.267   3
  -3   2   2 3933.54 302.689   1
  -3   2   2 3672.67 438.443   3
  -3  -2   2 3956.34 451.949  39
  -2  -2   2 3002.53 433.159  39
   2  -2  -2 2828.63 269.522  40
  -2  -2   2 3000.78 435.321  13
  -2   2   2 3233.45 394.654  27
   2   2  -2 2805.65 270.722  28
  -2   2   2 3509.93 447.461   3
  -2   2   2 2813.25 266.388   2
   2   2  -2 3175.68 358.538  41
  -2   2   2 3248.84 273.729  31
   2   2  -2 2691.52 446.641   3
  -2   2   2 2866.28 281.628   1
  -1   2   2 12293.6 544.699  31
  -1   2   2 13515.3 588.239   1
  -1   2   2 12774.5 557.947   2
   1   2  -2 11214.1 826.548   3
  -1   2   2 14117.5 778.151  27
  -1   2   2 10742.5 761.946   3
   1   2  -2 13819.3 661.343  41
   1   2  -2 11550.5 774.457  42
  -1  -2   2 11089.5 771.427  39
   1   2  -2 12954.3 580.443  28
  -1  -2   2 12904.2 789.399  13
   0   2   2 457.716 135.344  31
   0  -2   2 562.732 201.518  13
   0   2  -2 439.744 131.148  28
   0   2   2 504.087 187.533  27
   0   2   2 461.683 123.822   2
   0   2  -2 288.425 208.595  42
   0   2   2 239.116 193.949   3
   0   2  -2 376.650 223.246   3
   0   2  -2 383.691 109.630  41
   0   2   2 384.125 127.106   1
   0  -2   2 392.001 195.051  39
   1  -2   2 79480.7 2396.63  38
   1   2   2 74648.2 2068.97   1
   1  -2   2 76395.0 2259.13  13
  -1   2  -2 74218.3 2583.89   3
  -1   2  -2 77207.6 2077.16  28
  -1  -2  -2 77707.2 2521.34  12
   1   2   2 78622.4 2400.40  27
   1   2   2 79433.9 2538.25   3
   1   2   2 76940.0 2036.37  31
  -1   2  -2 77318.2 2480.95  42
   1   2   2 80139.5 2057.95   2
   1  -2   2 80031.6 2537.29  39
   2   2   2 23643.5 1157.19   3
   2   2   2 23070.1 805.927  31
   2  -2   2 23169.0 875.728  13
  -2   2  -2 22740.1 1017.72  30
  -2   2  -2 23091.1 1207.33   3
  -2   2  -2 24529.8 851.191  28
  -2  -2  -2 23399.0 1202.96  12
   2   2   2 22942.3 1054.05  27
   2  -2   2 21757.4 1108.97  38
  -2   2  -2 22659.5 1113.22  42
   2  -2   2 24243.0 1181.75  39
  -2   2  -2 22506.4 1142.15  40
   2   2   2 22782.8 835.968   1
   2   2   2 22854.9 812.226   2
   3  -2   2 1023.47 286.113  39
  -3   2  -2 668.111 163.705   1
   3   2   2 821.323 144.210  31
  -3   2  -2 948.022 252.219  30
  -3   2  -2 580.159 117.269  28
  -3   2  -2 747.703 195.531  12
   3   2   2 1172.96 242.148  27
  -3  -2  -2 469.616 213.715  12
  -3   2  -2 1024.14 286.928   3
  -3   2  -2 752.823 198.391  42
   3   2   2 572.325 137.486   2
   3   2   2 828.504 243.758   3
   3  -2   2 979.556 298.525  38
   3   2   2 725.197 156.031   1
  -3   2  -2 1018.39 269.181  40
   4   2   2 12774.5 550.109   2
   4   2   2 13884.5 587.420   1
  -4   2  -2 11906.0 824.380  30
  -4   2  -2 12508.9 843.024   3
  -4   2  -2 13022.9 571.523  28
  -4   2  -2 13312.1 781.352  12
  -4  -2  -2 11655.0 940.337  12
   4   2   2 13115.2 771.305  27
  -4   2  -2 12051.8 769.184  42
   4   2   2 12065.9 541.521  31
   4   2   2 13150.1 822.868   3
   4   2   2 12360.8 591.855  24
  -4   2  -2 13275.3 854.214  40
   4  -2   2 13036.8 671.804   8
   4  -2   2 12817.4 889.433  39
  -4   2  -2 11250.9 575.558   1
   4  -2   2 12920.4 951.195  38
   4   2   2 12316.5 599.340  36
   5  -2   2 778.373 211.516   8
   5   2   2 1105.88 197.906   7
   5   2   2 740.071 145.753  31
   5   2   2 1001.80 305.132  29
   5   2   2 847.131 158.737   2
   5   2   2 1045.02 219.434  14
  -5   2  -2 703.754 253.058  12
   5   2   2 1095.46 237.524  27
  -5  -2  -2 942.052 343.772  12
  -5   2  -2 1544.65 299.729  42
   5  -2   2 908.012 312.521  38
  -5   2  -2 1121.85 260.561   3
   5   2   2 794.320 190.355   8
  -5   2  -2 946.097 284.329  30
   5   2   2 1031.99 212.671  10
   5  -2   2 733.827 186.519  10
  -5   2  -2 889.859 229.325  40
   5  -2   2 1201.20 344.422  39
  -5   2  -2 919.503 157.070  28
   5   2   2 724.303 194.650  36
   5   2   2 1239.21 231.986  18
   6   2   2 291.439 154.372   7
   6   2   2 78.1967 106.385  36
  -6   2  -2 118.326 168.029  12
  -6   2  -2 162.277 164.166  30
   6   2   2 333.962 219.251  29
  -6  -2  -2 299.719 272.690  13
  -6  -2  -2 243.018 208.575  12
   6   2   2 440.510 148.203  18
  -6  -2  -2 291.249 178.093   6
  -6  -2  -2 225.586 217.011  40
   6   2   2 182.644 110.546  10
   6  -2   2 256.610 132.696  10
  -6   2  -2 247.864 126.291  40
  -6   2  -2 315.210 113.429  35
   6  -2   2 85.6938 130.121   8
   6  -2   2 200.469 166.758  39
   6   2   2 276.106 139.619   8
   6  -2   2 290.606 199.823  38
  -7  -2  -2 6936.55 818.906  13
  -7   2  -2 6729.22 753.817  30
  -7  -2  -2 6743.67 799.673  40
  -7   2  -2 7003.86 510.818   6
  -7  -2  -2 6858.26 533.662   6
   7   2   2 6592.26 764.718  29
  -7  -2  -2 6945.47 873.426  12
  -7   2  -2 8178.89 806.559  12
   7  -2   2 7048.37 544.918  10
   7  -2   2 7620.41 557.521   8
   7   2   2 6594.45 551.708   8
   7   2   2 7365.40 542.210   7
   7  -2   2 7131.98 704.494  39
   7  -2   2 7894.85 894.696  38
  -7   2  -2 6774.91 540.233  35
   7   2   2 7056.43 495.129  18
   7   2   2 6448.63 457.737  36
  -7  -2  -2 7076.86 756.782  42
  -8   2  -2 11987.5 1066.87  30
  -8   2  -2 12807.0 736.059   6
  -8  -2  -2 13051.4 1048.05  42
  -8  -2  -2 13514.5 795.983   6
  -8  -2  -2 13282.3 1250.16  12
   8   2   2 14932.7 1200.58  29
  -8  -2  -2 14192.6 1196.02  13
   8   2   2 14019.1 698.287  36
   8  -2   2 15058.0 830.842  10
  -8   2  -2 13236.1 803.827  35
   8   2   2 14522.8 815.107   7
   8   2   2 14110.3 839.373   8
   8  -2   2 13153.8 802.729   7
   8  -2   2 14268.3 1266.57  38
   8  -2   2 14160.1 814.353   8
  -8  -2  -2 12869.3 1148.46  40
   8   2   2 13446.5 717.401  18
  -9  -2  -2 23458.3 1586.90  40
   9  -2   2 23494.2 1065.02   8
  -9  -2  -2 22747.5 1538.60  13
   9   2   2 25614.4 1619.59  29
  -9   2  -2 23014.6 1036.98   6
  -9  -2  -2 22470.2 1071.21   6
  -9  -2  -2 22424.1 1686.15  12
  -9   2  -2 23526.0 972.238  33
  -9  -2  -2 21933.5 1143.41  11
   9  -2   2 21742.0 1086.43   7
   9  -2   2 22481.8 1078.67  10
  -9   2  -2 22143.0 1499.88  30
   9  -2   2 21350.0 1616.47  38
   9   2   2 22959.0 981.099  18
   9   2   2 24038.1 924.370  36
  -9   2  -2 22880.4 1114.78  35
  -9   2  -2 21967.2 1042.72  34
 -10   2  -2 3261.36 358.894  34
  10  -2   2 2826.47 377.377   7
 -10  -2  -2 3484.73 386.385   6
 -10   2  -2 3496.64 370.015   6
 -10   2  -2 3422.76 410.665  20
 -10   2  -2 3628.97 410.307  35
 -10  -2  -2 3398.55 420.330  11
  10  -2   2 2779.66 363.475  10
  10  -2   2 3618.67 381.379   8
  10   2   2 3099.01 312.444  18
 -10   2  -2 3283.83 312.067  33
 -11   2  -2 476.995 174.196  34
 -11   2  -2 149.461 132.470   6
 -11  -2  -2 452.643 159.586   6
 -11  -2  -2 258.169 164.514  11
  11  -2   2 588.732 171.298  10
  11  -2   2 488.492 211.271   7
 -11   2  -2 602.851 192.413  20
  11  -2   2 402.433 119.391   8
  11   2   2 428.252 138.660  18
 -12   2  -2 1633.96 219.833  34
 -12   2  -2 1685.58 238.304  20
 -12  -2  -2 1560.06 219.381   6
 -12  -2  -2 1711.30 258.348  11
  12  -2   2 1500.88 231.216   7
  12   3  -2 271.958 88.6167  17
  12   3  -2 228.592 106.121  15
 -12  -3   2 293.497 109.878  11
 -12   3   2 270.909 93.5442  24
 -12   3   2 186.594 84.9257  33
 -12   3   2 112.136 108.706  19
 -11   3   2 1837.06 244.677  33
  11   3  -2 1801.39 261.010  15
 -11  -3   2 1847.64 245.615  11
  11   3  -2 1421.77 216.242  17
 -11   3   2 1514.10 213.843  24
  11   3  -2 1814.50 255.818   4
 -11   3   2 1671.48 234.512  19
 -10   3   2 22088.8 973.223  33
 -10  -3   2 23514.6 1013.75  11
 -10   3   2 22708.9 968.027  19
 -10   3   2 22342.1 950.811  24
  10   3  -2 22860.6 965.605  17
  10   3  -2 21786.6 1017.70   4
  10   3  -2 22689.3 1039.46  15
  10   3  -2 23537.3 873.119  18
  -9   3   2 2261.56 298.508  34
   9   3  -2 2342.13 304.738  17
  -9   3   2 2313.44 303.655  33
   9   3  -2 2586.41 351.337   4
   9   3  -2 2276.56 337.147  15
  -9  -3   2 3021.92 564.553  13
  -9  -3   2 2917.34 343.428  11
  -9   3   2 2024.70 280.553  24
   9   3  -2 2569.17 252.101  36
  -9   3   2 2457.15 300.773  19
   9   3  -2 2351.67 274.870  18
   9  -3  -2 2876.47 634.219  38
  -8   3   2 5559.18 476.399  33
  -8   3   2 5106.71 379.243  25
  -8  -3   2 4662.01 747.625  13
   8   3  -2 5851.04 709.964  29
   8   3  -2 5464.95 504.976  15
   8   3  -2 5622.08 513.115   4
  -8  -3   2 6313.83 500.801  11
  -8   3   2 4875.01 405.973  20
  -8   3   2 5719.70 475.015  24
   8   3  -2 5945.48 450.304  18
   8  -3  -2 4683.88 776.026  38
   8   3  -2 5310.40 399.688  36
  -8   3   2 5702.26 459.943  19
  -8   3   2 5403.63 470.067  34
   8   3  -2 5878.84 482.576  17
   7   3  -2-9.66349 133.537  17
  -7   3   2 54.2957 151.318  33
   7   3  -2 165.972 167.596   4
  -7  -3   2 608.237 316.858  13
   7   3  -2 198.381 173.555  29
   7   3  -2 179.562 179.574  15
  -7   3   2-105.284 94.4217  25
  -7   3   2-0.68674 137.312  24
  -7   3   2 34.4677 126.911  34
   7  -3  -2-427.794 364.658  38
  -7   3   2 96.1773 153.224  21
   7   3  -2-30.6659 129.054  18
  -7   3   2 306.006 170.760  19
   7   3  -2 299.958 122.599  36
   6   3  -2 34550.9 1714.77   3
   6   3  -2 31519.4 1177.96   1
  -6  -3   2 29790.0 1861.50  13
   6   3  -2 33307.8 1138.34  28
  -6   3   2 32718.1 1103.53  26
  -6   3   2 30819.6 1145.23  25
  -6   3   2 31465.3 1100.93   5
  -6   3   2 32993.9 1248.51  24
  -6   3   2 31304.5 1245.74  33
  -6   3   2 31551.6 1067.18  23
   6   3  -2 32460.0 1079.45  22
  -6   3   2 34203.1 1247.43  21
   6   3  -2 33101.9 1329.63  15
   6  -3  -2 31689.2 1823.78  38
   6   3  -2 31781.8 1334.93   4
   6   3  -2 31582.3 1211.22  18
  -6  -3   2 33619.1 1679.43  39
   6   3  -2 31790.7 1196.85  36
  -6   3   2 30080.7 1151.37  19
   6   3  -2 31077.2 1257.54  17
  -6   3   2 31240.8 1202.60  34
  -5   3   2 4186.98 371.592  21
   5   3  -2 4217.57 419.074  15
  -5  -3   2 3422.88 591.705  13
   5  -3  -2 3646.95 569.695  38
  -5   3   2 4044.97 353.505   1
   5   3  -2 4041.57 347.911  28
  -5   3   2 4320.04 524.888  27
  -5   3   2 3385.91 305.394  26
   5   3  -2 3924.48 375.379  18
  -5   3   2 4142.02 358.250  25
  -5   3   2 3397.30 314.308   5
  -5   3   2 3790.86 362.549  24
  -5   3   2 4289.65 324.550  23
   5   3  -2 3962.30 368.018  36
   5   3  -2 3873.18 325.515   5
   5   3  -2 3588.27 405.503   4
  -5   3   2 3767.51 318.537  22
   5   3  -2 3941.11 316.462  22
  -5   3   2 4254.34 565.938   3
  -5   3   2 3550.80 320.662  19
   5   3  -2 3495.10 359.039   1
  -5   3   2 3136.02 346.944  33
  -5  -3   2 2061.46 431.015  39
   5   3  -2 3596.12 381.928  17
  -5   3   2 3862.29 340.643  34
   4   3  -2 770.173 171.878  17
   4   3  -2 565.807 148.574   4
   4   3  -2 930.586 195.747  15
  -4   3   2 637.604 153.081  21
  -4   3   2 1031.38 207.604  33
   4   3  -2 959.934 171.114  22
  -4  -3   2 645.476 270.803  13
   4   3  -2 952.721 186.687  28
  -4   3   2 608.367 218.799  27
   4   3  -2 1133.57 175.790   5
   4  -3  -2 1021.06 290.597  38
   4   3  -2 675.440 182.646   1
  -4   3   2 963.881 184.359   1
   4   3  -2 323.313 183.481   3
  -4   3   2 918.247 196.128  24
  -4   3   2 730.679 155.566  23
  -4   3   2 546.260 212.133   3
  -4   3   2 839.500 177.215   5
   4   3  -2 646.803 161.374  18
  -4   3   2 753.436 164.130  22
  -4  -3   2 1154.68 326.295  39
  -4   3   2 961.901 166.642  26
   4   3  -2 610.951 176.778  36
  -4   3   2 916.907 161.678  25
  -3   3   2 10641.1 589.137   1
   3   3  -2 9871.38 605.137  15
   3   3  -2 9718.84 582.325  17
   3   3  -2 9909.06 577.821  28
  -3   3   2 10348.0 575.671   2
   3   3  -2 9360.56 597.082   1
   3   3  -2 10123.2 577.233  18
   3   3  -2 9409.01 894.653   3
  -3   3   2 9149.91 537.728   9
  -3   3   2 9979.86 541.358  26
  -3   3   2 11314.8 854.886  27
  -3   3   2 9092.56 832.863   3
  -3   3   2 9642.64 545.229  25
  -3   3   2 9897.44 564.266  31
  -3   3   2 9543.20 558.558  33
  -3   3   2 10099.2 576.273  24
  -3   3   2 9433.22 535.226   5
  -3   3   2 9608.02 529.574  23
   3   3  -2 10144.1 548.933   5
   3   3  -2 10151.1 578.343  36
  -3   3   2 9475.74 518.040  22
   3  -3  -2 9840.74 741.649  41
   3   3  -2 9914.19 536.239  22
  -3   3   2 9877.82 552.174  21
   3  -3  -2 11297.8 845.513  38
  -3  -3   2 9605.34 838.765  39
  -3  -3   2 9982.46 914.290  13
   3   3  -2 10287.3 649.542   4
  -2   3   2 21989.8 887.819  33
   2   3  -2 22900.7 974.333  15
  -2   3   2 23469.8 943.802   2
   2   3  -2 22729.2 923.182  18
   2   3  -2 24099.1 964.533  28
   2   3  -2 22389.1 1418.84   3
  -2   3   2 25790.6 1345.92  27
   2   3  -2 23680.2 943.776  36
  -2   3   2 22287.4 886.049  26
  -2   3   2 24060.2 1401.79   3
  -2   3   2 22782.0 908.852  25
  -2   3   2 23735.7 936.444  24
  -2   3   2 21852.8 895.353   5
  -2  -3   2 21532.6 1307.04  13
  -2   3   2 23785.7 905.931  23
   2   3  -2 24177.7 912.276  22
   2   3  -2 23982.4 925.568   5
  -2   3   2 21674.1 867.580  22
  -2   3   2 24442.4 969.748   1
  -2   3   2 23151.6 923.631   9
  -2   3   2 23520.9 906.149  21
  -2  -3   2 22556.8 1335.64  39
   2   3  -2 22994.1 1030.64   4
   2   3  -2 22251.9 991.786   1
  -2   3   2 22859.2 928.869  31
   2   3  -2 24313.8 966.839  17
   1   3  -2 101.546 99.7465  17
   1   3  -2 54.3847 119.244  15
  -1   3   2 31.1114 74.9412  22
  -1   3   2 40.2974 112.101  31
  -1  -3   2-1.22233 154.726  13
  -1   3   2-51.1695 95.9286   5
   1   3  -2 335.928 147.143  16
   1   3  -2 198.099 110.537  28
  -1   3   2 158.664 116.981  21
  -1   3   2 343.187 176.720  27
   1   3  -2-89.5253 119.180  21
   1   3  -2-125.391 123.853   5
  -1   3   2 127.555 103.652  26
   1   3  -2 163.929 160.910   1
  -1   3   2 72.6871 100.411  25
   1   3  -2 203.260 232.049   3
  -1   3   2 126.613 97.2011  24
  -1   3   2 68.8011 105.972  23
  -1   3   2 87.9798 119.966   2
  -1   3   2 35.7829 170.107   3
  -1   3   2-89.2409 98.7401  36
   1   3  -2-36.2945 135.572   4
  -1   3   2 69.4695 108.969   1
  -1   3   2 28.2535 104.920   9
   1   3  -2 119.810 100.600  22
  -1  -3   2-220.456 184.322  39
   1   3  -2 31.3094 112.289  18
   1   3  -2 6.32633 98.7187  36
   0   3   2 5250.22 392.771  31
   0  -3   2 4717.26 499.680  13
   0   3  -2 4761.25 396.952  28
   0   3   2 4809.91 551.134  27
   0   3   2 5229.48 379.374  26
   0   3   2 4785.44 382.019   9
   0   3  -2 5520.42 383.497  21
   0   3   2 6154.81 690.569   3
   0   3  -2 5347.19 395.145  36
   0   3   2 4592.86 363.169  25
   0   3   2 5383.00 391.830  24
   0   3  -2 4510.12 614.175   3
   0   3   2 5010.38 368.344  23
   0   3   2 4894.58 371.900   5
   0  -3   2 5002.83 422.945  10
   0   3   2 5607.12 384.394  21
   0   3  -2 5517.47 391.423   5
   0   3   2 5859.34 389.694  22
   0   3  -2 5139.94 373.171  22
   0   3   2 5499.50 407.472   2
   0  -3  -2 4555.64 489.587  39
   0   3  -2 5571.60 445.827   4
   0   3   2 4812.97 397.423   1
   0  -3   2 5343.81 619.718  39
   0   3  -2 5283.91 380.486  18
   0   3  -2 4572.33 427.559   1
   0   3   2 4988.41 351.504  18
   0   3   2 5486.32 394.502  36
   0   3  -2 5628.25 429.125  16
   1   3   2 17525.7 766.662   2
  -1   3  -2 16110.7 770.169  16
  -1   3  -2 15796.4 795.889   1
   1   3   2 15283.5 719.487   9
   1   3   2 15779.1 730.312  31
  -1   3  -2 16466.0 765.755  28
  -1   3  -2 14852.5 1134.52   3
   1   3   2 15810.2 697.659  26
   1   3   2 16364.7 1133.90   3
   1   3   2 15417.5 681.499  21
  -1   3  -2 15292.7 695.058  36
   1   3   2 17028.9 742.215  24
   1   3   2 15445.2 709.760   5
   1   3   2 14567.0 684.570  23
   1  -3   2 14726.1 752.094  10
   1   3   2 15637.7 703.645  18
  -1   3  -2 15907.3 729.073   5
  -1   3  -2 16624.4 709.921  21
   1   3   2 15427.6 687.180  22
   1   3   2 16020.2 756.281   1
  -1   3  -2 14936.5 689.488  22
   1   3   2 16898.7 1060.94  27
   1  -3   2 15323.8 1094.57  39
   1   3   2 15018.2 699.658  25
  -1   3  -2 14736.0 679.885  18
   1   3   2 15319.5 719.315  36
  -2   3  -2 6603.01 474.533  16
  -2   3  -2 6561.58 486.048   1
   2   3   2 5988.76 430.854  18
   2   3   2 6554.95 450.406  31
  -2   3  -2 6896.92 467.209  28
   2   3   2 6157.70 641.732  27
   2   3   2 6852.57 456.279   2
   2   3   2 5989.03 404.398  26
   2   3   2 6150.89 442.452  36
   2   3   2 6732.68 464.944   1
  -2   3  -2 5752.10 396.499  36
   2   3   2 6866.73 723.086   3
   2   3   2 5686.26 410.332  25
   2   3   2 5708.61 403.681  21
   2   3   2 6022.08 425.274   9
   2   3   2 7072.46 454.614  24
   2   3   2 6364.65 427.863   5
  -2   3  -2 5369.58 678.520   3
  -2   3  -2 6322.90 408.367  21
   2  -3   2 6208.44 469.042  10
   2   3   2 6069.05 412.398  23
  -2   3  -2 6597.36 432.054   5
   2   3   2 6053.21 403.445  22
  -2   3  -2 5783.33 396.301  22
   2  -3   2 5528.47 668.476  39
  -2   3  -2 5932.62 396.301  18
   3  -3   2 435.393 225.723  38
  -3   3  -2 394.284 112.443  21
   3   3   2 433.283 135.353   1
  -3  -3  -2 204.963 261.749  13
  -3   3  -2 427.886 152.325  28
   3   3   2 423.599 204.949  27
   3   3   2 588.478 126.897  26
   3   3   2 716.861 158.056  25
  -3   3  -2 502.435 144.680   1
   3   3   2 354.749 144.835  24
  -3   3  -2 310.321 169.979   3
   3   3   2 600.765 158.227  23
   3  -3   2 217.237 184.151  39
   3  -3   2 419.841 162.127  10
   3   3   2 793.278 268.711   3
   3   3   2 402.993 151.161  18
   3   3   2 496.334 146.985   5
   3   3   2 671.937 142.288  22
  -3   3  -2 647.980 159.211   5
   3   3   2 483.076 147.854  21
   3   3   2 656.291 149.346   2
   3   3   2 586.631 155.429  36
  -3   3  -2 480.321 121.404  22
  -4   3  -2 32671.6 1242.13   1
  -4  -3  -2 34294.8 1983.52  13
  -4   3  -2 35826.9 1235.08  28
  -4   3  -2 33481.8 1736.19   3
   4   3   2 37656.0 1668.05  27
   4   3   2 35595.2 1174.05  26
   4   3   2 35398.9 1225.36  25
   4   3   2 29636.1 1625.65   3
   4   3   2 34232.1 1169.59   5
   4  -3   2 34408.5 1284.32  10
   4   3   2 33514.7 1149.45  23
   4   3   2 33997.8 1184.04  21
   4  -3   2 36384.7 1864.16  39
  -4   3  -2 33031.6 1173.50   5
   4   3   2 35156.2 1152.90  22
  -4   3  -2 34880.9 1157.64  22
  -4   3  -2 35436.4 1180.68  21
   4  -3   2 34830.5 1758.61  38
   4   3   2 34654.7 1268.03  18
   4  -3   2 31812.1 1283.63   8
   4   3   2 35470.1 1280.82  36
   4   3   2 38072.5 1263.98   1
   5   3   2 19330.3 821.734  21
  -5   3  -2 20453.7 841.527  28
  -5   3  -2 18782.2 1214.79   3
   5   3   2 20452.6 804.115  26
  -5   3  -2 21577.8 845.767  21
  -5  -3  -2 22164.6 1594.44  13
   5   3   2 20248.1 801.267   5
   5   3   2 20356.1 796.517  23
  -5   3  -2 19591.2 810.157   5
   5   3   2 20455.9 782.780  22
  -5   3  -2 19911.9 863.605   1
   5  -3   2 20816.7 1401.58  38
   5  -3   2 20588.6 954.084   8
   5   3   2 21086.7 938.439  18
   5   3   2 19833.4 912.069  36
   5  -3   2 21109.9 1407.32  39
  -5   3  -2 20725.6 979.249  35
  -6   3  -2 6383.71 421.932  21
   6   3   2 5248.25 453.654  36
  -6  -3  -2 6273.57 860.988  13
  -6   3  -2 6445.07 530.040  35
  -6  -3  -2 5754.06 797.527  40
   6  -3   2 6085.78 735.472  39
   6  -3   2 5127.78 726.503  38
   6  -3   2 6356.47 504.475   8
   6   3   2 5606.97 464.164  18
  -7  -3  -2 1921.92 446.515  42
   7  -3   2 1271.71 351.670  38
  -7  -3  -2 1506.42 461.831  40
  -7  -3  -2 1650.41 514.856  13
  -7  -3  -2 2560.89 339.924  11
   7  -3   2 2263.13 475.756  39
   7   3   2 2612.90 317.760  36
   7   3   2 2973.63 352.294  18
  -7   3  -2 2626.19 354.719  35
   7  -3   2 2121.04 295.749   8
  -8   3  -2 531.551 187.366  34
  -8  -3  -2 553.674 303.193  13
  -8   3  -2 551.407 195.055  33
  -8  -3  -2 1062.94 347.684  40
  -8  -3  -2 637.603 193.977  11
  -8   3  -2 398.600 184.729  35
  -8  -3  -2 916.012 381.292  42
   8  -3   2 301.784 294.579  38
   8   3   2 341.503 172.527  36
   8   3   2 625.184 172.625  18
  -9   3  -2 13709.9 688.647  33
   9  -3   2 12361.7 739.160   7
  -9  -3  -2 11804.5 716.722  11
  -9   3  -2 12858.2 714.638  20
   9   3   2 11549.3 657.950  18
   9   3   2 12399.1 621.525  36
  -9   3  -2 13200.0 761.287  35
  -9   3  -2 12714.5 733.062  34
 -10   3  -2 302.433 125.467  33
  10  -3   2 208.244 147.626   7
 -10   3  -2 253.492 127.070  34
  10   3   2 217.357 89.2308  36
 -10   3  -2 42.0525 124.046  20
 -10  -3  -2 239.079 150.448  11
  10   3   2 89.4947 116.176  18
 -11   3  -2 813.446 128.742  33
  11  -3   2 768.102 158.748   7
 -11   3  -2 844.900 158.702  20
 -11  -3  -2 610.512 142.091  11
 -11   3  -2 605.841 149.214  34
  11   3   2 793.906 165.084  17
  11   3   2 651.686 117.092  18
 -10   4   2 2662.41 247.855  33
  10   4  -2 3060.40 274.832  15
  10   4  -2 2929.37 254.110  21
  10   4  -2 2482.10 199.287  18
 -10   4   2 2952.18 217.197  24
  10   4  -2 2615.05 243.947  17
   9   4  -2 550.673 143.286  17
   9   4  -2 651.511 152.482  15
  -9   4   2 686.608 131.616  24
   9   4  -2 889.868 132.647  36
  -9   4   2 731.111 167.006  33
   9   4  -2 973.745 182.954  21
   9   4  -2 693.008 141.584  18
   8   4  -2 7.26149 123.513  17
   8   4  -2-64.6921 147.078  15
   8   4  -2-28.3204 97.1569  36
  -8   4   2-160.866 100.113  24
   8   4  -2-74.0457 126.802  21
  -8   4   2 175.552 148.716  33
   8   4  -2-93.6536 108.200  18
   7   4  -2 5096.69 456.336  15
  -7   4   2 5041.94 345.613  25
   7   4  -2 5339.45 407.323  36
  -7   4   2 5365.39 406.369  24
  -7   4   2 5029.20 423.009  21
   7   4  -2 5147.51 440.587  21
  -7   4   2 5250.52 442.367  33
   7   4  -2 5561.16 428.524  18
   7   4  -2 4998.56 434.921  17
  -6   4   2 21710.0 971.735  33
   6   4  -2 21546.6 1010.51  15
   6   4  -2 20032.3 953.587  21
   6   4  -2 21397.5 868.237  28
   6   4  -2 23068.2 936.096   1
  -6   4   2 21664.4 826.505  26
  -6   4   2 22235.3 873.619  25
  -6   4   2 21720.1 844.613   5
  -6   4   2 21360.8 927.394  24
  -6   4   2 21794.3 962.970  21
   6   4  -2 22819.3 842.095   5
  -6   4   2 21065.1 810.663  23
  -6   4   2 22397.3 830.050  22
   6   4  -2 22210.7 825.011  22
   6   4  -2 22732.5 980.972   4
   6   4  -2 21288.6 951.916  18
   6   4  -2 20852.3 927.112  36
   6   4  -2 20686.3 976.162  17
   5   4  -2 2086.74 297.620  15
   5   4  -2 2254.17 294.921   1
  -5  -4   2 2966.10 635.004  13
  -5   4   2 2322.63 256.129  26
   5   4  -2 2101.53 303.889  17
  -5   4   2 2829.83 287.180  25
  -5   4   2 2588.69 283.914   5
  -5   4   2 2079.24 269.993  24
   5   4  -2 2477.59 317.529  36
   5   4  -2 2338.09 508.145   3
  -5   4   2 2643.95 258.159  23
   5   4  -2 2290.03 252.564   5
   5   4  -2 2479.46 262.329  22
  -5   4   2 2146.26 258.552  22
  -5   4   2 2809.48 319.919  21
   5   4  -2 2377.87 309.426  21
   5   4  -2 2218.53 273.968  28
  -5   4   2 2428.56 314.138  33
   5   4  -2 2670.93 321.405  18
   5   4  -2 2028.49 272.793   4
   4   4  -2 1834.53 266.331  17
   4   4  -2 1973.28 286.315  16
  -4   4   2 1784.64 260.799  33
   4   4  -2 1788.16 293.832  15
   4   4  -2 2022.64 248.603  22
  -4  -4   2 1656.11 460.816  13
  -4   4   2 2021.56 245.218  26
   4   4  -2 1297.41 223.226  28
   4  -4  -2 1608.93 401.138  39
  -4   4   2 1832.11 243.066  22
  -4   4   2 1882.01 238.320  25
  -4   4   2 2030.42 272.587  24
   4   4  -2 1589.84 451.782   3
  -4   4   2 1784.72 243.190  23
  -4   4   2 1851.35 266.020   1
   4   4  -2 1845.05 258.120   5
   4   4  -2 1908.29 280.395  18
   4   4  -2 2016.00 282.846  21
  -4   4   2 1993.12 261.882   5
  -4   4   2 1256.58 389.334   3
  -4   4   2 1706.80 258.735  21
   4   4  -2 1878.53 278.549  36
  -4  -4   2 2018.66 405.966  39
   4   4  -2 2332.49 317.184   1
   4   4  -2 1707.88 267.411   4
   3   4  -2 2119.61 287.964  17
  -3   4   2 1956.47 262.208  33
   3   4  -2 2596.64 338.120  15
   3   4  -2 1884.33 287.024  16
  -3  -4   2 1824.89 489.935  13
  -3   4   2 1802.53 248.921  22
   3   4  -2 1991.42 300.687  28
  -3   4   2 2019.70 267.838  26
  -3   4   2 2156.44 281.491  21
  -3  -4   2 2252.63 477.547  39
  -3   4   2 1943.38 264.834  24
   3   4  -2 2187.71 319.921   1
   3   4  -2 1598.40 461.436   3
   3   4  -2 2234.16 291.363  18
  -3   4   2 2250.48 278.108  23
  -3   4   2 1284.97 356.661   3
  -3   4   2 2312.37 290.166   5
   3  -4  -2 2299.39 488.195  39
   3   4  -2 2303.08 283.729   5
  -3   4   2 2492.29 285.024  25
   3   4  -2 1886.18 284.732  21
  -3   4   2 2023.02 301.880   1
   3   4  -2 2221.64 277.181  22
   3   4  -2 1818.20 269.005  36
   3   4  -2 2635.35 334.676   4
  -2  -4   2 1075.38 335.898  13
  -2   4   2 1133.54 220.160  22
   2   4  -2 1404.11 262.115  28
  -2   4   2 1320.54 190.439  33
   2   4  -2 1041.29 231.777  16
  -2   4   2 1784.51 256.252  26
  -2   4   2 1300.72 242.145   5
  -2   4   2 1793.40 283.150   1
   2   4  -2 1834.60 249.275  22
  -2  -4   2 2086.26 477.619  39
  -2   4   2 1266.65 222.014  24
   2   4  -2 907.380 343.149   3
  -2   4   2 1405.52 232.797  23
  -2   4   2 1626.93 247.472  21
   2   4  -2 1541.96 254.879  18
  -2   4   2 1839.66 462.156   3
  -2   4   2 1399.45 223.153  25
  -2  -4   2 1465.45 272.000  10
   2   4  -2 1408.14 239.462   5
   2   4  -2 1509.12 245.785  21
   2  -4  -2 1020.39 325.788  39
   2   4  -2 2018.22 311.649   1
   2   4  -2 1843.15 280.430  36
   1   4  -2 4706.71 423.061  16
   1   4  -2 5524.55 437.211  21
   1   4  -2 4420.79 454.928   1
  -1   4   2 4762.35 398.318  25
  -1  -4   2 4723.08 675.394  39
   1   4  -2 4526.31 429.198  28
  -1   4   2 5101.44 406.981  26
  -1   4   2 4948.36 414.723  24
  -1   4   2 4924.17 415.220   5
  -1   4   2 4875.90 397.984  23
   1   4  -2 5070.23 771.962   3
   1   4  -2 5836.71 452.636   5
  -1   4   2 4965.09 405.692  22
  -1   4   2 4808.12 727.696   3
   1   4  -2 4803.26 395.396  22
  -1   4   2 4234.69 384.824  21
  -1   4   2 4974.67 452.066   1
   1   4  -2 4467.67 380.576  18
   1   4  -2 4654.28 399.910  36
  -1   4   2 4775.52 374.215  36
   0   4   2 860.425 216.008   1
   0  -4  -2 1109.83 420.349  13
   0   4  -2 845.869 227.530  28
   0   4  -2 692.283 166.600  16
   0   4   2 608.188 167.692  26
   0   4  -2 619.044 177.599  22
   0   4  -2 645.203 186.344   5
   0   4   2 470.654 153.940  24
   0   4  -2 482.406 325.643   3
   0   4   2 690.574 183.218  23
   0   4   2 333.233 295.398   3
   0   4   2 476.637 160.755  22
   0   4  -2 729.145 200.037   1
   0   4   2 717.917 176.990  21
   0   4  -2 601.398 159.886  21
   0  -4   2 470.424 246.874  39
   0   4   2 838.389 185.012  36
   0   4  -2 769.305 179.818  18
   0   4  -2 603.919 165.124  36
   0   4   2 549.020 162.317   5
  -1   4  -2 18435.9 835.985  21
  -1  -4  -2 15604.1 1301.92  13
   1   4   2 18892.8 863.506  36
  -1   4  -2 18160.3 904.104  28
  -1   4  -2 19282.4 1449.23   3
   1   4   2 18962.4 848.732  26
  -1   4  -2 18788.6 810.884  18
   1   4   2 18418.3 854.516  25
   1   4   2 17485.4 1337.74   3
  -1   4  -2 19010.8 963.130   1
   1   4   2 19663.7 886.077  24
   1   4   2 18606.7 857.880   5
   1   4   2 18704.5 843.010  23
  -1   4  -2 18045.1 852.491   5
   1   4   2 18309.1 824.746  22
   1   4   2 18638.2 831.250  21
  -1   4  -2 17591.5 822.952  22
   1  -4   2 19173.6 1417.33  39
  -1   4  -2 17927.2 864.743  16
   1   4   2 18796.0 924.211   1
   1   4   2 18439.5 809.209  18
  -1   4  -2 18762.9 824.367  36
  -2   4  -2 16617.4 876.576   1
  -2  -4  -2 16214.4 1366.01  13
  -2   4  -2 16956.1 844.737  28
   2   4   2 15654.2 749.663  21
  -2   4  -2 14692.2 1249.76   3
   2  -4   2 17871.6 1358.45  39
   2   4   2 17124.6 784.285  26
   2   4   2 15594.2 785.343  25
   2   4   2 17274.4 1315.46   3
   2   4   2 17793.3 831.500  24
   2   4   2 16017.7 782.727   5
   2   4   2 16284.2 768.391  23
  -2   4  -2 15401.6 731.171  36
   2   4   2 16776.7 823.915  36
  -2   4  -2 16133.1 785.689   5
   2   4   2 16508.4 761.460  22
  -2   4  -2 15865.5 758.854  22
  -2   4  -2 17243.7 784.284  21
   2   4   2 16325.1 845.780   1
   2   4   2 16178.1 787.358  18
   3  -4   2 788.934 282.234  39
  -3  -4  -2 1530.47 460.726  13
   3   4   2 1426.09 249.301   1
  -3   4  -2 1443.33 242.413  28
  -3   4  -2 1188.77 194.111  22
   3   4   2 1297.81 209.192  26
   3   4   2 1199.99 207.931  22
   3   4   2 1258.40 219.650  18
  -3   4  -2 1296.45 205.548  21
  -3   4  -2 822.771 308.430   3
   3   4   2 1541.95 267.285  36
   3   4   2 1269.77 208.385  23
   3  -4   2 1268.06 229.503   8
   3   4   2 1349.78 234.388  25
   3   4   2 723.412 276.835   3
   3   4   2 1658.20 244.520   5
   3   4   2 1191.49 193.047  21
  -3   4  -2 1629.93 241.996   5
  -3   4  -2 1125.03 236.880   1
   4   4   2 163.754 120.315  17
  -4   4  -2 218.928 109.712   5
   4  -4   2-30.4080 220.538  39
  -4   4  -2 95.2406 110.190   1
  -4   4  -2 170.277 112.826  28
   4   4   2 270.106 135.570  21
   4   4   2 183.349 112.516  22
   4   4   2 247.727 137.300  26
  -4   4  -2 116.405 100.091  21
  -4   4  -2-1146.36 341.039   3
   4   4   2 339.565 152.103  23
   4   4   2 154.558 132.702  36
   4   4   2 142.376 98.2136   5
   4   4   2 1268.02 451.698   3
  -4   4  -2 325.650 117.378  22
  -4  -4  -2 1022.18 404.813  40
  -4  -4  -2 37.7023 365.208  13
   4   4   2 121.480 121.545   1
   4   4   2 265.070 153.058  18
  -4   4  -2 244.057 133.978  35
   5   4   2 2394.77 282.665  17
  -5  -4  -2 2297.66 578.292  13
  -5   4  -2 2362.71 273.810   1
   5   4   2 2249.48 235.251  22
  -5  -4  -2 1888.33 506.656  40
   5   4   2 2740.92 263.093   5
   5   4   2 2517.51 271.405  21
  -5   4  -2 2514.89 276.899  28
   5   4   2 2402.07 250.796  23
  -5   4  -2 2575.87 247.802  22
  -5   4  -2 2472.10 258.644   5
  -5   4  -2 2681.13 281.717  21
   5  -4   2 1919.24 521.275  39
   5   4   2 2457.10 317.227  18
   5   4   2 2517.92 311.532  36
  -5   4  -2 2631.73 326.261  35
  -6   4  -2 4065.57 385.414  33
   6   4   2 3774.90 296.198  21
   6   4   2 3487.90 358.211  36
  -6   4  -2 3548.35 297.296  21
   6   4   2 3806.37 368.547  18
  -6   4  -2 4095.72 387.151  35
   6   4   2 4118.74 351.768  17
  -7   4  -2 1206.80 234.548  34
   7   4   2 1108.46 178.753  17
  -7   4  -2 1387.10 240.936  33
   7   4   2 996.956 192.051  18
  -7   4  -2 1438.95 230.196  35
  -7   4  -2 1438.36 206.929  20
   7   4   2 1399.82 211.805  36
  -8   4  -2 202.378 135.098  34
  -8   4  -2-25.6555 109.890  33
   8   4   2 0.49839 104.440  18
  -8   4  -2 55.9716 99.1726  20
   8  -4   2 12.9371 117.010   7
   8   4   2 13.0074 86.4087  17
   8   4   2 102.282 96.1201  36
  -8   4  -2-126.204 130.107  35
  -9   4  -2 40.4892 100.615  34
   9   4   2 110.757 75.3894  17
  -9   4  -2 66.5785 87.2547  33
   9  -4   2 72.2028 102.874   7
  -9   4  -2 215.811 104.156  20
   9   4   2-46.3815 73.6359  18
   9   4   2 54.8145 62.8404  36
  -6   5   2 5740.27 308.070  24
  -6   5   2 4839.18 317.339  33
   6   5  -2 5597.86 350.779  18
   6   5  -2 5892.39 360.939  21
   6   5  -2 5425.29 341.564  36
   5   5  -2 10793.0 512.003  16
   5   5  -2 10242.2 538.176  21
  -5   5   2 10100.2 493.480  33
  -5   5   2 10392.2 479.010   5
  -5   5   2 11279.0 500.310  24
   5   5  -2 11243.9 478.622   5
   5   5  -2 11602.4 549.243   1
  -5   5   2 11374.7 549.373  21
  -5   5   2 10262.0 461.480  22
   5   5  -2 11835.9 481.483  22
   5   5  -2 11906.6 554.981  18
   5   5  -2 10884.0 538.395  36
   4   5  -2 1085.05 163.959  16
   4   5  -2 1240.12 169.634  22
   4   5  -2 1091.13 187.625   1
  -4   5   2 1370.17 192.352  21
  -4   5   2 1344.80 161.407  25
  -4   5   2 1308.49 172.045  24
  -4   5   2 1017.84 173.393   5
  -4   5   2 967.516 154.467  22
   4   5  -2 1213.43 169.264   5
   4   5  -2 1322.66 195.832  21
   4   5  -2 1442.80 198.885  18
   4   5  -2 1047.18 177.789  36
   3   5  -2 2501.47 264.368  21
   3   5  -2 3049.80 300.737  28
  -3   5   2 2825.99 273.262  21
  -3   5   2 2999.12 264.437  25
  -3   5   2 2587.59 266.801   5
  -3   5   2 2623.83 247.154  24
   3   5  -2 3201.76 284.259   5
  -3   5   2 2487.51 256.086  22
   3   5  -2 2560.16 291.705   1
   3   5  -2 2901.27 266.067  22
   3   5  -2 3464.78 285.217  16
   3   5  -2 2956.99 279.229  18
  -3   5   2 2765.60 262.560  26
   3   5  -2 2922.39 285.986  36
  -2   5   2 6919.63 439.981  21
   2   5  -2 6585.14 462.863  28
   2   5  -2 6768.57 447.238  21
  -2   5   2 7355.92 442.265  26
   2   5  -2 6838.15 491.164   1
  -2   5   2 7593.04 443.201  25
   2   5  -2 6601.53 436.179  36
  -2   5   2 7326.83 455.820   5
  -2   5   2 7149.16 431.777  24
   2   5  -2 7213.23 453.101   5
  -2   5   2 6895.28 441.812  23
  -2   5   2 6670.83 424.973  22
   2   5  -2 6703.12 428.750  22
   2   5  -2 7246.96 435.096  18
   2   5  -2 6472.18 408.817  16
  -1   5   2 2397.81 252.524  21
   1   5  -2 2083.85 247.994  21
   1   5  -2 2103.09 273.989  28
  -1   5   2 2260.60 255.947  26
   1   5  -2 2356.99 264.288   5
   1   5  -2 1993.24 272.964   1
  -1   5   2 2175.81 236.874  24
  -1   5   2 2197.97 250.356  25
  -1   5   2 2049.11 239.612  22
  -1   5   2 2156.74 255.317  23
  -1   5   2 1780.75 239.242   5
   1   5  -2 2477.25 261.268  22
   1   5  -2 1888.53 208.869  18
   1   5  -2 2157.68 248.965  36
  -1   5   2 2272.03 283.234   1
   0   5   2 5968.44 399.296  21
   0   5  -2 5409.21 430.580  28
   0   5   2 6173.40 421.045  26
   0   5  -2 6156.60 472.050   1
   0   5   2 6675.51 476.449   1
   0   5   2 6330.20 408.787  24
   0   5   2 5966.96 421.250   5
   0   5  -2 6189.77 422.923   5
   0   5   2 6556.22 430.808  23
   0   5   2 6212.37 411.373  22
   0   5  -2 5797.33 405.773  22
   0   5  -2 6060.38 411.464  21
   0   5   2 5638.99 368.076  36
  -1   5  -2 245.413 112.669   5
  -1   5  -2 160.708 103.753  28
   1   5   2 234.989 91.4014  21
   1   5   2 308.034 128.730  22
  -1   5  -2 439.923 155.010   1
   1   5   2 384.925 151.183  23
   1   5   2 245.530 124.358   5
  -1   5  -2 259.854 118.995  22
  -1   5  -2 99.7094 81.5908  21
   1   5   2 399.937 157.787   1
   1   5   2 291.703 118.319  36
  -2   5  -2 115.627 103.192  22
  -2   5  -2 52.6405 88.7338  33
  -2   5  -2-102.522 95.2557  28
   2   5   2 81.9692 82.2763  22
  -2   5  -2 85.5104 106.322   1
  -2   5  -2 83.1202 76.5543  21
   2   5   2 68.7411 90.4118   5
   2   5   2 174.666 101.077  21
  -2   5  -2-65.4828 97.5946   5
   2   5   2-135.724 108.956  36
  -3   5  -2 2964.52 270.103  33
   3   5   2 3457.45 280.398   5
  -3   5  -2 3641.31 326.959   1
   3   5   2 3269.35 259.165  21
  -3   5  -2 3444.40 279.618   5
   3   5   2 3075.54 258.801  22
  -3   5  -2 3225.31 262.244  22
  -3   5  -2 2998.31 254.679  21
   3   5   2 2963.45 282.154  36
   3   5   2 3228.34 264.110  18
  -4   5  -2 541.599 138.971  33
  -4   5  -2 516.873 105.763  22
   4   5   2 629.543 112.280  22
  -4   5  -2 332.821 118.812   1
  -4   5  -2 658.929 132.824   5
  -4   5  -2 561.538 117.065  21
   4   5   2 738.577 135.708   5
   4   5   2 629.321 126.742  18
   4   5   2 495.441 140.269  36
  -5   5  -2 26298.7 904.179  33
   5   5   2 26169.6 904.138  36
   5   5   2 24952.6 859.595  18
   6   5   2 637.034 117.474  18
   6  -5   2 519.668 112.724   7
  -6   5  -2 582.195 118.468  33
   6   5   2 777.812 127.076  36
  14   0  -3-93.7511 126.300   4
 -14   0   3-183.198 131.973  11
 -14   0   3-24.9283 87.3128  24
  13   0  -3 47.7513 147.849   4
 -13   0   3-211.267 153.539   6
 -13   0   3 162.572 146.126  11
 -13   0   3-130.739 89.1822  25
  12   0  -3 94.8868 226.858   4
 -12   0   3 205.546 167.706  11
 -12   0   3 140.786 132.378  19
 -12   0   3-63.5674 182.584   6
  11   0  -3-74.9444 187.054   4
 -11   0   3 176.332 190.141   6
 -11   0   3 89.7428 145.919  11
 -11   0   3 25.2489 159.995  19
  10   0  -3 96.0668 278.331  38
  10   0  -3 181.760 211.376   4
 -10   0   3-19.8809 195.985   6
  10   0  -3-278.562 271.851  41
 -10   0   3-75.8652 171.975  11
 -10   0   3-73.0374 144.784  19
  -9   0   3 225.263 164.314  33
   9   0  -3 22.3070 170.034   4
  -9   0   3-83.0512 171.553  13
  -9   0   3 85.1683 175.025   6
  -9   0   3-202.103 181.835  11
  -9   0   3-129.044 149.529  19
   9   0  -3 206.779 235.958  41
   9   0  -3 158.940 225.710  38
  -8   0   3 205.249 137.370  33
   8   0  -3-80.2027 153.209   4
  -8   0   3 127.884 162.417  13
  -8   0   3-179.314 157.348   6
  -8   0   3 100.962 153.659  11
   8   0  -3-99.2276 191.686  41
   8   0  -3 139.615 213.511  38
  -8   0   3 95.6453 160.800  19
   7   0  -3-73.5723 148.197   4
  -7   0   3 15.5292 151.206  13
  -7   0   3-116.469 122.389   6
   7   0  -3-34.5440 196.319  41
  -7   0   3-101.087 122.053  19
  -7   0   3 113.303 120.605  33
  -6   0   3 37.7901 95.6966  32
  -6   0   3-27.4555 162.739  13
  -6   0   3-85.7741 95.1627  27
   6   0  -3-53.9747 167.758  41
  -6   0   3-31.0272 102.560  11
  -6   0   3 68.3018 116.173  19
  -6   0   3-46.9444 127.485   6
  -5   0   3 7.45513 98.6792  32
  -5   0   3-23.0403 148.987  13
  -5   0   3 112.953 79.0481   2
   5   0  -3 6.54586 164.261  41
   5   0  -3-6.02783 101.779  42
  -5   0   3 43.2427 67.7560  31
  -4   0   3 47.5223 107.277  32
   4   0  -3 7.62036 180.308  41
  -4   0   3 8.88254 173.584  39
  -4   0   3 12.8330 78.3008  31
  -4   0   3 92.4659 133.320  13
  -4   0   3 5.80768 84.6370   2
   4   0  -3-408.784 151.968  42
  -3   0   3 27.0239 72.1956  31
  -3   0   3 11.2981 76.1181   2
  -3   0   3-77.5364 175.615  13
  -3   0   3-2.56290 120.228  32
   3   0  -3-49.4325 133.527  42
   3   0  -3-88.3753 186.505  41
  -3   0   3-149.415 157.101  39
   3   0  -3-30.3642 129.575  40
   2   0  -3 38.0080 129.131  42
   2   0  -3 149.718 126.135  40
  -2   0   3 5.61581 125.136  32
  -2   0   3 15.9490 84.5893   2
  -2   0   3-56.8526 147.785  13
  -2   0   3-34.4259 75.6494  31
   2   0  -3 203.400 161.854  41
  -2   0   3 48.6116 139.277  39
  -1   0   3 42.3696 95.7431   2
   1   0  -3-142.919 129.671  42
  -1   0   3 32.5831 146.092  32
   1   0  -3 178.278 168.732  41
   1   0  -3 31.7624 147.357  40
  -1   0   3-44.0096 120.644  39
  -1   0   3 6.60138 78.8347  31
   0   0   3-55.0676 93.6794  39
   0   0   3 14.0678 122.473  32
   0   0   3 24.7494 84.8794   2
   0   0   3 57.3901 69.7690  31
   0   0  -3 147.026 146.915  42
   0   0  -3-119.042 158.731  40
  -1   0  -3-158.610 188.637  42
   1   0   3 92.1929 120.869  32
   1   0   3-21.1177 76.2861  31
  -1   0  -3 60.1215 138.638  40
   1   0   3 4.56273 82.4129   2
  -1   0  -3-77.3969 160.287  12
   1   0   3 44.5239 79.4155  39
   2   0   3-11.8463 134.998  32
   2   0   3-64.0279 79.8578  31
   2   0   3-32.4294 77.6397   2
  -2   0  -3 102.361 191.743  40
  -2   0  -3-8.68930 197.000  12
  -2   0  -3-8.32623 158.678  42
   2   0   3 20.2094 80.1068  39
   2   0   3 36.0123 165.926  38
   3   0   3-31.6480 80.2156  31
   3   0   3 244.964 125.636  32
   3   0   3 111.472 91.2023   2
  -3   0  -3-32.9821 189.611  12
   3   0   3 107.394 189.923  38
  -3   0  -3-26.3697 189.042  40
  -3   0  -3-86.2868 168.110  42
   4   0   3-13.3051 95.4251  32
   4   0   3 40.5987 172.917  38
   4   0   3-31.6399 71.3129  31
   4   0   3-138.667 103.763  29
   4   0   3 127.656 83.6046   2
  -4   0  -3 152.271 242.251  12
  -4   0  -3 119.323 148.048  42
  -4   0  -3 271.372 234.678  40
  -5   0  -3 23.8554 175.329  42
   5   0   3 4.63168 106.953  14
   5   0   3-43.4874 176.971  38
   5   0   3 51.6767 123.936   7
   5   0   3 91.8016 149.498  29
  -5   0  -3-249.067 255.087  12
   5   0   3-29.9554 92.9320  27
   5   0   3-73.7554 130.051  10
   5   0   3 77.3989 100.262  32
  -5   0  -3-2.60191 234.290  40
   5   0   3-100.166 122.218   8
   6   0   3 54.3422 138.534  14
   6   0   3-32.5020 133.376   7
   6   0   3-94.0712 130.006  29
  -6   0  -3-35.4969 338.638  12
  -6   0  -3-2.35245 173.918  42
   6   0   3 3.00269 144.205  10
  -6   0  -3 170.852 188.116  40
   6   0   3 234.811 270.417  38
  -6   0  -3-11.1938 112.278  35
   6   0   3 144.750 131.778   8
   7   0   3-82.0337 126.062  14
   7   0   3-124.471 137.119   8
   7   0   3-67.4075 140.598   7
  -7   0  -3-29.8543 194.939  12
  -7   0  -3 191.830 145.626   6
   7   0   3-48.6536 126.484  10
  -7   0  -3-69.3373 210.273  40
   7   0   3 294.982 300.195  38
  -7   0  -3 235.111 175.779  42
  -7   0  -3 119.909 118.033  35
   8   0   3-112.339 159.034   7
  -8   0  -3-85.8069 192.101  30
  -8   0  -3-413.470 298.638  12
  -8   0  -3-60.4682 179.878   6
   8   0   3-52.1451 149.828  14
   8   0   3 30.1616 134.990  10
  -8   0  -3 82.8447 230.825  40
   8   0   3-7.90766 250.198  38
   8   0   3-40.8809 149.610   8
   9   0   3-9.96266 157.709   7
  -9   0  -3 331.846 221.740  30
   9   0   3-88.7887 167.012   8
  -9   0  -3-225.998 242.723   6
   9   0   3-36.2467 172.932  10
  -9   0  -3 124.093 156.264  20
   9   0   3 80.2549 141.082  14
   9   0   3 600.813 380.259  38
  -9   0  -3 192.957 303.220  40
  -9   0  -3-389.195 443.395  12
  10   0   3 128.755 167.242   8
  10   0   3 52.5024 172.397   7
 -10   0  -3-392.319 350.814  30
 -10   0  -3-61.5000 132.675  20
 -10   0  -3 262.369 249.712  12
 -10   0  -3 201.734 222.633   6
 -10   0  -3 139.437 172.824  11
  10   0   3-51.9286 337.319  38
  10   0   3 170.616 179.457  10
 -11   0  -3 6.00547 177.408   6
 -11   0  -3-307.264 168.310  11
  11   0   3-144.709 162.046  10
  11   0   3 61.5867 148.756   7
 -11   0  -3 331.259 134.240  20
  11   0   3-172.222 157.583   8
  12   0   3-260.570 148.193   7
 -12   0  -3-124.983 158.437   6
 -12   0  -3-171.982 138.549  11
  12   0   3 74.8310 109.823   8
  14   1  -3 1905.77 248.080   4
  14  -1  -3 2133.33 246.351   4
 -14  -1   3 2409.24 255.986  11
 -14   1   3 1777.01 195.841  24
  13   1  -3 8.87328 164.457   4
  13  -1  -3 201.149 176.879   4
 -13  -1   3 164.572 142.363  11
 -13   1   3-11.2378 124.419  24
 -13   1   3-74.9671 113.789  19
  12  -1  -3 1683.29 314.753   4
  12   1  -3 1833.30 335.597   4
 -12  -1   3 2288.85 336.053   6
 -12   1   3 2595.40 371.780   6
  12   1  -3 1654.58 221.443  15
 -12   1   3 1653.49 244.646  11
 -12  -1   3 1724.56 302.932  11
 -12   1   3 2232.40 239.057  25
 -12   1   3 2067.03 282.026  24
 -12   1   3 2089.15 295.633  19
  11  -1  -3 98.6656 197.710   4
  11   1  -3-83.4820 283.765  29
 -11   1   3 32.6019 162.717   6
 -11  -1   3 261.438 190.738   6
  11   1  -3 18.2790 214.415   4
 -11  -1   3 170.296 171.203  11
 -11   1   3 278.772 141.723  25
 -11   1   3 254.611 148.173  24
 -11   1   3 210.571 127.262  33
 -11   1   3 53.4608 153.726  11
  11   1  -3 50.9985 252.977  41
 -11   1   3 43.7534 158.737  19
  11  -1  -3 275.623 233.977  38
  11   1  -3 21.0496 102.834  15
 -10  -1   3 12103.2 1030.10  13
 -10   1   3 10474.7 762.063   6
 -10  -1   3 11032.6 768.040   6
 -10   1   3 11725.4 664.988  33
  10   1  -3 11798.3 1037.31  29
  10   1  -3 10665.3 657.840  15
 -10   1   3 10526.7 696.111  11
 -10  -1   3 10341.0 751.191  11
 -10   1   3 11484.9 630.652  25
  10  -1  -3 11632.5 1029.62  41
  10   1  -3 10462.9 1061.12  41
 -10   1   3 11010.9 705.762  19
  10  -1  -3 12231.7 1189.30  38
  10   1  -3 10909.2 809.986   4
  10  -1  -3 11069.3 788.696   4
   9   1  -3 312.724 220.215   4
   9  -1  -3 418.462 177.960   4
  -9  -1   3 50.5812 213.038  13
   9   1  -3 322.620 221.988  29
   9  -1  -3 364.688 210.797  41
  -9  -1   3 325.950 174.688   6
  -9   1   3 116.689 165.893   6
  -9   1   3 300.092 158.144  11
  -9  -1   3-34.7100 148.912  11
   9  -1  -3-113.513 267.532  38
   9   1  -3 86.7435 267.351  41
  -9   1   3 330.502 165.084  33
  -9   1   3 260.575 174.817  19
  -8   1   3 3337.95 350.052  33
   8   1  -3 3691.14 455.769   4
   8  -1  -3 3227.97 409.103   4
  -8  -1   3 3208.47 547.783  13
   8   1  -3 3511.08 515.329  29
  -8   1   3 3453.73 416.673   6
  -8  -1   3 3471.94 396.221   6
  -8   1   3 3093.63 359.188  11
  -8  -1   3 3404.22 398.936  11
   8  -1  -3 3621.79 625.590  38
   8  -1  -3 3578.51 568.071  41
   8   1  -3 2956.33 533.688  41
  -8   1   3 3206.74 350.319  19
   8   1  -3 3579.40 513.470  38
  -7  -1   3 13188.5 1017.96  13
  -7   1   3 13019.5 760.967   6
  -7  -1   3 12290.8 716.238   6
  -7   1   3 11713.7 550.029  26
  -7   1   3 12769.0 703.448  11
  -7  -1   3 11768.8 721.266  11
  -7   1   3 12492.3 672.608  33
  -7   1   3 12780.0 697.245  19
   7  -1  -3 12964.3 983.579  41
   7   1  -3 13561.6 1057.20  41
  -7  -1   3 11661.4 939.674  39
   7   1  -3 12425.9 788.608   4
  -6   1   3 916.318 198.437   6
  -6  -1   3 1167.18 223.993  32
   6   1  -3 878.141 164.416  15
  -6   1   3 870.479 179.288  33
  -6  -1   3 938.272 134.701  31
   6   1  -3 1607.14 298.724   4
  -6   1   3 1377.75 165.542  31
  -6  -1   3 811.227 282.159  13
  -6  -1   3 779.184 188.046   6
  -6   1   3 1124.62 205.132  27
  -6   1   3 935.345 161.980  26
   6   1  -3 937.460 344.266  41
  -6   1   3 822.214 175.910  11
  -6  -1   3 798.653 203.405  11
  -6   1   3 1316.04 177.921   2
   6  -1  -3 940.540 292.091  41
  -6  -1   3 1295.93 319.340  39
  -6   1   3 1184.23 226.087  32
  -6   1   3 569.226 155.122  19
  -5   1   3 57928.0 1891.88  32
  -5   1   3 51922.5 1504.77  31
  -5  -1   3 54520.4 1487.62  31
   5   1  -3 52233.2 2088.76  41
  -5  -1   3 59306.0 2221.91  13
   5   1  -3 54820.1 1538.35  28
  -5   1   3 56881.7 1814.91  27
  -5   1   3 51045.8 1515.08   2
   5  -1  -3 55391.5 2107.54  41
  -5  -1   3 56466.8 1821.92  32
  -5  -1   3 51906.3 2034.01  39
   4   1  -3 6133.52 581.553  41
  -4   1   3 6563.17 538.713  32
  -4   1   3 6993.91 374.447  31
  -4  -1   3 7142.92 661.050  13
  -4   1   3 6825.99 516.368  27
   4  -1  -3 6777.22 441.634  42
   4   1  -3 7438.10 575.612  42
   4  -1  -3 6777.46 619.018  41
  -4  -1   3 6788.83 607.452  39
  -4   1   3 6493.76 380.981   2
  -3   1   3 59370.6 1917.34  32
  -3   1   3 53762.4 1539.40  31
   3   1  -3 58015.8 1986.08  41
   3   1  -3 57817.6 1951.51  42
  -3  -1   3 57158.0 2068.05  13
   3  -1  -3 55652.8 1761.69  42
  -3   1   3 58598.6 1866.24  27
   3  -1  -3 51032.5 1973.39  41
   3  -1  -3 57023.7 1594.84  40
  -3   1   3 53759.5 1556.23   2
  -3  -1   3 60907.5 2019.88  39
   2  -1  -3 71813.8 2191.06  42
  -2  -1   3 69756.2 2367.51  13
   2   1  -3 74689.4 2376.34  40
   2   1  -3 72140.3 1836.01  29
  -2   1   3 75638.4 2251.25  27
  -2   1   3 71151.3 1934.97   2
   2   1  -3 72556.3 2333.26  42
   2   1  -3 76928.8 2296.18  41
  -2   1   3 72476.5 2267.40  32
   2  -1  -3 74837.1 2103.29  40
  -2  -1   3 77579.3 2348.34  39
  -2   1   3 71490.8 1910.37  31
  -1   1   3 11.1985 142.285  32
  -1   1   3 77.5125 97.3234  31
  -1  -1   3-25.7289 137.305  13
  -1   1   3 32.9275 83.9115   2
  -1   1   3 33.0463 133.760  27
   1   1  -3 132.974 163.301  42
   1   1  -3 219.376 180.590  40
   1  -1  -3 74.2792 136.141  42
   1   1  -3 173.709 131.931  41
   1  -1  -3 231.646 175.593  40
  -1  -1   3 108.797 157.238  39
   0   1  -3 28090.1 1273.56  40
   0   1   3 27741.6 900.282  31
   0  -1   3 27997.2 1195.97  13
   0  -1  -3 25761.4 1146.62  40
   0   1  -3 26642.5 775.896  30
   0   1   3 26741.2 1135.61  27
   0   1   3 29437.8 1199.50  32
   0  -1  -3 28618.8 1207.83  42
   0   1   3 28643.2 923.969   2
   0  -1   3 30183.6 1195.00  39
   0   1  -3 27226.8 1234.06  42
   0   1  -3 29076.8 1075.44  41
   1   1   3 5435.33 470.636  32
  -1   1  -3 6022.21 551.008  42
   1   1   3 5312.26 321.054  31
  -1   1  -3 5446.78 388.291  41
  -1   1  -3 5791.38 353.457  30
  -1   1  -3 6032.33 517.136  12
   1   1   3 5180.55 452.920  27
  -1  -1  -3 4976.93 491.875  42
   1  -1   3 5680.69 548.221  38
  -1   1  -3 6380.93 580.858  40
   1   1   3 5306.79 334.349   2
   1  -1   3 5749.47 467.388  39
  -1  -1  -3 5422.87 591.388  12
  -1  -1  -3 5386.29 504.089  40
   2   1   3-28.3910 138.102  32
  -2   1  -3-143.969 78.5722  41
  -2   1  -3 23.6424 118.831  30
   2   1   3-108.537 156.574  27
  -2   1  -3 70.1502 143.762  12
  -2  -1  -3-525.258 238.209  12
   2   1   3 5.99328 86.0226   2
   2  -1   3 4.31968 156.290  38
   2   1   3-42.6525 84.3945  31
  -2   1  -3 161.744 203.283  42
  -2  -1  -3-69.8730 186.442  40
  -2   1  -3 367.641 202.988  40
   2  -1   3 86.1217 104.337  39
  -2  -1  -3 14.2567 170.865  42
   3  -1   3 18430.9 877.251  32
   3   1   3 17861.1 673.683  31
  -3   1  -3 17866.3 893.873  30
   3   1   3 18378.5 923.985  32
  -3   1  -3 19340.7 1091.61  12
  -3  -1  -3 18408.5 1204.26  12
   3   1   3 18055.4 892.300  27
   3  -1   3 18550.7 654.700  31
  -3   1  -3 18337.1 1077.58  40
  -3   1  -3 18664.7 1039.16  42
  -3  -1  -3 18728.1 1068.67  42
  -3  -1  -3 18214.0 1095.82  40
   3  -1   3 18957.7 899.398  39
   3   1   3 18902.9 695.405   2
   3  -1   3 18973.9 1149.02  38
   4  -1   3 21457.3 978.430  32
   4   1   3 23057.4 1045.23  32
   4   1   3 23851.3 790.299  31
  -4   1  -3 23302.0 1299.62  12
  -4   1  -3 24036.9 1145.69  30
  -4   1  -3 21936.1 823.576  28
   4  -1   3 23871.3 773.199  31
   4   1   3 23027.5 921.815  14
  -4  -1  -3 24607.6 1482.06  12
   4   1   3 24445.6 1049.23  27
   4  -1   3 22718.1 977.801  10
  -4  -1  -3 23791.0 1261.43  42
  -4   1  -3 21565.6 1165.76  42
  -4  -1  -3 22130.3 1303.01  40
  -4   1  -3 23103.9 1275.32  40
   4  -1   3 23517.6 1042.61  39
   4  -1   3 23748.5 1378.17  38
   4   1   3 23305.8 807.087   2
   4  -1   3 22397.6 969.172   8
   5  -1   3 482.742 171.357   8
   5  -1   3 551.757 158.765  32
   5   1   3 405.708 133.324  14
   5   1   3 200.289 152.246   7
  -5   1  -3 466.896 167.407  30
  -5   1  -3 366.495 187.923  40
   5   1   3 475.118 209.835  29
  -5   1  -3 696.998 212.856  12
   5   1   3 512.672 138.346  27
  -5  -1  -3 714.372 327.112  12
   5   1   3 276.194 131.826  10
   5  -1   3 424.924 137.162  10
  -5  -1  -3 701.334 270.990  42
  -5   1  -3 204.031 165.324  42
  -5  -1  -3 1239.94 376.480  40
   5  -1   3 572.990 164.419  39
   5  -1   3 531.394 255.635  38
   5   1   3 554.236 168.714   8
   6   1   3 48221.8 1599.56   7
   6   1   3 50138.8 1666.37  14
   6  -1   3 47106.0 1575.44  14
  -6   1  -3 47530.3 2040.45  30
   6   1   3 49324.4 2019.78  29
  -6   1  -3 48052.7 2273.30  12
  -6   1  -3 46503.0 1673.72   6
  -6  -1  -3 49719.8 2085.97  42
   6   1   3 49393.4 1683.27  10
   6  -1   3 49174.6 1729.75  10
  -6  -1  -3 46238.1 2405.44  12
  -6   1  -3 49475.9 1957.61  42
  -6  -1  -3 49059.8 2247.73  40
   6   1   3 49781.2 1698.31   8
   6  -1   3 48283.9 2304.57  38
   6  -1   3 51608.6 1743.16   8
  -6   1  -3 48156.9 2110.26  40
  -6   1  -3 48293.0 1632.93  35
   7   1   3 31702.6 1258.56   7
   7  -1   3 30489.5 1263.40   7
   7   1   3 31573.2 1283.15  14
   7  -1   3 31045.9 1206.44  14
  -7   1  -3 31210.0 1675.93  30
  -7  -1  -3 33235.5 1724.86  13
   7   1   3 34004.1 1686.19  29
  -7   1  -3 32689.6 1897.17  12
  -7  -1  -3 34343.5 2084.76  12
  -7   1  -3 31053.5 1316.94   6
  -7  -1  -3 29521.4 1341.50   6
  -7  -1  -3 32123.6 1644.70  42
   7   1   3 33930.4 1355.93  10
   7  -1   3 31648.6 1348.82  10
  -7  -1  -3 32777.5 1831.95  40
  -7   1  -3 33810.9 1731.16  40
   7   1   3 31934.6 1318.97   8
   7  -1   3 32358.1 1918.04  38
   7  -1   3 31899.5 1337.36   8
   7   1   3 30766.6 1135.92  36
  -7   1  -3 32678.1 1283.34  35
   8   1   3 2314.32 355.339   8
   8  -1   3 2032.95 515.087  38
   8   1   3 1917.61 324.671  14
   8  -1   3 1999.07 280.497  14
   8   1   3 2362.07 311.209   7
   8  -1   3 2240.76 336.098   7
  -8   1  -3 1345.34 347.198  30
   8   1   3 2642.22 463.019  29
  -8   1  -3 2463.72 555.155  12
  -8  -1  -3 1596.54 469.973  12
  -8   1  -3 2048.00 338.434   6
  -8  -1  -3 1982.75 356.502   6
   8   1   3 1909.20 315.198  10
   8  -1   3 1547.30 301.681  10
  -8  -1  -3 2463.35 465.521  42
  -8  -1  -3 2332.57 511.233  40
  -8   1  -3 1824.39 418.286  40
   8   1   3 2645.87 287.094  36
  -8   1  -3 1650.02 283.202  35
   8  -1   3 2418.89 362.818   8
   9   1   3 28432.1 1222.41   7
   9  -1   3 29240.0 1274.55   7
  -9   1  -3 28543.9 1692.96  30
  -9   1  -3 27745.6 1878.67  12
  -9   1  -3 29450.3 1303.89   6
  -9  -1  -3 30626.9 2064.71  12
  -9  -1  -3 25879.9 1290.10   6
  -9  -1  -3 27647.7 1729.27  40
  -9   1  -3 27598.1 1144.62  11
   9   1   3 29364.4 1299.60  10
   9  -1   3 28466.7 1306.03  10
  -9   1  -3 29142.3 1239.93  35
   9   1   3 29398.3 1306.01   8
   9  -1   3 27293.9 1828.35  38
   9  -1   3 28871.7 1293.29   8
   9   1   3 27314.3 1092.76  18
  -9   1  -3 28407.3 1127.75  34
 -10   1  -3-43.7230 111.960  34
  10  -1   3-55.1795 185.597   7
  10   1   3-20.1388 160.048   8
  10   1   3 166.820 122.433  18
 -10   1  -3-7.78469 152.588   6
 -10  -1  -3 62.8941 183.110   6
 -10   1  -3-70.6401 154.351  20
 -10   1  -3-184.693 110.952  11
 -10  -1  -3 79.4925 164.172  11
  10   1   3-29.0598 178.064  10
  10  -1   3 31.9904 153.292  10
  10   1   3-230.711 189.810   7
  10  -1   3 111.459 169.396   8
 -11   1  -3 173.385 143.824  20
  11   1   3 21.3915 135.987   7
  11  -1   3 226.286 168.945   7
  11   1   3 99.0063 87.3204  18
 -11   1  -3 458.069 180.698   6
 -11  -1  -3 201.967 162.679   6
 -11  -1  -3-52.6335 165.949  11
  11  -1   3 266.084 153.306  10
  11   1   3 177.281 164.250   8
  11  -1   3 264.125 157.690   8
  12  -1   3 1668.10 251.326   7
 -12   1  -3 1507.41 216.788   6
 -12  -1  -3 1683.60 258.067   6
 -12  -1  -3 1612.31 254.796  11
  12  -1   3 1023.67 205.873  10
 -12   1  -3 1410.51 202.720  20
  12  -1   3 1113.45 206.788   8
  13   2  -3 841.571 186.700   4
  13   2  -3 375.939 111.172  15
  13  -2  -3 192.615 117.915   4
 -13  -2   3 575.490 144.644  11
 -13   2   3 798.284 154.543  24
 -13   2   3 577.645 156.392  19
 -12   2   3 3279.49 291.558  33
  12   2  -3 2687.29 290.199  15
  12   2  -3 3359.32 376.832   4
  12  -2  -3 2547.68 303.189   4
 -12  -2   3 3286.91 357.833  11
 -12   2   3 3057.37 306.908  24
 -12   2   3 3373.56 333.747  19
 -11   2   3 9293.74 566.492  33
  11   2  -3 10232.8 627.398  15
 -11  -2   3 8361.93 621.476  11
 -11   2   3 9040.02 486.557  25
 -11   2   3 8784.20 575.047  24
 -11   2   3 9201.63 606.190  19
  11   2  -3 9788.30 700.414   4
  11  -2  -3 8276.78 593.336   4
  11   2  -3 8991.16 491.648  17
 -10   2   3 16821.6 833.089  33
 -10  -2   3 14963.6 1272.30  13
  10   2  -3 14431.4 1161.94  29
 -10  -2   3 15292.1 892.005  11
 -10   2   3 15143.9 725.723  25
 -10   2   3 14821.1 813.148  24
  10   2  -3 15791.6 840.400  15
  10   2  -3 16028.8 1316.23  41
 -10   2   3 16684.7 860.340  19
  10  -2  -3 16011.5 1412.91  38
  10   2  -3 16166.0 955.045   4
  10  -2  -3 15475.4 854.774   4
  10   2  -3 16033.4 745.400  17
   9   2  -3 1861.47 267.431  17
  -9   2   3 2135.73 313.330  33
   9   2  -3 1450.53 264.367  15
   9   2  -3 1734.06 359.271   4
  -9  -2   3 1882.07 468.869  13
   9   2  -3 2763.66 510.041  29
   9  -2  -3 2486.76 603.388  38
  -9  -2   3 1613.72 291.553  11
  -9   2   3 1940.40 252.874  25
  -9   2   3 1945.27 289.098  24
   9   2  -3 1935.42 484.539  41
  -9   2   3 2456.22 337.368  19
   8   2  -3 1248.62 223.543  17
  -8   2   3 1170.27 241.376  33
   8   2  -3 1073.15 247.420  15
   8   2  -3 824.135 256.711   4
  -8  -2   3 944.174 374.567  13
   8   2  -3 1101.03 340.803  29
  -8  -2   3 1105.04 245.907  11
  -8   2   3 970.943 186.597  25
  -8   2   3 1157.36 236.364  24
   8   2  -3 1107.48 379.726  41
  -8  -2   3 1323.50 427.031  39
  -8   2   3 1027.40 243.016  19
   8  -2  -3 1146.11 479.517  38
   8   2  -3 1373.05 200.178  18
   7   2  -3 14923.2 823.751  15
  -7   2   3 17004.0 839.513  33
  -7  -2   3 16202.7 1286.71  13
   7   2  -3 16736.4 1094.18  29
  -7   2   3 16073.9 689.166  26
  -7  -2   3 15290.5 844.650  11
  -7   2   3 14973.9 742.128  25
  -7   2   3 15767.3 801.260  24
   7   2  -3 16901.2 1250.04  41
  -7   2   3 16005.1 808.417  19
   7  -2  -3 16187.4 1107.50  41
  -7  -2   3 15902.1 1162.26  39
   7  -2  -3 14317.5 1253.44  38
   7   2  -3 15876.9 740.131  18
   7   2  -3 14412.0 907.193   4
   7   2  -3 17553.3 733.075  36
   7   2  -3 15962.0 785.362  17
   6   2  -3 316.502 139.975  17
  -6   2   3 270.567 139.080  33
   6   2  -3 116.584 119.418  15
   6   2  -3 370.679 164.003   4
   6   2  -3 316.277 100.487   1
  -6   2   3 123.532 94.4153  31
  -6  -2   3 232.127 231.002  13
   6   2  -3 588.396 223.808  29
   6   2  -3 247.994 112.772  28
  -6   2   3 620.663 218.178  27
  -6   2   3 524.830 145.066  26
  -6  -2   3 59.5648 125.897  11
  -6   2   3 311.222 126.097  25
   6   2  -3 286.090 191.572   3
  -6   2   3 204.390 113.104  24
  -6   2   3 351.034 128.763   2
   6  -2  -3 219.256 206.024  41
  -6   2   3 133.578 92.1896  21
   6   2  -3 280.867 243.017  41
  -6  -2   3 168.176 187.533  39
  -6   2   3 388.523 167.130  19
   6   2  -3 73.0376 116.879  18
   6   2  -3 424.377 150.167  36
  -5   2   3 2853.88 314.403  33
   5   2  -3 2764.55 327.190  15
   5   2  -3 3111.40 378.897   4
  -5   2   3 3108.20 297.041  31
   5   2  -3 3124.13 486.844  41
  -5  -2   3 2395.93 450.784  13
   5   2  -3 3456.06 418.531  29
   5   2  -3 3687.40 311.299  28
  -5   2   3 3781.43 431.152  27
  -5   2   3 3185.58 320.799  19
  -5   2   3 3076.55 281.238  26
  -5  -2   3 3835.26 363.646  11
   5  -2  -3 3206.58 468.562  41
  -5   2   3 3072.39 279.749   9
  -5   2   3 2899.62 292.784  25
  -5   2   3 3209.69 290.510   5
   5   2  -3 3268.90 514.683   3
  -5   2   3 3232.56 315.831  24
  -5   2   3 2985.38 284.969  21
  -5   2   3 3048.31 264.211  23
  -5   2   3 3225.28 279.085  22
   5   2  -3 3368.45 289.392   5
  -5  -2   3 3262.05 506.458  39
   5   2  -3 3202.46 302.763  18
   5   2  -3 3329.18 299.653  36
   5   2  -3 2770.45 304.939  17
  -5   2   3 3136.72 302.356   2
   4   2  -3 67258.6 2021.79  15
  -4   2   3 65848.7 1893.12  31
  -4   2   3 68364.7 1902.22  21
  -4  -2   3 67254.2 2618.21  13
  -4   2   3 68005.0 1972.99  33
   4   2  -3 65682.7 2550.97   3
   4   2  -3 69921.5 1938.57  28
  -4   2   3 75704.7 2381.64  27
  -4  -2   3 65761.5 2481.97  39
  -4   2   3 66106.5 1883.60  26
  -4   2   3 65252.2 1922.17  25
  -4   2   3 66365.3 1888.99   5
  -4   2   3 66717.5 1946.59  24
  -4   2   3 67837.3 1858.53  23
  -4   2   3 64871.1 1851.69  22
  -4   2   3 67431.9 1888.37   9
   4  -2  -3 68110.2 2461.78  41
   4   2  -3 67573.1 2430.49  41
  -4   2   3 65539.6 1901.90  19
   4   2  -3 68682.0 2149.18   4
   4   2  -3 68911.3 1934.46  18
  -4   2   3 66701.2 1914.89   2
   4   2  -3 66585.6 1915.33  36
   4   2  -3 68500.9 1953.11  17
   3   2  -3 4763.00 384.434  15
  -3   2   3 4904.40 373.792  33
  -3   2   3 5022.78 362.063  31
  -3  -2   3 4211.59 548.958  13
   3   2  -3 5294.11 382.425  28
   3  -2  -3 4615.80 537.563  41
  -3   2   3 5827.60 551.185  27
  -3   2   3 4858.58 342.843  26
  -3   2   3 5112.85 363.639  25
  -3   2   3 5111.51 357.021   5
  -3   2   3 5225.92 382.620  24
   3   2  -3 4543.27 362.014  17
  -3   2   3 5008.75 341.065  23
  -3   2   3 5277.36 349.988  22
   3  -2  -3 5244.91 466.202  42
  -3   2   3 5157.56 355.677   9
  -3  -2   3 4791.10 552.319  39
   3   2  -3 6180.72 484.795   4
   3   2  -3 5397.77 373.565  18
   3   2  -3 5126.95 521.824  41
   3   2  -3 5150.79 366.341  36
  -3   2   3 4921.69 358.424   2
   2   2  -3 32693.8 1146.97  15
  -2   2   3 31784.9 1084.70  31
  -2  -2   3 30275.9 1489.81  13
   2   2  -3 32894.8 1125.36  28
   2   2  -3 30662.8 1506.84  42
  -2   2   3 32267.8 1417.41  27
  -2   2   3 31753.3 1062.88  26
  -2   2   3 33269.0 1090.50   9
  -2   2   3 31818.8 1074.43  25
  -2   2   3 31016.8 1070.88   5
  -2   2   3 31361.6 1083.63  24
   2  -2  -3 31923.6 1360.63  42
  -2   2   3 31809.3 1057.01  23
  -2   2   3 32496.1 1063.41  22
   2   2  -3 33592.4 1349.18  41
   2  -2  -3 34111.3 1214.29  40
  -2  -2   3 33189.5 1529.36  39
   2   2  -3 32722.2 1243.16   4
   2   2  -3 32116.1 1085.80  18
   2   2  -3 32499.0 1092.72  36
  -2   2   3 31108.3 1094.86   2
   2   2  -3 32357.9 1101.78  17
   1   2  -3 1359.01 224.958   4
  -1   2   3 1407.83 205.121   9
   1   2  -3 1223.04 194.146  16
   1   2  -3 1098.69 183.045  15
   1   2  -3 876.711 233.181  42
  -1   2   3 1196.08 188.713  31
  -1  -2   3 1637.51 312.723  13
   1   2  -3 1691.62 213.881  28
   1  -2  -3 1408.68 302.985  42
  -1   2   3 1533.19 285.032  27
  -1   2   3 1134.96 162.152  26
  -1   2   3 1351.45 197.153   2
  -1   2   3 1171.35 167.732  23
  -1   2   3 1051.03 166.168   5
  -1   2   3 1486.86 191.239  22
   1   2  -3 1346.71 235.500  41
   1  -2  -3 1099.79 224.019  40
  -1  -2   3 1384.80 306.670  39
   1   2  -3 1435.13 189.608  18
   1   2  -3 1149.88 185.650  36
   0   2  -3 8934.34 520.377  16
   0   2   3 8813.43 481.920  31
   0  -2   3 8545.73 665.227  13
   0   2  -3 8625.02 728.852  42
   0   2  -3 9034.03 505.417  28
   0   2   3 8884.48 689.500  27
   0   2   3 9243.37 484.235   5
   0  -2  -3 9147.32 727.389  42
   0   2   3 8909.36 464.802  23
   0   2  -3 9140.31 480.437  18
   0   2   3 8846.85 463.004  22
   0  -2  -3 8480.56 659.371  40
   0   2   3 8026.60 464.181   9
   0  -2   3 8588.71 719.753  39
   0   2  -3 9964.42 603.921   4
   0   2  -3 8910.46 480.203  36
   0   2   3 9859.20 519.033   2
  -1   2  -3 12613.4 632.636  16
   1   2   3 12626.6 593.225  31
   1  -2   3 11992.3 743.639  13
  -1  -2  -3 12714.2 875.448  40
  -1   2  -3 13163.4 628.602  28
   1   2   3 12096.7 576.030   9
  -1  -2  -3 12165.6 962.592  12
   1   2   3 12144.7 808.453  27
   1   2   3 12770.0 585.789   5
   1   2   3 12207.4 572.390  24
   1  -2   3 12667.7 680.124  10
   1   2   3 11465.3 551.906  23
   1   2   3 12838.9 567.258  22
  -1   2  -3 14124.6 935.597  42
  -1   2  -3 12141.9 907.064  40
  -1   2  -3 11989.2 689.885   4
   1  -2   3 12471.0 874.561  39
   1   2   3 12502.4 602.617   2
  -2   2  -3 3856.85 340.295  16
   2   2   3 3371.59 288.746  31
  -2   2  -3 3342.29 306.615  28
   2   2   3 3212.35 409.367  27
  -2  -2  -3 3141.90 525.502  12
   2   2   3 3142.21 265.024  26
   2   2   3 3370.34 270.695  25
  -2   2  -3 3450.03 490.757   3
   2   2   3 3079.57 275.424   5
   2   2   3 3266.06 280.366  24
  -2  -2  -3 3771.63 513.981  40
   2   2   3 3286.86 274.819  23
   2   2   3 3530.39 297.993   9
   2   2   3 3462.09 274.728  22
   2  -2   3 3305.29 340.427  10
  -2  -2  -3 2869.75 479.020  42
  -2   2  -3 3589.28 482.437  42
  -2   2  -3 3748.50 506.196  40
   2  -2   3 3054.81 429.660  39
   2  -2   3 3774.76 498.001  38
   2   2   3 3480.92 295.557   2
   2   2   3 3081.46 290.248  36
   3   2   3 423.699 107.939  14
   3   2   3 447.330 111.089  31
  -3   2  -3 161.035 132.652  30
   3  -2   3 569.891 211.037  39
  -3   2  -3 125.685 86.0402  28
   3   2   3 371.074 185.392  27
  -3  -2  -3 992.518 382.547  12
   3   2   3 440.821 131.183  26
   3   2   3 403.862 121.989  25
  -3   2  -3 790.087 279.461   3
   3   2   3 427.293 121.038  24
   3   2   3 560.733 144.329   2
  -3   2  -3 568.242 273.766  42
   3   2   3 480.330 123.886  23
   3  -2   3 573.040 191.467  10
   3   2   3 324.299 132.409   5
   3   2   3 411.217 126.401  36
   3   2   3 343.424 84.6943  22
  -3  -2  -3 476.393 245.830  42
   3   2   3 241.630 106.546   9
  -3  -2  -3 232.766 252.344  40
  -3   2  -3 445.797 119.872   5
  -3   2  -3 746.136 266.815  40
   3  -2   3 225.935 170.411  38
   4   2   3 26124.5 1006.40  14
   4   2   3 23118.4 887.802   9
   4   2   3 23668.1 890.523  31
  -4   2  -3 24371.8 1236.22  30
  -4   2  -3 23743.2 1341.41   3
  -4   2  -3 26608.9 952.392  28
  -4  -2  -3 25796.7 1590.52  12
   4   2   3 26029.7 1250.74  27
  -4  -2  -3 22982.5 1451.73  40
   4   2   3 25570.0 900.360  25
  -4   2  -3 24482.3 1313.80  42
   4  -2   3 24792.3 1082.18  10
   4   2   3 23998.9 873.616  23
   4   2   3 24115.8 859.146  22
  -4   2  -3 26161.9 926.163   5
  -4   2  -3 25404.9 1410.92  40
  -4  -2  -3 23545.7 1423.02  42
  -4   2  -3 23794.0 959.170   1
   4  -2   3 24285.2 1305.85  39
   4   2   3 23129.1 973.749   8
   4  -2   3 26671.7 1539.08  38
   4  -2   3 22855.4 1053.28   8
   4   2   3 24517.6 966.595  36
   4   2   3 25410.1 918.333   2
   5  -2   3 552.550 191.402   8
  -5  -2  -3 292.759 184.265  42
   5   2   3 696.037 196.780  14
   5   2   3 807.261 164.522  31
  -5   2  -3 736.582 264.491  30
  -5   2  -3 831.106 193.368   1
  -5   2  -3 822.818 157.125  28
   5   2   3 927.112 240.732  27
  -5  -2  -3 645.684 277.050  12
  -5   2  -3 844.645 240.943   3
   5  -2   3 616.771 153.116  10
   5   2   3 605.986 126.989   2
  -5  -2  -3 756.332 324.031  40
  -5   2  -3 860.328 303.548  40
   5  -2   3 417.684 204.460  39
   5  -2   3 306.624 228.417  38
  -5   2  -3 760.255 253.195  42
   5   2   3 758.275 210.900   8
   5   2   3 728.957 172.933  36
   6  -2   3 743.716 205.487   8
   6   2   3 555.832 183.589   7
   6   2   3 940.606 219.556  14
  -6   2  -3 878.385 338.009  30
  -6  -2  -3 599.279 321.714  13
  -6  -2  -3 732.634 258.346  12
  -6   2  -3 826.372 216.276   6
  -6  -2  -3 1070.80 239.311   6
   6   2   3 915.247 220.692  10
   6  -2   3 898.591 211.749  10
  -6  -2  -3 1444.64 407.457  42
  -6  -2  -3 625.955 311.870  40
  -6   2  -3 1362.71 295.307  40
   6  -2   3 848.075 279.828  39
   6  -2   3 385.104 331.497  38
   6   2   3 914.915 211.193   8
   6   2   3 494.481 155.769  36
  -6   2  -3 1020.02 234.112  35
   7   2   3-216.351 135.253  18
   7   2   3-60.2810 148.785   7
  -7   2  -3 236.090 235.059  30
  -7  -2  -3 32.0389 200.879  13
  -7  -2  -3-420.766 346.280  12
  -7  -2  -3 497.357 293.348  42
  -7   2  -3 19.0488 128.603   6
  -7  -2  -3 136.960 148.015   6
   7   2   3-110.889 139.534  10
   7  -2   3 16.8835 131.029  10
   7  -2   3 55.4637 184.791   8
  -7  -2  -3-219.585 312.856  40
   7  -2   3 2.19409 286.656  38
   7   2   3 58.3734 138.579   8
   7   2   3-43.2046 99.9457  36
  -7   2  -3-96.3072 151.573  35
   8  -2   3 13453.1 809.016   7
  -8  -2  -3 13068.6 1083.37  42
  -8  -2  -3 11510.7 1102.27  13
  -8   2  -3 13309.4 1100.08  30
  -8   2  -3 12315.4 726.920   6
  -8  -2  -3 12757.0 783.899   6
  -8  -2  -3 13665.6 1316.89  12
   8  -2   3 12549.6 800.122  10
   8   2   3 13268.3 689.069  36
  -8  -2  -3 13208.7 1204.62  40
   8   2   3 13056.1 793.503   8
   8  -2   3 13758.1 1288.10  38
   8  -2   3 13570.6 810.976   8
   8   2   3 13250.3 727.729  18
  -8   2  -3 13530.4 808.805  35
  -9   2  -3 195.389 182.324  34
  -9   2  -3-204.833 144.052  33
   9  -2   3 110.999 158.602   7
  -9   2  -3 62.8714 117.172   6
  -9  -2  -3-97.5462 164.517   6
   9  -2   3 4.96479 132.953  10
   9   2   3-97.4380 111.174  36
   9   2   3 195.676 134.656  18
   9  -2   3 12.9140 145.473   8
  -9   2  -3 66.3698 157.866  35
 -10   2  -3 1823.11 260.293  34
  10  -2   3 1574.22 279.805   7
 -10   2  -3 1775.28 252.089   6
  10   2   3 1685.55 239.507  18
 -10  -2  -3 2039.15 284.835   6
 -10  -2  -3 1775.24 311.162  11
  10  -2   3 1815.67 297.491  10
 -10   2  -3 1644.58 287.185  20
  10  -2   3 1655.79 271.411   8
 -10   2  -3 1580.40 282.945  35
 -11   2  -3 4520.89 368.622  20
  11  -2   3 5128.68 416.797   7
 -11  -2  -3 4434.95 359.217   6
 -11  -2  -3 4985.75 427.670  11
  11  -2   3 3673.30 353.842  10
  11  -2   3 3917.91 344.710   8
  11   2   3 4485.00 320.678  18
 -11   2  -3 4316.28 335.199  34
 -12   3   3 7812.31 398.343  33
  12   3  -3 7878.79 422.321  15
 -12  -3   3 7484.62 380.295  11
 -12   3   3 8706.68 414.008  24
  12   3  -3 7566.91 420.595   4
 -12   3   3 8798.07 421.421  19
 -11   3   3 3313.56 299.360  33
  11   3  -3 3592.43 322.786  15
 -11  -3   3 2782.64 274.873  11
 -11   3   3 3133.92 285.313  24
 -11   3   3 3177.36 290.540  19
  11   3  -3 3429.95 336.499   4
  11   3  -3 2679.31 245.843  17
 -10   3   3 16490.4 800.355  33
  10   3  -3 16935.3 830.583  15
 -10  -3   3 17094.6 798.225  11
 -10   3   3 16611.6 670.613  25
 -10   3   3 17297.0 797.250  24
 -10   3   3 17754.2 799.020  19
  10   3  -3 18122.0 898.954   4
  10   3  -3 18251.7 684.644  18
  10   3  -3 17776.4 771.646  17
  -9   3   3 11707.6 690.986  33
   9   3  -3 12083.5 725.808  15
  -9  -3   3 12268.3 682.142  11
  -9   3   3 11671.1 593.718  25
  -9   3   3 11773.5 678.213  24
  -9   3   3 11210.0 638.476  19
   9   3  -3 11030.6 729.908   4
   9   3  -3 12127.1 599.063  18
   9   3  -3 12229.1 662.850  17
   8   3  -3 1286.31 234.243  17
  -8   3   3 902.825 220.339  33
   8   3  -3 1644.27 303.061   4
   8   3  -3 800.134 209.678  15
  -8  -3   3 158.485 295.396  13
  -8  -3   3 943.170 225.144  11
  -8   3   3 931.235 183.731  25
  -8   3   3 995.785 223.333  24
  -8   3   3 1056.60 212.255  19
   8  -3  -3-297.428 366.737  38
   8   3  -3 1230.75 216.654  18
   8   3  -3 1083.78 179.193  36
   7   3  -3-65.0730 123.467  17
  -7   3   3 155.929 148.847  33
   7   3  -3 4.79636 164.367   4
   7   3  -3 85.1321 171.619  15
  -7  -3   3 487.775 343.200  13
  -7   3   3 284.313 114.253  26
  -7   3   3 138.498 115.922  25
  -7   3   3 294.708 176.155  24
  -7  -3   3 419.318 283.535  39
  -7   3   3 98.9300 163.955  19
   7  -3  -3 184.819 302.329  38
   7   3  -3 3.17547 107.124  18
   7   3  -3-17.6870 105.612  36
   6   3  -3-71.7968 133.141  17
   6   3  -3 37.2310 195.655   4
   6   3  -3-31.2101 147.609  15
  -6  -3   3 164.367 240.623  13
  -6   3   3 103.966 100.422  22
   6   3  -3-12.4892 92.2862  28
  -6   3   3-163.085 177.738  27
  -6   3   3-87.8410 116.117  26
  -6   3   3-49.0470 116.977  25
   6   3  -3-71.2958 125.454   1
  -6   3   3 83.6213 118.228  24
   6   3  -3-936.845 335.607   3
  -6   3   3-120.488 89.0932  23
   6   3  -3 179.829 112.505  22
   6   3  -3-17.4216 117.937   5
  -6   3   3 107.239 116.953  21
  -6  -3   3-91.9528 261.186  39
  -6   3   3 8.86939 130.838  19
   6  -3  -3-70.3936 237.656  38
  -6   3   3-105.817 140.930  33
   6   3  -3 8.51279 104.853  18
   6   3  -3 66.6934 124.406  36
  -5   3   3 19980.3 935.397  33
   5   3  -3 18015.1 958.695  15
  -5   3   3 19745.4 891.536  21
  -5   3   3 22155.7 913.523   2
   5   3  -3 20105.6 1050.91   4
  -5   3   3 20794.9 870.417   9
  -5   3   3 21489.6 899.907  31
  -5  -3   3 16867.2 1357.54  13
   5   3  -3 21845.6 914.497  28
   5   3  -3 19128.5 1357.67   3
  -5   3   3 23494.6 1313.28  27
  -5   3   3 20778.2 862.975  26
  -5   3   3 20651.1 899.722  25
  -5   3   3 18927.3 841.735   5
  -5   3   3 17675.3 887.110  24
  -5   3   3 21090.9 838.653  23
   5   3  -3 19957.0 845.396   5
  -5   3   3 21152.4 852.279  22
   5   3  -3 21700.2 856.902  22
  -5  -3   3 18883.6 1318.77  39
   5  -3  -3 20876.8 1422.92  38
   5   3  -3 19800.3 903.583  18
   5   3  -3 21094.6 917.862  36
   5   3  -3 20200.2 952.911   1
   5   3  -3 19357.1 935.403  17
   4   3  -3 2647.99 314.847  17
   4   3  -3 2712.04 379.700   4
  -4   3   3 2911.03 328.837  33
  -4   3   3 3668.39 359.150   2
   4   3  -3 3377.92 373.998  15
   4  -3  -3 2785.49 504.941  38
   4  -3  -3 3421.77 522.211  41
  -4   3   3 2931.90 323.580  31
  -4  -3   3 2730.94 524.917  13
   4   3  -3 2658.41 308.814  28
  -4   3   3 2466.59 424.283  27
   4   3  -3 3096.16 359.317   1
  -4   3   3 2657.52 281.798  26
  -4   3   3 3247.07 329.269  25
   4   3  -3 2057.33 476.695   3
  -4   3   3 2602.45 304.309  24
  -4   3   3 2805.79 286.685  23
   4   3  -3 2893.55 281.148  22
   4   3  -3 3434.11 333.319   5
  -4   3   3 3075.46 297.946  22
  -4   3   3 2464.35 283.235   5
  -4   3   3 2790.67 306.018  21
  -4   3   3 2779.71 303.983   9
  -4  -3   3 2984.62 507.208  39
   4   3  -3 3161.37 333.389  18
   4   3  -3 3099.64 332.743  36
  -3   3   3 27793.5 1068.91  33
  -3   3   3 28231.6 1091.56   2
   3   3  -3 26893.9 1135.05  15
  -3   3   3 26307.8 1065.67  31
  -3  -3   3 26235.8 1559.24  39
  -3   3   3 27572.5 1028.69  21
  -3  -3   3 25193.1 1560.44  13
   3   3  -3 25659.4 1634.81   3
   3   3  -3 27260.2 1104.17  28
   3  -3  -3 25152.4 1426.63  41
  -3   3   3 29282.2 1525.24  27
  -3   3   3 27708.1 1034.19  26
  -3   3   3 26136.5 1039.24  25
  -3   3   3 26327.0 1035.91   5
  -3   3   3 26005.2 1070.71  24
  -3   3   3 27300.1 1022.64  23
   3   3  -3 27416.2 1048.91   5
  -3   3   3 26514.9 1012.99  22
   3   3  -3 28233.7 1045.50  22
  -3   3   3 27216.4 1057.61   9
   3   3  -3 25525.1 1134.36   1
   3   3  -3 28178.6 1231.17   4
   3   3  -3 27471.8 1084.61  18
   3   3  -3 26833.6 1072.57  36
   3   3  -3 25803.7 1078.35  17
   2   3  -3 3039.58 326.103  17
   2   3  -3 3428.73 400.724   4
  -2   3   3 3386.38 323.627  33
  -2   3   3 3713.72 377.533   1
   2   3  -3 3312.91 361.031  16
   2   3  -3 3403.33 363.914  15
  -2   3   3 3755.28 365.621  31
  -2  -3   3 3213.71 526.999  13
   2   3  -3 3246.08 370.606   1
   2   3  -3 3142.48 343.183  28
  -2   3   3 3652.45 514.936  27
   2  -3  -3 3892.59 531.933  12
  -2   3   3 3373.31 322.371  26
  -2   3   3 3224.74 329.987  25
  -2   3   3 3059.55 314.677   5
   2   3  -3 2758.99 537.280   3
  -2   3   3 3171.09 320.925  24
  -2   3   3 3680.43 325.277  23
   2   3  -3 3612.43 338.475   5
  -2   3   3 3571.38 319.229  22
  -2   3   3 3032.46 339.734   2
   2  -3  -3 3184.28 479.066  42
  -2  -3   3 3880.35 578.185  39
  -2   3   3 3245.42 302.448  21
   2   3  -3 2909.96 297.380  21
  -2   3   3 2773.33 300.955   9
   2   3  -3 3632.87 342.956  18
  -2   3   3 4171.86 611.087   3
   2   3  -3 3040.75 317.214  36
  -1   3   3 7651.94 515.093   2
   1   3  -3 8437.72 573.646  16
  -1   3   3 7408.49 516.656  31
  -1  -3   3 7472.89 728.465  13
   1   3  -3 8008.36 543.225  28
  -1   3   3 7702.65 769.811  27
   1  -3  -3 7555.53 751.691  12
  -1   3   3 7691.72 487.322  26
  -1   3   3 7561.77 492.396  25
  -1   3   3 8113.39 848.169   3
  -1   3   3 7993.97 505.639   5
   1   3  -3 6651.79 808.448   3
  -1   3   3 8782.09 533.006  24
  -1   3   3 8287.24 502.902  23
   1  -3  -3 7537.05 735.371  42
  -1  -3   3 8362.89 596.182  10
   1   3  -3 8978.07 535.238   5
  -1   3   3 7466.75 475.006  22
  -1   3   3 7362.40 496.818   9
  -1  -3   3 8085.82 829.347  39
  -1   3   3 7737.84 461.125  21
   1   3  -3 7962.59 490.681  21
   1   3  -3 6952.04 544.916   1
   1   3  -3 7636.86 595.122   4
   1   3  -3 8235.92 508.891  18
   1   3  -3 8233.89 519.987  36
  -1   3   3 8668.44 506.345  36
  -1   3   3 9731.01 597.117   1
   0   3  -3 10157.0 641.879  16
   0   3   3 11462.5 640.819   2
   0   3   3 12134.3 653.969  31
   0  -3   3 11392.2 835.918  13
   0   3  -3 11776.2 1088.87   3
   0   3  -3 11309.7 650.961  28
   0  -3  -3 11075.6 922.909  12
   0   3   3 10737.3 892.861  27
   0   3   3 10820.7 585.704  26
   0   3   3 11370.6 612.505  25
   0   3   3 11180.7 993.726   3
   0   3  -3 10952.9 562.383  21
   0   3   3 10640.2 594.601   5
   0   3   3 11278.4 623.250  24
   0   3   3 11356.3 599.958  23
   0  -3   3 11238.8 693.469  10
   0   3  -3 11659.4 626.007   5
   0   3   3 11530.0 596.052  22
   0   3   3 11120.9 624.611   9
   0   3   3 11421.5 558.911  21
   0  -3  -3 12119.2 889.582  40
   0   3  -3 11763.3 715.263   1
   0   3  -3 10528.7 702.278   4
   0  -3   3 10925.1 965.966  39
   0   3  -3 10531.8 591.500  18
   0   3  -3 12139.9 629.627  36
   0   3   3 10900.9 564.441  18
   0   3   3 11575.7 606.978  36
   0   3   3 11934.9 677.704   1
  -1   3  -3 27430.6 1146.65  16
   1   3   3 30389.6 1165.12   1
   1   3   3 30201.9 1131.58   2
   1   3   3 28333.0 1106.93  31
  -1   3  -3 26625.2 1668.16   3
  -1   3  -3 30124.6 1158.68  28
  -1  -3  -3 30736.6 1603.02  12
   1   3   3 29680.0 1547.43  27
   1   3   3 28186.1 1046.71  26
   1   3   3 27070.0 1062.80  25
   1   3   3 28715.6 1644.90   3
   1   3   3 28361.1 1076.07   5
   1   3   3 28611.0 1095.15  24
   1  -3   3 28150.8 1192.17  10
   1   3   3 27201.4 1043.53  23
  -1   3  -3 28881.4 1100.26   5
   1   3   3 27791.1 1042.69  22
  -1  -3  -3 26794.2 1505.18  40
  -1   3  -3 27435.2 1055.13  22
   1   3   3 26374.7 1075.24   9
  -1   3  -3 29586.2 1075.05  18
   1  -3   3 29259.9 1643.35  39
  -1   3  -3 29285.6 1210.17   1
   1   3   3 28472.2 1054.05  18
   1   3   3 28863.1 1096.47  36
   2   3   3 5663.16 442.868   2
   2   3   3 5383.85 432.478  31
  -2   3  -3 6280.58 463.568  28
   2   3   3 4854.55 404.716   9
   2   3   3 5389.45 636.179  27
   2   3   3 5469.30 397.002  26
   2   3   3 5118.20 396.773  25
   2   3   3 6117.55 431.040   5
   2   3   3 5101.78 407.751  24
  -2   3  -3 4727.01 677.601   3
   2  -3   3 5821.14 483.959  10
   2   3   3 5416.02 401.451  23
  -2   3  -3 6328.94 440.719   5
   2   3   3 5390.55 396.332  22
  -2   3  -3 6044.28 481.524  16
  -2   3  -3 5761.58 412.663  22
  -2  -3  -3 5457.52 681.607  40
   2  -3   3 4367.96 614.512  39
  -2   3  -3 6073.61 492.757   1
   2   3   3 4902.03 404.485  18
   2   3   3 5072.30 419.703  36
   3   3   3 14850.5 712.691   2
   3   3   3 14346.3 705.411  31
  -3   3  -3 13134.0 1107.45   3
  -3   3  -3 12725.6 696.171  28
   3   3   3 14189.1 1023.22  27
   3   3   3 13080.2 638.129  26
   3   3   3 12950.6 660.136  25
   3   3   3 13668.2 668.313   5
   3   3   3 12685.0 686.042  24
   3  -3   3 12436.6 745.690  10
   3   3   3 13479.2 652.058  23
  -3   3  -3 13278.4 673.997   5
   3   3   3 12732.0 627.645  22
  -3   3  -3 12693.6 639.015  22
   3   3   3 12283.1 656.994   9
  -3  -3  -3 12145.6 1069.14  40
   3  -3   3 13291.1 1093.58  39
   3  -3   3 15661.0 1114.49  38
  -3   3  -3 13657.1 755.506   1
   3   3   3 13255.0 697.874  18
   3   3   3 12713.2 702.802  36
   4   3   3 50368.5 1642.26   2
  -4  -3  -3 55477.7 2708.24  13
  -4   3  -3 50991.6 1677.24  28
  -4   3  -3 52668.5 2363.09   3
   4   3   3 54049.8 2209.23  27
   4   3   3 55061.9 1607.44  26
   4   3   3 54736.6 1649.40  25
   4   3   3 53493.5 1622.42   5
   4  -3   3 52978.3 1822.94  10
   4   3   3 49236.1 1583.84  23
  -4   3  -3 54597.2 1652.09   5
   4   3   3 52144.7 1591.02  22
  -4   3  -3 53999.1 1613.31  22
  -4  -3  -3 53157.9 2498.45  42
  -4  -3  -3 54344.3 2525.83  40
   4  -3   3 51596.5 2349.88  39
   4  -3   3 54888.0 2422.40  38
   4  -3   3 51267.5 1835.50   8
   4   3   3 54476.5 1745.91  18
   4   3   3 50037.2 1716.04  36
  -4   3  -3 49225.7 1708.03   1
   5  -3   3 572.337 207.994   8
  -5  -3  -3 430.681 322.608  42
  -5   3  -3 570.065 152.976  28
  -5   3  -3 626.560 180.168   1
   5   3   3 724.646 146.929  23
   5  -3   3 569.745 199.911  10
  -5   3  -3 753.745 145.098   5
  -5  -3  -3 1091.91 429.048  40
   5   3   3 880.719 160.904  22
   5  -3   3 225.498 194.090  39
   5   3   3 485.047 148.870  36
   5   3   3 682.329 175.336  18
   6  -3   3 3281.63 384.967   8
  -6  -3  -3 3405.75 702.406  13
   6  -3   3 3849.82 407.334  10
  -6  -3  -3 3793.85 640.679  42
  -6  -3  -3 3658.12 693.609  40
   6  -3   3 2937.91 478.072  39
   6  -3   3 3274.43 619.946  38
   6   3   3 3673.41 387.402  18
   6   3   3 3600.23 376.838  36
  -6   3  -3 3583.73 402.003  35
  -7  -3  -3 3272.17 649.744  13
  -7  -3  -3 2265.68 499.218  42
   7  -3   3 2526.10 339.473  10
  -7  -3  -3 1543.58 433.168  40
   7   3   3 2398.76 305.982  36
   7   3   3 2864.13 334.798  18
  -7   3  -3 2455.46 337.701  35
   7  -3   3 2341.64 323.661   8
  -8   3  -3 14893.7 747.633  33
   8  -3   3 15868.5 842.803   7
  -8  -3  -3 16446.0 847.805  11
   8  -3   3 14596.9 765.772  10
   8   3   3 15428.9 740.502  36
  -8   3  -3 15128.6 808.484  34
   8  -3   3 15864.4 797.212   8
   8   3   3 16129.1 789.507  18
  -8   3  -3 16721.4 869.189  35
  -9   3  -3 133.743 136.792  34
  -9   3  -3 128.781 107.685  33
   9  -3   3-107.781 139.800   7
  -9  -3  -3-37.1908 123.452  11
   9  -3   3 175.765 114.195  10
  -9   3  -3 16.6678 135.331  20
   9   3   3 9.40493 96.9254  36
   9   3   3-89.3967 109.805  18
   9  -3   3-198.575 142.688   8
  -9   3  -3 47.8713 129.574  35
 -10   3  -3 1406.40 199.666  34
 -10   3  -3 1827.00 191.199  33
  10  -3   3 1393.32 212.623   7
 -10  -3  -3 1302.98 210.237  11
 -10   3  -3 1976.24 237.342  20
  10   3   3 1232.82 138.370  36
  10   3   3 1683.20 196.076  18
   9   4  -3 9484.10 515.367  15
  -9   4   3 8770.72 488.947  33
  -9   4   3 9042.79 464.108  24
   9   4  -3 8044.39 464.752  21
   9   4  -3 8413.90 417.299  18
   9   4  -3 8641.62 501.404  16
  -8   4   3 11968.3 628.109  33
   8   4  -3 12005.1 646.770  15
  -8   4   3 12763.4 537.922  25
  -8   4   3 12924.9 618.133  24
   8   4  -3 11283.9 639.745  16
   8   4  -3 11130.2 600.971  21
   8   4  -3 11914.2 620.979   4
   8   4  -3 12406.3 582.404  18
   8   4  -3 11575.2 609.362  17
   7   4  -3 845.466 174.175  17
   7   4  -3 954.734 214.772   4
  -7   4   3 1179.61 214.080  33
   7   4  -3 1157.78 223.804  16
   7   4  -3 1064.98 207.904  15
  -7   4   3 1021.21 168.283  25
  -7   4   3 1142.52 193.722  24
   7   4  -3 1234.42 208.529  21
   7   4  -3 995.404 188.749  18
   7   4  -3 1258.22 198.191  36
  -6   4   3 42287.8 1463.42  33
   6   4  -3 41301.2 1528.50  16
   6   4  -3 46300.1 1568.29  15
   6   4  -3 39914.8 1401.73   1
   6   4  -3 42221.0 1366.70  28
  -6   4   3 42900.4 1338.71  26
  -6   4   3 45131.0 1411.07  25
  -6   4   3 43754.7 1464.77  24
  -6   4   3 45242.6 1319.28  23
   6   4  -3 43376.0 1320.50   5
  -6   4   3 42207.2 1312.90  22
   6   4  -3 42017.5 1301.30  22
  -6   4   3 42437.9 1444.63  21
   6   4  -3 42070.5 1462.07  21
   6   4  -3 40527.0 1509.68   4
   6   4  -3 41973.2 1439.59  18
   6   4  -3 41810.8 1420.77  36
   6   4  -3 40112.9 1468.82  17
   5   4  -3 3459.34 364.658  17
  -5   4   3 3151.73 326.449  21
   5   4  -3 2974.32 365.440  16
  -5   4   3 3102.48 331.349  33
   5   4  -3 3042.22 349.587  15
   5   4  -3 3101.76 320.375  28
  -5   4   3 3635.24 318.337  26
  -5   4   3 3402.38 330.508  25
  -5   4   3 3049.09 305.006   5
   5   4  -3 2811.36 322.745  21
  -5   4   3 3273.19 339.422  24
  -5   4   3 3225.22 289.733  23
   5   4  -3 3162.22 297.972   5
  -5   4   3 3135.06 299.042  22
   5   4  -3 3174.84 296.625  22
   5   4  -3 3287.59 352.189   1
   5   4  -3 2932.31 322.265  18
   5   4  -3 2727.71 313.338  36
   5   4  -3 3319.62 370.550   4
  -4   4   3 74.2584 121.752  33
  -4   4   3-35.7707 105.318  22
  -4  -4   3 843.650 394.985  13
   4   4  -3-0.67543 127.881  28
  -4   4   3-40.6862 115.226  26
  -4   4   3-138.046 158.207  25
  -4   4   3 53.8122 127.593  24
   4   4  -3-208.378 332.939   3
  -4   4   3 144.421 121.903  23
   4   4  -3 165.398 157.186   1
  -4   4   3 109.770 125.972   5
   4   4  -3 242.273 153.637  16
   4   4  -3 179.109 149.825  22
   4   4  -3 190.947 135.573   5
  -4   4   3 50.0443 92.4702  21
   4   4  -3 172.206 121.431  21
  -4  -4   3 243.655 361.755  39
   4   4  -3-197.561 159.690  18
   4   4  -3 35.3170 140.773  36
   4   4  -3-24.1238 183.273   4
  -3   4   3 1891.36 255.621  33
  -3  -4   3 2045.19 525.949  13
   3   4  -3 1886.74 274.746  28
  -3   4   3 1763.22 412.926  27
  -3   4   3 1973.18 257.711  26
  -3   4   3 1962.00 276.631  25
  -3   4   3 2081.09 284.081  24
   3   4  -3 1775.23 486.198   3
   3   4  -3 1731.87 250.694  22
  -3   4   3 1740.28 234.504  23
  -3   4   3 2089.92 269.486   5
  -3  -4   3 1989.38 297.649  10
  -3   4   3 2193.40 270.921  22
   3   4  -3 1972.73 296.232   1
   3   4  -3 2234.11 284.518   5
  -3   4   3 1724.51 239.699  21
   3   4  -3 2048.64 269.885  21
  -3  -4   3 1898.29 422.279  39
   3   4  -3 1929.21 279.597  18
   3   4  -3 1682.79 261.132  36
   3   4  -3 2123.64 305.347  16
   3   4  -3 2421.61 342.891   4
   2   4  -3 5391.80 473.507  16
   2   4  -3 4944.89 488.130   1
   2   4  -3 5464.88 473.161  28
  -2   4   3 5697.83 668.468  27
  -2   4   3 5265.52 422.595  26
  -2   4   3 5769.53 449.873  25
  -2   4   3 4936.39 422.034   5
  -2   4   3 5502.82 445.943  24
   2   4  -3 5785.20 815.348   3
  -2   4   3 5586.72 429.808  23
  -2  -4   3 5478.68 486.334  10
   2   4  -3 5475.37 442.209   5
  -2   4   3 5150.48 419.016  22
   2   4  -3 5329.76 429.101  22
  -2   4   3 4737.47 389.493  21
   2   4  -3 5521.54 421.001  21
  -2  -4   3 6037.31 792.916  39
   2   4  -3 5456.26 444.890  18
   2   4  -3 5943.67 462.840  36
   1   4  -3 8974.68 620.014  16
   1   4  -3 8862.67 648.816   1
   1   4  -3 8207.33 595.344  28
  -1   4   3 10207.9 945.886  27
  -1   4   3 8388.16 541.002  26
  -1   4   3 9302.38 581.253  25
   1   4  -3 9197.75 544.339  21
  -1   4   3 8334.72 564.608   5
  -1   4   3 9433.23 595.141  24
   1   4  -3 8212.22 947.886   3
  -1   4   3 9304.70 530.935  36
  -1   4   3 9009.42 564.330  23
  -1  -4   3 9412.12 628.472  10
   1   4  -3 9021.39 580.103   5
  -1   4   3 9472.13 573.447  22
   1   4  -3 8540.03 550.723  22
  -1   4   3 8879.52 527.612  21
  -1  -4   3 8693.78 943.778  39
   1   4  -3 9053.83 569.255  18
   1   4  -3 8160.44 545.020  36
   0   4  -3 70939.8 2154.93  16
   0  -4  -3 57590.0 2749.80  13
   0   4  -3 65299.3 2129.69  28
   0   4  -3 69156.5 3066.72   3
   0   4   3 71369.7 2832.15  27
   0   4   3 67917.2 2031.87  26
   0   4   3 68901.3 2053.92  25
   0  -4  -3 65829.1 2780.44  42
   0   4   3 66348.6 2052.42   5
   0   4   3 69889.5 2086.07  24
   0   4   3 63699.8 2003.94  23
   0  -4   3 68875.2 2136.97  10
   0   4  -3 66037.8 2054.65   5
   0   4  -3 67797.6 1971.80  21
   0   4   3 67552.9 2021.98  22
   0   4  -3 66237.6 2027.81  22
   0   4   3 66525.4 1950.36  21
   0   4  -3 67174.8 2215.41   1
   0  -4   3 66005.9 2890.34  39
   0   4  -3 67578.1 2009.08  18
   0   4   3 66999.9 2006.05  36
  -1   4  -3 4103.45 398.178  16
  -1  -4  -3 2346.09 531.505  13
  -1   4  -3 3927.85 399.774  28
   1   4   3 4251.69 600.219  27
   1   4   3 4049.93 356.625  26
   1   4   3 4260.46 386.068  25
   1   4   3 3782.59 365.896   5
   1   4   3 3629.21 362.260  24
  -1   4  -3 3578.03 611.762   3
   1   4   3 3736.45 362.043  23
   1   4   3 3687.79 316.445  21
  -1   4  -3 4448.98 391.040   5
  -1   4  -3 3522.99 406.205   1
   1   4   3 3951.04 363.067  22
  -1  -4  -3 2978.14 568.736  42
   1  -4   3 3555.70 359.598  10
  -1   4  -3 3775.59 355.448  22
  -1   4  -3 3877.24 322.496  21
   1  -4   3 4220.91 650.159  39
   1   4   3 3772.98 331.783  18
   1   4   3 3867.99 368.591  36
  -2   4  -3 13232.6 773.980   1
  -2  -4  -3 12540.3 1247.84  13
  -2   4  -3 13192.8 742.365  28
  -2   4  -3 11783.8 1119.85   3
   2   4   3 13290.4 680.232  26
   2   4   3 13229.0 673.292  18
   2   4   3 14299.9 719.561  25
   2   4   3 13588.2 705.543   5
   2   4   3 13156.9 715.129  24
   2  -4   3 14187.6 735.764  10
   2   4   3 12876.9 667.179  23
  -2   4  -3 13383.7 705.202   5
   2   4   3 13691.8 682.416  22
  -2   4  -3 13321.8 680.767  22
   2   4   3 13772.0 730.444  36
  -2  -4  -3 13604.5 1184.68  42
  -2   4  -3 13736.4 630.599  21
   2   4   3 13621.0 625.951  21
   2  -4   3 13579.2 1176.41  39
  -3   4  -3 7249.21 541.505   1
  -3  -4  -3 5660.56 862.592  13
  -3   4  -3 7584.71 521.171  28
   3   4   3 7140.30 459.069  26
   3   4   3 6379.37 468.858  18
   3   4   3 6782.86 481.342  25
   3   4   3 7390.48 484.208   5
   3   4   3 6735.96 453.844  23
  -3   4  -3 4900.95 734.044   3
  -3   4  -3 6701.72 470.144   5
   3   4   3 7468.87 471.259  22
  -3   4  -3 7537.15 474.582  22
  -3  -4  -3 7027.10 876.150  42
   3  -4   3 7194.31 853.071  39
   3  -4   3 7757.18 559.029   8
   3   4   3 7225.47 514.592  36
  -4   4  -3 49119.2 1606.24   1
  -4   4  -3 47012.4 1550.12  28
   4   4   3 47120.3 1464.41  26
   4   4   3 48411.3 1497.72   5
   4   4   3 47066.0 1460.97  23
  -4   4  -3 50123.0 1519.63   5
   4   4   3 46176.8 1456.50  22
  -4   4  -3 49580.7 1476.96  22
   4  -4   3 47297.6 1629.69   8
   4   4   3 47294.2 1575.03  18
   4   4   3 48581.6 1614.86  36
  -4   4  -3 46664.7 1633.06  35
   5  -4   3 1780.44 249.301   8
  -5   4  -3 2117.81 224.793   5
  -5   4  -3 2411.39 255.339  28
   5   4   3 2184.22 274.691  18
   5   4   3 2421.86 233.364  23
   5   4   3 1968.92 217.067  22
   5   4   3 2060.31 263.124  36
  -5   4  -3 2346.91 215.474  22
  -5   4  -3 2045.65 276.082  35
   6   4   3 1128.75 192.582  36
  -6   4  -3 946.796 205.125  35
   6   4   3 1045.60 198.924  18
  -7   4  -3 11730.1 616.388  34
  -7   4  -3 11444.0 591.340  33
   7   4   3 12214.1 598.281  18
   7   4   3 11572.8 578.826  36
  -7   4  -3 11793.7 624.518  35
  -8   4  -3 6265.03 387.132  33
  -8   4  -3 7465.61 440.094  35
   8  -4   3 6187.39 406.771   7
   8   4   3 7062.00 402.452  18
  -8   4  -3 6909.92 381.989  20
   8   4   3 6836.72 378.147  36
  -8   4  -3 6784.74 416.273  34
   5   5  -3 18759.8 702.027  16
  -5   5   3 19319.7 658.688  25
  -5   5   3 18818.0 685.641  24
   5   5  -3 19185.9 630.144  22
   5   5  -3 16960.7 670.810  21
   5   5  -3 18219.0 695.586  18
   4   5  -3 29.0697 70.6128  16
   4   5  -3 223.300 91.0910  28
  -4   5   3 123.686 100.464  26
   4   5  -3 192.340 89.5777   5
  -4   5   3 159.603 93.2514  25
  -4   5   3 136.913 75.6625  24
   4   5  -3 213.610 101.732   1
  -4   5   3 223.359 99.2896  22
  -4   5   3 176.548 86.8453  21
   4   5  -3 47.6131 73.6092  21
   4   5  -3 208.922 71.2496  22
   4   5  -3 186.259 93.7096  18
   3   5  -3 10160.7 539.947  28
   3   5  -3 10580.5 576.049   1
  -3   5   3 11240.2 518.746  26
   3   5  -3 9731.86 492.092  21
  -3   5   3 10960.4 517.791  25
  -3   5   3 11376.6 532.801  24
   3   5  -3 10379.2 509.508   5
  -3   5   3 11077.7 509.167  23
  -3   5   3 10284.0 502.083  22
   3   5  -3 11370.7 517.362  22
  -3   5   3 10698.3 500.500  21
   3   5  -3 10865.9 531.748  16
   2   5  -3 1356.72 211.910   1
   2   5  -3 1351.37 200.036  28
  -2   5   3 1475.84 191.667  26
  -2   5   3 1596.52 203.089  25
  -2   5   3 1302.41 183.956  24
  -2   5   3 1201.47 183.080  23
  -2   5   3 1404.25 195.609   5
   2   5  -3 1309.30 167.585  21
   2   5  -3 1381.80 187.900  22
   2   5  -3 1164.50 172.990   5
  -2   5   3 1131.24 164.385  22
  -2   5   3 1256.23 163.904  21
   1   5  -3 21792.9 900.343  28
   1   5  -3 22244.4 941.030   1
  -1   5   3 23984.9 865.985  26
  -1   5   3 23604.7 870.161  25
  -1   5   3 22224.9 864.818   5
  -1   5   3 24505.6 880.715  24
  -1   5   3 24150.6 865.442  23
   1   5  -3 23132.5 873.783   5
  -1   5   3 21143.4 833.862  22
   1   5  -3 24154.0 865.996  22
  -1   5   3 22219.0 797.592  21
   1   5  -3 21979.3 800.461  21
   0  -5   3 9049.73 492.928   8
   0   5  -3 9088.09 531.233  28
   0   5  -3 10472.3 589.624   1
   0   5   3 10043.4 503.688  26
   0   5   3 10275.3 520.681  25
   0   5   3 9575.22 514.436   5
   0   5   3 9513.65 492.238  23
   0   5  -3 9538.11 510.494   5
   0   5   3 9873.04 505.108  22
   0   5  -3 8961.78 481.778  22
   0   5   3 9721.88 449.200  21
   0   5  -3 9187.76 442.813  21
  -1   5  -3-27.2029 88.2591  28
  -1   5  -3-77.2316 107.319   1
   1   5   3 134.248 116.521  26
  -1   5  -3 8.09258 77.3603  21
   1   5   3-40.6772 106.957  23
   1   5   3-36.5846 97.7405   5
   1   5   3 21.6620 79.7237  22
  -1   5  -3 18.8287 82.2638  22
  -1   5  -3-7.56565 83.0751   5
   1   5   3 15.2185 79.4389  36
  -2   5  -3 2632.91 228.316  33
  -2   5  -3 2812.61 267.851  28
  -2   5  -3 2212.05 251.133   1
  -2   5  -3 2545.42 238.937   5
   2   5   3 2379.21 229.508  23
   2   5   3 2376.96 222.003  22
  -2   5  -3 2456.72 224.267  22
   2   5   3 2658.19 235.745  36
  -3   5  -3 735.613 136.820  33
  -3   5  -3 637.292 116.211  28
   3   5   3 356.601 92.7581  22
  -3   5  -3 389.798 87.0967  22
  -3   5  -3 420.172 107.189   5
  -3   5  -3 610.462 148.300   1
   3   5   3 525.514 116.568  36
  -4   5  -3-63.6379 78.6324  33
  -4   5  -3 59.3653 58.1175   5
   4   5   3-97.2655 77.4716  36
  13   0  -4 156.287 145.541   4
 -13   0   4 55.2289 121.412  11
 -13   0   4 74.9708 81.3187  25
 -13   0   4 1.28402 93.4379  24
  12   0  -4 9724.97 660.248   4
 -12   0   4 9337.38 620.828  11
 -12   0   4 9513.61 526.530  25
 -12   0   4 8761.62 534.761  24
 -11   0   4 25958.3 1186.86  11
  11   0  -4 25419.4 1221.41   4
 -10   0   4 7918.16 507.337  33
 -10   0   4 8912.90 679.109  11
  10   0  -4 8511.59 954.335  41
  10   0  -4 8526.85 965.594  38
  10   0  -4 7144.60 653.637   4
  -9   0   4 4589.21 489.377  11
   9   0  -4 4099.75 672.482  41
   9   0  -4 4531.33 682.409  38
   9   0  -4 5195.53 536.579   4
  -8   0   4 3371.93 350.798  33
   8   0  -4 2810.80 415.629   4
   8   0  -4 3042.86 565.728  41
  -8   0   4 4058.81 462.836  11
  -7   0   4 25039.0 1465.36  13
  -7   0   4 25321.4 1046.48  33
  -7   0   4 25534.6 1153.83  11
   7   0  -4 26590.4 1609.03  41
   7   0  -4 24141.7 1155.15   4
  -6   0   4 26706.1 1077.37  33
  -6   0   4 29968.9 1336.92  32
  -6   0   4 28075.2 973.979  31
  -6   0   4 27945.5 1239.44  27
   6   0  -4 27264.3 1191.81   4
  -6   0   4 28198.3 1187.72  11
   6   0  -4 27356.6 1575.82  41
  -6   0   4 26855.6 975.043   2
  -6   0   4 29429.7 1558.88  13
  -5   0   4 279809. 6561.97  33
  -5   0   4 270986. 6957.39  32
  -5   0   4 268496. 6413.96  31
  -5   0   4 287157. 7376.74  13
  -5   0   4 283405. 6713.08  11
   5   0  -4 278740. 6850.61  42
   5   0  -4 274442. 7389.86  41
  -5   0   4 269716. 6439.25   2
  -5   0   4 277531. 6409.24   9
   5   0  -4 272176. 6654.98   4
  -4   0   4 87858.9 2406.57  33
  -4   0   4 89289.9 2794.70  32
  -4   0   4 87197.5 2318.03  31
  -4   0   4 87855.2 2514.37  11
   4   0  -4 89247.4 2739.50  42
   4   0  -4 91346.6 3049.05  41
  -4   0   4 86052.6 2348.48   2
  -4   0   4 83822.0 2898.26  39
  -3   0   4 15114.5 684.793  33
  -3   0   4 17472.5 960.705  32
  -3   0   4 14825.8 640.499  31
   3   0  -4 14687.8 907.205  42
  -3   0   4 16162.9 760.576  11
  -3   0   4 14514.6 658.257   2
   3   0  -4 15659.5 1003.71  41
   3   0  -4 15468.5 887.777  40
  -3   0   4 15355.9 946.689  39
  -2   0   4 77162.5 2508.79  32
  -2   0   4 75336.0 2058.15  31
   2   0  -4 77994.0 2565.46  42
  -2   0   4 74001.0 2094.23   2
   2   0  -4 80395.8 2633.62  41
   2   0  -4 80715.3 2552.00  40
  -2   0   4 79730.4 2517.63  39
  -1   0   4 28845.9 1304.19  32
  -1   0   4 29729.2 986.135  31
   1   0  -4 29976.1 1369.75  40
   1   0  -4 29474.1 1371.31  42
  -1   0   4 27122.2 991.593   2
   1   0  -4 28711.6 1356.80  41
  -1   0   4 29532.6 1253.20  39
   0   0   4 3314.57 445.065  32
   0   0   4 3105.83 300.129  31
   0   0  -4 2713.63 437.241  41
   0   0   4 2362.40 279.198   2
   0   0  -4 2902.74 460.798  40
   0   0  -4 2827.35 462.870  42
   0   0   4 2435.40 340.762  39
   1   0   4-15.6352 151.267  32
   1   0   4 56.8526 90.0776  31
   1   0   4 416.410 136.983   2
  -1   0  -4 61.8191 278.442  12
  -1   0  -4 369.975 193.639  40
   1   0   4 3.77033 97.5671  39
  -1   0  -4 79.1238 178.754  42
   2   0   4 37310.3 1516.79  32
   2   0   4 37391.1 1156.76  31
  -2   0  -4 34966.3 1827.40  12
   2   0   4 34898.7 1172.06   2
  -2   0  -4 33894.7 1665.42  40
  -2   0  -4 33029.9 1613.92  42
   3   0   4 48398.0 1799.81  32
   3   0   4 47958.1 1410.25  31
  -3   0  -4 45482.8 2180.09  12
  -3   0  -4 47625.3 2097.00  40
   3   0   4 48072.7 1600.21  10
  -3   0  -4 47872.1 2030.36  42
   3   0   4 44301.1 1390.45   9
   3   0   4 48372.9 1451.32   2
   3   0   4 48421.6 1590.42   8
   4   0   4 22646.0 1115.59  32
   4   0   4 21949.1 805.252  31
  -4   0  -4 21368.6 1479.72  12
   4   0   4 21959.5 994.491  10
  -4   0  -4 21435.0 1374.63  40
  -4   0  -4 23833.4 1370.76  42
   4   0   4 20906.7 824.124   2
   4   0   4 21753.3 982.032   8
   5   0   4 52998.2 1711.55   7
   5   0   4 54351.5 1804.71  14
  -5   0  -4 56025.3 2328.71  42
  -5   0  -4 61147.2 2743.22  12
   5   0   4 56896.6 1958.89  27
   5   0   4 54794.4 1880.17  10
  -5   0  -4 56679.9 2474.30  40
   5   0   4 52519.0 1838.07   8
   6   0   4 20265.1 921.561   7
   6   0   4 19495.5 961.887  14
  -6   0  -4 20816.4 1604.32  12
   6   0   4 20441.1 1026.62  10
  -6   0  -4 20852.4 1330.04  42
  -6   0  -4 17991.6 1355.26  40
   6   0   4 21913.9 1514.35  38
   6   0   4 21178.2 1035.49   8
   7   0   4 9583.00 617.974   7
  -7   0  -4 9326.29 895.725  30
  -7   0  -4 9924.26 1112.93  12
  -7   0  -4 8277.03 673.400   6
   7   0   4 7639.11 634.642  10
  -7   0  -4 8146.94 825.592  42
   7   0   4 9368.74 662.835  14
  -7   0  -4 9487.44 979.640  40
   7   0   4 9653.32 1024.25  38
   7   0   4 8563.53 656.705   8
  -8   0  -4 68557.6 2827.35  30
  -8   0  -4 74311.4 3388.79  12
  -8   0  -4 68853.9 2397.72   6
   8   0   4 71410.5 2355.37  10
   8   0   4 69080.0 2228.32  14
   8   0   4 67653.5 2172.82   7
  -8   0  -4 69246.3 2967.03  40
   8   0   4 71640.4 2334.30   8
   9   0   4 1204.10 247.687  14
   9   0   4 842.312 231.902   7
  -9   0  -4 878.236 237.352   6
   9   0   4 813.897 255.996  10
   9   0   4 634.234 232.221   8
  10   0   4 1160.00 212.255   7
 -10   0  -4 1078.44 268.790   6
 -10   0  -4 1163.72 240.744  11
  10   0   4 842.192 230.155  10
  10   0   4 1105.53 248.345   8
  10   0   4 1452.76 191.968  18
  11   0   4 2551.93 280.144   7
 -11   0  -4 2706.99 326.550   6
 -11   0  -4 2497.81 277.337  11
  11   0   4 2184.88 320.863  10
  11   0   4 1689.16 276.496   8
  13   1  -4 821.971 189.293   4
  13  -1  -4 904.747 175.203   4
 -13  -1   4 924.400 183.938  11
 -13   1   4 801.603 148.497  24
 -13  -1   4 929.847 145.058  24
 -12   1   4 5770.80 363.537  33
 -12   1   4 6330.24 437.558  11
 -12  -1   4 6198.15 499.074  11
 -12   1   4 6007.49 384.737  25
 -12   1   4 5184.30 409.978  24
  12   1  -4 5453.62 512.771   4
  12  -1  -4 5289.46 466.974   4
 -11   1   4 1842.71 248.232  33
  11   1  -4 1892.46 361.513   4
  11  -1  -4 1387.65 280.761   4
 -11   1   4 1555.65 257.708  11
 -11  -1   4 1459.27 271.820  11
 -11   1   4 1914.50 248.232  25
 -11   1   4 1548.91 238.736  24
 -11   1   4 1697.37 271.633  19
 -10   1   4 20318.1 920.600  33
 -10  -1   4 20436.9 1399.51  13
  10   1  -4 19216.8 1302.81  29
 -10   1   4 19480.7 969.983  11
 -10  -1   4 18196.3 1012.95  11
 -10   1   4 19212.5 878.501  25
 -10   1   4 18410.9 908.529  24
  10  -1  -4 19766.2 1425.21  41
  10   1  -4 18044.2 1452.89  41
 -10   1   4 19660.3 972.304  19
  10  -1  -4 19931.5 1549.48  38
  10   1  -4 19840.7 1101.85   4
  10  -1  -4 19943.4 1027.75   4
  -9   1   4-78.8320 136.353  33
   9  -1  -4-178.529 283.113  38
   9   1  -4-126.111 128.996  15
   9   1  -4 281.467 232.857   4
   9  -1  -4 8.82400 162.854   4
  -9  -1   4 117.856 226.110  13
   9   1  -4-341.951 238.569  29
  -9   1   4 105.462 173.280  11
  -9  -1   4-101.747 174.406  11
  -9   1   4 143.906 136.412  25
  -9   1   4-134.827 104.028  24
   9   1  -4 130.509 337.685  41
   9  -1  -4 188.630 268.464  41
  -9   1   4-107.383 164.152  19
   8   1  -4 9646.06 597.923  15
  -8  -1   4 9906.27 976.860  13
   8   1  -4 8754.54 794.407  29
  -8   1   4 10040.1 670.462  11
  -8   1   4 8930.26 512.184  26
  -8  -1   4 9791.28 701.769  11
  -8   1   4 8627.44 572.246  25
  -8   1   4 9987.28 636.744  33
  -8   1   4 9437.16 601.279  24
   8   1  -4 9870.51 909.547  38
   8  -1  -4 9828.99 992.619  41
   8   1  -4 10403.0 1038.73  41
  -8   1   4 9261.46 633.295  19
   8   1  -4 9988.83 750.655   4
   8  -1  -4 9125.77 658.600   4
  -7   1   4 4274.16 406.232  33
  -7  -1   4 3487.13 331.696  33
   7   1  -4 4159.26 382.041  15
   7   1  -4 4365.48 496.561   4
  -7  -1   4 3410.73 579.374  13
   7   1  -4 3867.16 481.534  29
  -7   1   4 4217.44 426.175  11
  -7   1   4 3491.07 309.855  26
  -7  -1   4 4135.41 437.244  11
  -7  -1   4 3815.82 603.183  39
  -7   1   4 3513.91 342.936  24
   7   1  -4 3723.77 601.524  41
  -7   1   4 4133.66 413.631  19
   7  -1  -4 5077.32 725.451  41
  -6  -1   4 6445.39 448.323  33
  -6   1   4 6209.94 483.945  33
   6   1  -4 6474.76 451.280  15
  -6  -1   4 6275.58 577.248  32
  -6   1   4 6065.31 603.927  32
  -6  -1   4 5995.67 388.582  31
  -6   1   4 6269.50 407.864  31
  -6  -1   4 5921.29 734.900  13
   6   1  -4 6122.83 407.422  28
  -6   1   4 7467.00 611.412  27
  -6   1   4 6610.39 507.680  11
  -6  -1   4 6292.89 513.783  11
  -6   1   4 5716.84 412.504  26
  -6   1   4 6210.16 438.523  24
  -6  -1   4 5814.31 398.596   2
  -6   1   4 6107.90 399.618   9
   6  -1  -4 5729.63 735.636  41
   6   1  -4 5630.01 688.110  41
  -6  -1   4 6233.60 724.637  39
  -6   1   4 6492.13 484.285  19
  -6   1   4 6104.09 416.508   2
   6   1  -4 5809.65 529.152   4
  -5  -1   4 1780.66 232.636  33
   5   1  -4 2325.19 264.224  15
  -5  -1   4 2279.93 357.829  32
  -5   1   4 2153.51 380.611  32
   5   1  -4 2310.07 353.244   4
  -5  -1   4 2282.71 244.239  31
  -5   1   4 1941.68 248.239  31
  -5  -1   4 2697.88 510.859  13
  -5   1   4 2055.19 291.430  33
  -5   1   4 2389.23 375.513  27
  -5   1   4 2167.28 255.774  26
   5   1  -4 1907.43 380.674  42
  -5   1   4 2015.53 260.322   2
  -5   1   4 2747.43 332.496  11
  -5  -1   4 2382.52 307.650  11
   5  -1  -4 2205.74 443.444  41
  -5   1   4 2320.82 264.898  25
  -5   1   4 2043.54 250.710  24
  -5   1   4 1815.64 205.507  23
   5   1  -4 2664.22 489.980  41
  -5   1   4 2055.05 223.852   9
  -5  -1   4 1719.23 408.631  39
  -5   1   4 1798.11 262.681  19
  -4  -1   4 6328.46 426.115  33
  -4   1   4 5719.12 421.331  33
   4   1  -4 5652.92 404.215  15
  -4  -1   4 5134.83 531.283  32
  -4   1   4 6355.48 600.153  32
  -4  -1   4 5496.17 377.017  31
  -4   1   4 5640.50 393.097  31
  -4  -1   4 4791.97 611.013  13
  -4   1   4 6459.17 587.301  27
  -4   1   4 5865.44 444.782  11
  -4  -1   4 5535.25 458.997  11
  -4   1   4 5622.11 390.937  25
  -4   1   4 6213.02 401.901  24
  -4   1   4 6005.88 382.292  23
   4  -1  -4 6366.70 558.082  42
   4   1  -4 5823.07 598.089  42
   4  -1  -4 6083.76 668.690  41
  -4   1   4 6321.29 406.202   9
  -4  -1   4 5305.42 604.090  39
  -4   1   4 5903.50 410.569   2
   4   1  -4 5893.11 516.689   4
   4   1  -4 6581.07 664.428  41
  -3  -1   4-116.452 127.837  33
  -3   1   4 286.881 146.431  33
   3   1  -4-117.894 168.007   4
  -3  -1   4 76.1628 185.946  32
  -3   1   4 361.037 221.820  32
  -3  -1   4 103.301 177.028  39
  -3  -1   4 88.6551 106.466  31
  -3   1   4 169.601 143.331  31
  -3  -1   4-9.24863 180.683  13
   3  -1  -4 193.801 203.157  42
  -3   1   4 137.619 174.637  27
  -3   1   4 77.0951 147.491   2
  -3  -1   4 221.383 163.468  11
  -3   1   4-9.71949 90.0632  25
   3  -1  -4 246.027 170.132  40
   3   1  -4-1.14589 158.900  41
   3   1  -4 44.9281 221.689  42
   3  -1  -4 19.5520 181.652  41
  -3   1   4 93.3066 125.118   9
  -2   1   4 18838.0 774.718  33
  -2  -1   4 19635.1 1053.22  32
  -2   1   4 17396.8 1039.88  32
  -2  -1   4 18329.3 740.983  31
  -2   1   4 17455.0 749.245  31
  -2  -1   4 17893.2 1127.55  13
  -2   1   4 20153.0 1070.62  27
   2  -1  -4 18458.0 1029.63  42
  -2   1   4 18340.9 747.736   9
   2  -1  -4 18652.8 1137.08  41
   2   1  -4 17253.6 1078.17  42
   2   1  -4 18117.0 1035.33  41
  -2  -1   4 16694.5 781.770  37
   2  -1  -4 19087.7 967.625  40
   2   1  -4 18270.1 1107.71  40
  -2   1   4 17802.4 776.293   2
  -2  -1   4 17955.2 1058.48  39
  -1   1   4 40214.9 1306.61   2
  -1  -1   4 38702.8 1607.87  32
  -1   1   4 39282.5 1672.42  32
  -1  -1   4 40645.1 1254.53  31
  -1   1   4 39981.9 1282.05  31
  -1  -1   4 39675.0 1739.24  13
  -1   1   4 39987.9 1640.58  27
  -1   1   4 39154.1 1236.91  26
  -1  -1   4 43175.8 1426.84  10
   1  -1  -4 41080.2 1693.71  42
   1   1  -4 37561.9 1707.94  42
   1   1  -4 39881.9 1590.83  41
  -1   1   4 39127.8 1264.01   9
   1  -1  -4 38901.1 1596.28  40
   1   1  -4 41691.3 1789.23  40
  -1  -1   4 39293.3 1632.79  39
   0  -1  -4 47173.2 1896.00  40
   0  -1   4 51663.1 1890.06  32
   0   1   4 49020.5 1916.18  32
   0  -1   4 50887.7 1469.16  31
   0   1   4 50526.1 1497.71  31
   0   1  -4 50854.7 2012.39  12
   0   1   4 49230.8 1875.13  27
   0  -1   4 48813.6 1844.50  39
   0  -1   4 48546.1 1614.78  10
   0  -1  -4 48037.3 1945.62  42
   0   1  -4 47437.1 1980.64  42
   0   1  -4 52219.5 1799.46  41
   0   1   4 47434.4 1464.73   9
   0   1  -4 47813.1 2016.14  40
   0   1   4 48033.0 1507.13   2
   0  -1   4 48054.1 1539.64  37
   1  -1   4 25216.0 1230.53  32
   1   1   4 26810.7 1302.65  32
   1  -1   4 25684.6 915.968  31
   1   1   4 27018.7 958.151  31
  -1   1  -4 26476.3 1131.69  41
  -1   1  -4 25099.2 1370.73  12
  -1  -1  -4 27461.4 1587.15  12
   1   1   4 24821.4 1238.03  27
   1  -1   4 26347.8 1076.55  10
  -1  -1  -4 24959.7 1354.24  42
  -1   1  -4 26950.7 1404.60  42
   1   1   4 25881.1 940.703   9
  -1  -1  -4 24863.4 1345.57  40
   1   1   4 26651.7 973.664   2
   1  -1   4 25959.0 1209.54  39
  -1   1  -4 25624.2 1399.44  40
   1   1   4 27139.1 999.371  37
   1  -1   4 26167.2 1007.90  37
   2  -1   4 13922.2 865.887  32
   2   1   4 14252.5 908.159  32
   2  -1   4 13869.6 607.928  31
   2   1   4 13710.3 625.595  31
  -2   1  -4 13176.7 984.291  12
  -2  -1  -4 14316.7 1158.80  12
   2   1   4 14089.5 882.777  27
  -2   1  -4 14251.1 1036.63  40
  -2  -1  -4 14066.7 1016.93  40
   2  -1   4 14338.5 756.289  10
   2   1   4 13237.0 601.256  23
  -2  -1  -4 13448.1 994.628  42
  -2   1  -4 14806.2 1021.48  42
   2   1   4 13017.2 610.693   9
   2  -1   4 14488.2 840.203  39
   2   1   4 13215.8 637.827   2
   2  -1   4 13858.9 730.558   8
   3  -1   4 65571.9 2223.20  32
   3   1   4 64933.7 2277.57  32
   3  -1   4 66374.3 1792.53  31
   3   1   4 62688.1 1800.10  31
  -3   1  -4 64814.0 2106.45  30
  -3   1  -4 64990.2 2581.52  12
  -3  -1  -4 62294.4 2780.03  12
   3   1   4 63500.3 2226.01  27
   3   1   4 63489.2 1912.89  10
   3  -1   4 64470.1 2036.95  10
   3   1   4 60012.6 1762.91  23
  -3  -1  -4 66740.7 2558.84  42
  -3   1  -4 63522.9 2468.56  42
   3   1   4 60343.9 1786.57   9
  -3  -1  -4 61074.4 2530.98  40
  -3   1  -4 63332.8 2546.14  40
   3  -1   4 64450.6 2110.83  39
   3   1   4 62499.2 1899.58   8
   3   1   4 63116.2 1830.06   2
   3  -1   4 64625.3 2024.44   8
   4  -1   4 1206.21 242.525   8
   4   1   4 688.487 144.192   9
   4  -1   4 1018.21 232.618  32
   4   1   4 1377.99 289.164  32
   4   1   4 975.211 205.739  14
   4  -1   4 744.639 140.741  31
   4  -1   4 882.329 164.430   2
   4   1   4 890.986 164.207  31
  -4   1  -4 765.584 207.804  30
  -4   1  -4 855.562 168.675  28
  -4  -1  -4 1006.15 313.488  42
   4   1   4 1275.46 280.277  27
  -4   1  -4 1161.63 350.665  12
  -4  -1  -4 979.935 347.560  12
   4   1   4 1067.00 162.407   2
   4   1   4 767.353 156.257  23
   4   1   4 655.424 180.556  10
   4  -1   4 983.474 190.106  10
  -4   1  -4 823.586 296.820  42
  -4  -1  -4 1244.76 386.454  40
  -4   1  -4 1086.64 366.189  40
   4  -1   4 611.111 278.132  38
   4   1   4 822.023 196.749   8
   5  -1   4 21131.0 824.751   2
   5   1   4 20167.1 979.686  14
  -5   1  -4 21512.3 1217.46  30
  -5   1  -4 23206.9 872.316  28
  -5   1  -4 20386.7 1435.54  12
  -5  -1  -4 24433.0 1715.44  12
   5   1   4 19351.0 1072.46  27
   5   1   4 21170.1 984.486  10
   5  -1   4 22496.7 1070.34  10
  -5  -1  -4 19125.3 1330.88  42
  -5   1  -4 21936.4 1335.80  42
   5   1   4 21400.1 991.741   8
  -5  -1  -4 19999.2 1450.70  40
  -5   1  -4 23329.0 1476.92  40
   5  -1   4 21308.5 1509.52  38
   5  -1   4 20428.3 1024.50   8
   6  -1   4 11128.6 675.804   7
   6   1   4 9979.47 682.116  14
   6  -1   4 10734.1 671.369  14
  -6   1  -4 11565.9 930.753  30
  -6   1  -4 10540.7 1057.65  12
  -6  -1  -4 9501.52 1140.97  12
  -6   1  -4 10623.8 711.443   6
   6   1   4 11240.8 709.435  10
   6  -1   4 10895.0 743.142  10
  -6  -1  -4 10104.5 952.662  42
  -6   1  -4 10281.2 908.603  42
  -6  -1  -4 11693.5 1103.87  40
  -6   1  -4 9981.64 969.592  40
   6  -1   4 9986.86 1051.83  38
   6   1   4 10783.0 691.195   8
   6  -1   4 10749.6 737.994   8
  -6   1  -4 10563.9 656.622  35
   7   1   4 2983.82 390.238  14
   7   1   4 3099.55 348.676   7
   7  -1   4 3482.98 367.772  14
   7  -1   4 3641.41 397.629   7
  -7   1  -4 2602.99 513.088  30
  -7   1  -4 3395.03 633.068  12
  -7  -1  -4 3344.70 704.957  12
  -7   1  -4 2492.56 366.350   6
  -7  -1  -4 3280.01 443.518   6
   7   1   4 2867.06 372.639  10
   7  -1   4 3381.14 434.264  10
  -7  -1  -4 3744.11 616.598  42
  -7  -1  -4 3446.44 617.925  40
  -7   1  -4 4424.02 669.055  40
   7  -1   4 2757.80 616.338  38
   7   1   4 3052.90 328.191  36
   7   1   4 2773.31 364.293   8
  -7   1  -4 3061.49 353.313  35
   7  -1   4 2954.22 392.560   8
  -8   1  -4 12585.5 662.558  34
   8   1   4 12062.5 692.488   7
   8  -1   4 12010.3 745.512   7
   8   1   4 11930.8 767.925  14
   8  -1   4 12750.4 724.989  14
  -8   1  -4 13388.7 1087.97  30
  -8   1  -4 11845.4 1204.10  12
  -8  -1  -4 12440.8 1316.90  12
  -8   1  -4 12000.9 790.223   6
  -8  -1  -4 13337.3 864.345   6
   8   1   4 12680.0 790.964  10
   8  -1   4 13489.9 859.483  10
  -8  -1  -4 10506.9 971.019  42
  -8  -1  -4 10796.4 1087.73  40
  -8   1  -4 9794.70 976.825  40
   8   1   4 12943.9 793.148   8
   8  -1   4 13707.8 1284.48  38
   8  -1   4 12096.5 791.108   8
   8   1   4 12405.6 643.824  36
  -8   1  -4 13542.0 753.501  35
   9   1   4 4764.21 420.447   7
   9  -1   4 4818.55 453.527   7
  -9  -1  -4 5511.95 527.634   6
  -9   1  -4 4064.99 442.338   6
  -9   1  -4 5191.57 420.217  11
   9   1   4 5069.23 490.042  10
   9  -1   4 4900.68 507.794  10
   9   1   4 5199.87 488.474   8
   9  -1   4 6017.71 532.877   8
   9   1   4 5014.85 404.809  18
   9   1   4 4572.41 350.737  36
  -9   1  -4 5172.62 452.878  35
  10   1   4 68.4597 118.977   7
  10  -1   4 65.9582 127.686   7
 -10   1  -4-47.2441 150.949   6
 -10  -1  -4 3.15523 162.856   6
  10   1   4 232.597 146.486  10
  10  -1   4-14.4955 126.184  10
 -10   1  -4 229.092 125.361  20
  10   1   4 186.882 165.228   8
  10  -1   4 27.2306 134.746   8
  10   1   4 252.391 101.119  18
 -11   1  -4 223.428 104.913  20
  11  -1   4 188.206 115.857   7
 -11   1  -4 551.225 164.941   6
 -11  -1  -4 292.661 137.743   6
 -11  -1  -4 187.600 122.210  11
  11  -1   4 140.674 125.255  10
  11  -1   4 437.333 165.642   8
  11   1   4 234.213 87.9209  18
 -12   2   4 234.548 98.5315  33
  12   2  -4 270.335 105.074  15
 -12  -2   4 333.395 141.577  11
 -12   2   4 240.387 95.0469  24
  12   2  -4 436.836 155.005   4
 -11   2   4 3652.79 331.304  33
  11   2  -4 3240.69 304.795  15
  11   2  -4 3918.00 421.667   4
 -11   2   4 3202.77 282.491  25
 -11  -2   4 3332.30 356.791  11
 -11   2   4 3386.98 337.031  24
 -11   2   4 3403.09 351.755  19
 -10   2   4 1784.64 277.458  33
  10   2  -4 1537.68 242.369  15
 -10  -2   4 1816.55 305.199  11
 -10   2   4 1335.87 215.456  25
 -10   2   4 911.084 200.676  24
  10   2  -4 1459.48 319.441   4
 -10   2   4 1238.96 230.236  19
  -9   2   4 6830.99 522.649  33
   9   2  -4 5987.13 495.305  15
  -9  -2   4 5656.42 775.906  13
  -9  -2   4 6644.04 561.571  11
  -9   2   4 6378.17 479.853  25
  -9   2   4 5346.24 458.388  24
   9   2  -4 5318.51 765.886  41
  -9   2   4 6733.23 520.938  19
   9  -2  -4 5368.79 849.147  38
   9   2  -4 6911.89 628.679   4
   8   2  -4-196.938 133.675  17
  -8   2   4 302.108 210.563  33
   8   2  -4-40.8630 143.062  15
   8   2  -4-86.4385 191.695   4
  -8  -2   4 90.9195 231.818  13
  -8   2   4-10.0722 92.6305  26
  -8  -2   4 131.635 142.387  11
  -8   2   4 77.6184 136.119  25
  -8   2   4-116.489 117.829  24
   8  -2  -4-111.103 257.644  41
   8   2  -4-190.236 216.633  41
  -8  -2   4 78.2945 246.193  39
  -8   2   4-41.5765 146.950  19
   8  -2  -4 79.7131 278.736  38
   7   2  -4 6189.26 510.530  15
  -7  -2   4 5510.91 381.964  31
  -7  -2   4 5550.54 765.204  13
   7   2  -4 4886.50 701.021  41
  -7   2   4 5808.34 423.415  26
  -7   2   4 6849.81 541.253  33
  -7  -2   4 5904.07 522.068  11
   7  -2  -4 6016.87 749.450  41
  -7   2   4 5942.86 470.156  25
  -7   2   4 6635.13 521.499  24
  -7  -2   4 5245.89 702.924  39
  -7   2   4 5860.64 488.263  19
   7   2  -4 6920.81 445.675  18
   7   2  -4 6851.46 632.138   4
   7   2  -4 6824.34 475.971  17
   6   2  -4 2289.98 285.426  17
  -6   2   4 2656.70 333.051  33
   6   2  -4 1747.00 322.181   4
  -6  -2   4 1951.66 360.172  32
   6   2  -4 2495.63 323.292  15
  -6  -2   4 2086.55 238.284  31
   6   2  -4 2254.42 454.918  41
  -6   2   4 2541.20 280.264  31
  -6  -2   4 1443.63 443.903  13
   6   2  -4 1980.17 257.280  28
  -6   2   4 2436.19 403.432  27
  -6   2   4 2185.62 253.397  26
  -6  -2   4 2209.29 308.562  11
  -6   2   4 2028.50 277.743  25
   6   2  -4 2042.66 392.536   3
   6   2  -4 2284.03 255.122   5
  -6   2   4 2142.02 275.392  24
  -6   2   4 2136.39 253.068   2
  -6   2   4 2246.98 241.894  23
   6  -2  -4 2566.07 506.471  41
  -6   2   4 1853.72 252.944   9
  -6  -2   4 2168.00 458.658  39
  -6   2   4 2018.23 299.518  19
   6   2  -4 2213.58 252.847  18
  -5   2   4 15164.7 789.325  33
   5   2  -4 14173.5 782.282  15
  -5  -2   4 15516.9 1029.42  32
  -5  -2   4 15776.1 711.029  31
  -5   2   4 15435.4 730.689  31
  -5  -2   4 14501.8 1203.14  13
   5   2  -4 13916.4 1149.35   3
   5   2  -4 14804.9 729.889  28
  -5   2   4 16377.1 1032.24  27
  -5  -2   4 14411.3 775.815  11
  -5   2   4 15469.5 715.947  26
  -5   2   4 15240.1 742.704  25
  -5   2   4 14712.5 750.419  24
  -5   2   4 15198.1 679.697  23
   5  -2  -4 12846.3 1071.83  41
   5   2  -4 12468.5 1045.57  41
  -5  -2   4 14948.3 1140.67  39
  -5   2   4 15437.3 754.285  19
   5   2  -4 14661.8 884.038   4
   5   2  -4 15567.0 726.532  18
  -5   2   4 15839.2 721.330   9
  -5   2   4 14607.2 724.409   2
   5   2  -4 15194.2 741.893  17
  -4   2   4 5488.16 452.518  33
   4   2  -4 5733.06 460.154  15
  -4   2   4 5851.26 434.170  31
  -4   2   4 6170.90 438.822   9
  -4  -2   4 4817.28 660.303  13
   4   2  -4 5392.85 430.599  28
  -4   2   4 5159.54 587.941  27
  -4  -2   4 5383.75 435.606  11
  -4   2   4 4822.26 369.881  26
  -4   2   4 5393.05 414.674  25
  -4   2   4 5074.25 411.348  24
  -4   2   4 5479.91 390.106  23
  -4   2   4 5252.41 403.274  22
   4   2  -4 6417.06 672.127  41
   4  -2  -4 4998.43 659.569  41
  -4  -2   4 5165.33 682.922  39
   4   2  -4 5399.60 543.988   4
   4   2  -4 5235.61 407.287  18
  -4   2   4 5138.96 416.068   2
  -3   2   4 7375.87 505.321  33
   3   2  -4 7483.09 525.025  16
  -3  -2   4 7758.51 770.937  39
   3   2  -4 8089.29 542.849  15
  -3   2   4 7741.37 509.127  31
  -3  -2   4 8337.14 826.284  13
   3  -2  -4 7796.43 803.577  41
   3   2  -4 8185.92 538.084  28
  -3   2   4 7943.80 724.143  27
  -3  -2   4 8182.55 518.919  11
  -3   2   4 7768.65 496.275  26
  -3   2   4 7581.55 485.983  25
  -3   2   4 8084.68 501.539  24
  -3   2   4 8326.75 497.794  23
  -3   2   4 7726.35 482.784  22
   3  -2  -4 7759.90 676.692  42
   3   2  -4 8251.11 794.223  42
  -3   2   4 7620.92 493.888   9
   3   2  -4 7542.01 693.185  41
   3   2  -4 7700.01 607.798   4
   3   2  -4 8402.14 501.758  18
  -3  -2   4 8192.21 519.654  37
  -3   2   4 7837.55 519.214   2
   2   2  -4 2857.14 371.771   4
   2   2  -4 3082.29 329.008  16
  -2   2   4 2811.87 295.102  33
  -2   2   4 2391.11 439.393  32
  -2  -2   4 2422.24 277.409  37
  -2   2   4 2016.43 263.251  31
  -2  -2   4 2469.19 437.446  13
   2   2  -4 2276.98 288.426  28
  -2   2   4 2535.34 419.365  27
  -2   2   4 2108.19 262.871  26
  -2   2   4 2060.71 251.185  25
  -2   2   4 2235.38 292.344   2
  -2   2   4 2144.32 248.905  24
  -2   2   4 2024.23 247.008  23
  -2   2   4 2091.45 258.306  22
   2  -2  -4 2622.22 417.984  42
   2   2  -4 2367.02 466.025  42
   2  -2  -4 2594.38 499.585  41
   2   2  -4 1999.91 341.532  41
  -2   2   4 2435.27 289.963   9
  -2  -2   4 1947.88 417.676  39
   2   2  -4 2500.44 275.642  18
  -2   2   4 2366.13 247.893  36
   1   2  -4 483.467 178.468   4
   1   2  -4 803.528 187.671  16
  -1   2   4 665.955 178.798  33
  -1   2   4 830.557 288.674  32
  -1   2   4 717.882 171.698  31
  -1  -2   4 452.044 186.429  13
   1   2  -4 905.309 196.885  28
  -1   2   4 852.873 251.635  27
  -1   2   4 695.995 163.437  26
  -1   2   4 986.098 173.637  25
  -1   2   4 567.873 181.376   2
  -1   2   4 914.241 174.238  24
  -1   2   4 809.281 180.194  23
  -1  -2   4 690.721 203.757  10
   1  -2  -4 933.860 287.103  42
   1  -2  -4 243.385 170.961  40
  -1   2   4 588.007 166.629   9
  -1   2   4 529.908 150.937  22
  -1  -2   4 1394.91 338.609  39
   1   2  -4 755.697 289.028  42
  -1  -2   4 793.701 180.478  37
   0   2  -4 12397.4 668.098  16
   0   2   4 12061.8 640.704  31
   0  -2   4 12629.6 923.864  13
   0   2  -4 13064.3 694.105  28
   0  -2  -4 12235.4 1091.53  12
   0   2   4 12545.1 915.960  27
   0   2   4 11392.1 586.172  26
   0   2  -4 12954.1 1014.15  42
   0   2   4 12403.4 603.689  25
   0   2   4 12110.4 596.175  24
   0  -2   4 11996.1 723.663  10
   0   2   4 11091.9 600.772  23
   0   2   4 12231.5 618.760  22
   0  -2  -4 12512.6 974.634  42
   0   2   4 12303.8 640.612   9
   0   2   4 12612.4 958.416  32
   0  -2  -4 13634.0 952.645  40
   0   2  -4 11378.1 726.357   4
   0  -2   4 14127.3 1008.14  39
   0  -2   4 12800.5 642.137  37
   0   2   4 11913.9 653.450   2
  -1   2  -4 485.024 164.667  16
   1   2   4 531.661 117.979  14
   1   2   4 449.718 148.063  31
  -1   2  -4 625.580 181.566  28
   1   2   4 836.924 272.783  27
  -1  -2  -4 449.704 233.376  12
   1   2   4 528.419 129.855  26
   1   2   4 561.852 163.634  25
   1   2   4 369.609 174.159   2
   1   2   4 792.657 168.708  24
   1   2   4 731.721 171.019  23
   1  -2   4 449.098 165.205  10
   1   2   4 598.183 153.124  22
  -1  -2  -4 343.089 214.256  42
  -1   2  -4 628.243 289.169  42
  -1  -2  -4 80.9895 220.238  40
   1   2   4 653.499 176.286   9
  -1   2  -4 626.893 273.124  40
   1  -2   4 542.719 198.211  39
  -2  -2  -4 190.515 228.126  42
   2   2   4 487.485 148.155  14
   2   2   4 128.985 119.030  31
  -2   2  -4 476.381 160.484  28
   2   2   4 362.373 219.072  27
  -2  -2  -4 99.1582 191.975  12
   2   2   4 371.892 131.180  26
   2   2   4 435.709 118.126  25
   2   2   4 93.7002 112.146   2
   2   2   4 309.452 117.186  24
   2   2   4 330.561 140.558  23
   2  -2   4 152.160 121.590  10
   2   2   4 398.387 125.562  22
  -2   2  -4 165.464 185.820  42
   2   2   4 225.851 146.347   9
  -2  -2  -4 453.761 262.409  40
  -2   2  -4 91.6957 211.130  40
   2  -2   4 662.665 253.906  39
   3  -2   4 20928.9 1174.35  32
   3  -2   4 19593.5 801.130  31
   3   2   4 17528.3 833.334  14
   3   2   4 19109.5 824.843  31
  -3   2  -4 19128.7 1338.21   3
  -3   2  -4 18308.8 846.290  28
  -3  -2  -4 18407.2 1440.00  12
   3   2   4 20459.4 1184.88  27
   3   2   4 18702.7 758.279  26
   3   2   4 19062.0 796.360  24
   3  -2   4 19160.4 972.384  10
   3   2   4 18875.9 785.879  23
  -3  -2  -4 16506.1 1264.54  42
  -3   2  -4 19365.4 1281.96  42
   3   2   4 17724.2 796.533   9
  -3  -2  -4 19395.5 1370.27  40
  -3   2  -4 19915.4 1354.49  40
   3  -2   4 18397.9 1168.12  39
   3  -2   4 16942.7 928.559   8
   3   2   4 19196.8 865.509  36
   3   2   4 19289.7 834.095   2
   4   2   4 1112.38 216.894  36
   4  -2   4 1210.94 295.848   8
   4  -2   4 1424.43 323.209  32
   4   2   4 1322.58 235.976  14
   4  -2   4 928.427 176.330  31
   4   2   4 921.245 182.915  31
  -4   2  -4 711.550 170.205  28
   4   2   4 1551.61 328.901  27
  -4  -2  -4 1064.46 375.480  12
  -4   2  -4 561.997 265.904   3
   4   2   4 889.920 176.265   2
   4   2   4 579.641 141.911  23
   4  -2   4 712.410 215.341  10
  -4  -2  -4 849.446 330.249  42
  -4   2  -4 488.440 256.316  42
   4   2   4 537.434 142.635   9
  -4   2  -4 998.461 200.831   5
  -4   2  -4 647.396 288.676  40
   4  -2   4 159.488 151.146  39
   4  -2   4 1315.03 412.136  38
  -4  -2  -4 857.028 367.662  40
   5   2   4 17451.7 748.482   2
   5   2   4 16599.6 864.548  14
   5  -2   4 16166.5 784.677  14
  -5   2  -4 18029.9 783.773  28
  -5  -2  -4 15014.0 1400.17  12
  -5   2  -4 17631.5 861.932   6
   5  -2   4 17512.8 958.256  10
  -5  -2  -4 17875.0 1337.29  42
  -5   2  -4 19036.9 1254.34  42
  -5  -2  -4 15236.8 1303.12  40
  -5   2  -4 17605.1 1303.47  40
   5   2   4 17307.0 839.096   8
   5  -2   4 17454.2 1396.90  38
   5  -2   4 16269.1 930.178   8
   5   2   4 17130.6 848.289  36
   6  -2   4 686.451 224.448   8
   6   2   4 315.657 170.499  14
  -6  -2  -4 214.786 253.213  12
  -6   2  -4 238.802 173.430   6
  -6  -2  -4 97.8773 169.969   6
   6  -2   4 262.347 202.329  10
  -6  -2  -4 316.578 258.926  40
  -6   2  -4 208.706 269.817  40
   6  -2   4 161.028 297.750  38
   6   2   4 396.332 166.294   8
   6   2   4 155.950 114.465  36
  -6  -2  -4 108.802 268.953  42
  -6   2  -4 107.822 136.231  35
   7  -2   4 5936.43 518.994   7
  -7  -2  -4 4705.33 739.534  13
  -7   2  -4 5913.43 470.601   6
  -7  -2  -4 5257.29 501.732   6
  -7  -2  -4 6153.37 912.841  12
   7   2   4 5566.23 457.366  10
   7  -2   4 5827.69 544.985  10
  -7  -2  -4 4447.74 676.043  42
  -7  -2  -4 5224.42 796.949  40
   7   2   4 4477.05 444.201   8
   7  -2   4 5778.73 543.461   8
   7  -2   4 4969.41 789.035  38
   7   2   4 5524.37 460.556  18
   7   2   4 5025.93 420.761  36
  -7   2  -4 5028.34 482.797  35
   8  -2   4 2736.93 363.130   7
  -8   2  -4 2904.68 318.254   6
  -8  -2  -4 3136.52 382.701   6
   8  -2   4 2835.25 376.511  10
   8   2   4 3075.99 349.088   8
   8   2   4 3212.11 314.676  36
   8   2   4 2967.95 331.456  18
  -8   2  -4 3191.96 375.063  35
   8  -2   4 3804.94 421.055   8
  -9   2  -4 182.667 126.849  34
   9  -2   4 267.308 173.074   7
  -9   2  -4 139.827 115.659   6
  -9  -2  -4 245.101 150.626   6
   9  -2   4 106.601 162.904  10
   9   2   4-4.50212 97.4039  36
   9   2   4 117.946 99.8899  18
   9  -2   4-212.701 151.521   8
  -9   2  -4 174.496 120.475  35
  10  -2   4 6228.16 449.612   7
 -10  -2  -4 7140.40 450.697   6
 -10  -2  -4 6506.12 485.779  11
  10  -2   4 5487.99 449.877  10
 -10   2  -4 6578.34 436.738  20
  10  -2   4 6206.64 447.034   8
  10   2   4 6218.04 389.159  18
 -10   2  -4 6360.99 384.906  34
 -11   3   4 16835.3 679.923  33
  11   3  -4 17035.2 672.926  15
 -11   3   4 16521.2 666.578  24
  11   3  -4 17858.6 755.392   4
 -10   3   4 13802.6 676.187  33
  10   3  -4 13991.6 679.890  15
 -10  -3   4 13498.7 616.219  11
 -10   3   4 14746.7 599.917  25
 -10   3   4 13744.0 654.797  24
  10   3  -4 14259.8 746.038   4
   9   3  -4 184.178 160.082   4
  -9   3   4 354.611 162.820  33
   9   3  -4 529.139 159.715  15
  -9  -3   4 171.049 121.083  11
  -9   3   4 295.463 117.106  25
  -9   3   4 201.582 113.559  24
   8   3  -4 1417.47 213.850  17
   8   3  -4 1663.02 299.289   4
  -8   3   4 1326.00 245.167  33
   8   3  -4 1498.11 256.962  15
  -8   3   4 1517.27 186.168  26
  -8   3   4 1244.31 209.332  25
  -8   3   4 1434.13 243.698  24
   8   3  -4 1237.22 186.422  18
  -7   3   4 8096.25 585.131  33
   7   3  -4 8547.03 611.159  15
  -7  -3   4 6779.21 912.913  13
  -7   3   4 7965.42 483.191  26
  -7   3   4 8382.49 543.890  25
  -7   3   4 7853.04 553.786  24
   7   3  -4 8115.16 449.260  22
   7   3  -4 8237.46 656.813   4
  -7  -3   4 7356.69 864.379  39
   7  -3  -4 7757.60 971.047  38
   7   3  -4 8594.17 535.640  18
   7   3  -4 9383.09 585.212  17
   6   3  -4 775.852 194.536  17
   6   3  -4 756.197 274.481   4
  -6   3   4 205.842 151.029  33
   6   3  -4 349.582 163.506  15
  -6  -3   4-419.057 364.196  32
  -6  -3   4 511.123 145.560  31
  -6   3   4 517.904 153.434  31
  -6  -3   4 334.088 313.685  13
   6   3  -4 549.074 154.945  28
  -6   3   4 429.690 141.417  26
   6   3  -4 518.708 165.616   1
  -6   3   4 550.261 175.664  25
   6   3  -4-149.026 280.903   3
  -6   3   4 408.593 154.697  24
  -6   3   4 486.178 129.434  23
   6   3  -4 557.111 136.588  22
  -6   3   4 1198.93 212.170   2
  -6   3   4 338.813 145.745   9
   6   3  -4 201.168 106.890   5
  -6  -3   4 958.161 366.371  39
   6  -3  -4-182.823 401.890  38
   6   3  -4 512.071 146.832  18
  -5   3   4 6635.99 513.919  33
   5   3  -4 6261.99 536.985  16
   5   3  -4 5685.32 504.289  15
  -5   3   4 7577.11 519.987   2
  -5   3   4 6424.17 479.667  31
  -5  -3   4 4373.49 690.625  13
   5   3  -4 6180.54 476.706  28
  -5   3   4 5508.74 663.071  27
  -5   3   4 6759.49 466.060  26
  -5   3   4 5052.39 440.885  25
  -5   3   4 6183.90 488.445  24
   5   3  -4 5113.76 727.657   3
  -5   3   4 5777.40 422.126  23
   5   3  -4 7288.95 475.408   5
  -5   3   4 5946.05 443.065  22
   5   3  -4 6746.41 454.206  22
  -5   3   4 5740.22 447.845   9
   5  -3  -4 5510.63 719.207  41
   5   3  -4 6201.44 576.440   4
  -5  -3   4 5899.16 765.775  39
   5   3  -4 5835.87 506.529   1
   5  -3  -4 5563.14 763.605  38
   5   3  -4 6146.72 475.583  18
   4   3  -4 2060.60 331.868   4
  -4   3   4 1415.23 253.788  33
   4   3  -4 952.458 255.590  16
   4   3  -4 1539.94 280.674  15
  -4   3   4 1318.26 243.034  31
  -4  -3   4 1483.30 394.473  13
   4   3  -4 1634.72 291.772   1
   4   3  -4 1539.24 259.463  28
  -4   3   4 1284.72 342.421  27
  -4   3   4 1432.16 228.795  26
  -4   3   4 1387.19 241.977  25
   4   3  -4 799.246 284.108   3
  -4   3   4 1439.22 243.213  24
  -4   3   4 1693.31 248.574  23
  -4   3   4 1503.81 262.204   2
  -4   3   4 1060.61 207.667  22
  -4   3   4 1308.12 214.109  21
  -4   3   4 1704.43 265.074   9
   4   3  -4 1244.32 211.416   5
   4  -3  -4 1466.88 372.639  41
  -4  -3   4 1689.79 411.535  39
   4   3  -4 1051.07 229.527  18
   3   3  -4 4853.20 489.331   4
  -3   3   4 4693.54 435.785   2
  -3   3   4 5027.70 427.119  33
   3   3  -4 4186.01 424.633  16
  -3   3   4 4810.02 420.349  31
   3   3  -4 4135.76 442.681   1
  -3  -3   4 3622.22 593.555  13
   3   3  -4 4316.95 414.484  28
  -3   3   4 5193.56 649.228  27
  -3   3   4 4654.30 394.031  26
  -3  -3   4 4262.50 632.493  39
  -3   3   4 4438.65 399.531  25
  -3   3   4 4889.14 418.944   5
   3   3  -4 4559.43 715.550   3
  -3   3   4 4555.86 412.922  24
  -3   3   4 4737.58 391.850  23
  -3   3   4 4288.03 382.218  22
   3   3  -4 4878.87 404.548   5
  -3   3   4 4970.59 424.583   9
  -3   3   4 4409.34 355.012  21
   3  -3  -4 4666.48 678.819  41
   3   3  -4 4600.36 367.926  21
   3   3  -4 5250.62 432.992  18
   2   3  -4 923.878 227.039  16
   2   3  -4 659.234 254.578   1
  -2   3   4 573.089 171.207  33
  -2   3   4 1044.06 237.725  31
  -2  -3   4 272.663 270.673  13
   2  -3  -4 544.787 257.022  41
   2   3  -4 850.948 232.672  28
  -2   3   4 1101.05 317.476  27
   2  -3  -4 1366.66 409.343  12
  -2   3   4 780.132 191.800  26
  -2   3   4 328.319 143.860  25
   2   3  -4 1268.15 456.317   3
  -2   3   4 953.218 189.416  24
  -2   3   4 693.133 191.057  23
  -2   3   4 1403.31 270.207   2
  -2   3   4 1008.80 220.792   5
  -2  -3   4 1161.86 271.144  10
  -2   3   4 639.753 185.421  22
  -2   3   4 919.042 218.206   9
   2   3  -4 1094.33 226.955   5
  -2  -3   4 1114.08 342.344  39
   2   3  -4 1140.26 229.850  18
  -2   3   4 806.585 175.273  36
   2   3  -4 1366.93 300.303   4
  -1   3   4 22199.6 993.592   2
   1   3  -4 21239.7 1009.68  16
  -1   3   4 20121.0 950.882  31
  -1  -3   4 20641.2 1301.93  13
   1   3  -4 18546.9 1483.74   3
   1   3  -4 20800.6 991.075  28
   1  -3  -4 22082.6 1497.64  12
  -1   3   4 22755.3 1397.61  27
  -1   3   4 20284.2 900.221  26
  -1   3   4 22243.8 936.850  25
  -1   3   4 20631.5 931.090   5
  -1   3   4 21546.1 940.044  24
  -1   3   4 20277.6 895.112  23
  -1  -3   4 21184.0 1061.50  10
  -1   3   4 20821.9 907.697  22
   1   3  -4 22678.8 966.783   5
   1  -3  -4 21986.4 1368.09  42
  -1   3   4 21049.2 942.921   9
   1   3  -4 19131.9 1026.85   1
   1   3  -4 22036.7 1094.02   4
  -1  -3   4 22854.5 1483.22  39
  -1   3   4 22556.9 911.114  36
   0   3   4 21238.9 960.446   2
   0   3  -4 18698.8 941.655  16
   0   3   4 21330.2 948.368  31
   0   3  -4 17258.8 1430.06   3
   0   3  -4 20125.1 964.814  28
   0  -3  -4 18886.8 1404.44  12
   0   3   4 19248.4 1289.40  27
   0   3   4 19339.9 852.484  26
   0   3   4 20915.9 889.116  25
   0   3   4 20299.9 905.774   5
   0   3   4 19704.3 886.368  24
   0  -3   4 18090.2 979.887  10
   0   3   4 19164.0 864.195  23
   0   3   4 21500.6 901.034  22
   0   3  -4 20502.2 919.865   5
   0  -3  -4 16651.7 1253.21  42
   0   3   4 19594.6 903.746   9
   0   3  -4 19043.6 1005.69   1
   0  -3   4 18431.9 1335.86  39
   0   3   4 20370.5 887.836  36
  -1   3  -4 237.777 156.635  16
  -1   3  -4 221.924 152.524   1
   1   3   4 144.610 128.422  31
  -1   3  -4 309.049 149.515  28
   1   3   4 789.185 300.435  27
  -1  -3  -4-159.481 296.861  12
   1   3   4 463.661 156.096  26
   1   3   4 275.655 123.231  25
  -1   3  -4 19.1786 228.290   3
   1   3   4 160.077 102.512  24
   1   3   4 154.670 111.056  23
   1   3   4 211.257 164.074   2
   1   3   4 190.704 152.248   5
   1  -3   4 174.672 145.283  10
   1   3   4 162.656 149.028  22
  -1  -3  -4 368.656 274.713  42
   1   3   4 148.323 161.216   9
  -1   3  -4 227.500 132.378   5
  -1  -3  -4-381.007 272.042  40
   1  -3   4 568.665 252.643  39
   1   3   4 184.676 137.919  36
   1   3   4 168.914 94.5577  18
   2   3   4 9442.31 598.752   2
   2   3   4 9616.29 595.995  31
  -2   3  -4 8216.35 580.722  28
   2   3   4 9399.55 880.461  27
  -2  -3  -4 8784.34 953.299  12
   2   3   4 7772.72 498.561  26
   2   3   4 7225.32 490.271  25
   2   3   4 10397.2 604.690  24
  -2   3  -4 8229.25 940.736   3
   2  -3   4 8217.89 634.804  10
   2   3   4 10277.2 582.670  23
   2   3   4 9043.02 537.401  22
  -2   3  -4 9886.78 598.194   5
   2   3   4 9240.42 587.178   9
  -2  -3  -4 7599.46 879.714  42
  -2  -3  -4 8075.98 872.825  40
  -2   3  -4 7802.31 606.448   1
   2   3   4 8232.63 542.171  18
   2   3   4 8633.37 574.576  36
   3   3   4 13046.7 690.194   2
   3   3   4 12100.9 663.322  31
  -3   3  -4 9903.32 1036.86   3
  -3   3  -4 12940.4 716.078  28
   3   3   4 12299.9 990.961  27
   3   3   4 12245.3 617.899  26
   3   3   4 12594.5 642.380  25
   3  -3   4 12056.8 772.571  10
   3   3   4 11859.0 626.365  23
   3   3   4 12068.4 628.220  22
  -3   3  -4 12937.7 679.806   5
  -3   3  -4 12707.0 652.229  22
  -3  -3  -4 11891.3 1120.12  42
   3   3   4 11879.0 660.835   9
  -3  -3  -4 11553.7 1082.23  40
   3  -3   4 12056.7 1038.67  39
  -3   3  -4 11219.5 713.459   1
   3  -3   4 11595.5 763.767   8
   3   3   4 12563.9 687.471  18
   3   3   4 11965.8 705.422  36
   4  -3   4 3908.86 435.214   8
   4  -3   4 4483.31 567.447  32
   4   3   4 4571.85 381.219   2
   4  -3   4 4410.75 353.854  31
   4   3   4 4591.89 380.535  31
  -4   3  -4 4454.84 398.503  28
   4   3   4 5055.63 646.304  27
   4   3   4 4666.30 343.185  26
   4   3   4 4458.92 350.942  25
  -4   3  -4 4269.37 661.243   3
   4  -3   4 4705.74 467.939  10
   4   3   4 4122.98 344.790  23
  -4   3  -4 4967.50 388.037   5
  -4   3  -4 4888.91 377.674  22
   4   3   4 4549.07 372.086   9
  -4  -3  -4 3540.66 637.250  42
  -4  -3  -4 4124.70 686.434  40
   4  -3   4 4760.45 649.439  39
  -4   3  -4 4414.33 410.952   1
   4   3   4 4577.59 414.932  18
   4   3   4 4791.33 432.531  36
   5  -3   4 2456.84 348.487   8
  -5  -3  -4 2629.38 625.628  13
  -5   3  -4 1801.18 237.853  28
   5   3   4 2153.60 234.236  23
   5  -3   4 1867.66 305.543  10
  -5  -3  -4 1653.20 464.418  42
  -5   3  -4 1676.75 225.874   5
  -5  -3  -4 1193.95 477.958  40
   5   3   4 1806.19 267.526  36
   5   3   4 2070.11 293.427  18
  -5   3  -4 1918.58 308.997  35
   6  -3   4 6055.33 517.840  10
   6  -3   4 6006.34 516.943   8
   6   3   4 6099.46 474.088  18
   6   3   4 5874.06 466.105  36
  -6   3  -4 6186.45 523.310  35
   7  -3   4 1396.38 246.634  10
   7   3   4 1554.56 239.902  36
   7   3   4 1952.95 270.932  18
  -7   3  -4 1756.25 277.353  35
   7  -3   4 2028.03 292.383   8
  -8   3  -4 5352.58 407.149  34
  -8   3  -4 4938.45 357.950  33
   8  -3   4 5025.34 417.727   7
  -8  -3  -4 4946.19 405.072  11
   8  -3   4 4899.09 392.470  10
   8  -3   4 4742.37 400.319   8
   8   3   4 5070.66 382.368  18
   8   3   4 5105.20 368.719  36
  -8   3  -4 4643.90 409.512  35
  -9   3  -4 6102.36 336.288  33
   9  -3   4 6250.60 413.841   7
  -9  -3  -4 5740.25 385.376  11
   9  -3   4 5222.66 347.859  10
  -9   3  -4 6489.62 404.341  20
   9  -3   4 6211.85 386.183   8
   9   3   4 6413.00 383.080  18
   9   3   4 5668.34 329.088  36
  -9   3  -4 6102.24 419.280  35
  -9   3  -4 6121.44 389.899  34
   9   3   4 4821.02 307.923  17
  -8   4   4 769.889 152.391  33
   8   4  -4 1219.66 186.358  16
  -8   4   4 990.704 139.573  25
  -8   4   4 1058.25 160.863  24
  -8  -4   4 1264.99 219.446  10
   8   4  -4 913.091 147.345  21
   8   4  -4 1181.54 184.028   4
  -7   4   4 8813.66 503.046  33
   7   4  -4 8756.99 538.107  16
  -7   4   4 8883.76 415.800  26
  -7   4   4 8895.78 468.478  25
  -7   4   4 8923.42 500.288  24
  -7  -4   4 8080.17 566.434  10
   7   4  -4 7828.93 460.327  21
   7   4  -4 9201.67 557.866   4
   7   4  -4 8891.26 474.019  18
   6   4  -4 971.788 196.632  16
  -6   4   4 491.765 154.654  33
  -6  -4   4 1068.54 174.872  31
  -6   4   4 1218.41 172.569  26
  -6   4   4 690.532 152.204  25
  -6   4   4 944.437 175.138  24
  -6   4   4 854.897 128.977  23
  -6  -4   4 725.951 196.069  10
   6   4  -4 788.570 129.741  22
   6   4  -4 931.003 145.898   5
   6   4  -4 805.331 151.351  21
   6   4  -4 1036.32 186.366  18
   6   4  -4 1055.52 216.651   4
   6   4  -4 858.035 179.634   1
   5   4  -4 313.183 146.012  16
  -5   4   4 722.781 168.032  33
   5   4  -4 563.806 139.881  28
  -5   4   4 589.517 145.626  26
  -5   4   4 725.790 171.817  25
  -5   4   4 635.513 165.764  24
  -5   4   4 502.720 125.240  23
  -5  -4   4 766.304 196.851  10
   5   4  -4 663.908 142.184  22
   5   4  -4 715.868 150.951   5
   5   4  -4 468.051 129.249  21
   5   4  -4 202.737 103.530   1
   5   4  -4 363.724 139.539  18
   5   4  -4 621.948 192.352   4
   4   4  -4 403.574 162.184  16
  -4   4   4 234.672 107.930  33
   4   4  -4 197.607 132.721  28
  -4   4   4 382.773 148.566  26
  -4   4   4 170.784 120.795  25
  -4   4   4 315.125 158.740  24
  -4   4   4 540.911 148.708  23
  -4  -4   4 202.298 128.686  10
   4   4  -4 295.217 140.157   1
  -4   4   4 111.385 111.049  22
   4   4  -4 378.980 122.347  22
  -4   4   4 296.498 126.623  21
   4   4  -4 406.642 118.155  21
   4   4  -4 513.716 156.073   5
   4   4  -4 171.170 152.761  18
   4   4  -4 296.981 145.844   4
  -3   4   4 3411.25 299.324  33
   3   4  -4 4050.31 403.549  16
   3   4  -4 3474.48 362.907  28
  -3   4   4 3456.42 332.049  26
  -3   4   4 3439.00 341.867  25
  -3   4   4 3244.84 340.410  24
  -3   4   4 3908.88 349.099  23
   3   4  -4 3143.94 363.629   1
   3   4  -4 3681.55 345.111   5
  -3   4   4 3083.42 320.843  22
  -3  -4   4 3151.08 369.127  10
   3   4  -4 3391.53 322.896  22
   3   4  -4 3380.16 294.176  21
   3   4  -4 4009.04 364.751  18
  -3   4   4 2995.39 278.901  21
   2   4  -4 11331.3 691.681  16
   2   4  -4 11764.6 691.197  28
  -2   4   4 12125.2 649.627  26
  -2   4   4 12133.7 659.517  25
  -2   4   4 11377.5 652.454  24
  -2   4   4 12632.8 651.514  23
  -2  -4   4 10950.5 707.755  10
   2   4  -4 12783.1 672.301   5
  -2   4   4 10782.5 616.388  22
   2   4  -4 12409.5 654.772  22
   2   4  -4 11851.8 570.210  21
   2   4  -4 11661.5 735.414   1
  -2   4   4 11768.7 564.455  21
   1   4  -4 2283.89 311.791  16
   1   4  -4 2192.41 303.284  28
  -1   4   4 2241.63 282.620  26
  -1   4   4 2854.20 305.871  25
   1   4  -4 2330.68 336.650   1
  -1   4   4 2360.26 289.960  24
  -1   4   4 2579.32 298.517  23
  -1  -4   4 2022.95 293.431  10
  -1   4   4 2249.46 287.003  22
   1   4  -4 2595.13 300.054  22
   1   4  -4 2588.28 302.682   5
  -1   4   4 1883.69 221.721  36
   0   4  -4 2529.03 326.240  16
   0   4  -4 2953.53 344.266  28
   0   4   4 2976.04 311.438  26
   0   4   4 3076.10 320.056  25
   0   4   4 3078.67 320.926  24
   0   4  -4 3374.46 392.296   1
   0   4   4 3058.51 322.519  23
   0   4  -4 3195.86 344.241   5
   0   4   4 3340.64 338.187  22
   0  -4   4 3005.68 363.416  10
   0   4  -4 2637.79 296.454  22
   0   4   4 3274.84 312.405  36
  -1   4  -4 4239.66 430.234   1
  -1   4  -4 4537.76 415.794  28
   1   4   4 4444.40 367.083  26
   1   4   4 4723.56 380.214  25
   1   4   4 4117.66 371.295  24
   1  -4   4 4496.62 419.042  10
   1   4   4 3831.13 349.786  23
  -1   4  -4 4159.15 370.294   5
   1   4   4 4419.48 368.670  22
  -1   4  -4 4253.00 357.123  22
   1   4   4 3995.90 357.703  36
  -2   4  -4 4470.55 417.706   1
  -2   4  -4 4420.66 396.156  28
   2   4   4 4838.77 358.821  26
   2   4   4 4663.17 372.955  25
   2  -4   4 4549.16 407.827  10
   2   4   4 4270.57 360.376  23
  -2   4  -4 5089.24 398.869   5
   2   4   4 4489.35 364.067  22
  -2   4  -4 4757.62 373.820  22
   2   4   4 4053.92 327.404  18
   2  -4   4 5017.33 456.958   8
   2   4   4 4778.56 391.328  36
  -3   4  -4 4047.28 385.552   1
  -3   4  -4 5111.99 405.553  28
   3   4   4 4635.23 336.296  26
   3  -4   4 4646.57 397.658  10
   3   4   4 4137.82 324.365  23
  -3   4  -4 4659.99 360.365   5
   3   4   4 4330.91 339.985  22
  -3   4  -4 4041.95 323.334  22
   3   4   4 3761.85 331.175  18
   3  -4   4 4230.99 418.334   8
   3   4   4 4358.06 378.648  36
   4  -4   4 149.411 120.847   8
   4  -4   4 57.0086 91.3542  31
  -4   4  -4-32.3054 99.5356  28
   4   4   4 119.458 79.5798  26
   4   4   4 72.3829 79.5219  23
   4  -4   4 186.255 109.348  10
  -4   4  -4-79.0514 95.3427  22
  -4   4  -4 84.0379 94.9268   5
   4   4   4 62.9400 104.554  36
   4   4   4-108.760 95.6808  18
  -4   4  -4-243.655 138.514   1
  -4   4  -4-22.1134 124.924  35
   5  -4   4 389.716 124.477   8
   5   4   4 196.621 105.270  18
   5   4   4 513.189 139.212  36
  -5   4  -4 404.881 135.144  35
  -6   4  -4 68.8539 91.3780  33
   6   4   4 90.1718 84.1428  18
   6   4   4 87.8532 97.2813  36
  -6   4  -4-67.3641 97.1418  35
   6  -4   4-95.3838 99.7934   8
  -7   4  -4 502.006 130.918  34
  -7   4  -4 474.193 113.046  33
   7  -4   4 599.333 133.524   7
   7   4   4 370.420 100.079  18
   7   4   4 353.474 102.783  36
  -7   4  -4 576.384 133.104  35
  -3   5   4 122.435 77.4864  26
  -3   5   4 158.051 88.6746  25
  -3   5   4 63.2885 69.3907  24
  -3   5   4 65.7666 77.9790  23
   3   5  -4 158.429 72.0375  22
   3   5  -4 307.974 86.2995   5
  -2  -5   4 2341.40 219.761  31
   2   5  -4 2198.16 236.848   1
   2   5  -4 2211.46 226.652  28
  -2   5   4 2517.55 215.377  26
  -2   5   4 2400.18 213.879  25
  -2   5   4 2736.51 227.161  24
  -2   5   4 2505.01 211.054  23
   2   5  -4 2299.45 205.178   5
   2   5  -4 2538.22 211.794  22
   1   5  -4 17706.1 751.266   1
   1   5  -4 17270.3 720.052  28
  -1   5   4 18398.0 680.022  26
  -1   5   4 18613.7 688.804  25
  -1   5   4 20261.0 698.457  23
   1   5  -4 20112.0 711.567   5
   1   5  -4 19548.4 690.014  22
  -1  -5   4 17531.8 715.500   8
   0  -5   4 341.606 120.298   8
   0  -5   4 62.9090 74.4518  31
   0   5  -4-31.1038 107.320   1
   0   5  -4 562.319 121.793  28
   0   5   4 350.721 103.620  26
   0   5   4 8.54192 83.8074  23
   0   5  -4 294.922 90.1993  22
   0   5  -4 207.956 87.4834   5
  -1   5  -4 3348.20 243.617   5
   1   5   4 3325.32 236.408  23
  -1   5  -4 3308.33 233.346  22
   1  -5   4 3589.09 252.973   8
  12   0  -5-200.008 118.676   4
 -12   0   5-69.6347 119.064  11
 -12   0   5 66.4026 91.4408  25
 -12   0   5 12.6637 67.5147  24
  11   0  -5-4.49369 163.606   4
 -11   0   5 150.955 159.889  11
 -11   0   5-31.9086 112.367  25
 -11   0   5 98.8385 77.8762  24
 -10   0   5-47.4823 127.043  33
  10   0  -5 152.611 157.194   4
 -10   0   5 184.605 185.359  11
 -10   0   5 39.2513 89.6043  24
  -9   0   5-82.1044 129.284  33
   9   0  -5-173.952 187.248   4
  -9   0   5 153.533 103.987  26
  -9   0   5 97.9641 169.248  11
  -9   0   5 137.386 109.016  24
   9   0  -5-253.704 380.555  41
   9   0  -5 359.253 256.079  38
  -8   0   5 166.999 136.051  33
  -8   0   5 22.5506 191.458  11
  -8   0   5-98.2050 113.525  24
   8   0  -5-236.539 241.454  41
  -7   0   5 21.6206 126.673  33
   7   0  -5 110.817 164.786   4
  -7   0   5-27.4017 132.734  31
  -7   0   5 33.1987 155.371  11
   7   0  -5-170.693 288.703  41
  -6   0   5 36.0192 126.944  33
   6   0  -5 66.4668 153.850   4
  -6   0   5-283.806 237.205  32
  -6   0   5-128.574 127.360  31
  -6   0   5 43.3891 135.924   2
  -6   0   5-224.266 196.261  27
  -6   0   5 100.146 148.370  11
   6   0  -5 234.808 205.135  41
  -6   0   5-102.167 101.026   9
  -5   0   5 141.662 145.378  33
   5   0  -5-198.372 181.756   4
  -5   0   5 30.4249 198.384  32
  -5   0   5-118.109 109.375  31
  -5   0   5 159.611 135.716   2
  -5   0   5 254.002 175.847  11
   5   0  -5-54.9673 201.419  41
  -5   0   5-139.634 104.980   9
  -4   0   5-79.9164 125.274  33
  -4   0   5-113.397 166.939  32
  -4   0   5 1.67422 102.885  31
  -4   0   5 76.2777 115.211   2
  -4   0   5-30.5045 125.498  11
   4   0  -5-96.4389 212.546  42
   4   0  -5-9.84688 240.190  41
  -4   0   5 15.8364 107.406   9
  -3   0   5-94.7244 118.548  33
  -3   0   5 73.4589 157.742  32
  -3   0   5 103.963 123.529  31
  -3   0   5-31.2384 121.626   2
   3   0  -5-110.477 156.008  42
   3   0  -5-102.349 258.765  41
   3   0  -5-41.7803 159.434  40
  -3   0   5 113.905 115.386   9
  -3   0   5-27.3103 128.577  37
  -2   0   5-159.540 125.230  33
  -2   0   5-181.153 178.770  32
  -2   0   5 15.4663 105.670  31
  -2   0   5-32.3505 124.352   2
  -2   0   5-159.895 130.736  10
   2   0  -5 147.309 199.818  42
   2   0  -5-296.085 227.632  41
   2   0  -5-136.630 211.128  40
  -2   0   5-2.11522 110.811   9
  -2   0   5-31.2220 150.283  39
  -2   0   5 20.3578 108.776  37
  -1   0   5-39.3511 135.384  33
  -1   0   5-85.4933 198.205  32
  -1   0   5 201.850 122.726  31
  -1   0   5 28.6581 130.795   2
  -1   0   5-108.494 126.607  10
   1   0  -5 37.2395 190.270  42
   1   0  -5-121.727 175.826  41
   1   0  -5 192.547 233.554  40
  -1   0   5 102.986 123.802   9
  -1   0   5-7.54817 154.078  39
  -1   0   5 222.535 140.803  37
   0   0   5-201.290 227.216  32
   0   0   5 28.9034 121.363  31
   0   0  -5 37.4032 190.530  42
   0   0   5 269.887 142.680   2
   0   0  -5-166.866 273.077  12
   0   0   5-125.334 150.156  10
   0   0  -5 82.0491 188.323  41
   0   0  -5-112.980 203.922  40
   0   0   5 78.3065 95.7682   9
   0   0   5 74.8697 126.819  39
   0   0   5 120.506 104.709  37
   1   0   5 203.505 140.043   8
   1   0   5 239.291 211.632  32
   1   0   5-20.6011 112.914  31
   1   0   5 95.7001 157.820   2
  -1   0  -5-97.4378 242.539  12
   1   0   5-240.553 181.625  10
  -1   0  -5-39.3295 260.054  42
  -1   0  -5 48.1156 157.156  41
  -1   0  -5-89.2328 195.608  40
   1   0   5-178.733 125.257   9
   1   0   5 79.9323 124.203  37
   2   0   5 70.2806 122.092   8
   2   0   5 389.581 218.907  32
   2   0   5 48.8710 106.518  31
   2   0   5-104.641 127.997   2
  -2   0  -5 59.5752 235.067  12
   2   0   5-149.922 127.787  10
  -2   0  -5-128.058 217.709  41
  -2   0  -5-182.799 187.404  40
   2   0   5-12.1125 97.9858   9
  -2   0  -5 104.776 188.199  42
   3   0   5-118.302 142.913   8
   3   0   5-111.693 196.258  32
   3   0   5-29.5784 110.030  31
   3   0   5 32.9674 105.468   2
  -3   0  -5-235.877 322.728  12
   3   0   5-91.9308 153.249  10
  -3   0  -5-134.363 260.850  42
  -3   0  -5 207.723 143.307  41
  -3   0  -5 218.030 274.443  40
   3   0   5 105.465 119.134   9
   4   0   5-252.880 178.797  32
   4   0   5 43.1783 85.0117  31
   4   0   5 17.3157 103.096   2
   4   0   5-115.768 152.088  27
  -4   0  -5 130.218 208.030  12
   4   0   5-135.466 150.574  10
  -4   0  -5 384.749 290.990  42
  -4   0  -5 57.8889 251.298  40
   4   0   5-158.109 125.215   9
   4   0   5 110.161 128.040   8
   5   0   5-93.5722 170.344  14
  -5   0  -5-44.2345 297.216  12
   5   0   5 37.5642 127.407  10
  -5   0  -5-29.4340 278.294  42
  -5   0  -5-753.563 352.027  40
   5   0   5 58.2588 140.390   8
   6   0   5-12.2870 157.990  14
  -6   0  -5 221.386 277.278  12
   6   0   5-632.974 207.004  10
  -6   0  -5-318.562 277.226  42
  -6   0  -5-150.138 298.038  40
   6   0   5 136.958 181.319   8
   7   0   5-78.2805 153.558  14
   7   0   5-50.9904 135.197   7
  -7   0  -5-73.7935 221.882  12
  -7   0  -5 153.974 197.398   6
   7   0   5 158.257 179.390  10
  -7   0  -5-406.054 216.307  40
   7   0   5-117.904 177.103   8
   8   0   5 134.268 160.382  14
   8   0   5 172.341 126.570   7
  -8   0  -5 241.001 208.111   6
   8   0   5-127.472 165.754  10
   8   0   5-93.9305 105.196  36
   8   0   5-1.59727 174.459   8
  -9   0  -5 56.9177 172.196   6
   9   0   5 61.1169 116.405  10
   9   0   5-36.2170 125.978   8
 -10   0  -5 142.744 115.547   6
 -10   0  -5-193.248 121.328  11
  10   0   5 27.0888 119.931  10
  10   0   5 200.132 126.688   8
  10   0   5-81.5870 67.9446  18
 -12   1   5 63.5844 80.9394  33
  12   1  -5 331.625 139.453   4
 -12  -1   5 441.853 160.301  11
 -12   1   5 363.091 107.165  25
 -12   1   5 131.344 82.9869  24
 -11   1   5-193.628 115.325  33
  11   1  -5 117.725 145.182   4
 -11   1   5-92.5400 123.760  11
 -11  -1   5-145.006 162.908  11
 -11   1   5 17.1144 89.6457  25
 -11   1   5 185.589 116.175  24
 -10   1   5 388.425 158.264  33
  10   1  -5 640.342 239.160   4
 -10   1   5 406.451 166.681  11
 -10  -1   5 211.187 199.825  11
 -10   1   5 266.557 134.885  25
 -10   1   5 415.469 150.347  24
  -9   1   5 276.580 159.349  33
   9   1  -5 375.946 224.855   4
  -9   1   5 595.186 139.329  26
  -9   1   5 823.337 220.937  11
  -9  -1   5 239.996 152.343  11
  -9   1   5 390.375 170.007  25
  -9   1   5 471.616 130.760  24
   9  -1  -5 134.002 322.502  41
   9  -1  -5 282.074 358.641  38
  -8   1   5 715.146 194.877  33
   8   1  -5 148.661 168.993   4
  -8  -1   5 91.2252 307.527  13
  -8   1   5 93.3124 101.667  26
  -8   1   5 191.170 190.395  11
  -8  -1   5 445.145 195.245  11
  -8   1   5 242.506 171.417  25
  -8   1   5 427.756 148.002  24
   8  -1  -5 691.462 298.110  41
   8   1  -5 868.217 319.885  41
  -7   1   5 247.782 169.938  33
   7   1  -5 429.852 225.762   4
  -7  -1   5 548.141 133.692  31
  -7   1   5 312.314 108.450  31
  -7  -1   5 91.2966 222.450  13
  -7   1   5 554.687 161.147  26
  -7   1   5 370.815 174.007  11
  -7  -1   5 486.456 171.925  11
  -7   1   5 496.620 171.158  25
  -7   1   5 427.325 165.351   2
  -7   1   5 340.889 127.481  24
   7  -1  -5 317.470 269.334  41
   7   1  -5 616.603 306.195  41
  -7  -1   5 752.405 142.870   9
  -6  -1   5 72766.4 2228.51  33
  -6   1   5 74715.1 2292.14  33
  -6  -1   5 73351.7 2694.11  32
  -6   1   5 70573.8 2710.68  32
  -6  -1   5 73235.9 2119.55  31
  -6   1   5 74598.1 2147.91  31
  -6  -1   5 75541.0 3141.00  13
   6   1  -5 74813.9 2184.12  28
  -6   1   5 79272.7 2682.72  27
  -6   1   5 73975.6 2365.20  11
  -6  -1   5 74820.1 2400.67  11
  -6   1   5 73389.0 2151.98  26
  -6   1   5 71046.8 2185.29  25
  -6   1   5 73576.6 2155.87  24
  -6   1   5 76332.7 2076.70  23
  -6   1   5 73506.1 2107.38   9
   6  -1  -5 74794.9 3109.45  41
   6   1  -5 74412.0 3051.47  41
  -6  -1   5 72178.3 2144.38   2
  -6  -1   5 75497.3 2100.83   9
  -6  -1   5 72164.4 2992.54  39
   6   1  -5 76219.9 2470.61   4
  -6   1   5 75847.8 2166.44   2
  -5   1   5 1562.34 270.346  33
   5   1  -5 1708.66 239.914  16
   5   1  -5 1238.30 276.922   4
  -5  -1   5 1676.28 355.354  32
  -5   1   5 1963.50 399.412  32
  -5  -1   5 1601.17 238.615  31
  -5   1   5 1393.19 230.809  31
  -5  -1   5 1304.61 237.314   2
  -5  -1   5 2340.32 516.686  13
   5   1  -5 1314.72 227.570  28
  -5   1   5 1533.56 331.060  27
  -5   1   5 1524.57 230.080  26
  -5   1   5 1460.42 239.273   2
  -5  -1   5 1327.97 259.407  11
  -5   1   5 1354.65 226.099  25
  -5   1   5 1409.51 219.709  24
  -5   1   5 1649.56 221.599  23
   5  -1  -5 1424.06 464.187  41
   5   1  -5 2126.37 488.258  41
   5   1  -5 1671.67 380.669  42
  -5   1   5 1238.98 203.412   9
  -5  -1   5 1902.82 457.296  39
  -4   1   5 1323.90 240.552  33
   4   1  -5 1489.13 280.957   4
   4   1  -5 1308.25 215.325  16
  -4  -1   5 1679.65 374.889  32
  -4   1   5 1232.59 347.319  32
  -4  -1   5 1106.07 210.203  31
  -4   1   5 990.575 196.874  31
  -4  -1   5 1327.76 223.460   2
  -4  -1   5 1160.68 368.559  13
  -4   1   5 960.746 278.073  27
  -4   1   5 1045.42 204.292   2
  -4   1   5 1085.00 193.705  26
  -4  -1   5 1277.28 256.219  11
  -4   1   5 817.508 178.354  25
  -4   1   5 970.224 179.601  23
   4   1  -5 389.601 216.536  42
   4  -1  -5 1539.58 382.867  41
   4   1  -5 1590.00 381.075  41
  -4   1   5 1366.97 216.084   9
  -4  -1   5 1210.40 337.831  39
  -4   1   5 1106.71 230.428  37
  -4  -1   5 1347.06 257.740  37
  -3   1   5 5167.06 430.859  33
   3   1  -5 5307.48 392.655  16
  -3   1   5 5959.33 686.434  32
  -3  -1   5 4977.30 606.150  32
  -3  -1   5 5395.23 417.588  31
  -3   1   5 5826.08 445.500  31
  -3   1   5 5687.00 625.506  27
  -3   1   5 4774.81 389.639  26
  -3   1   5 4744.43 380.120  25
  -3  -1   5 5627.00 485.445  10
  -3   1   5 5765.34 412.972  23
  -3  -1   5 5104.01 428.963   2
   3  -1  -5 4986.79 593.203  42
   3   1  -5 5114.14 642.547  42
   3   1  -5 6678.93 708.497  41
  -3   1   5 6362.21 441.350   9
   3  -1  -5 5150.08 699.485  41
  -3  -1   5 5883.63 673.739  39
  -3   1   5 4807.05 414.606   2
   3   1  -5 5502.98 498.165   4
  -3   1   5 6021.60 458.717  37
  -3  -1   5 5005.17 461.091  37
   2   1  -5 1851.37 305.037   4
  -2   1   5 1848.87 262.053  33
   2   1  -5 2199.95 254.801  16
  -2  -1   5 2542.87 438.099  32
  -2   1   5 1767.19 398.301  32
  -2  -1   5 2211.28 293.673   2
  -2  -1   5 1916.83 256.743  31
  -2   1   5 2045.90 272.332  31
  -2   1   5 1821.98 377.366  27
  -2   1   5 2036.49 285.702   2
  -2   1   5 1441.56 207.025  26
  -2   1   5 1728.11 229.270  25
  -2  -1   5 1961.60 303.899  10
   2  -1  -5 1728.40 391.684  42
   2   1  -5 1924.80 424.282  42
   2  -1  -5 1966.23 424.684  41
   2   1  -5 1726.73 367.351  41
   2  -1  -5 1744.35 352.052  40
   2   1  -5 1389.48 391.589  40
  -2   1   5 1999.27 256.413   9
  -2  -1   5 1525.57 341.162  39
  -2   1   5 1759.47 244.050  37
  -2  -1   5 1872.80 280.085  37
  -1   1   5 5694.31 429.499  33
   1   1  -5 7001.91 440.243  16
  -1  -1   5 6701.34 699.769  32
  -1   1   5 5991.58 676.249  32
  -1  -1   5 6983.98 465.959  31
  -1   1   5 5879.56 449.886  31
   1   1  -5 7214.25 779.440  12
  -1   1   5 5546.88 633.673  27
  -1   1   5 5680.85 406.696  26
  -1   1   5 5825.14 382.873  25
  -1  -1   5 5296.09 487.588  10
   1  -1  -5 5593.55 667.061  42
   1   1  -5 6000.06 715.933  42
   1  -1  -5 6822.76 768.816  41
   1   1  -5 5196.46 574.926  41
  -1   1   5 5401.40 416.164   9
   1  -1  -5 6132.53 667.658  40
   1   1  -5 6189.61 737.502  40
  -1   1   5 6081.83 472.373   2
   1   1  -5 5366.29 468.147   4
  -1  -1   5 5987.95 644.217  39
  -1   1   5 6090.32 462.108  37
  -1  -1   5 6094.60 481.446  37
   0   1   5 473.997 131.517  33
   0  -1   5 361.621 181.989  32
   0   1   5 343.020 179.382  32
   0  -1   5 191.744 138.947   2
   0  -1   5 547.167 163.149  31
   0   1   5 495.468 171.479  31
   0   1   5 693.684 267.614  27
   0   1  -5 904.919 333.224  12
   0  -1  -5 514.938 312.486  12
   0   1   5 664.731 195.273   2
   0   1   5 560.613 141.035  26
   0  -1   5 394.399 169.472  10
   0  -1  -5 301.374 182.897  42
   0   1  -5 77.6895 217.366  42
   0  -1  -5 162.303 202.702  41
   0   1  -5 116.619 151.005  41
   0  -1  -5 844.292 312.942  40
   0   1  -5 318.031 218.439  40
   0   1   5 774.173 189.361   9
   0  -1   5 459.400 242.924  39
   0   1   5 577.467 159.884  37
   0  -1   5 509.201 176.011  37
   0   1  -5 319.327 121.486   4
   1  -1   5 6745.24 690.794  32
   1   1   5 6340.16 697.906  32
   1  -1   5 6673.21 460.060  31
   1   1   5 6925.83 477.314  31
  -1   1  -5 6989.24 779.029  12
   1   1   5 7207.72 706.521  27
  -1  -1  -5 5560.70 818.678  12
   1   1   5 6362.89 417.675  26
   1  -1   5 7200.26 559.305  10
   1   1   5 6567.37 442.292  23
   1  -1   5 6873.62 493.222   2
  -1   1  -5 7462.44 793.911  42
  -1  -1  -5 6136.63 735.861  42
   1   1   5 6698.16 467.098   9
  -1  -1  -5 6552.08 758.025  40
  -1   1  -5 5249.85 708.656  40
   1  -1   5 6385.56 616.598  39
   1   1   5 6915.12 496.598   2
   1  -1   5 6369.91 490.201  37
   1  -1   5 7112.27 549.008   8
   2  -1   5 15963.6 1087.50  32
   2   1   5 16988.3 1141.60  32
   2  -1   5 16973.6 764.360  31
   2   1   5 17935.3 799.177  31
  -2   1  -5 16802.1 1264.94  12
  -2  -1  -5 14692.3 1333.04  12
   2   1   5 16972.9 1109.85  27
   2   1   5 15002.6 676.720  26
   2  -1   5 16166.9 881.128  10
   2   1   5 15479.7 724.057  23
  -2  -1  -5 15223.9 1204.01  42
  -2   1  -5 16799.7 1248.06  42
   2  -1   5 16824.9 798.508   2
   2   1   5 17134.4 774.597   9
  -2  -1  -5 17312.1 1271.23  40
  -2   1  -5 17242.5 1302.25  40
   2   1   5 16994.1 802.950   2
   2  -1   5 16909.5 888.665   8
   3  -1   5 458.588 167.998   8
   3  -1   5 960.655 286.030  32
   3   1   5 407.599 222.549  32
   3  -1   5 504.079 143.281  31
   3   1   5 587.579 161.334  31
   3  -1   5 401.066 147.707   2
  -3   1  -5 433.540 158.658  28
   3   1   5 458.294 176.480  27
  -3   1  -5 636.005 306.121  12
  -3  -1  -5 450.667 300.980  12
   3   1   5 628.927 175.783   2
   3   1   5 415.252 124.528  23
   3  -1   5 331.519 170.472  10
  -3  -1  -5 302.928 224.552  42
  -3   1  -5 468.447 295.476  42
  -3  -1  -5 502.566 280.144  40
  -3   1  -5 313.065 237.937  40
   3   1   5 327.934 132.003   9
   3  -1   5 356.630 149.712   9
   4  -1   5 13809.8 979.865  32
   4   1   5 15058.1 1045.15  32
   4   1   5 13528.1 793.800  14
   4  -1   5 15487.5 699.986  31
   4   1   5 14195.7 684.690  31
  -4   1  -5 14945.9 766.565  28
  -4   1  -5 17265.0 1359.50  12
  -4  -1  -5 16028.9 1438.92  12
   4   1   5 15077.6 1017.93  27
   4   1   5 16042.7 804.900  10
   4  -1   5 16052.9 912.536  10
   4   1   5 15255.8 679.981  23
  -4  -1  -5 14633.6 1221.42  42
  -4   1  -5 15893.0 1226.77  42
   4   1   5 14319.3 687.028   9
   4  -1   5 14100.1 707.764   2
   4  -1   5 14560.1 673.742   9
  -4  -1  -5 14821.8 1274.55  40
  -4   1  -5 13717.3 1205.24  40
   4   1   5 15486.0 789.054   8
   4   1   5 14734.7 714.805   2
   4  -1   5 15248.6 872.174   8
   5  -1   5 34303.4 1304.58   7
   5   1   5 35358.8 1400.26  14
   5  -1   5 33767.5 1361.99  14
  -5   1  -5 33332.2 1224.48  28
  -5   1  -5 32907.7 1990.82  12
  -5  -1  -5 35047.6 2252.57  12
   5   1   5 35516.6 1358.79  10
   5  -1   5 36536.8 1495.60  10
  -5  -1  -5 36008.9 1994.99  42
  -5   1  -5 33853.0 1877.64  42
  -5  -1  -5 34673.7 2064.62  40
  -5   1  -5 35125.6 2012.69  40
   5   1   5 36819.7 1372.67   8
   5  -1   5 38101.0 1502.46   8
  -5   1  -5 34562.0 1311.54  35
   6  -1   5 18155.7 882.830   7
   6   1   5 19375.4 972.359  14
   6  -1   5 18772.3 927.464  14
  -6   1  -5 18681.2 1450.06  12
  -6  -1  -5 18712.8 1611.34  12
  -6   1  -5 17635.3 975.985   6
   6   1   5 17756.6 911.357  10
   6  -1   5 19266.9 1029.31  10
  -6  -1  -5 18271.2 1367.06  42
  -6   1  -5 19809.1 1348.51  42
  -6  -1  -5 20230.2 1532.58  40
  -6   1  -5 21262.2 1502.80  40
   6   1   5 17858.1 913.005   8
   6  -1   5 17141.5 966.179   8
  -6   1  -5 19353.5 891.208  35
   7   1   5 1277.70 276.181  14
   7  -1   5 889.396 206.532  14
   7  -1   5 946.126 237.193   7
  -7   1  -5 821.036 252.541   6
  -7  -1  -5 813.513 243.444   6
   7   1   5 795.620 212.825  10
   7  -1   5 912.095 264.516  10
   7   1   5 612.259 191.463   8
   7   1   5 929.013 186.733  36
  -7   1  -5 751.869 162.777  35
   7  -1   5 1292.26 286.289   8
   8   1   5 440.078 155.359  14
   8  -1   5 248.321 162.114  14
   8  -1   5 818.093 200.545   7
  -8   1  -5 680.325 213.220   6
  -8  -1  -5 656.341 198.175   6
   8   1   5 572.418 178.508  10
   8  -1   5 548.561 208.461  10
   8   1   5 587.379 180.374   8
   8   1   5 384.482 125.048  36
   8  -1   5 406.541 182.350   8
  -8   1  -5 386.848 144.097  35
   9  -1   5 1462.69 215.727   7
  -9   1  -5 1768.60 256.586   6
  -9  -1  -5 1515.66 266.885   6
   9   1   5 1172.46 222.545  10
   9  -1   5 1166.17 241.947  10
  -9   1  -5 1615.71 204.928  20
   9   1   5 1329.18 227.648   8
   9   1   5 1146.80 162.110  36
   9  -1   5 1162.95 246.388   8
   9   1   5 1253.24 201.109  18
  10  -1   5 630.140 132.524   7
 -10   1  -5 553.112 146.574   6
 -10  -1  -5 484.389 140.313   6
 -10  -1  -5 766.693 169.219  11
  10  -1   5 339.533 134.907  10
  10   1   5 647.393 148.357   8
  10  -1   5 509.050 155.426   8
  10   1   5 450.965 99.1729  18
 -11   2   5 15694.4 661.737  33
  11   2  -5 12843.8 594.735  16
 -11  -2   5 17308.5 748.747  11
 -11   2   5 15991.9 632.237  25
 -11   2   5 14050.3 630.610  24
  11   2  -5 16702.3 786.664   4
 -11  -2   5 14369.9 658.725  37
 -10   2   5 337.607 146.049  33
  10   2  -5 260.269 168.649   4
 -10  -2   5 364.014 155.458  11
 -10   2   5 199.162 118.635  25
 -10   2   5 237.372 114.043  24
  -9   2   5 379.454 180.268  33
   9   2  -5 712.806 250.863   4
  -9   2   5 561.734 131.837  26
  -9  -2   5 251.273 138.787  11
  -9   2   5 646.284 173.249  25
  -9   2   5 349.733 131.751  24
  -8   2   5 9612.90 629.457  33
  -8  -2   5 8712.24 625.964  11
  -8   2   5 8672.23 497.179  26
  -8   2   5 8694.55 574.206  25
  -8   2   5 8609.44 560.456  24
   8   2  -5 9567.36 725.900   4
  -8   2   5 8661.25 520.193  37
  -7   2   5 2265.37 326.588  33
   7   2  -5 3179.87 453.064   4
   7   2  -5 2199.70 294.979   1
  -7  -2   5 2670.17 273.537  31
  -7   2   5 2710.55 280.947  31
  -7  -2   5 3548.78 618.265  13
  -7   2   5 2359.46 266.828  26
  -7  -2   5 2557.48 343.150  11
  -7   2   5 2655.17 318.073  25
  -7   2   5 2331.02 305.052  24
   7  -2  -5 1482.62 402.362  41
  -7  -2   5 3060.26 284.963   9
   7   2  -5 2244.37 482.854  41
  -7   2   5 2050.94 250.846   9
   7   2  -5 2034.32 240.565   5
  -7  -2   5 2417.42 519.098  39
  -7   2   5 2017.72 256.576  37
   6   2  -5 1980.93 360.644   4
  -6   2   5 2323.36 325.606  33
   6   2  -5 2164.35 311.595  16
  -6  -2   5 2086.07 457.862  32
  -6  -2   5 2092.48 268.376  31
  -6  -2   5 1962.10 273.503   2
  -6   2   5 2397.07 284.977  31
  -6  -2   5 2025.39 481.722  13
   6   2  -5 2030.85 270.845  28
  -6   2   5 2506.64 464.495  27
  -6   2   5 2274.58 281.182  26
  -6  -2   5 1549.14 261.431  11
   6   2  -5 1143.10 419.549   3
  -6   2   5 2003.34 286.697  25
  -6   2   5 2076.64 280.160  24
  -6   2   5 2211.04 284.042   2
  -6   2   5 1850.22 231.441  23
   6  -2  -5 1583.16 457.983  41
   6   2  -5 1898.20 449.169  41
  -6   2   5 2056.93 250.758   9
   6   2  -5 1710.59 241.840   5
  -6  -2   5 1390.08 442.157  39
  -6   2   5 2125.74 261.382  37
  -6  -2   5 2076.42 302.026  37
  -5   2   5 16288.5 864.336  33
   5   2  -5 18870.0 917.361  16
  -5  -2   5 16987.7 1174.04  32
  -5  -2   5 17796.1 816.479  31
  -5   2   5 16769.2 826.238  31
  -5  -2   5 15541.6 1315.24  13
   5   2  -5 16090.9 1342.93   3
   5   2  -5 17256.3 848.954  28
  -5   2   5 17788.2 1174.22  27
  -5  -2   5 18516.4 904.062  11
  -5   2   5 18098.7 828.728  26
  -5   2   5 17022.9 831.285  25
  -5   2   5 16842.7 812.558  24
  -5   2   5 18440.1 791.657  23
  -5   2   5 18028.6 822.210   9
   5  -2  -5 18705.2 1409.30  41
   5   2  -5 18153.9 1281.81  41
  -5  -2   5 16226.4 1278.40  39
   5   2  -5 18416.2 1026.04   4
  -5   2   5 16452.0 782.289  37
  -5  -2   5 18702.9 895.459  37
  -5   2   5 17288.0 836.068   2
   4   2  -5 1994.25 335.409   4
  -4   2   5 1379.79 268.000  33
   4   2  -5 1545.62 262.997  16
  -4  -2   5 1266.37 367.700  32
  -4  -2   5 1570.93 251.411  31
  -4   2   5 1161.68 233.191  31
  -4  -2   5 487.920 245.255  13
   4   2  -5 1680.42 266.596  28
  -4   2   5 2284.10 440.262  27
  -4   2   5 1200.12 226.060  26
  -4   2   5 1420.72 236.451  25
  -4   2   5 1846.04 250.129  24
  -4   2   5 1692.00 266.381   2
  -4   2   5 1470.66 215.958  23
   4  -2  -5 1580.02 452.903  41
   4   2  -5 954.830 314.788  41
  -4   2   5 1547.38 239.366   9
  -4  -2   5 1203.14 366.523  39
  -4  -2   5 1297.46 234.030  37
   3   2  -5 1068.36 241.156   4
  -3   2   5 1490.05 244.107  33
   3   2  -5 1241.08 224.301  16
  -3  -2   5 1318.68 366.831  32
  -3  -2   5 1031.36 210.432  31
  -3   2   5 1129.41 214.518  31
  -3  -2   5 1029.12 356.670  13
   3   2  -5 1502.54 280.715  28
  -3   2   5 1423.71 352.118  27
  -3   2   5 999.458 198.591  26
  -3   2   5 1033.26 207.916  25
  -3   2   5 1295.46 255.543   2
  -3   2   5 1441.52 218.902  24
  -3   2   5 1538.09 242.861  23
  -3  -2   5 1174.70 253.917  10
   3   2  -5 1193.52 365.387  42
   3  -2  -5 1049.05 327.928  41
  -3   2   5 1325.00 222.409   9
  -3  -2   5 1343.08 329.550  39
  -3  -2   5 1473.92 229.378  37
   2   2  -5 655.182 261.353   4
  -2   2   5 727.654 177.490  33
   2   2  -5 752.311 196.714  16
  -2  -2   5 1020.83 332.226  32
  -2  -2   5 690.240 175.013  31
  -2   2   5 485.868 165.287  31
  -2   2   5 691.386 163.038   9
   2   2  -5 775.829 223.835  28
  -2   2   5 544.147 239.308  27
  -2   2   5 767.915 184.323  26
  -2   2   5 827.434 182.226  25
  -2   2   5 921.791 232.747   2
  -2   2   5 769.573 169.274  24
  -2   2   5 492.143 158.085  23
  -2  -2   5 772.963 221.474  10
   2  -2  -5 553.142 298.843  42
   2   2  -5 1190.43 387.272  42
   2  -2  -5 444.988 222.607  41
  -2  -2   5 581.959 236.449  39
  -2  -2   5 588.635 187.587  37
  -2   2   5 865.377 152.591  36
  -1   2   5 8824.31 550.054  33
   1   2  -5 8604.63 583.543  16
  -1  -2   5 9975.12 889.569  32
  -1   2   5 9174.47 885.776  32
  -1  -2   5 10578.0 607.608  31
  -1   2   5 9301.54 598.722  31
   1   2  -5 9692.22 644.911  28
   1  -2  -5 10459.2 1102.96  12
  -1   2   5 9757.84 883.205  27
  -1   2   5 8289.19 528.195  26
  -1   2   5 8759.48 529.794  25
  -1   2   5 9494.29 533.758  24
  -1  -2   5 8573.63 657.958  10
  -1   2   5 8277.80 535.506  23
   1  -2  -5 8831.53 867.409  42
   1   2  -5 8506.98 897.488  42
   1  -2  -5 9095.63 983.541  41
  -1   2   5 9478.73 584.270   9
   1   2  -5 8854.83 668.005   4
  -1  -2   5 9898.35 918.087  39
  -1  -2   5 9043.81 578.450  37
  -1   2   5 9946.37 631.341   2
   0   2  -5 14238.6 758.875  16
   0  -2   5 14160.5 1063.10  32
   0  -2   5 13887.9 719.597  31
   0   2   5 14721.0 765.938  31
   0   2  -5 13739.6 785.132  28
   0  -2  -5 13340.7 1257.44  12
   0   2   5 14462.9 1086.26  27
   0   2   5 13823.7 690.592  26
   0   2   5 14703.6 677.230  25
   0   2   5 14726.1 671.498  24
   0  -2   5 14534.6 855.462  10
   0   2   5 14190.7 709.210  23
   0  -2  -5 14398.4 1141.99  42
   0   2  -5 13686.9 1153.28  42
   0   2   5 14423.0 738.419   9
   0  -2  -5 12284.1 999.347  40
   0  -2   5 15381.6 1132.40  39
   0   2   5 14084.2 774.557   2
   1  -2   5 1303.15 342.354  32
  -1   2  -5 1900.98 466.696  42
   1   2   5 1019.02 216.433  14
   1  -2   5 1181.44 209.611  31
   1   2   5 1215.75 244.706  31
  -1   2  -5 1228.14 250.199  28
   1   2   5 791.681 287.142  27
  -1  -2  -5 1152.62 403.640  12
   1   2   5 1145.17 198.944  26
   1   2   5 1454.24 204.339  25
   1   2   5 1253.89 227.887   2
   1   2   5 898.638 154.185  24
   1   2   5 1011.07 190.256  23
   1  -2   5 1162.75 269.965  10
   1   2   5 1201.99 229.784   9
  -1  -2  -5 760.153 303.784  40
  -1   2  -5 1203.92 376.257  40
   1  -2   5 2065.59 433.007  39
  -1  -2  -5 1564.72 428.884  42
   2  -2   5 203.413 149.655   8
   2  -2   5 212.425 221.483  32
   2   2   5 161.400 133.359  14
   2  -2   5 317.550 161.949  31
   2   2   5 379.393 166.994  31
  -2   2  -5 306.895 137.148  28
   2   2   5 135.805 193.049  27
  -2  -2  -5 513.104 366.518  12
   2   2   5 499.560 146.653  26
   2   2   5 256.885 98.4405  24
   2   2   5 214.747 170.036   2
   2   2   5 152.676 107.132  23
   2  -2   5 397.597 214.625  10
  -2  -2  -5 184.571 219.246  42
  -2   2  -5 204.053 275.703  42
   2   2   5 252.369 136.047   9
  -2  -2  -5 104.502 228.548  40
  -2   2  -5 343.313 284.080  40
   2  -2   5 164.340 209.730  39
   3  -2   5 2232.37 335.719   8
   3  -2   5 1680.05 371.719  32
   3   2   5 2547.49 309.928  14
   3  -2   5 2355.75 271.400  31
   3   2   5 2074.30 257.036  31
  -3   2  -5 2148.19 285.432  28
   3   2   5 1402.15 344.528  27
  -3  -2  -5 2598.53 603.606  12
   3   2   5 2465.24 263.008  26
  -3   2  -5 2449.70 561.120   3
   3   2   5 2745.15 322.037   2
   3   2   5 2401.28 270.126  23
   3  -2   5 2198.34 339.676  10
  -3  -2  -5 1919.64 477.389  42
  -3   2  -5 3016.59 569.579  42
   3   2   5 1924.31 271.848   9
  -3  -2  -5 2085.50 491.333  40
  -3   2  -5 1969.86 420.609  40
   3   2   5 2117.73 300.972  36
   4  -2   5 1867.60 330.273   8
   4   2   5 1504.19 266.251  14
   4  -2   5 1592.14 216.482  31
   4  -2   5 1276.04 214.048   2
   4   2   5 1375.36 218.533  31
  -4   2  -5 1127.70 217.130  28
   4   2   5 755.409 284.906  27
  -4  -2  -5 966.900 453.451  12
  -4   2  -5 1829.41 268.336   6
  -4   2  -5 987.469 305.246   3
   4   2   5 1373.01 217.458   2
   4   2   5 1109.92 187.022  23
   4  -2   5 1174.72 271.477  10
  -4  -2  -5 1298.75 507.502  42
  -4   2  -5 2297.05 502.850  42
   4   2   5 1550.98 219.469   9
  -4   2  -5 870.283 191.650   5
  -4  -2  -5 1238.73 447.770  40
  -4   2  -5 1114.51 369.517  40
   4   2   5 1503.96 252.991  36
   5   2   5 5921.40 480.676  14
   5  -2   5 5921.36 450.412  14
  -5   2  -5 6134.87 483.178   6
  -5  -2  -5 6205.34 918.466  12
   5  -2   5 5733.23 545.427  10
  -5  -2  -5 6119.96 773.328  42
  -5   2  -5 4871.14 690.842  42
  -5  -2  -5 4976.20 778.898  40
  -5   2  -5 5382.51 724.169  40
   5  -2   5 5441.06 535.829   8
   5   2   5 5106.00 454.049  36
  -5   2  -5 6149.49 508.429  35
   6  -2   5 105.484 164.268   8
   6   2   5 175.197 145.939  14
   6  -2   5 34.1340 108.830  14
   6  -2   5-58.8362 134.260   7
  -6   2  -5 26.8575 131.186   6
  -6  -2  -5-43.0155 174.890   6
   6  -2   5-149.697 132.323  10
   6   2   5-72.0455 138.932  36
  -6   2  -5 25.9399 138.844  35
   7  -2   5 6142.95 474.709   7
  -7   2  -5 6434.57 442.475   6
  -7  -2  -5 5393.98 464.211   6
   7  -2   5 6266.14 543.209  10
   7  -2   5 5616.43 505.057   8
   7   2   5 6041.24 453.432  18
   7   2   5 5764.75 429.253  36
  -7   2  -5 5557.63 450.630  35
  -8   2  -5 34.1565 106.256  34
   8  -2   5-168.592 120.487   7
  -8  -2  -5-53.9332 117.763   6
   8  -2   5-171.579 140.483  10
   8   2   5-96.8142 90.4538  36
   8   2   5-2.52268 94.0638  18
  -8   2  -5-58.0586 101.496  35
   8  -2   5-73.8871 147.766   8
   9  -2   5 5335.75 367.990   7
  -9  -2  -5 5359.62 363.967   6
  -9  -2  -5 5100.01 396.400  11
   9  -2   5 4741.54 395.539  10
  -9   2  -5 5462.93 352.481  20
   9  -2   5 4540.06 383.921   8
   9   2   5 5252.30 340.607  18
   9   2   5 4649.75 285.280  36
  10   3  -5 1011.77 182.086   4
 -10   3   5 1025.45 163.708  33
  10   3  -5 785.945 139.481  16
 -10   3   5 797.626 125.533  25
 -10   3   5 1177.19 156.203  24
  10   3  -5 809.202 123.647  21
   9   3  -5 164.910 150.106   4
  -9   3   5 119.981 99.1569  33
   9   3  -5-115.914 89.4293  16
  -9   3   5 15.0574 80.3590  25
  -9   3   5-15.1062 89.8238  24
   8   3  -5 168.059 184.755   4
  -8   3   5 149.624 128.169  33
   8   3  -5-47.4183 100.448  16
  -8   3   5 56.3817 85.2217  26
  -8   3   5-29.2028 120.376  25
  -8   3   5-41.0404 101.822  24
   7   3  -5 3527.46 424.755   4
   7   3  -5 3396.45 356.725  16
  -7   3   5 3140.51 337.798  33
  -7   3   5 3429.66 289.811  26
  -7   3   5 3719.27 350.860  25
  -7   3   5 3248.86 323.319  24
   7   3  -5 3538.65 267.576  22
  -6   3   5 18175.6 871.809  33
   6   3  -5 18179.8 915.160  16
  -6   3   5 20456.3 848.126   2
  -6  -3   5 19894.4 818.450  31
  -6   3   5 19152.9 828.513  31
   6   3  -5 17633.2 806.662  28
  -6   3   5 19790.1 816.698  26
  -6   3   5 19030.5 863.833  25
  -6   3   5 19420.5 869.656  24
  -6   3   5 18535.9 758.521  23
   6   3  -5 20512.0 797.648   5
   6   3  -5 19035.2 777.369  22
  -6   3   5 18118.6 785.605   9
   6   3  -5 16138.0 743.126  21
   6   3  -5 21477.4 1071.41   4
   6   3  -5 18934.6 888.716   1
   5   3  -5 3094.66 408.698   4
  -5   3   5 3051.34 341.979  33
   5   3  -5 3368.99 380.323  16
  -5   3   5 3447.77 350.152  31
  -5  -3   5 3248.95 321.223  31
   5   3  -5 3415.30 345.748  28
   5   3  -5 3304.81 378.916   1
  -5   3   5 4358.04 368.938  26
  -5   3   5 3145.71 335.509  25
  -5   3   5 2823.92 320.364  24
  -5   3   5 3619.07 325.754  23
   5   3  -5 3896.10 344.577   5
   5   3  -5 3352.95 310.796  22
  -5  -3   5 3147.71 406.265  10
  -5   3   5 3223.88 338.245   2
  -5   3   5 3198.81 332.630   9
   4   3  -5 1427.26 315.025   4
  -4   3   5 1432.96 238.774  33
   4   3  -5 1632.67 287.059  16
  -4  -3   5 2445.98 497.380  32
  -4  -3   5 1854.05 258.537  31
  -4   3   5 1640.22 259.239  31
  -4  -3   5 512.279 392.271  13
   4   3  -5 2267.66 317.557   1
   4   3  -5 1359.34 242.653  28
  -4   3   5 1992.68 431.629  27
  -4   3   5 1903.72 264.559  26
  -4   3   5 1649.92 255.267  25
   4   3  -5 1983.75 467.225   3
  -4   3   5 1820.04 266.347  24
  -4   3   5 1737.19 238.035  23
  -4   3   5 1765.38 265.897   2
  -4  -3   5 1486.20 296.536  10
   4  -3  -5 1443.27 474.446  41
  -4   3   5 1816.75 267.898   9
   4   3  -5 1747.91 247.543   5
  -4  -3   5 1522.11 381.422  39
  -3   3   5 3019.09 330.445  33
   3   3  -5 2860.80 354.781  16
  -3  -3   5 3765.84 565.355  32
  -3  -3   5 2714.56 319.876  31
   3   3  -5 3191.57 392.712   1
  -3   3   5 3451.71 368.909  31
  -3  -3   5 2449.53 518.025  13
   3   3  -5 3074.07 368.511  28
  -3   3   5 3934.16 582.212  27
   3  -3  -5 4078.88 767.850  12
  -3   3   5 3234.85 342.804  26
  -3   3   5 3212.21 332.745  25
   3   3  -5 3548.76 681.566   3
  -3   3   5 3047.40 340.055  24
  -3   3   5 3823.92 360.679  23
  -3   3   5 3208.18 374.366   2
  -3  -3   5 3299.38 414.092  10
   3  -3  -5 3859.36 642.766  41
  -3   3   5 3094.27 340.312   9
   3   3  -5 3340.88 344.418   5
  -3  -3   5 2631.05 507.746  39
   3   3  -5 3014.02 402.054   4
  -2   3   5 3623.86 330.833  33
   2   3  -5 4087.51 420.306  16
  -2  -3   5 3801.19 588.375  32
   2   3  -5 3566.29 437.525   1
  -2  -3   5 3684.50 369.366  31
  -2   3   5 4199.54 413.373  31
   2   3  -5 3942.48 408.014  28
  -2   3   5 3636.06 589.795  27
   2  -3  -5 3276.33 673.182  12
  -2   3   5 3844.94 374.348  26
  -2   3   5 4890.50 409.234  25
   2   3  -5 3518.38 682.541   3
  -2   3   5 3882.40 367.036  24
  -2   3   5 3729.68 366.032  23
  -2   3   5 3696.78 390.751   2
   2   3  -5 4055.70 396.041   5
  -2  -3   5 3846.20 446.877  10
   2  -3  -5 3350.68 612.135  41
  -2   3   5 3543.06 368.805   9
  -2  -3   5 3750.37 608.791  39
   2   3  -5 3869.34 465.388   4
   1   3  -5 9261.36 632.521  16
  -1  -3   5 11032.1 974.275  32
  -1  -3   5 11049.2 639.246  31
  -1   3   5 10304.2 646.976  31
   1   3  -5 10145.0 1095.79   3
   1   3  -5 9965.38 666.643  28
  -1   3   5 10738.4 966.358  27
   1  -3  -5 10646.0 1120.02  12
  -1   3   5 9304.48 579.754  26
  -1   3   5 10109.1 583.543  25
  -1   3   5 10727.2 604.925  24
  -1  -3   5 9989.19 707.218  10
  -1   3   5 9695.97 594.643  23
   1   3  -5 10257.8 630.709   5
  -1   3   5 9183.42 599.689   9
   1  -3  -5 10078.3 1027.45  41
   1   3  -5 9541.96 702.653   1
  -1  -3   5 9483.62 953.546  39
  -1   3   5 10043.8 570.002  36
  -1   3   5 11060.5 678.944   2
   0   3   5 27109.1 1126.62   2
   0   3  -5 24849.7 1110.63  16
   0  -3   5 24353.0 1493.36  32
   0  -3   5 25272.0 1056.36  31
   0   3   5 27108.7 1115.89  31
   0   3  -5 24922.8 1765.53   3
   0   3  -5 25873.9 1140.00  28
   0  -3  -5 27843.0 1838.66  12
   0   3   5 23789.5 1503.59  27
   0   3   5 26371.8 1030.37  26
   0   3   5 25660.1 1011.89  25
   0   3   5 25401.9 1015.83  24
   0  -3   5 23293.2 1171.51  10
   0   3   5 25109.9 1042.22  23
   0   3  -5 27955.0 1113.08   5
   0  -3  -5 25187.3 1603.02  42
   0   3   5 25869.6 1080.42   9
   0  -3  -5 27441.5 1787.51  41
   0   3  -5 23811.5 1171.38   1
   0  -3   5 27056.9 1646.58  39
   0   3   5 25077.1 1029.88  36
   1   3   5 9915.45 620.335   2
   1  -3   5 8677.41 828.118  32
   1  -3   5 8788.97 553.769  31
   1   3   5 8699.10 582.712  31
  -1   3  -5 7941.70 971.065   3
  -1   3  -5 9223.95 620.822  28
   1   3   5 8964.14 881.101  27
   1   3   5 8488.50 517.818  26
   1   3   5 9015.46 517.979  25
   1   3   5 8508.64 521.144  24
   1  -3   5 8402.20 649.564  10
   1   3   5 8118.35 529.676  23
  -1   3  -5 9155.74 583.403   5
   1   3   5 8310.67 563.526   9
  -1  -3  -5 7276.52 882.803  42
  -1   3  -5 7874.95 630.622   1
   1  -3   5 8016.39 856.821  39
   1   3   5 7626.79 493.593  18
   1   3   5 8513.62 559.408  36
   2  -3   5 3429.30 414.915   8
   2   3   5 3418.67 366.311   2
   2  -3   5 3448.77 533.745  32
   2  -3   5 3667.58 343.295  31
   2   3   5 3289.70 347.692  31
  -2   3  -5 3950.90 402.472  28
  -2   3  -5 3255.41 389.858   1
   2   3   5 2268.74 454.254  27
   2   3   5 3610.18 324.123  26
   2   3   5 3567.05 307.682  25
  -2   3  -5 3876.23 644.563   3
   2   3   5 3893.81 352.599  23
  -2   3  -5 3934.06 371.989   5
   2  -3   5 3125.01 408.134  10
  -2   3  -5 3565.18 347.762  22
  -2  -3  -5 4282.70 651.331  42
   2   3   5 2842.91 309.589   9
   2  -3   5 3042.75 560.648  39
   2   3   5 3273.92 317.985  18
   2   3   5 3873.37 370.653  36
   3   3   5 11954.3 644.255   2
   3  -3   5 11248.0 596.854  31
   3   3   5 10333.0 605.677  31
  -3   3  -5 11584.2 658.864  28
   3   3   5 10750.1 539.265  26
   3   3   5 11956.7 547.671  25
   3  -3   5 10700.0 713.961  10
   3   3   5 11041.6 581.097  23
  -3   3  -5 10873.1 605.936   5
  -3   3  -5 10321.8 571.495  22
   3   3   5 10277.1 584.790   9
  -3   3  -5 10606.5 668.523   1
   3  -3   5 10450.3 715.643   8
   3   3   5 10220.9 592.599  18
   3   3   5 11646.6 661.557  36
   4  -3   5 10046.2 527.416  31
   4   3   5 10059.2 554.022   2
  -4   3  -5 10209.0 575.586  28
   4  -3   5 9242.30 666.689  10
   4   3   5 9368.02 502.186  23
  -4   3  -5 10869.7 549.523   5
  -4   3  -5 10476.0 523.186  22
   4  -3   5 10442.6 690.175   8
   4   3   5 10287.5 592.838  18
   4   3   5 10766.5 622.913  36
  -4   3  -5 9982.25 603.330   1
   5  -3   5 221.604 135.808   8
   5  -3   5 408.748 164.377  10
   5   3   5 531.905 156.879  36
   5   3   5 291.062 122.096  18
  -5   3  -5 342.104 130.250  35
   6  -3   5 4463.57 381.543   7
   6  -3   5 3712.71 372.308  10
   6  -3   5 3990.22 391.056   8
   6   3   5 4875.16 377.254  18
   6   3   5 3841.57 329.942  36
  -6   3  -5 4441.33 392.527  35
   7  -3   5 9440.48 521.248   7
   7  -3   5 8863.79 528.734  10
   7  -3   5 8654.57 529.808   8
   7   3   5 8614.16 476.182  18
   7   3   5 9062.26 474.233  36
  -7   3  -5 9791.66 541.386  35
  -7   4   5 2259.74 207.443  33
   7   4  -5 2582.80 235.442  16
  -7   4   5 2641.15 217.067  25
  -7   4   5 2517.36 220.813  24
  -7  -4   5 2174.46 246.440  10
  -6   4   5 3001.41 251.912  33
   6   4  -5 3325.00 299.843  16
  -6   4   5 3243.33 241.084  26
  -6   4   5 3041.54 258.726  25
  -6   4   5 3040.29 256.864  24
  -6  -4   5 2836.87 312.749  10
   5   4  -5 158.284 100.139  16
  -5   4   5 73.4527 88.5246  33
  -5  -4   5 9.78016 100.438  31
   5   4  -5 396.875 114.348  28
  -5   4   5 265.945 96.2925  26
  -5   4   5 100.739 99.6116  25
  -5   4   5 144.758 89.5204  24
  -5   4   5 43.8312 64.9160  23
  -5  -4   5 331.048 148.737  10
   5   4  -5 214.060 89.7491  22
   5   4  -5 188.762 96.7381   5
   5   4  -5-149.170 132.910   1
   4   4  -5 4500.88 370.576  16
   4   4  -5 4827.41 395.365   1
  -4  -4   5 3956.00 327.063  31
   4   4  -5 3869.49 328.506  28
  -4   4   5 4929.60 347.865  26
  -4   4   5 4618.75 350.269  25
  -4   4   5 4963.76 353.299  24
  -4   4   5 4248.45 309.453  23
  -4  -4   5 4680.20 418.131  10
   4   4  -5 4983.78 348.274   5
   4   4  -5 4756.15 337.637  22
   3   4  -5 14132.9 746.883   1
   3   4  -5 13647.6 699.637  16
  -3  -4   5 15077.3 688.279  31
   3   4  -5 15540.0 729.035  28
  -3   4   5 14230.6 658.713  26
  -3   4   5 13778.1 660.932  25
  -3   4   5 13655.9 650.710  24
  -3   4   5 15904.3 672.212  23
  -3  -4   5 13377.3 746.996  10
   3   4  -5 15051.5 674.165   5
   3   4  -5 14906.4 661.129  22
   2   4  -5 5173.55 411.209  16
  -2  -4   5 4751.68 378.536  31
   2   4  -5 4091.28 367.666  28
  -2   4   5 4396.74 345.984  26
  -2   4   5 4421.72 351.803  25
  -2   4   5 4818.84 361.644  24
  -2  -4   5 4824.42 441.256  10
  -2   4   5 4762.77 360.434  23
   2   4  -5 4527.39 352.799   5
   2   4  -5 4601.35 355.729  22
   2   4  -5 3743.10 380.365   1
  -1  -4   5 52478.0 1610.51  31
   1   4  -5 48678.1 1644.26  28
  -1   4   5 49637.8 1552.81  26
  -1   4   5 53394.7 1570.58  25
  -1   4   5 51231.4 1570.43  24
  -1  -4   5 49527.1 1699.13  10
  -1   4   5 51816.2 1572.43  23
   1   4  -5 54943.2 1623.97   5
   1   4  -5 51966.6 1578.90  22
   1   4  -5 50761.9 1724.95   1
   0  -4   5 7897.61 477.850  31
   0   4  -5 8143.78 523.363  28
   0   4   5 7006.91 430.217  26
   0   4   5 7713.25 446.899  25
   0   4   5 7378.21 451.281  24
   0  -4   5 7366.37 518.284  10
   0   4   5 7784.13 462.651  23
   0   4  -5 8205.02 486.732   5
   0   4  -5 7511.81 456.411  22
   0  -4   5 6868.79 521.044   8
   0   4   5 6865.02 407.283  36
   0   4  -5 7298.59 524.767   1
  -1   4  -5 11843.2 667.411   1
   1  -4   5 12065.7 597.060  31
  -1   4  -5 12630.0 650.250  28
   1   4   5 12132.7 561.871  26
   1   4   5 12292.4 563.410  25
   1  -4   5 12225.2 669.482  10
   1   4   5 12578.0 587.271  23
  -1   4  -5 12195.1 599.358   5
  -1   4  -5 13096.4 599.799  22
   1  -4   5 11570.3 677.431   8
   1   4   5 11492.2 566.864  36
   2  -4   5-99.2230 130.669   8
   2  -4   5 100.102 105.681  31
  -2   4  -5-237.159 122.561  28
   2   4   5 207.632 105.565  26
   2   4   5 8.08246 76.6836  23
   2  -4   5 98.2783 98.5075  10
  -2   4  -5 182.770 106.458  22
  -2   4  -5-13.2687 112.221   1
  -2   4  -5-49.7516 93.1374   5
   2   4   5 101.503 98.3629  36
   3  -4   5 20234.1 743.244  31
  -3   4  -5 20692.9 815.820   1
  -3   4  -5 21231.0 800.525  28
   3   4   5 19001.9 663.265  26
   3  -4   5 21384.0 847.282  10
   3   4   5 20185.9 719.526  23
  -3   4  -5 19855.2 736.943   5
  -3   4  -5 20392.6 719.838  22
   3  -4   5 19482.3 859.617   8
   3   4   5 21618.3 803.786  36
  -3   4  -5 21796.8 873.641  35
   4  -4   5 5127.19 339.162  10
   4   4   5 5423.34 284.560  23
  -4   4  -5 4780.37 267.399   5
   4  -4   5 5169.94 372.994   8
   4   4   5 5656.82 355.589  36
  -4   4  -5 5425.00 375.442  35
 -11   0   6 1531.31 196.397  25
 -11   0   6 1205.68 202.180  37
  10   0  -6 2914.31 301.370   4
 -10   0   6 2541.96 281.681  25
 -10   0   6 3304.86 340.320  37
  -9   0   6 9368.34 561.470  33
  -9   0   6 8442.97 470.253  26
  -9   0   6 9020.24 545.073  25
   9   0  -6 8607.00 561.025   4
  -9   0   6 8983.00 617.566  37
  -8   0   6 40571.2 1440.31  33
  -8   0   6 40597.4 1324.02  26
  -8   0   6 39126.6 1385.06  25
   8   0  -6 39069.2 1434.56   4
  -8   0   6 39357.0 1537.35  37
  -7   0   6 15626.6 823.625  33
  -7   0   6 15907.4 719.573  31
  -7   0   6 15130.7 756.533  25
  -7   0   6 14054.1 633.938  23
  -7   0   6 15010.0 681.271   9
   7   0  -6 15637.6 1322.12  41
  -7   0   6 15762.4 726.709   2
  -7   0   6 15156.8 877.902  37
  -6   0   6 113866. 3106.45  33
  -6   0   6 103461. 3602.81  32
  -6   0   6 110770. 2954.68  31
  -6   0   6 107994. 3520.64  27
  -6   0   6 102733. 2938.94  25
  -6   0   6 109520. 2851.62  23
   6   0  -6 109238. 4058.26  41
  -6   0   6 109318. 2902.21   9
  -6   0   6 107814. 2960.23   2
  -6   0   6 109342. 3166.72  37
  -5   0   6 798.540 214.634  33
  -5   0   6 222.122 209.779  32
  -5   0   6 790.510 181.531  31
  -5   0   6 771.170 218.298   2
  -5   0   6 1123.00 292.118  27
  -5   0   6 648.327 169.824  25
   5   0  -6 894.504 399.890  41
  -5   0   6 674.629 173.964   9
  -5   0   6 603.498 201.136  37
  -4   0   6 1457.73 267.775  33
  -4   0   6 740.790 283.212  32
  -4   0   6 1790.91 278.134  31
  -4   0   6 1317.26 242.650   2
  -4   0   6 1789.58 365.943  27
  -4   0   6 1036.87 198.723  25
   4   0  -6 2450.11 464.436  42
   4   0  -6 800.671 386.912  41
  -4   0   6 1562.60 237.636   9
  -4   0   6 1132.29 238.626  37
  -3   0   6-58.7883 149.202  33
  -3   0   6 314.861 258.930  32
  -3   0   6 18.3664 126.208  31
  -3   0   6 26.2073 133.667   2
  -3   0   6-81.6989 90.1014  25
   3   0  -6-381.880 280.503  42
   3   0  -6 68.4191 194.765  41
  -3   0   6 115.782 138.046   9
  -3   0   6-39.7623 135.299  37
  -2   0   6 11906.7 1008.25  32
  -2   0   6 11523.3 671.126  31
   2   0  -6 9454.25 1085.20  12
   2   0  -6 10760.1 1007.76  42
   2   0  -6 10391.9 979.528  41
  -2   0   6 11420.9 647.524   9
  -2   0   6 10599.9 683.244   2
   2   0  -6 9508.25 928.193  40
  -2   0   6 11181.8 710.752  37
  -1   0   6 8938.26 873.962  32
  -1   0   6 8880.73 592.175  31
   1   0  -6 8991.67 1026.30  12
  -1   0   6 8879.24 570.541  10
   1   0  -6 8219.64 889.509  42
   1   0  -6 9113.89 896.200  41
  -1   0   6 9088.42 580.935   9
  -1   0   6 9099.05 624.771   2
   1   0  -6 8351.85 857.447  40
  -1   0   6 7840.36 589.112  37
   0   0   6 330.948 252.368  32
   0   0   6-23.4900 144.480  31
   0   0   6 97.3984 140.697   2
   0   0  -6-23.1003 330.380  12
   0   0   6-142.960 112.850  10
   0   0  -6-234.809 288.635  42
   0   0  -6 170.623 231.499  41
   0   0  -6 266.646 266.303  40
   0   0   6-31.2545 128.365   9
   0   0   6 111.994 144.329  37
   1   0   6 3967.21 369.056   8
   1   0   6 3253.93 520.303  32
   1   0   6 3120.69 342.981  31
   1   0   6 3840.82 554.356  27
  -1   0  -6 3718.29 680.333  12
   1   0   6 3615.80 321.740  26
   1   0   6 4021.89 401.523  10
  -1   0  -6 4256.40 687.198  42
  -1   0  -6 2393.03 435.506  41
   1   0   6 3688.56 389.459   2
  -1   0  -6 2673.89 564.093  40
   1   0   6 2735.64 318.274   9
   2   0   6 50.1993 243.575  32
   2   0   6-132.405 132.279  31
   2   0   6-55.0816 134.816   2
   2   0   6-189.866 190.065  27
  -2   0  -6 93.9564 273.672  12
   2   0   6 93.9728 121.303  10
  -2   0  -6 212.873 244.101  42
  -2   0  -6-255.650 280.498  40
   2   0   6 18.7131 129.122   9
   2   0   6 209.210 159.660   8
   3   0   6 12189.7 990.126  32
   3   0   6 13322.6 681.090  31
  -3   0  -6 13670.2 1318.83  12
   3   0   6 11627.6 968.913  27
   3   0   6 13698.2 780.347  10
  -3   0  -6 12018.4 1141.63  42
   3   0   6 13209.1 670.830   9
  -3   0  -6 12285.1 1188.10  40
   3   0   6 13087.8 703.237   2
   3   0   6 12520.5 731.006   8
   4   0   6 96573.1 2930.15  14
   4   0   6 99486.0 2695.49  31
  -4   0  -6 108816. 4187.83  12
   4   0   6 100818. 2950.82  10
   4   0   6 100760. 2661.19  23
  -4   0  -6 101708. 3815.52  42
   4   0   6 104400. 2688.34   9
  -4   0  -6 98866.9 3900.54  40
   4   0   6 98262.1 2734.31   2
   4   0   6 100708. 2896.23   8
   5   0   6 10493.9 692.224  14
   5   0   6 10430.7 678.879  10
   5   0   6 12228.6 714.974   8
   6   0   6 2226.26 330.562  14
  -6   0  -6 2339.30 354.274   6
   6   0   6 2256.67 319.735  10
   6   0   6 1925.97 283.239   8
   7   0   6 10806.3 635.048  14
  -7   0  -6 11346.3 709.457   6
   7   0   6 10908.0 648.304  10
   7   0   6 10933.6 640.383   8
   7   0   6 11336.7 555.917  36
   8   0   6 493.398 149.478  14
  -8   0  -6 485.405 172.761   6
   8   0   6 613.241 154.652  10
   8   0   6 238.971 133.866   8
   8   0   6 332.843 95.3813  36
 -11   1   6 8039.39 414.158  33
 -11   1   6 8714.50 438.493  25
 -11  -1   6 8447.64 434.567  25
  11   1  -6 7733.78 471.930   4
 -11   1   6 8026.53 423.560  37
 -11  -1   6 8505.07 483.561  37
 -10   1   6 1023.98 184.507  33
  10   1  -6 1583.40 249.123   4
 -10   1   6 1403.45 200.578  25
 -10   1   6 753.242 130.829  24
 -10   1   6 777.626 154.246  37
 -10  -1   6 745.413 184.011  37
  -9   1   6 809.529 183.421  33
   9   1  -6 886.085 246.565   4
  -9   1   6 775.769 144.832  26
  -9  -1   6 802.121 211.371  11
  -9   1   6 766.710 185.044  25
  -9   1   6 442.467 119.995  24
  -9  -1   6 499.656 143.552  10
  -9   1   6 804.992 175.333  37
  -9  -1   6 646.821 185.988  37
  -8   1   6 448.534 188.733  33
   8   1  -6 455.997 174.451   4
  -8   1   6 65.0680 94.4279  26
  -8  -1   6 205.305 147.519  11
  -8   1   6 212.380 123.102  25
  -8   1   6 324.627 103.519  24
  -8  -1   6 312.111 160.636  10
  -8   1   6 308.257 139.295  37
  -8  -1   6 61.6374 120.150  37
   7   1  -6 594.853 189.401   4
  -7   1   6 555.895 185.708  33
  -7  -1   6 646.756 167.579  31
  -7   1   6 664.229 155.894  31
  -7   1   6 791.261 169.210  26
  -7   1   6 874.685 204.117  25
  -7   1   6 931.898 182.829   2
  -7   1   6 775.830 142.556  23
  -7  -1   6 751.815 191.564  10
  -7   1   6 751.383 153.351   9
  -7  -1   6 861.079 159.379   9
  -7   1   6 415.034 162.956  37
  -7  -1   6 563.525 181.982  37
   6   1  -6 2159.50 333.131   4
  -6   1   6 2369.12 334.488  33
  -6  -1   6 2909.96 544.636  32
  -6   1   6 2057.52 494.645  32
  -6  -1   6 2081.00 262.111  31
  -6   1   6 2271.37 282.790  31
   6   1  -6 2402.95 301.895  28
  -6  -1   6 2400.73 291.514   2
  -6   1   6 1717.08 353.478  27
  -6   1   6 2596.94 292.921  26
  -6   1   6 2495.79 289.270   2
  -6   1   6 2673.06 316.010  25
  -6   1   6 2275.12 250.443  23
  -6  -1   6 1827.45 313.834  10
   6  -1  -6 2337.72 530.917  41
   6   1  -6 1550.39 376.414  41
  -6   1   6 2693.16 285.629   9
  -6  -1   6 2276.54 264.684   9
  -6   1   6 2416.20 333.733  37
  -6  -1   6 2239.67 331.328  37
  -5   1   6 8101.31 588.052  33
  -5  -1   6 8086.03 836.709  32
  -5   1   6 6989.81 776.658  32
  -5  -1   6 7682.54 533.771  31
  -5   1   6 8159.66 553.105  31
   5   1  -6 7549.96 553.659  28
  -5   1   6 8428.47 810.962  27
  -5   1   6 7490.91 521.782  26
  -5   1   6 8661.96 549.637  25
  -5  -1   6 8406.33 603.335  10
  -5   1   6 8155.11 508.626  23
  -5   1   6 8440.06 534.329   9
   5  -1  -6 7265.02 913.932  41
  -5  -1   6 8211.19 525.952   9
   5   1  -6 7775.08 860.442  41
  -5  -1   6 7451.64 544.460   2
   5   1  -6 8864.39 661.282   4
  -5   1   6 7931.65 546.717   2
  -5   1   6 8154.37 588.337  37
  -5  -1   6 8382.54 613.949  37
   4   1  -6 182.203 140.886   4
  -4   1   6 151.774 158.144  33
  -4  -1   6-51.2097 186.407  32
  -4   1   6 204.478 257.400  32
  -4  -1   6 4.03265 122.448  31
  -4   1   6-56.6477 142.089  31
  -4  -1   6-4.35239 140.253   2
   4   1  -6 99.8455 123.815  28
  -4   1   6-157.285 190.062  27
  -4   1   6 251.047 136.550  26
  -4   1   6-46.2246 138.885   2
  -4   1   6-82.3758 114.225  25
  -4   1   6 114.894 97.9461  23
  -4  -1   6 7.54218 138.050  10
   4   1  -6-456.616 380.062  42
   4  -1  -6 308.423 267.481  41
   4   1  -6 336.886 224.929  41
  -4   1   6 93.9916 147.561   9
  -4  -1   6 6.20133 121.399   9
  -4  -1   6 271.125 280.506  39
  -4   1   6-60.0422 108.961  37
  -4  -1   6 139.996 128.567  37
  -3   1   6 13399.9 741.734  33
  -3  -1   6 12532.5 1047.66  32
  -3   1   6 12877.6 1079.84  32
  -3  -1   6 12141.5 699.641  31
  -3   1   6 12360.3 719.860  31
   3   1  -6 12588.4 1137.42  12
  -3   1   6 11350.6 975.975  27
  -3   1   6 12265.6 678.235  26
  -3   1   6 12454.0 645.878  25
  -3  -1   6 13414.6 781.682  10
  -3   1   6 13962.9 704.221  23
   3  -1  -6 11767.6 1005.33  42
   3   1  -6 10328.8 1019.14  42
   3  -1  -6 12583.8 1162.37  41
  -3  -1   6 12776.2 747.852   2
   3   1  -6 14210.5 1118.38  41
  -3   1   6 13192.0 705.132   9
  -3  -1   6 14348.5 727.461   9
   3   1  -6 12781.6 772.122   4
  -3  -1   6 11673.9 1037.54  39
  -3   1   6 13150.5 757.440   2
  -3   1   6 12742.9 746.061  37
  -3  -1   6 12324.8 748.359  37
  -2   1   6 6769.09 505.486  33
  -2  -1   6 5732.63 715.549  32
  -2   1   6 5693.45 735.156  32
  -2  -1   6 7481.87 534.110  31
  -2   1   6 7067.48 526.600  31
  -2   1   6 7320.34 782.020  27
   2   1  -6 6689.77 824.139  12
   2  -1  -6 6331.01 924.515  12
  -2   1   6 7182.11 496.379  26
  -2   1   6 6429.71 433.144  25
  -2  -1   6 6847.69 570.997  10
  -2   1   6 6507.91 472.167  23
   2   1  -6 7827.42 862.687  42
   2  -1  -6 7023.10 789.004  42
  -2  -1   6 7260.20 558.270   2
   2   1  -6 7160.06 773.835  41
  -2   1   6 7261.88 517.831   9
   2  -1  -6 6434.10 826.401  41
  -2  -1   6 7756.34 527.907   9
   2   1  -6 7119.79 554.940   4
  -2  -1   6 6056.17 724.274  39
  -2   1   6 6873.93 541.343   2
  -2   1   6 7272.03 551.264  37
  -2  -1   6 7785.63 581.239  37
  -1   1   6 35664.6 1321.07  33
  -1  -1   6 34848.6 1853.27  32
  -1   1   6 37261.6 1940.86  32
  -1  -1   6 38110.2 1378.99  31
  -1   1   6 37008.0 1382.83  31
   1   1  -6 35508.5 1979.48  12
   1  -1  -6 35157.3 2228.15  12
  -1   1   6 34207.6 1812.70  27
  -1   1   6 38873.4 1313.16  26
  -1  -1   6 37241.5 1474.15  10
  -1   1   6 38492.5 1343.90  23
   1  -1  -6 36601.3 1961.91  42
   1   1  -6 34817.1 1957.97  42
  -1  -1   6 33855.7 1370.91   2
   1  -1  -6 34682.9 1966.57  41
  -1   1   6 39983.8 1390.46   9
  -1  -1   6 39370.8 1365.83   9
   1   1  -6 35593.9 1996.43  40
  -1  -1   6 32847.3 1727.09  39
  -1   1   6 38617.4 1432.47   2
  -1   1   6 38377.4 1416.26  37
  -1  -1   6 39242.6 1464.40  37
  -1  -1   6 32116.4 1351.56   8
   0  -1   6 2691.28 347.241   8
   0  -1   6 2613.01 526.877  32
   0   1   6 3222.88 543.572  32
   0  -1   6 2915.02 338.483  31
   0   1   6 2881.41 337.993  31
   0  -1   6 2897.68 354.744   2
   0   1   6 2680.36 489.606  27
   0   1  -6 4464.72 704.450  12
   0  -1  -6 2727.55 669.765  12
   0   1   6 2168.03 265.744  26
   0   1   6 3489.61 384.091   2
   0   1   6 2867.67 312.102  23
   0  -1   6 2659.11 350.216  10
   0  -1  -6 2611.24 533.317  42
   0   1  -6 3554.26 655.598  42
   0  -1  -6 3342.28 604.527  41
   0  -1  -6 2498.69 481.879  40
   0   1  -6 1892.89 461.749  40
   0   1   6 2707.92 319.244   9
   0  -1   6 2615.28 310.782   9
   1  -1   6 8967.73 874.287  32
   1   1   6 9744.46 924.757  32
   1  -1   6 9648.44 597.189  31
   1   1   6 8834.78 579.716  31
  -1   1  -6 10655.4 1053.99  12
  -1  -1  -6 10718.7 1207.55  12
   1   1   6 8441.45 836.946  27
   1   1   6 8617.86 521.880  26
   1  -1   6 11191.6 725.182  10
   1   1   6 9036.66 562.142  23
  -1  -1  -6 8086.37 945.557  42
  -1   1  -6 8822.82 965.391  42
  -1  -1  -6 9638.39 971.258  41
   1  -1   6 10044.1 636.754   2
   1   1   6 9534.67 587.269   9
   1  -1   6 10193.3 596.900   9
  -1  -1  -6 9191.17 988.602  40
  -1   1  -6 8207.46 941.902  40
   1   1   6 9166.47 612.852   2
   1  -1   6 9989.10 664.755   8
   2  -1   6 17184.4 1213.16  32
   2   1   6 15494.2 1178.20  32
   2  -1   6 18522.7 842.937  31
   2   1   6 18201.5 847.962  31
  -2   1  -6 16824.3 874.238  28
  -2   1  -6 17328.6 1361.16  12
  -2  -1  -6 18776.2 1582.96  12
   2   1   6 15254.1 1139.59  27
   2   1   6 16590.9 719.771  26
   2  -1   6 18709.0 977.986  10
   2   1   6 16797.8 785.567  23
  -2  -1  -6 15851.4 1336.76  42
  -2   1  -6 17084.1 1350.50  42
  -2  -1  -6 18236.0 1343.42  41
   2   1   6 17655.3 821.425   9
   2  -1   6 17023.4 846.894   2
   2  -1   6 18300.2 823.201   9
  -2  -1  -6 17551.6 1377.64  40
  -2   1  -6 16458.2 1347.68  40
   2   1   6 17849.0 860.273   2
   2  -1   6 18436.9 945.467   8
   3  -1   6-103.929 139.501   8
   3  -1   6-66.0909 212.793  32
   3   1   6-686.469 281.632  32
   3   1   6 4.65094 172.418  14
   3  -1   6-141.523 128.530  31
   3   1   6-56.3988 131.682  31
   3  -1   6 169.525 134.550   2
  -3   1  -6-60.7024 107.428  28
   3   1   6 195.662 269.964  27
  -3  -1  -6-134.242 280.443  12
   3   1   6-103.622 120.326   2
   3   1   6-95.4829 140.135  23
   3  -1   6-96.3895 134.576  10
  -3  -1  -6 385.936 292.723  42
  -3   1  -6-1197.62 389.190  42
  -3  -1  -6-62.5957 317.499  41
   3   1   6 217.405 168.845   9
  -3  -1  -6-324.046 302.051  40
  -3   1  -6-226.155 319.431  40
   3  -1   6-219.326 150.652   9
   4   1   6 8330.99 605.458  14
   4  -1   6 8526.24 504.917  31
   4   1   6 8594.39 504.650  31
  -4   1  -6 8210.14 538.133  28
  -4  -1  -6 9644.99 1132.30  12
   4  -1   6 8072.80 631.142  10
   4   1   6 8435.16 475.257  23
  -4  -1  -6 10278.5 1048.80  42
  -4   1  -6 7603.81 857.493  42
   4   1   6 9120.29 512.852   9
   4  -1   6 9535.32 512.537   9
   4  -1   6 8573.68 532.259   2
  -4  -1  -6 8552.81 1015.18  40
  -4   1  -6 7745.65 914.413  40
   4  -1   6 9452.56 665.446   8
   4   1   6 9253.57 538.703   2
  -4   1  -6 8715.68 535.302  35
   5   1   6 1266.02 240.173  14
   5  -1   6 1129.50 228.194  14
   5   1   6 1164.69 207.089  10
   5  -1   6 994.501 257.402  10
   5   1   6 1065.66 206.814   8
   5  -1   6 846.244 234.302   8
   6   1   6 2625.93 320.832  14
   6  -1   6 2111.14 294.291  14
  -6   1  -6 2118.80 294.720   6
  -6  -1  -6 2202.85 334.941   6
   6   1   6 1707.03 236.488  10
   6  -1   6 2287.94 324.362  10
   6   1   6 2174.78 259.806   8
   6   1   6 2092.05 261.718  36
   6  -1   6 2559.34 340.771   8
   7   1   6 854.803 192.569  14
   7  -1   6 1114.33 185.864  14
  -7   1  -6 940.053 201.352   6
  -7  -1  -6 1006.91 213.941   6
   7  -1   6 1006.47 219.143  10
   7   1   6 566.727 151.293   8
   7   1   6 1049.27 173.837  36
   7  -1   6 860.195 206.094   8
  -8   1  -6 5973.19 399.768   6
  -8  -1  -6 5581.82 419.370   6
   8  -1   6 5095.71 407.956  10
   8  -1   6 5476.62 410.928   8
   8   1   6 5141.32 346.356  18
   8   1   6 4116.05 279.264  36
  10   2  -6 1753.19 238.758   4
 -10   2   6 1704.30 200.611  33
 -10   2   6 1707.17 190.108  25
 -10   2   6 1683.47 167.248  24
 -10  -2   6 1585.87 204.044  10
 -10  -2   6 1652.50 194.755  37
   9   2  -6 58.7373 126.930   4
  -9   2   6 223.283 124.883  33
  -9   2   6 66.2252 86.1949  25
  -9   2   6 111.274 75.5421  24
  -9  -2   6 395.522 142.677  10
  -9  -2   6 93.7563 87.6438  37
   8   2  -6 959.250 231.144   4
  -8   2   6 810.324 185.335  33
   8   2  -6 650.663 139.855  16
  -8   2   6 822.801 144.886  26
  -8   2   6 912.779 187.892  25
  -8   2   6 957.429 160.799  24
  -8  -2   6 914.183 214.726  10
  -8  -2   6 777.005 171.885  37
  -7   2   6 8832.48 583.835  33
   7   2  -6 8753.41 514.333  16
  -7  -2   6 8187.73 475.312  31
  -7   2   6 8182.66 481.924  26
  -7   2   6 8997.71 540.661  25
  -7   2   6 8500.05 484.700  24
  -7   2   6 8257.26 422.018  23
  -7  -2   6 8764.02 609.945  10
   7   2  -6 8093.86 450.314   5
  -7   2   6 7034.96 428.795   9
  -7  -2   6 9141.61 466.049   9
   7   2  -6 8733.95 647.278   4
  -7  -2   6 8420.03 547.007  37
  -6   2   6 8692.97 574.799  33
   6   2  -6 8630.53 532.698  16
  -6  -2   6 8999.51 528.398  31
  -6   2   6 8323.78 514.116  31
   6   2  -6 6992.39 493.439  28
  -6   2   6 9004.64 531.164  26
  -6   2   6 7691.46 523.271  25
  -6   2   6 8553.55 494.350  24
  -6   2   6 7905.31 457.347  23
  -6  -2   6 6971.24 582.259  10
   6   2  -6 8489.68 499.843   5
  -6   2   6 8032.54 486.297   9
  -6  -2   6 7802.82 518.189   2
  -6  -2   6 8790.49 501.131   9
   6   2  -6 8123.47 654.005   4
  -6   2   6 7169.94 455.836  37
  -6  -2   6 7804.12 549.625  37
  -6   2   6 8437.85 514.180   2
   5   2  -6 87.3835 161.815   4
  -5   2   6 197.746 157.378  33
   5   2  -6-69.9815 128.523  16
  -5  -2   6 105.288 116.894  31
  -5   2   6 210.577 149.953  31
  -5  -2   6 169.261 153.211   2
   5   2  -6-51.7304 131.859  28
  -5   2   6 113.636 111.815  26
  -5   2   6 81.1658 120.157  25
  -5   2   6 28.3603 88.6694  24
  -5   2   6 18.7690 115.584   2
  -5   2   6-7.28459 100.556  23
  -5  -2   6 100.305 158.149  10
  -5   2   6 2.89474 125.379   9
   5   2  -6-119.461 131.711   5
  -5  -2   6 345.286 145.528   9
  -5   2   6 44.0095 89.6305  37
  -5  -2   6 73.6835 111.377  37
  -4   2   6 5615.14 467.231  33
   4   2  -6 6171.44 458.803  16
  -4  -2   6 5722.48 733.530  32
  -4  -2   6 6067.72 465.502  31
  -4   2   6 5876.50 474.086  31
   4   2  -6 6415.86 504.761  28
  -4   2   6 6333.87 702.930  27
  -4   2   6 6209.47 464.870  26
  -4   2   6 5636.80 430.887  25
   4   2  -6 5908.89 835.654   3
  -4   2   6 6868.46 428.775  24
  -4  -2   6 6150.85 550.520  10
  -4   2   6 6448.67 448.024  23
  -4  -2   6 5170.87 461.797   2
  -4   2   6 6114.75 464.587   9
   4  -2  -6 7364.62 924.743  41
   4   2  -6 5825.74 539.903   4
  -4  -2   6 4548.71 663.608  39
  -4   2   6 5685.42 413.981  37
  -4  -2   6 5240.39 452.785  37
  -4   2   6 6196.67 484.632   2
  -3   2   6 5418.08 452.570  33
   3   2  -6 6159.97 459.927  16
  -3  -2   6 4984.76 678.327  32
  -3  -2   6 5653.69 457.812  31
  -3   2   6 5785.98 474.737  31
   3   2  -6 5703.10 492.882  28
  -3   2   6 4451.93 590.353  27
   3  -2  -6 5139.30 844.580  12
  -3   2   6 5437.44 440.041  26
  -3   2   6 4920.99 399.597  25
  -3   2   6 6007.27 395.764  24
  -3  -2   6 6439.31 559.909  10
  -3   2   6 5916.75 440.860  23
  -3  -2   6 6165.09 501.106   2
  -3   2   6 5318.04 450.261   9
   3  -2  -6 4953.31 760.031  41
   3   2  -6 5954.42 541.620   4
  -3  -2   6 6257.73 777.174  39
  -3  -2   6 5391.02 449.439  37
  -3   2   6 5905.61 486.996   2
  -2   2   6-22.5222 124.865  33
   2   2  -6 200.294 114.398  16
  -2  -2   6 402.646 245.391  32
  -2  -2   6 276.938 164.541  31
  -2  -2   6 227.986 150.078   2
  -2   2   6 24.4174 139.819  31
   2   2  -6 480.735 217.379  28
  -2   2   6 269.117 249.925  27
   2  -2  -6 844.803 349.578  12
  -2   2   6 508.098 175.755  26
  -2   2   6 445.716 147.204  25
  -2   2   6 222.686 176.572   2
  -2   2   6 408.801 160.185  23
  -2  -2   6 269.553 150.394  10
   2   2  -6 184.388 275.665  42
   2  -2  -6 321.705 316.092  41
  -2   2   6 218.194 151.971   9
  -2  -2   6 50.0935 211.402  39
  -2  -2   6 600.995 192.841  37
   2   2  -6 93.5420 161.556   4
  -2   2   6 284.737 128.340  36
  -1   2   6 664.094 168.826  33
  -1  -2   6 609.558 230.395  32
  -1  -2   6 494.385 175.000   2
  -1  -2   6 465.702 169.089  31
  -1   2   6 523.231 190.979  31
   1   2  -6 823.116 225.991  28
  -1   2   6 136.256 191.950  27
   1  -2  -6-178.724 306.889  12
  -1   2   6 519.070 153.511  26
  -1   2   6 458.664 140.650  25
  -1   2   6 219.672 168.898   2
  -1   2   6 559.492 159.731  23
  -1  -2   6 931.961 254.961  10
   1  -2  -6 879.050 370.372  42
   1   2  -6-94.6129 334.087  42
   1  -2  -6 87.8197 207.351  41
  -1   2   6 461.368 186.130   9
  -1  -2   6 297.722 186.697  39
  -1   2   6 220.105 124.876  36
   0  -2   6 2111.43 325.900   8
   0  -2   6 1843.65 460.588  32
   0   2   6 2203.88 278.362  14
   0  -2   6 2136.73 286.506  31
   0  -2   6 1728.92 280.735   2
   0   2   6 1989.53 287.300  31
   0   2  -6 1738.79 292.021  28
   0   2   6 2023.02 425.597  27
   0  -2  -6 1381.85 489.195  12
   0   2   6 2057.73 260.590  26
   0   2   6 1786.41 282.738   2
   0   2   6 1896.85 270.236  23
   0  -2   6 1976.90 338.201  10
   0  -2  -6 2042.13 524.848  42
   0   2  -6 2568.15 538.619  42
   0  -2  -6 2502.72 503.669  41
   0   2   6 1952.91 279.034   9
   0  -2   6 1100.88 275.644  39
   0   2   6 1231.65 227.957  36
   1  -2   6 97.6206 192.096   8
   1  -2   6-8.23136 193.317  32
   1   2   6-143.288 131.922  14
   1  -2   6-94.9364 116.805  31
   1   2   6 22.8731 114.802  31
   1  -2   6-28.0768 136.211   2
  -1   2  -6 142.231 142.094  28
   1   2   6 52.0399 220.206  27
  -1  -2  -6 225.393 296.553  12
   1   2   6-103.160 107.759  26
   1   2   6-103.032 141.718   2
   1   2   6 25.1379 111.681  23
   1  -2   6 468.341 209.460  10
  -1  -2  -6-636.114 366.614  42
  -1   2  -6 107.238 271.349  42
  -1  -2  -6-127.138 209.214  41
   1   2   6-133.524 134.837   9
   1   2   6-56.0020 112.974  36
   2  -2   6 3598.78 420.483   8
   2   2   6 3557.12 353.625  14
   2  -2   6 4027.44 361.830  31
   2   2   6 4258.29 391.132  31
  -2   2  -6 3907.49 397.997  28
   2   2   6 3753.23 308.085  26
   2   2   6 3279.84 327.503  23
   2  -2   6 3925.57 449.242  10
   2  -2   6 4451.15 404.653   2
  -2  -2  -6 3820.46 714.474  42
  -2   2  -6 3601.99 630.401  42
  -2  -2  -6 4834.07 698.151  41
   2  -2   6 4125.02 359.016   9
   2   2   6 3376.89 338.049   9
   2   2   6 3486.96 357.385  36
   2   2   6 4161.04 381.005   2
   3  -2   6-2.58437 151.508   8
   3   2   6-93.4200 124.396  14
   3  -2   6-49.8162 112.839  31
   3   2   6 44.2327 102.255  31
   3  -2   6-243.593 142.899   2
  -3   2  -6-120.455 148.327  28
   3   2   6-39.2105 114.418   2
   3   2   6 32.7379 102.879  23
   3  -2   6 185.999 147.875  10
   3   2   6 8.60319 121.433   9
  -3   2  -6-79.8148 113.617   5
   3  -2   6 63.3182 102.094   9
   3   2   6 8.85692 121.634  36
   4  -2   6 24579.9 982.497   7
   4   2   6 27810.2 1055.94  14
   4  -2   6 24272.3 996.372  14
   4   2   6 24932.0 938.719  31
  -4   2  -6 25867.9 996.645  28
   4  -2   6 26142.5 1167.09  10
   4   2   6 24607.5 889.260  23
  -4   2  -6 26058.3 941.305   5
   4   2   6 24436.1 915.404   9
   4  -2   6 27388.0 931.535   9
   4  -2   6 25365.1 971.297   2
  -4   2  -6 22285.9 986.634   1
   4  -2   6 27121.0 1177.91   8
   4   2   6 25072.8 1024.94  36
  -4   2  -6 23832.3 1021.45  35
   4   2   6 27171.0 975.858   2
   5   2   6 79.1531 114.783  14
   5  -2   6 197.124 113.795  14
   5  -2   6-25.4644 101.656   7
  -5  -2  -6 147.531 135.554   6
   5  -2   6 31.5970 126.203  10
   5   2   6 145.323 108.212  36
   5   2   6 204.018 137.316  18
  -5   2  -6 66.2403 94.4257  35
   5  -2   6-282.867 192.415   8
   6  -2   6-208.562 115.753  14
   6  -2   6-177.427 119.015   7
  -6  -2  -6-247.897 150.357   6
   6  -2   6-334.265 151.053  10
   6   2   6-2.37561 92.7256  36
   6   2   6-59.3820 106.717  18
  -6   2  -6-8.72332 101.563  35
   6  -2   6-60.4553 117.280   8
  -7  -2  -6 1481.94 203.453   6
   7  -2   6 1951.43 255.251  10
   7   2   6 1564.70 193.810  36
   7   2   6 1715.67 201.482  18
  -7   2  -6 1797.68 196.676  35
   7  -2   6 1837.47 247.973   8
  -8   3   6 294.559 104.359  33
   8   3  -6 424.447 105.948  16
  -8   3   6 399.547 103.085  25
  -8   3   6 181.434 75.7659  24
  -8  -3   6 340.163 122.715  10
   8   3  -6 268.783 138.647   4
  -7   3   6 2404.47 254.233  33
   7   3  -6 2522.39 245.975  16
  -7   3   6 3024.05 238.565  26
  -7   3   6 2534.28 246.462  25
  -7   3   6 2256.66 221.952  24
  -7  -3   6 2417.76 297.651  10
   7   3  -6 2912.12 316.918   4
  -6   3   6 1640.20 211.857  33
   6   3  -6 1768.78 224.091  16
  -6  -3   6 1349.85 187.773  31
  -6   3   6 1615.33 202.727  31
  -6  -3   6 1758.91 220.007   2
   6   3  -6 1205.64 189.671  28
  -6   3   6 2104.36 223.533  26
   6   3  -6 1101.89 196.221   1
  -6   3   6 1692.25 217.913  25
  -6   3   6 1580.39 190.781  24
  -6   3   6 1440.69 168.186  23
  -6  -3   6 1305.54 233.760  10
   6   3  -6 1858.41 194.813  22
  -6   3   6 1379.26 186.487   2
   6   3  -6 1661.17 187.172   5
  -6  -3   6 1544.05 176.671   9
   6   3  -6 1590.51 254.473   4
   5   3  -6 1357.85 213.220  16
  -5   3   6 1546.36 213.600  33
  -5  -3   6 1270.19 198.526  31
  -5   3   6 1301.50 204.114  31
  -5  -3   6 1367.39 213.587   2
   5   3  -6 1327.85 200.207  28
   5   3  -6 1255.19 225.851   1
  -5   3   6 1487.86 208.835  26
  -5   3   6 1589.69 220.223  25
  -5   3   6 1548.06 193.442  24
  -5   3   6 1464.03 188.132  23
  -5  -3   6 1989.91 301.235  10
  -5   3   6 1509.66 217.307   2
   5   3  -6 1634.28 204.567  22
  -5   3   6 1337.52 190.062   9
   5   3  -6 1534.54 196.744   5
   5   3  -6 1425.72 268.606   4
  -4   3   6-20.2284 109.885  33
   4   3  -6 109.141 118.639  16
  -4  -3   6 39.1570 100.386  31
  -4  -3   6-206.793 151.255   2
  -4   3   6-87.1642 106.589  31
   4   3  -6-67.2726 103.872  28
   4   3  -6-45.2100 105.450   1
  -4   3   6 150.002 133.374  26
  -4   3   6 95.1749 117.396  25
  -4   3   6 165.023 95.7432  24
  -4   3   6 123.644 120.891  23
  -4  -3   6 128.380 148.083  10
  -4   3   6-66.7139 109.359   2
   4   3  -6 58.0276 107.137  22
  -4   3   6-84.1691 120.903   9
   4   3  -6 42.1994 102.555   5
   4   3  -6 23.9513 160.819   4
  -3   3   6 1712.59 212.056  33
  -3  -3   6 1093.60 211.910   2
  -3  -3   6 1631.07 233.896  31
  -3   3   6 1558.18 244.101  31
   3   3  -6 1639.95 275.259   1
   3   3  -6 1209.12 228.744  28
  -3   3   6 1304.04 215.899  26
  -3   3   6 1515.96 206.583  25
  -3   3   6 1766.78 224.075  24
  -3   3   6 1304.19 204.179  23
  -3   3   6 1255.90 209.632   2
  -3  -3   6 1546.99 300.876  10
  -3   3   6 1621.20 231.043   9
   3   3  -6 2274.75 269.803   5
  -2   3   6 8563.85 550.637   2
  -2  -3   6 7896.63 517.817  31
  -2   3   6 7063.78 511.669  31
   2   3  -6 6568.65 501.627  28
  -2   3   6 8161.63 500.611  26
  -2   3   6 7812.81 473.389  25
  -2   3   6 8020.00 456.995  24
  -2  -3   6 7162.43 568.250  10
  -2   3   6 6870.43 463.858  23
   2   3  -6 8393.11 530.620   5
  -2   3   6 7966.77 522.642   9
   2   3  -6 7109.80 558.844   1
  -1   3   6 27877.1 1090.84   2
  -1  -3   6 26934.1 1053.51  31
  -1   3   6 26629.3 1074.87  31
   1   3  -6 26622.4 1093.71  28
  -1   3   6 27347.1 1002.01  26
  -1   3   6 26112.3 952.655  25
  -1   3   6 27570.8 951.343  24
  -1  -3   6 22861.0 1112.93  10
  -1   3   6 25505.8 1006.31  23
   1   3  -6 26301.2 1045.35   5
  -1   3   6 24858.0 1027.15   9
   1   3  -6 26088.1 1153.26   1
  -1   3   6 25089.8 926.433  36
   0  -3   6 1568.55 281.571   8
   0  -3   6 1617.52 245.968   2
   0  -3   6 1638.93 249.846  31
   0   3   6 1721.00 252.426  31
   0   3  -6 1841.80 294.103   1
   0   3  -6 1646.15 256.354  28
   0   3   6 1249.13 178.073  26
   0   3   6 1521.18 192.554  25
   0   3   6 1615.76 221.685  23
   0   3   6 1589.75 238.445   2
   0  -3   6 1641.17 282.783  10
   0   3   6 1560.62 245.164   9
   0   3  -6 1716.58 257.613   5
   0   3   6 1345.74 199.513  36
   1   3   6 5008.79 402.387   2
   1  -3   6 5355.69 397.642  31
   1   3   6 5441.54 421.215  31
  -1   3  -6 5206.83 424.694  28
   1   3   6 4593.71 340.254  26
   1   3   6 5690.21 336.738  25
   1  -3   6 5061.65 471.436  10
   1   3   6 5241.82 381.493  23
  -1   3  -6 5745.87 420.881   5
  -1   3  -6 5126.24 378.370  22
   1  -3   6 4726.80 394.209   2
   1   3   6 5095.26 390.801   9
  -1   3  -6 5055.06 462.179   1
   1  -3   6 5122.38 467.572   8
   1   3   6 5609.83 402.432  36
   2   3   6 5215.36 386.355   2
   2  -3   6 4786.79 359.385  31
   2   3   6 4424.60 362.741  31
  -2   3  -6 5614.17 417.542  28
   2   3   6 4624.04 308.722  26
   2  -3   6 4272.86 425.290  10
   2   3   6 4989.62 349.958  23
  -2   3  -6 4591.65 358.187   5
  -2   3  -6 5315.76 364.224  22
   2   3   6 4996.51 368.729   9
   2  -3   6 4451.17 371.543   2
  -2   3  -6 3996.84 391.949   1
   2  -3   6 5636.74 467.915   8
   2   3   6 4174.45 314.289  18
   2   3   6 4491.48 361.899  36
   3  -3   6 1058.87 224.514   8
   3  -3   6 931.030 164.127  31
   3   3   6 1452.59 195.164  31
   3  -3   6 969.592 178.439   2
  -3   3  -6 853.532 163.403  28
  -3   3  -6 1148.06 212.123   1
   3   3   6 1014.18 163.722  23
   3  -3   6 844.156 202.152  10
  -3   3  -6 1179.57 169.418  22
   3   3   6 1244.41 192.039   2
   3   3   6 1207.66 171.146   9
  -3   3  -6 1080.81 166.444   5
   3  -3   6 1165.24 150.463   9
   3   3   6 1208.96 200.399  36
   3   3   6 799.905 149.021  18
   4  -3   6 991.135 212.156   8
   4   3   6 1046.01 135.501  23
   4  -3   6 1011.90 197.878  10
  -4   3  -6 978.587 136.134   5
   4   3   6 1129.07 187.801  36
   4   3   6 1134.40 162.065  18
  -4   3  -6 1140.43 191.847  35
   5  -3   6 1252.38 160.181   7
   5  -3   6 1284.53 199.004  10
   5   3   6 1370.07 179.722  36
   5   3   6 1069.41 147.820  18
  -5   3  -6 1148.45 182.418  35
   5  -3   6 1011.34 196.398   8
  -3   4   6 7905.03 387.917  26
  -3   4   6 7188.09 369.384  25
  -3   4   6 7510.47 360.862  24
  -3  -4   6 7818.10 454.575  10
  -3   4   6 7786.34 378.271  23
   3   4  -6 8217.55 394.358   5
   3   4  -6 7977.03 384.228  22
  -3  -4   6 7945.00 462.690   8
  -2  -4   6 2792.92 273.815   8
   2   4  -6 3165.08 284.315   1
  -2  -4   6 3184.00 257.092  31
   2   4  -6 3018.11 265.951  28
  -2   4   6 3010.56 234.724  26
  -2   4   6 2833.19 218.314  25
  -2  -4   6 2795.81 268.999  10
  -2   4   6 3071.39 236.019  23
   2   4  -6 3378.13 251.128   5
   2   4  -6 3203.56 242.854  22
  -1  -4   6 707.998 157.500   8
  -1  -4   6 982.609 145.423  31
  -1  -4   6 308.061 114.640   2
   1   4  -6 647.931 133.760  28
  -1   4   6 587.922 116.680  26
  -1   4   6 802.878 114.961  25
  -1   4   6 853.504 136.091  23
   1   4  -6 763.528 154.586   1
  -1  -4   6 840.941 159.783  10
   1   4  -6 701.222 120.412  22
   1   4  -6 721.841 132.989   5
   0  -4   6-27.9629 112.853   8
   0   4   6-3.35648 59.4149  26
   0   4   6 52.1916 53.4753  25
   0   4   6 55.1423 65.7895  23
   0  -4   6 169.944 97.6932  10
   0   4  -6-103.933 84.8038  22
   0   4  -6 107.274 77.5587   5
  -9   0   7 141.086 72.3058  26
  -9   0   7-26.2894 80.9997  25
  -9   0   7 125.215 94.7714  37
  -8   0   7 116.360 88.5258  26
  -8   0   7-8.91916 94.9939  25
  -8   0   7 55.8682 98.8380  37
  -7   0   7-107.560 110.946  26
  -7   0   7-101.413 82.5816  25
  -7   0   7 88.1879 82.7514   9
  -7   0   7 28.4029 118.214  37
  -6   0   7 50.2946 90.9585  31
   6   0  -7-53.6555 105.896  28
  -6   0   7-78.2530 105.110  26
  -6   0   7-213.381 146.192   2
  -6   0   7-3.72237 77.9982  25
  -6   0   7 59.7652 91.6962  23
  -6   0   7 101.170 110.536   9
  -6   0   7-64.0940 136.241  37
  -5   0   7-28.0280 110.656  31
  -5   0   7-10.1759 113.049   2
  -5   0   7 10.7494 125.184  26
  -5   0   7-177.032 91.8745  25
  -5   0   7 44.3765 102.157  23
  -5   0   7-116.755 116.953   9
  -5   0   7 138.769 143.663  37
  -4   0   7-234.786 154.314  31
  -4   0   7 119.951 126.012   2
  -4   0   7-195.727 146.954  26
  -4   0   7 1.08388 97.8318  23
  -4   0   7 19.6213 115.955   9
  -4   0   7 157.060 157.801  37
  -3   0   7 164.612 133.744  31
  -3   0   7-230.335 149.005   2
  -3   0   7 88.5846 118.204  26
  -3   0   7-26.2429 146.765   9
  -3   0   7 71.2810 127.988  37
  -2   0   7-116.420 164.617  31
  -2   0   7-165.657 175.349   2
  -2   0   7 95.0482 96.7803  26
  -2   0   7 118.695 133.215   9
  -2   0   7-105.673 132.487  37
  -1   0   7-132.686 127.119  31
  -1   0   7-142.285 154.739   2
  -1   0   7 29.7845 95.5063  26
  -1   0   7-15.2686 143.160   9
   0   0   7 128.761 147.656  31
   0   0   7-109.372 138.932   2
   0   0   7-21.2991 104.006  26
   0   0   7-176.593 158.909   9
   1   0   7 119.872 107.108  31
   1   0   7 141.295 124.038   2
   1   0   7 72.5635 84.7309  26
   1   0   7-71.5116 130.383  23
   1   0   7 129.631 98.5145  10
   1   0   7-44.6348 137.781   9
   2   0   7 126.522 117.808  31
   2   0   7 172.366 128.769   2
   2   0   7-39.5209 105.010  23
   2   0   7 65.4281 121.463  10
   2   0   7-171.913 136.494   9
   3   0   7-85.5596 147.572  14
   3   0   7 16.0479 105.571  31
  -3   0  -7 114.936 103.746  28
   3   0   7 157.733 113.167   2
   3   0   7 140.977 98.9822  23
   3   0   7 326.714 124.004  10
   3   0   7-44.1576 102.191   9
   4   0   7 55.5032 142.621  14
   4   0   7-21.5877 91.0433  10
   4   0   7 109.155 81.0637  23
   4   0   7-236.136 97.8248   9
   5   0   7-19.8831 112.767  14
  -5   0  -7 122.579 140.149   6
   5   0   7 41.2997 99.6662  10
   6   0   7-133.528 109.903  14
  -6   0  -7-225.343 137.208   6
  -9   1   7 1989.29 172.345  26
  -9  -1   7 2454.25 196.886  26
  -9   1   7 2175.02 210.434  25
  -9  -1   7 2231.14 199.002  25
  -9   1   7 2061.61 209.770  37
  -9  -1   7 2191.97 236.020  37
  -8   1   7 1244.94 205.492  33
  -8   1   7 975.295 146.609  26
  -8  -1   7 1029.74 156.017  26
  -8   1   7 1111.58 166.429  25
  -8  -1   7 1048.62 152.048  25
  -8   1   7 912.498 164.168  37
  -8  -1   7 986.695 187.474  37
   8   1  -7 1039.60 190.304   4
  -7   1   7 29962.5 1105.60  33
  -7   1   7 31332.6 1033.84  26
  -7   1   7 27651.6 1006.11  25
  -7  -1   7 27362.2 948.357  25
   7   1  -7 28854.3 1068.17   4
  -7   1   7 30007.7 1084.96  37
  -7  -1   7 28389.9 1124.16  37
  -6   1   7 1713.52 277.608  33
  -6  -1   7 1270.65 198.140  31
  -6   1   7 1228.26 193.210  31
   6   1  -7 1249.72 209.205  28
  -6  -1   7 1140.90 194.977   2
  -6   1   7 1465.09 218.356  26
  -6   1   7 1558.40 208.320  25
  -6  -1   7 1127.75 172.266  25
  -6   1   7 1358.06 213.231   2
  -6   1   7 1246.15 182.380  23
  -6   1   7 1369.56 192.953   9
  -6  -1   7 1849.35 227.748   9
  -6   1   7 1578.52 246.478  37
  -6  -1   7 1422.89 247.793  37
   6   1  -7 1459.72 239.272   4
  -5   1   7 6653.22 489.704  33
  -5  -1   7 6234.10 454.240  31
  -5   1   7 5920.11 444.415  31
   5   1  -7 5514.60 439.602  28
  -5   1   7 5900.72 433.001  26
  -5   1   7 5919.79 400.414  25
  -5  -1   7 6798.67 465.323  10
  -5   1   7 6683.53 421.676  23
  -5   1   7 6199.79 432.613   9
  -5  -1   7 6526.78 449.478   9
  -5  -1   7 6094.41 461.654   2
   5   1  -7 6874.51 479.896   4
  -5   1   7 6766.23 482.703  37
  -5  -1   7 5253.60 462.839  37
  -5   1   7 5992.90 453.343   2
  -4   1   7 6.42325 120.934  33
  -4  -1   7 81.5387 120.351  31
  -4   1   7-3.17529 114.530  31
   4   1  -7 51.9409 106.713  28
  -4  -1   7 180.544 164.895   2
  -4   1   7 159.327 145.109  26
  -4   1   7-16.3151 116.714   2
  -4   1   7-7.76101 88.4612  25
  -4   1   7-45.2853 106.121  23
  -4  -1   7 70.5481 121.768  10
  -4   1   7-158.832 140.463   9
  -4  -1   7 54.1324 130.429   9
  -4   1   7-112.043 122.742  37
  -4  -1   7 44.9173 129.635  37
  -3  -1   7 305.817 186.723  31
  -3   1   7 603.330 188.622  31
   3   1  -7 374.869 149.542  28
  -3  -1   7 85.7720 128.020   2
  -3   1   7 535.590 170.599  26
  -3   1   7 186.726 140.870   2
  -3   1   7 321.029 127.377  23
  -3  -1   7 637.226 167.137  10
  -3   1   7 308.472 147.555   9
  -3  -1   7 516.948 166.144   9
  -3   1   7 340.479 158.846  37
  -3  -1   7 313.022 150.700  37
  -2  -1   7 3906.49 381.535  31
  -2   1   7 3337.97 362.029  31
   2   1  -7 3731.50 407.518  28
  -2   1   7 2874.78 305.251  26
  -2   1   7 2997.46 352.684   2
  -2  -1   7 3794.32 381.186  10
  -2   1   7 2938.59 317.225  23
  -2  -1   7 3784.17 395.097   2
  -2   1   7 2931.72 327.768   9
  -2  -1   7 3610.72 354.739   9
  -2  -1   7 3374.47 371.797  37
  -1  -1   7 601.305 169.849   8
  -1  -1   7 703.850 193.102  31
  -1   1   7 957.880 225.758  31
   1   1  -7 611.369 194.096  28
  -1  -1   7 1017.05 239.921   2
  -1   1   7 393.072 125.285  26
  -1   1   7 602.988 199.008   2
  -1   1   7 374.616 157.225  23
  -1  -1   7 643.666 196.483  10
  -1   1   7 509.033 187.564   9
  -1  -1   7 1005.36 213.402   9
   0  -1   7 591.641 184.468   8
   0  -1   7 551.831 173.066  31
   0   1   7 866.507 213.422  31
   0   1  -7 561.637 181.918  28
   0  -1   7 342.710 188.737   2
   0   1   7 566.239 152.895  26
   0  -1   7 275.450 109.328  26
   0   1   7 812.289 217.477   2
   0   1   7 485.636 161.114  23
   0  -1   7 881.333 220.159  10
   0   1   7 596.346 172.982   9
   0  -1   7 732.787 173.607   9
   1   1   7 4604.11 409.789  14
   1  -1   7 4645.20 395.198  31
   1   1   7 4845.15 409.590  31
  -1   1  -7 4783.75 433.539  28
   1   1   7 4075.13 312.369  26
   1  -1   7 4280.24 411.511  10
   1   1   7 4732.96 373.347  23
   1   1   7 4779.30 391.531   9
   1  -1   7 4826.04 390.062   9
   1  -1   7 4760.92 420.268   2
   1   1   7 4392.14 397.624   2
   1  -1   7 4873.66 421.002   8
   2   1   7 5036.30 419.668  14
   2  -1   7 5468.37 409.360  31
   2   1   7 4743.72 387.648  31
  -2   1  -7 5453.43 436.762  28
   2  -1   7 4782.70 440.485  10
   2   1   7 4761.05 360.031  23
   2   1   7 4666.61 372.594   9
   2  -1   7 4854.46 371.434   9
   2  -1   7 5174.86 424.258   2
   2  -1   7 5312.24 431.464   8
   2   1   7 4810.44 399.496   2
   3   1   7 25727.3 1025.52  14
   3  -1   7 24534.4 1023.24  14
   3  -1   7 24708.5 915.237  31
   3   1   7 23672.0 901.254  31
  -3   1  -7 22437.2 932.593  28
   3  -1   7 24906.7 1053.02  10
   3   1   7 24393.2 870.917  23
   3   1   7 23683.2 883.715   9
   3  -1   7 24759.7 889.745   9
   3  -1   7 23351.5 931.576   2
   3  -1   7 22987.7 986.521   8
   3   1   7 25264.0 936.494   2
   4   1   7 15338.3 735.877  14
   4  -1   7 15014.0 731.634  14
   4  -1   7 16486.3 786.557  10
   4   1   7 14353.2 563.726  23
   4  -1   7 13571.2 556.019  23
  -4   1  -7 13364.7 569.264   5
   4  -1   7 15181.7 734.922   8
   4   1   7 15899.3 702.698  36
   5   1   7 502.163 151.759  14
   5  -1   7 485.232 140.838  14
  -5   1  -7 427.384 138.111   6
  -5  -1  -7 210.298 117.486   6
   5  -1   7 407.015 139.209  10
   5   1   7 349.708 107.174  36
   5  -1   7 350.777 120.993   8
   6   1   7-12.9798 91.3911  14
   6  -1   7 181.050 100.277  14
  -6   1  -7-40.6203 83.9629   6
  -6  -1  -7-32.4198 102.976   6
   6  -1   7-88.3251 82.1977  10
   6   1   7 81.0257 72.5939  36
   6  -1   7 192.267 94.7232   8
  -8   2   7 3384.07 265.830  33
  -8   2   7 2887.55 203.995  26
  -8   2   7 3021.68 232.800  25
  -8  -2   7 2433.95 212.429  37
   8   2  -7 2858.31 259.685   4
  -7   2   7 1005.95 175.557  33
  -7   2   7 1165.87 153.865  26
  -7   2   7 1085.04 159.545  25
  -7  -2   7 1002.52 175.321  10
  -7  -2   7 1394.67 188.497  37
   7   2  -7 1252.96 205.654   4
  -6   2   7 134.498 103.107  33
   6   2  -7-340.759 138.378   1
  -6  -2   7 380.161 124.624  31
  -6   2   7-20.1930 95.1870  31
   6   2  -7-123.604 108.701  28
  -6  -2   7 548.378 162.786   2
  -6   2   7 133.348 89.4065  26
  -6   2   7 76.3141 81.2219  25
  -6   2   7 89.1224 68.1247  23
  -6   2   7 221.767 122.181   2
  -6  -2   7 308.348 132.226  10
  -6   2   7 311.696 103.632   9
   6   2  -7 366.617 108.087   5
  -6  -2   7 154.331 87.0384   9
  -6  -2   7 255.053 116.465  37
   6   2  -7 104.212 117.676   4
  -5   2   7 1491.87 216.207  33
  -5  -2   7 1223.66 198.839  31
  -5   2   7 1161.19 192.774  31
   5   2  -7 884.235 173.653  28
  -5  -2   7 1067.72 176.396   2
  -5   2   7 1363.08 203.092  26
  -5   2   7 1084.28 161.098  25
  -5   2   7 1480.75 185.928  23
  -5   2   7 1655.71 223.839   2
  -5  -2   7 1180.12 227.483  10
  -5   2   7 1300.66 192.555   9
   5   2  -7 1071.58 171.252   5
  -5  -2   7 1671.82 206.401   9
  -5  -2   7 1458.49 210.772  37
  -4  -2   7 91.6493 113.247   8
  -4   2   7-265.441 141.914  33
  -4  -2   7 107.237 96.0343  31
  -4   2   7 200.716 113.999  31
  -4  -2   7 369.585 142.130   2
   4   2  -7-21.7894 107.791  28
  -4   2   7-67.5553 121.037  26
  -4   2   7 79.0740 82.3407  25
  -4   2   7-51.5370 106.841   2
  -4   2   7 130.284 103.935  23
  -4  -2   7 8.21251 114.525  10
  -4   2   7-112.375 109.968   9
   4   2  -7 118.800 107.142   5
  -4  -2   7 128.858 113.566   9
  -4  -2   7 97.2836 90.0675  37
  -3  -2   7-116.790 126.598   8
  -3  -2   7 16.4392 103.147  31
  -3   2   7-116.711 130.311  31
  -3  -2   7-70.0980 127.581   2
   3   2  -7-139.598 101.580  28
  -3   2   7 103.577 102.395  26
  -3   2   7 85.9437 83.3180  25
  -3   2   7 62.2280 132.132   2
  -3   2   7-7.28232 92.5370  23
  -3  -2   7 168.589 122.082  10
  -3   2   7 100.373 150.286   9
   3   2  -7-75.8578 117.216   5
  -3  -2   7 116.950 124.567   9
  -2  -2   7 4878.38 407.684  31
  -2   2   7 4946.05 411.553  31
   2   2  -7 4692.97 414.643  28
  -2   2   7 4453.57 359.899  26
  -2  -2   7 5831.69 477.570  10
  -2   2   7 5728.40 401.943  23
  -2   2   7 4908.83 395.068   9
  -2  -2   7 5140.44 429.706   2
  -2  -2   7 5711.44 410.988   9
  -2  -2   7 4971.57 413.094   8
  -2   2   7 5534.32 433.840   2
  -1  -2   7 9948.66 582.918  31
  -1   2   7 9430.07 581.310  31
   1   2  -7 9388.71 601.876  28
  -1   2   7 9917.57 520.009  26
  -1  -2   7 10081.6 639.559  10
  -1   2   7 10168.2 554.554  23
  -1   2   7 9618.59 556.433   9
  -1  -2   7 11240.7 634.855   2
  -1  -2   7 10383.4 569.418   9
  -1  -2   7 9610.67 592.090   8
  -1   2   7 9351.85 506.418  36
  -1   2   7 10309.9 602.901   2
   0  -2   7-3.32996 117.962   8
   0  -2   7 75.4683 107.314  31
   0   2   7 284.261 123.611  31
   0  -2   7 183.238 122.695   2
   0   2  -7 277.720 123.095  28
   0   2   7-64.3428 76.7996  26
   0   2   7 128.231 142.788   2
   0   2   7 75.1254 91.0929  23
   0  -2   7 65.4186 143.803  10
   0   2   7 164.986 130.955   9
   0   2  -7 64.7790 116.028   5
   0  -2   7 43.9276 110.839   9
   0   2   7 182.991 110.872  36
   1  -2   7 1341.18 234.233   8
   1  -2   7 1268.76 197.336  31
   1   2   7 922.877 184.783  31
   1  -2   7 976.703 186.978   2
  -1   2  -7 1204.76 204.441  28
   1   2   7 613.445 118.279  26
   1   2   7 821.298 178.234   2
   1   2   7 1173.92 193.069  23
   1  -2   7 1062.68 223.322  10
   1   2   7 747.167 170.138   9
  -1   2  -7 1113.92 191.346   5
   1  -2   7 1096.52 197.497   9
   1   2   7 1048.65 180.958  36
   2  -2   7 537.169 181.740   8
  -2   2  -7 243.547 109.846   1
   2  -2   7 493.304 139.190  31
   2   2   7 539.259 140.179  31
   2  -2   7 466.931 143.199   2
  -2   2  -7 750.301 167.313  28
   2   2   7 433.161 123.750  23
   2   2   7 431.620 133.774   2
   2  -2   7 537.119 174.637  10
   2   2   7 631.663 147.789   9
  -2   2  -7 363.098 136.541   5
   2  -2   7 668.036 144.806   9
   2   2   7 358.287 123.972  36
   2   2   7 360.434 109.508  18
   3   2   7 4078.99 310.672   2
   3  -2   7 3936.79 312.755  14
  -3   2  -7 4638.89 333.017  28
   3  -2   7 3415.29 352.106  10
   3   2   7 3966.99 271.917  23
  -3   2  -7 4495.22 299.541   5
   3   2   7 4013.93 280.924   9
   3  -2   7 4131.48 279.792   9
   3  -2   7 3877.30 299.384   2
   3  -2   7 4534.66 382.402   8
   3   2   7 4175.88 302.324  18
   3   2   7 4811.43 349.850  36
  -3   2  -7 3783.29 292.608  35
   4  -2   7 1708.47 189.289  14
  -4  -2  -7 2134.91 243.925   6
   4  -2   7 1724.39 234.162  10
   4   2   7 1630.84 197.792  36
   4   2   7 1477.29 180.507  18
  -4   2  -7 1672.48 181.242  35
   4  -2   7 1767.11 239.218   8
  -4   3   7 8331.62 413.270  26
  -4   3   7 8043.71 385.165  25
  -4  -3   7 8424.68 489.247  10
  -4   3   7 9296.15 412.231  23
   4   3  -7 8414.77 411.519   5
   4   3  -7 8684.69 409.987  22
  -4   3   7 8378.30 415.624   9
  -4  -3   7 9119.40 424.327   9
  -4  -3   7 8830.83 457.825   8
  -3   3   7 3778.15 296.384   2
  -3  -3   7 3559.28 284.604  31
  -3   3   7 3380.84 285.010  31
   3   3  -7 3459.12 286.522  28
  -3   3   7 2959.68 244.232  26
  -3   3   7 3221.71 225.600  25
  -3  -3   7 3087.06 299.694  10
  -3   3   7 3769.39 265.185  23
   3   3  -7 3771.91 274.152   5
   3   3  -7 3458.56 263.047  22
  -3   3   7 3405.87 268.666   9
  -3  -3   7 3191.21 291.439   2
  -3  -3   7 3700.66 272.784   9
   3   3  -7 3046.08 296.000   1
  -3  -3   7 3972.36 319.958   8
  -2  -3   7 679.795 157.614   8
  -2  -3   7 495.944 134.708  31
  -2   3   7 324.410 117.902  31
  -2  -3   7 514.121 138.981   2
   2   3  -7 513.833 134.959  28
   2   3  -7 652.190 167.009   1
  -2   3   7 363.598 104.411  26
  -2   3   7 371.473 93.1599  25
  -2   3   7 585.986 125.992  23
  -2  -3   7 444.312 158.058  10
  -2   3   7 696.045 154.223   2
   2   3  -7 606.870 137.932  22
  -2   3   7 549.567 131.708   9
   2   3  -7 556.783 137.342   5
  -2  -3   7 494.577 122.781   9
  -1   3   7 15673.0 653.115   2
  -1  -3   7 14953.9 632.385  31
  -1   3   7 14244.4 629.592  31
   1   3  -7 13426.0 633.027  28
  -1   3   7 13340.4 548.832  26
  -1  -3   7 13353.9 672.448  10
  -1   3   7 14377.1 586.970  23
   1   3  -7 13969.6 599.486   5
   1   3  -7 14993.4 601.002  22
  -1   3   7 13248.3 590.113   9
  -1  -3   7 14263.8 643.426   2
  -1  -3   7 14285.5 598.513   9
   1   3  -7 13353.2 668.139   1
  -1  -3   7 14937.8 675.761   8
   0  -3   7 1433.94 207.356   8
   0  -3   7 1270.79 165.575  31
   0   3   7 1474.02 188.065  31
   0  -3   7 1293.02 185.943   2
   0   3  -7 1304.51 173.448  28
   0   3   7 1359.90 144.737  26
   0   3  -7 1225.89 199.302   1
   0   3   7 1318.31 159.651  23
   0  -3   7 1721.47 230.894  10
   0   3   7 1453.12 185.880   2
   0   3  -7 1417.98 171.403  22
   0   3   7 1084.04 158.002   9
   0   3  -7 1373.83 169.076   5
   0  -3   7 1521.17 179.781   9
   1  -3   7 1733.36 216.100   8
   1   3   7 1505.85 165.921  23
   1  -3   7 1708.10 216.694  10
  -1   3  -7 1374.62 158.886  22
   1   3   7 1755.82 183.009   9
  -1   3  -7 1392.63 163.853   5
   1  -3   7 1879.13 180.588   9
   1   3   7 1449.86 154.849  36
  -6   0   8 6897.35 370.108  26
  -6   0   8 6467.74 333.950   9
  -6   0   8 6743.44 408.778  37
  -5   0   8 223.720 112.028  31
   5   0  -8 355.522 106.674  28
  -5   0   8 240.722 101.070  26
  -5   0   8 556.254 135.210   2
  -5   0   8 246.584 88.4497  23
  -5   0   8 138.298 90.8266   9
  -4   0   8 107.894 87.8179  31
   4   0  -8 54.5084 95.3322  28
  -4   0   8-31.5282 76.0728  26
  -4   0   8-18.0038 94.9161   2
  -4   0   8-5.19695 74.8039  23
  -4   0   8 78.0488 104.207   9
  -3   0   8 1084.84 191.429  31
   3   0  -8 1280.16 198.459  28
  -3   0   8 1115.00 164.109  26
  -3   0   8 1228.86 207.298   2
  -3   0   8 1117.02 169.640  23
  -3   0   8 1051.23 176.944   9
  -2   0   8 10057.5 554.788  31
   2   0  -8 10040.4 581.247  28
  -2   0   8 10253.3 487.418  26
  -2   0   8 10627.4 523.614  23
  -2   0   8 11275.5 552.381   9
  -2   0   8 10672.8 578.647   2
  -1   0   8 3663.61 324.037  31
   1   0  -8 3934.60 353.101  28
  -1   0   8 3682.11 269.507  26
  -1   0   8 3955.76 310.747  23
  -1   0   8 3939.80 319.861   9
  -1   0   8 4403.93 359.440   2
   0   0   8 4091.77 329.111  31
   0   0  -8 3578.60 335.207  28
   0   0   8 3734.89 288.971  23
   0   0   8 3580.95 294.916   9
   0   0   8 4347.85 342.050   2
   1   0   8 16209.1 716.080  14
   1   0   8 16067.0 676.993  31
  -1   0  -8 15612.1 703.037  28
   1   0   8 15539.8 624.388  23
   1   0   8 16502.9 651.171   9
   1   0   8 16118.0 686.673   2
   2   0   8 2763.00 266.253  14
   2   0   8 2186.77 194.616  23
   2   0   8 2517.89 215.021   9
  -5   1   8 955.804 147.972  26
  -5  -1   8 1038.96 143.963  26
  -5   1   8 1084.83 138.393  23
  -5  -1   8 1073.68 138.355  23
  -5   1   8 1119.89 149.928   9
  -5  -1   8 994.949 150.832   9
  -4  -1   8 6068.56 392.075  31
  -4   1   8 6035.36 399.447  31
   4   1  -8 5820.57 399.056  28
  -4   1   8 6434.50 369.083  26
  -4  -1   8 6458.75 367.799  26
  -4   1   8 6549.00 364.545  23
  -4  -1   8 6856.24 368.957  23
  -4   1   8 6285.52 377.369   9
  -4  -1   8 7242.38 396.533   9
  -4  -1   8 6739.08 414.483   2
  -4   1   8 6636.59 406.179   2
  -3  -1   8 147.099 98.1905  31
  -3   1   8 180.657 109.669  31
   3   1  -8 32.9914 92.1955  28
  -3  -1   8-118.261 117.262   2
  -3   1   8 30.7286 74.6702  26
  -3  -1   8-22.1624 88.2597  26
  -3   1   8 193.192 112.984   2
  -3   1   8-33.2255 83.6507  23
  -3  -1   8 71.0257 87.9760  23
  -3   1   8 115.886 113.052   9
  -3  -1   8 98.2880 89.5255   9
  -2  -1   8 14600.6 675.040  31
  -2   1   8 14973.5 681.683  31
   2   1  -8 15398.5 719.922  28
  -2   1   8 15231.5 609.354  26
  -2  -1   8 14634.9 586.900  26
  -2   1   8 15906.9 648.090  23
  -2   1   8 16532.0 678.544   9
  -2  -1   8 15824.5 666.368   9
  -2  -1   8 15878.1 706.644   2
  -2   1   8 15917.6 705.506   2
  -1   1   8 185.916 98.8479  14
  -1  -1   8-89.6563 86.7628  31
  -1   1   8 98.7674 104.656  31
   1   1  -8 75.1419 92.8682  28
  -1  -1   8-33.0468 90.5820   2
  -1   1   8 237.371 99.6446  26
  -1  -1   8 111.219 72.7162  26
  -1   1   8 265.016 113.819   2
  -1   1   8 43.9123 89.6843  23
  -1  -1   8 147.213 87.4761  23
  -1   1   8 71.7227 92.9450   9
  -1  -1   8 155.981 106.151   9
  -1   1   8 195.664 87.8540  36
   0  -1   8 2229.79 236.694  31
   0   1   8 2263.42 238.472  31
   0   1   8 2101.26 213.015  14
   0   1  -8 2225.51 249.322  28
   0  -1   8 2413.63 247.201   2
   0   1   8 1634.85 157.845  26
   0   1   8 2250.26 239.957   2
   0   1   8 2256.92 217.838  23
   0  -1   8 2325.97 217.938  23
   0   1   8 2432.22 238.453   9
   0  -1   8 2645.79 243.941   9
   0   1   8 2607.06 230.817  36
   1   1   8 4118.13 293.047  14
  -1   1  -8 3422.17 293.492  28
   1   1   8 3924.65 270.457  23
   1  -1   8 4150.73 276.226  23
   1   1   8 3850.37 278.186   9
   1  -1   8 3696.55 273.608   9
   1  -1   8 3800.43 301.825   2
   1   1   8 3905.19 283.544  36
   1   1   8 4017.82 305.681   2
   2   1   8-147.782 93.3532  14
   2  -1   8 103.662 88.0445  14
   2   1   8 11.7730 56.8702  23
   2  -1   8 23.9622 67.1266  23
   2   1   8-38.7493 85.4814   9
  -2   1  -8-11.3609 60.4798   5
   2  -1   8-54.6494 71.3645   9
   2   1   8 127.175 83.9608  36
   0   0   0    0.00    0.00   0

TITL exp_1101 in P2(1)/c
REM P2(1)/c (#14 in standard setting)
CELL 1.54184  12.287793   4.844233   7.093131  90.0000  97.5457  90.0000
ZERR    2.00   0.000249   0.000067   0.000135   0.0000   0.0019   0.0000
LATT  1
SYMM -x, y+1/2,-z+1/2
SFAC C H N O
UNIT 22.00 20.00 2.00 2.00
TREF
HKLF 4
END
;
_shelx_hkl_checksum              30160
loop_
_space_group_symop_operation_xyz
'x, y, z'
'-x, y+1/2, -z+1/2'
'-x, -y, -z'
'x, -y-1/2, z-1/2'
loop_
_atom_site_label
_atom_site_type_symbol
_atom_site_fract_x
_atom_site_fract_y
_atom_site_fract_z
_atom_site_U_iso_or_equiv
_atom_site_adp_type
_atom_site_occupancy
_atom_site_site_symmetry_order
_atom_site_calc_flag
_atom_site_refinement_flags_posn
_atom_site_refinement_flags_adp
_atom_site_refinement_flags_occupancy
_atom_site_disorder_assembly
_atom_site_disorder_group
O1 O 0.22676(7) 0.82232(18) 0.39671(13) 0.0171(3) Uani 1 1 d . . . . .
N1 N 0.07234(9) 0.4738(2) 0.20003(16) 0.0162(3) Uani 1 1 d D . . . .
H1N H 0.0913(13) 0.543(3) 0.0930(16) 0.019 Uiso 1 1 d D U . . .
H2N H 0.0446(12) 0.614(3) 0.258(2) 0.019 Uiso 1 1 d D U . . .
N2 N 0.17031(9) 0.3906(2) 0.31416(15) 0.0147(3) Uani 1 1 d D . . . .
H3N H 0.1830(13) 0.213(2) 0.326(2) 0.018 Uiso 1 1 d D U . . .
C1 C 0.24186(10) 0.5696(3) 0.40318(17) 0.0128(3) Uani 1 1 d . . . . .
C2 C 0.34380(10) 0.4456(3) 0.51277(18) 0.0139(3) Uani 1 1 d . . . . .
H2A H 0.341970 0.242617 0.496574 0.017 Uiso 1 1 calc R U . . .
H2B H 0.344997 0.486234 0.649818 0.017 Uiso 1 1 calc R U . . .
C3 C 0.44803(10) 0.5601(3) 0.44510(17) 0.0143(3) Uani 1 1 d . . . . .
H3A H 0.446770 0.518220 0.308222 0.017 Uiso 1 1 calc R U . . .
H3B H 0.449129 0.763354 0.459953 0.017 Uiso 1 1 calc R U . . .
loop_
_atom_site_aniso_label
_atom_site_aniso_U_11
_atom_site_aniso_U_22
_atom_site_aniso_U_33
_atom_site_aniso_U_23
_atom_site_aniso_U_13
_atom_site_aniso_U_12
O1 0.0167(5) 0.0094(5) 0.0249(5) -0.0001(3) 0.0015(4) 0.0007(3)
N1 0.0131(6) 0.0150(6) 0.0198(6) 0.0012(4) -0.0012(4) 0.0016(4)
N2 0.0133(6) 0.0094(5) 0.0206(6) 0.0010(4) -0.0010(4) 0.0012(4)
C1 0.0130(6) 0.0116(6) 0.0146(6) 0.0008(5) 0.0048(5) -0.0002(5)
C2 0.0144(7) 0.0104(6) 0.0167(6) 0.0003(5) 0.0011(5) 0.0000(5)
C3 0.0144(7) 0.0117(6) 0.0164(6) 0.0005(5) 0.0011(5) -0.0003(5)
loop_
_atom_type_symbol
_atom_type_description
_atom_type_scat_dispersion_real
_atom_type_scat_dispersion_imag
_atom_type_scat_source
C C 0.0181 0.0091 'International Tables Vol C Tables 4.2.6.8 and 6.1.1.4'
H H 0.0000 0.0000 'International Tables Vol C Tables 4.2.6.8 and 6.1.1.4'
N N 0.0311 0.0180 'International Tables Vol C Tables 4.2.6.8 and 6.1.1.4'
O O 0.0492 0.0322 'International Tables Vol C Tables 4.2.6.8 and 6.1.1.4'
loop_
_geom_angle_atom_site_label_1
_geom_angle_atom_site_label_2
_geom_angle_atom_site_label_3
_geom_angle
_geom_angle_site_symmetry_1
_geom_angle_site_symmetry_3
N2 N1 H1N 107.3(10) . .
N2 N1 H2N 107.7(10) . .
H1N N1 H2N 105.3(15) . .
C1 N2 N1 122.89(11) . .
C1 N2 H3N 119.7(11) . .
N1 N2 H3N 117.4(10) . .
O1 C1 N2 122.63(12) . .
O1 C1 C2 121.52(11) . .
N2 C1 C2 115.85(11) . .
C1 C2 C3 111.50(10) . .
C1 C2 H2A 109.3 . .
C3 C2 H2A 109.3 . .
C1 C2 H2B 109.3 . .
C3 C2 H2B 109.3 . .
H2A C2 H2B 108.0 . .
C3 C3 C2 112.43(13) 3_666 .
C3 C3 H3A 109.1 3_666 .
C2 C3 H3A 109.1 . .
C3 C3 H3B 109.1 3_666 .
C2 C3 H3B 109.1 . .
H3A C3 H3B 107.8 . .
loop_
_geom_bond_atom_site_label_1
_geom_bond_atom_site_label_2
_geom_bond_distance
_geom_bond_site_symmetry_2
O1 C1 1.2380(16) .
N1 N2 1.4181(15) .
N1 H1N 0.889(9) .
N1 H2N 0.886(9) .
N2 C1 1.3334(17) .
N2 H3N 0.877(9) .
C1 C2 1.5094(17) .
C2 C3 1.5297(17) .
C2 H2A 0.9900 .
C2 H2B 0.9900 .
C3 C3 1.522(2) 3_666
C3 H3A 0.9900 .
C3 H3B 0.9900 .
loop_
_geom_torsion_atom_site_label_1
_geom_torsion_atom_site_label_2
_geom_torsion_atom_site_label_3
_geom_torsion_atom_site_label_4
_geom_torsion
_geom_torsion_site_symmetry_1
_geom_torsion_site_symmetry_2
_geom_torsion_site_symmetry_3
_geom_torsion_site_symmetry_4
N1 N2 C1 O1 1.85(18) . . . .
N1 N2 C1 C2 -177.84(10) . . . .
O1 C1 C2 C3 -56.81(15) . . . .
N2 C1 C2 C3 122.88(12) . . . .
C1 C2 C3 C3 179.48(12) . . . 3_666
