#------------------------------------------------------------------------------
#$Date: 2022-05-03 11:32:04 +0300 (Tue, 03 May 2022) $
#$Revision: 274841 $
#$URL: file:///home/coder/svn-repositories/cod/cif/8/10/51/8105111.cif $
#------------------------------------------------------------------------------
#
# This file is available in the Crystallography Open Database (COD),
# http://www.crystallography.net/
#
# All data on this site have been placed in the public domain by the
# contributors.
#
data_8105111
loop_
_publ_author_name
'Liu, Yingfan'
'Li, Xiaochuan'
'Sun, Saisai'
'Ji, Guangqian'
'Son, Young-A.'
_publ_section_title
;
 Crystal structure of
 2,7-diiodo-1,3,6,8-tetramethyl-bis(difluoroboron)-1,2-bis((1H-pyrrol-2-yl)methylene)hydrazine,
 C14H14B2F4I2N4
;
_journal_issue                   2
_journal_name_full
'Zeitschrift f\"ur Kristallographie - New Crystal Structures'
_journal_page_first              371
_journal_page_last               372
_journal_paper_doi               10.1515/ncrs-2019-0678
_journal_volume                  235
_journal_year                    2020
_chemical_formula_moiety         'C14 H14 B2 F4 I2 N4'
_chemical_formula_sum            'C14 H14 B2 F4 I2 N4'
_chemical_formula_weight         589.71
_space_group_crystal_system      triclinic
_space_group_IT_number           2
_space_group_name_Hall           '-P 1'
_space_group_name_H-M_alt        'P -1'
_atom_sites_solution_hydrogens   geom
_atom_sites_solution_primary     dual
_cell_angle_alpha                108.189(6)
_cell_angle_beta                 110.492(7)
_cell_angle_gamma                98.678(7)
_cell_formula_units_Z            1
_cell_length_a                   7.5458(7)
_cell_length_b                   8.5659(6)
_cell_length_c                   8.6089(5)
_cell_measurement_reflns_used    1531
_cell_measurement_temperature    296.45(11)
_cell_measurement_theta_max      27.5490
_cell_measurement_theta_min      4.4650
_cell_volume                     473.56(8)
_computing_cell_refinement
'CrysAlisPro 1.171.38.43f (Rigaku OD, 2015) [1]'
_computing_data_collection
'CrysAlisPro 1.171.38.43f (Rigaku OD, 2015) [1]'
_computing_data_reduction
'CrysAlisPro 1.171.38.43f (Rigaku OD, 2015) [1]'
_computing_molecular_graphics    'Olex2 (Dolomanov et al., 2009) [2]'
_computing_publication_material  'Olex2 (Dolomanov et al., 2009) [2]'
_computing_structure_refinement  'ShelXL (Sheldrick, 2015) [3]'
_computing_structure_solution    'ShelXT (Sheldrick, 2015) [4]'
_diffrn_ambient_environment      air
_diffrn_ambient_temperature      296.45(11)
_diffrn_detector                 'CCD plate'
_diffrn_detector_area_resol_mean 8.0528
_diffrn_detector_type            EosS2
_diffrn_measured_fraction_theta_full 0.997
_diffrn_measured_fraction_theta_max 0.996
_diffrn_measurement_details
;
List of Runs (angles in degrees, time in seconds):

  # Type    Start    End  Width  t~exp~   \w     \q     \k     \f   Frames
--------------------------------------------------------------------------
  1  \w      1.00  91.00   1.00    5.00    --   21.82  38.00 -30.00   90
  2  \w     46.00  81.00   1.00    5.00    --   21.82  57.00   0.00   35
  3  \w      1.00  91.00   1.00    5.00    --   21.82  57.00-150.00   90
  4  \w     39.00  74.00   1.00    5.00    --   21.82-112.00 -50.00   35
  5  \w    -47.00  48.00   1.00    5.00    --   21.82 -57.00  60.00   95
  6  \w    -63.00 -37.00   1.00    5.00    --  -22.83 112.00  42.00   26
;
_diffrn_measurement_device       'four-circle diffractometer'
_diffrn_measurement_device_type  'SuperNova, Dual, Cu at zero, EosS2'
_diffrn_measurement_method       '\w scans'
_diffrn_orient_matrix_type
'CrysAlisPro convention (1999,Acta A55,543-557)'
_diffrn_orient_matrix_UB_11      -0.0386281000
_diffrn_orient_matrix_UB_12      -0.0892624000
_diffrn_orient_matrix_UB_13      -0.0546564000
_diffrn_orient_matrix_UB_21      -0.0975222000
_diffrn_orient_matrix_UB_22      0.0061804000
_diffrn_orient_matrix_UB_23      -0.0196735000
_diffrn_orient_matrix_UB_31      -0.0028544000
_diffrn_orient_matrix_UB_32      0.0173453000
_diffrn_orient_matrix_UB_33      -0.0760585000
_diffrn_radiation_monochromator  mirror
_diffrn_radiation_probe          x-ray
_diffrn_radiation_type           MoK\a
_diffrn_radiation_wavelength     0.71073
_diffrn_reflns_av_R_equivalents  0.0419
_diffrn_reflns_av_unetI/netI     0.0416
_diffrn_reflns_Laue_measured_fraction_full 0.997
_diffrn_reflns_Laue_measured_fraction_max 0.996
_diffrn_reflns_limit_h_max       6
_diffrn_reflns_limit_h_min       -9
_diffrn_reflns_limit_k_max       9
_diffrn_reflns_limit_k_min       -10
_diffrn_reflns_limit_l_max       10
_diffrn_reflns_limit_l_min       -10
_diffrn_reflns_number            2991
_diffrn_reflns_point_group_measured_fraction_full 0.997
_diffrn_reflns_point_group_measured_fraction_max 0.996
_diffrn_reflns_theta_full        25.242
_diffrn_reflns_theta_max         26.497
_diffrn_reflns_theta_min         3.365
_diffrn_source                   'micro-focus sealed X-ray tube'
_diffrn_source_type              'SuperNova (Mo) X-ray Source'
_exptl_absorpt_coefficient_mu    3.363
_exptl_absorpt_correction_T_max  1.00000
_exptl_absorpt_correction_T_min  0.45609
_exptl_absorpt_correction_type   multi-scan
_exptl_absorpt_process_details
;
CrysAlisPro 1.171.38.43f (Rigaku Oxford Diffraction, 2015)
Empirical absorption correction using spherical harmonics,
 implemented in SCALE3 ABSPACK scaling algorithm.
;
_exptl_crystal_colour            red
_exptl_crystal_colour_primary    red
_exptl_crystal_density_diffrn    2.068
_exptl_crystal_description       block
_exptl_crystal_F_000             278
_exptl_crystal_size_max          0.6
_exptl_crystal_size_mid          0.6
_exptl_crystal_size_min          0.4
_refine_diff_density_max         0.749
_refine_diff_density_min         -0.547
_refine_diff_density_rms         0.098
_refine_ls_extinction_coef       0.049(3)
_refine_ls_extinction_expression Fc^*^=kFc[1+0.001xFc^2^\l^3^/sin(2\q)]^-1/4^
_refine_ls_extinction_method     'SHELXL-2014/7 (Sheldrick 2014'
_refine_ls_goodness_of_fit_ref   1.074
_refine_ls_hydrogen_treatment    constr
_refine_ls_matrix_type           full
_refine_ls_number_parameters     121
_refine_ls_number_reflns         1960
_refine_ls_number_restraints     0
_refine_ls_restrained_S_all      1.074
_refine_ls_R_factor_all          0.0375
_refine_ls_R_factor_gt           0.0334
_refine_ls_shift/su_max          0.000
_refine_ls_shift/su_mean         0.000
_refine_ls_structure_factor_coef Fsqd
_refine_ls_weighting_details
'w=1/[\s^2^(Fo^2^)+(0.0371P)^2^+0.2700P] where P=(Fo^2^+2Fc^2^)/3'
_refine_ls_weighting_scheme      calc
_refine_ls_wR_factor_gt          0.0808
_refine_ls_wR_factor_ref         0.0831
_reflns_Friedel_coverage         0.000
_reflns_Friedel_fraction_full    .
_reflns_Friedel_fraction_max     .
_reflns_number_gt                1785
_reflns_number_total             1960
_reflns_threshold_expression     'I > 2\s(I)'
_cod_data_source_file            suppl_ncrs-2019-0678_suppl.cif
_cod_data_source_block           20170629sss
_cod_original_cell_volume        473.56(7)
_cod_database_code               8105111
_chemical_oxdiff_formula         'C1 H1 F1 B1 N1 I1'
_shelx_space_group_comment
;
The symmetry employed for this shelxl refinement is uniquely defined
by the following loop, which should always be used as a source of
symmetry information in preference to the above space-group names.
They are only intended as comments.
;
_reflns_odcompleteness_completeness 99.74
_reflns_odcompleteness_iscentric 1
_reflns_odcompleteness_theta     26.32
_olex2_refinement_description
;
1. Fixed Uiso
 At 1.2 times of:
  All C(H) groups
 At 1.5 times of:
  All C(H,H,H) groups
2.a Aromatic/amide H refined with riding coordinates:
 C7(H7)
2.b Idealised Me refined as rotating group:
 C6(H6A,H6B,H6C), C5(H5A,H5B,H5C)
;
_shelx_res_file
;
    20170629sss.res created by SHELXL-2014/7

TITL 20170629sss_a.res in P-1
REM Old TITL 20170629SSS in P1 #1
REM SHELXT solution in P-1
REM R1 0.173, Rweak 0.022, Alpha 0.036, Orientation as input
REM Formula found by SHELXT: C7 B N3 F I
CELL 0.71073 7.5458 8.5659 8.6089 108.189 110.492 98.678
ZERR 1 0.0007 0.0006 0.0005 0.006 0.007 0.007
LATT 1
SFAC C H B N F I
UNIT 14 14 2 4 4 2

L.S. 25
PLAN  3
BOND $H
list 4
fmap 2
acta
OMIT -2 53
REM <olex2.extras>
REM <HklSrc "%.\\20170629SSS.hkl">
REM </olex2.extras>

WGHT    0.037100    0.270000
EXTI    0.049392
FVAR       0.85183
I1    6    0.064247    0.341606    0.128390    11.00000    0.05376    0.07234 =
         0.02760    0.01722    0.01207    0.02019
F2    5    0.560853    0.196626    0.772183    11.00000    0.10313    0.07155 =
         0.03691    0.01278    0.02320    0.06840
F1    5    0.261784    0.144181    0.774280    11.00000    0.10734    0.04789 =
         0.04050    0.00758    0.01740   -0.02916
N2    4    0.500662    0.585230    1.016589    11.00000    0.03769    0.02038 =
         0.02595    0.00440    0.01383    0.01116
N1    4    0.339102    0.343349    0.648965    11.00000    0.03512    0.02694 =
         0.02675    0.00446    0.00968    0.01138
C2    1    0.206740    0.391290    0.399673    11.00000    0.03530    0.04357 =
         0.02386    0.01051    0.01026    0.01289
C7    1    0.428129    0.625588    0.877453    11.00000    0.03732    0.02492 =
         0.03014    0.00774    0.01429    0.01210
AFIX  43
H7    2    0.430218    0.739749    0.902169    11.00000   -1.20000
AFIX   0
C1    1    0.251833    0.266438    0.467688    11.00000    0.03401    0.03290 =
         0.02493    0.00130    0.01025    0.01094
C4    1    0.349196    0.517007    0.698657    11.00000    0.03703    0.02667 =
         0.03212    0.01069    0.01522    0.01331
C3    1    0.265491    0.548808    0.541848    11.00000    0.03638    0.03829 =
         0.03253    0.01469    0.01727    0.01444
C6    1    0.242554    0.714806    0.532194    11.00000    0.05930    0.03836 =
         0.04196    0.01916    0.01934    0.01872
AFIX 137
H6A   2    0.327810    0.755142    0.483464    11.00000   -1.50000
H6B   2    0.277332    0.797615    0.651042    11.00000   -1.50000
H6C   2    0.107665    0.699182    0.455823    11.00000   -1.50000
AFIX   0
C5    1    0.214136    0.079514    0.367021    11.00000    0.06362    0.03617 =
         0.03134    0.00068    0.01197    0.01666
AFIX 137
H5A   2    0.317093    0.040884    0.432994    11.00000   -1.50000
H5B   2    0.212184    0.060279    0.250361    11.00000   -1.50000
H5C   2    0.088838    0.016924    0.352837    11.00000   -1.50000
AFIX   0
B1    3    0.411368    0.265286    0.787198    11.00000    0.05812    0.02363 =
         0.02590    0.00400    0.01618    0.01179
HKLF 4

REM  20170629sss_a.res in P-1
REM R1 =  0.0334 for    1785 Fo > 4sig(Fo)  and  0.0375 for all    1960 data
REM    121 parameters refined using      0 restraints

END

WGHT      0.0371      0.2700

REM Highest difference peak  0.749,  deepest hole -0.547,  1-sigma level  0.098
Q1    1   0.0872  0.4314  0.2031  11.00000  0.05    0.75
Q2    1   0.1431  0.2982  0.1393  11.00000  0.05    0.61
Q3    1   0.0024  0.2778  0.1550  11.00000  0.05    0.60
;
_shelx_hkl_file
;
  -9  -2   3   20.12    5.64
  -9  -1   1   10.79    5.19
  -9  -1   2    3.72    3.55
  -9  -1   2    7.13    4.43
  -9  -1   3   26.23    5.83
  -9  -1   3   36.90    6.95
  -9  -1   4   23.16    6.05
  -9  -1   5    1.96    2.88
  -9  -1   6    9.06    4.39
  -9   0   1   73.10    9.83
  -9   0   1   73.85   10.74
  -9   0   2    4.98    3.39
  -9   0   2   12.21    5.29
  -9   0   3   10.09    4.53
  -9   0   4   12.47    4.19
  -9   0   5   26.80    5.96
  -9   0   6    1.19    2.79
  -9   1   1   60.12    8.86
  -9   1   1   43.05    7.32
  -9   1   2   51.49    8.01
  -9   1   2   52.23    7.52
  -9   1   3   15.22    4.42
  -9   1   4    2.42    3.17
  -9   1   5   36.35    6.76
  -9   1   6   39.81    7.25
  -9   2   0   36.99    7.78
  -9   2   1    2.84    3.21
  -9   2   1    6.98    4.53
  -9   2   2   20.53    5.53
  -9   2   2   24.18    5.78
  -9   2   3   58.25    8.41
  -9   2   4   25.60    5.61
  -9   2   5   -0.56    2.88
  -9   2   6   30.00    6.70
  -9   3   0   50.35    8.09
  -9   3   1   23.58    5.17
  -9   3   1   31.40    6.45
  -9   3   2    2.28    3.53
  -9   3   3    5.71    2.94
  -9   3   4   24.32    6.04
  -9   3   5   55.69    8.68
  -9   4   0   -3.98    5.10
  -9   4   1   45.48    7.19
  -9   4   1   64.48    8.94
  -9   4   2   53.33    8.39
  -9   4   3   20.64    5.27
  -9   4   4   -1.67    3.26
  -9   5   0    3.68    3.65
  -9   5   1    5.69    3.38
  -9   5   2   22.88    6.22
  -9   5   3   60.91    9.16
  -9   6   1    8.10    3.43
  -9   6   2   -6.43    5.40
  -8  -5   5    1.03    3.89
  -8  -5   6   31.18    7.27
  -8  -4   3   11.48    4.88
  -8  -4   3   21.44    6.13
  -8  -4   4   28.78    6.82
  -8  -4   5    6.45    4.79
  -8  -4   5   -0.25    3.88
  -8  -4   6   17.67    6.35
  -8  -4   7   30.99    7.68
  -8  -3   2    0.76    3.07
  -8  -3   3   10.89    5.16
  -8  -3   4   48.42    8.80
  -8  -3   4   56.83    8.15
  -8  -3   5   46.37    7.07
  -8  -3   5   31.54    7.07
  -8  -3   6    5.03    3.78
  -8  -3   7   15.43    5.20
  -8  -3   8   60.78    9.72
  -8  -3   9   18.35    5.78
  -8  -2   1   84.81   10.71
  -8  -2   1   85.22   10.49
  -8  -2   2   71.06    9.69
  -8  -2   2   60.97    8.57
  -8  -2   3   12.71    3.90
  -8  -2   3   16.14    5.19
  -8  -2   4   -0.48    2.30
  -8  -2   4   -0.67    2.59
  -8  -2   5   67.91    9.04
  -8  -2   6   44.78    7.68
  -8  -2   7   16.47    5.49
  -8  -2   8   20.44    5.51
  -8  -2   9   25.83    6.62
  -8  -1   0   29.50    6.56
  -8  -1   0   35.70    7.04
  -8  -1   1    9.81    4.32
  -8  -1   1    3.36    3.58
  -8  -1   2   83.55    9.54
  -8  -1   2   83.65    9.62
  -8  -1   3   62.58    8.35
  -8  -1   3   65.23    7.84
  -8  -1   4  207.97   14.93
  -8  -1   5   20.50    5.11
  -8  -1   6   30.22    5.92
  -8  -1   7   90.27   10.32
  -8  -1   8   13.70    4.79
  -8  -1   9    4.00    3.42
  -8   0  -1   49.57    8.97
  -8   0   0   77.25    9.98
  -8   0   0   70.46    8.37
  -8   0   1   80.18    9.04
  -8   0   1   98.96   10.76
  -8   0   2    0.11    2.13
  -8   0   2    6.58    3.69
  -8   0   3   39.00    6.25
  -8   0   3   25.92    5.48
  -8   0   4  341.19   18.57
  -8   0   5   40.12    6.62
  -8   0   6   -0.57    2.43
  -8   0   7   18.58    4.85
  -8   0   8  108.40   11.51
  -8   0   9   21.27    6.36
  -8   1  -1   -1.82    3.78
  -8   1   0    6.25    3.48
  -8   1   0    8.21    3.27
  -8   1   1  110.77   10.69
  -8   1   1  115.01   10.69
  -8   1   2  124.29   10.40
  -8   1   2  129.05   11.16
  -8   1   3    4.99    1.98
  -8   1   3    2.79    2.56
  -8   1   4   62.79    7.81
  -8   1   5  144.13   12.10
  -8   1   6   92.14   10.01
  -8   1   7   27.09    5.70
  -8   1   8   58.74    8.74
  -8   2  -2   73.78   10.06
  -8   2  -1  100.57   11.19
  -8   2   0   56.55    7.82
  -8   2   0   58.91    7.51
  -8   2   1    9.86    3.63
  -8   2   1   12.08    3.77
  -8   2   2  158.73   11.60
  -8   2   2  173.67   12.76
  -8   2   3  166.68   12.80
  -8   2   4   24.23    5.24
  -8   2   5   48.51    7.19
  -8   2   6   64.30    8.76
  -8   2   7  114.83   12.06
  -8   2   8    4.59    3.38
  -8   3  -2    5.38    4.06
  -8   3  -1   50.46    7.98
  -8   3   0  248.17   15.90
  -8   3   0  242.91   14.96
  -8   3   1   20.58    4.33
  -8   3   1   23.54    5.13
  -8   3   2   -2.94    2.18
  -8   3   2   -0.20    2.11
  -8   3   3  166.58   12.89
  -8   3   4  164.52   13.54
  -8   3   5   44.41    7.32
  -8   3   6    4.37    3.20
  -8   3   7   42.77    7.91
  -8   4  -2   32.49    6.60
  -8   4  -1   17.68    4.05
  -8   4   0   87.38    9.43
  -8   4   0   92.45    9.53
  -8   4   1  103.93    9.72
  -8   4   1  125.13   10.98
  -8   4   2  123.91   11.51
  -8   4   3   23.70    5.38
  -8   4   4   61.37    8.53
  -8   4   5  128.64   12.57
  -8   4   6   92.24   11.08
  -8   5  -2   63.65    9.57
  -8   5  -1  151.69   13.27
  -8   5   0    5.93    2.85
  -8   5   0    1.08    2.64
  -8   5   1   18.88    4.63
  -8   5   1   31.94    6.07
  -8   5   2   75.50    9.10
  -8   5   3   46.22    7.66
  -8   5   4    3.63    3.55
  -8   5   5   16.68    5.27
  -8   6  -2    3.92    3.42
  -8   6  -1  104.43   11.05
  -8   6   0  165.42   12.97
  -8   6   0  165.61   12.68
  -8   6   1   -2.96    3.63
  -8   6   2   -1.77    3.28
  -8   6   3   94.17   10.75
  -8   6   4   28.72    6.77
  -8   7  -1   19.04    5.95
  -8   7   0   92.77   10.42
  -8   7   0   98.67   10.21
  -8   7   1   29.41    6.34
  -8   7   2   44.88    8.00
  -8   8   0    4.28    3.57
  -8   8   1   24.31    5.97
  -7  -6   4   28.73    6.63
  -7  -6   5   17.35    5.41
  -7  -6   6    2.84    2.89
  -7  -6   7   -0.90    4.29
  -7  -5   2    7.59    4.12
  -7  -5   3    9.27    4.09
  -7  -5   4   29.52    6.22
  -7  -5   5   63.01    8.39
  -7  -5   6   21.69    5.62
  -7  -5   7    0.95    2.81
  -7  -5   8   15.66    5.82
  -7  -5   9   26.73    6.52
  -7  -4   1    7.77    4.39
  -7  -4   1   10.60    4.50
  -7  -4   2   26.16    5.96
  -7  -4   3   69.16    9.13
  -7  -4   4    4.58    3.50
  -7  -4   5   20.92    4.70
  -7  -4   6   69.03    8.24
  -7  -4   6   83.81   10.45
  -7  -4   7   30.40    7.01
  -7  -4   8    0.10    2.87
  -7  -4   9   20.82    5.61
  -7  -3   0  103.80   11.82
  -7  -3   1   11.67    4.66
  -7  -3   2    6.22    3.38
  -7  -3   2   15.73    4.62
  -7  -3   3   97.71    9.99
  -7  -3   4  124.57   10.98
  -7  -3   5   29.65    5.27
  -7  -3   5   27.02    5.87
  -7  -3   6   17.45    4.74
  -7  -3   6   12.27    4.32
  -7  -3   7   27.58    5.85
  -7  -3   8   85.58   10.17
  -7  -3   9   21.62    5.03
  -7  -2  -1    1.63    3.65
  -7  -2   0   48.25    7.75
  -7  -2   1   49.94    7.49
  -7  -2   2   76.56    8.80
  -7  -2   3   -0.43    1.83
  -7  -2   3    1.82    2.55
  -7  -2   4  152.64   12.32
  -7  -2   4  154.66   11.57
  -7  -2   4  164.65   11.25
  -7  -2   5  148.51   10.66
  -7  -2   5  150.44   12.14
  -7  -2   6   99.72   10.15
  -7  -2   7    0.73    2.14
  -7  -2   8   79.71    9.41
  -7  -2   9   70.25    9.03
  -7  -1  -2   71.47   10.79
  -7  -1  -1  112.52   12.32
  -7  -1   0   24.74    5.61
  -7  -1   1   28.81    5.63
  -7  -1   1   32.92    5.91
  -7  -1   2  225.94   14.23
  -7  -1   2  203.55   13.06
  -7  -1   3  112.08   10.07
  -7  -1   3  128.60    9.60
  -7  -1   4   23.26    4.75
  -7  -1   4   19.23    3.37
  -7  -1   5   56.47    7.34
  -7  -1   6  181.90   12.91
  -7  -1   7  140.63   11.91
  -7  -1   8   -2.54    2.85
  -7  -1   9   28.76    6.15
  -7   0  -2   31.62    7.13
  -7   0  -1  106.54   11.59
  -7   0  -1  117.79   10.14
  -7   0   0  277.63   16.89
  -7   0   0  303.21   15.89
  -7   0   1   24.67    4.90
  -7   0   1   25.76    5.04
  -7   0   2   29.69    5.14
  -7   0   2   29.83    5.01
  -7   0   3   60.09    7.00
  -7   0   3   62.08    6.60
  -7   0   4  174.65   10.21
  -7   0   4  173.07   12.24
  -7   0   5   41.09    6.07
  -7   0   6   74.41    8.50
  -7   0   7  205.58   14.27
  -7   0   8  150.47   12.51
  -7   0   9   -3.45    3.77
  -7   0  10   13.63    4.79
  -7   1  -3   29.23    6.84
  -7   1  -2   60.21    8.71
  -7   1  -1   -0.09    2.14
  -7   1  -1   -1.96    2.43
  -7   1   0  232.94   13.72
  -7   1   0  227.70   14.56
  -7   1   1  328.17   16.30
  -7   1   1  363.88   17.30
  -7   1   2  105.48    9.34
  -7   1   2  109.07    9.08
  -7   1   3   -1.61    2.30
  -7   1   3   -0.87    1.90
  -7   1   4  254.79   14.53
  -7   1   5  214.08   13.73
  -7   1   6   12.47    3.76
  -7   1   7   14.64    4.43
  -7   1   8  119.22   11.63
  -7   1   9   44.56    7.88
  -7   2  -3   16.23    5.14
  -7   2  -2  230.95   16.04
  -7   2  -1  116.53    9.36
  -7   2  -1  113.64   10.76
  -7   2   0   20.65    4.20
  -7   2   0   21.46    4.53
  -7   2   1   90.28    8.60
  -7   2   1   81.77    8.35
  -7   2   2  283.28   13.74
  -7   2   2  261.35   14.56
  -7   2   3  161.67   11.56
  -7   2   3  144.67    9.17
  -7   2   4   -0.07    1.58
  -7   2   5   96.57    9.48
  -7   2   6  179.17   13.56
  -7   2   7  132.00   12.04
  -7   2   8   24.66    5.79
  -7   2   9    3.82    4.56
  -7   3  -3   13.09    4.56
  -7   3  -2   15.90    4.52
  -7   3  -1  183.51   11.56
  -7   3  -1  182.01   13.22
  -7   3   0  183.00   12.54
  -7   3   0  241.93   13.36
  -7   3   1   34.46    4.97
  -7   3   1   35.96    5.55
  -7   3   2   42.92    6.13
  -7   3   2   44.25    5.36
  -7   3   3  255.03   15.17
  -7   3   4  234.50   14.74
  -7   3   5    4.31    2.56
  -7   3   6   60.13    8.29
  -7   3   7  128.55   12.52
  -7   3   8   27.84    6.11
  -7   4  -3  114.55   11.49
  -7   4  -2   59.29    8.07
  -7   4  -1   15.84    4.09
  -7   4  -1   30.11    4.96
  -7   4   0  253.83   14.87
  -7   4   0  276.56   14.61
  -7   4   1  175.19   12.04
  -7   4   1  167.78   11.30
  -7   4   2   48.74    5.87
  -7   4   2   52.71    6.95
  -7   4   3    4.11    2.53
  -7   4   4  179.95   13.33
  -7   4   5   54.37    7.84
  -7   4   6    6.25    3.13
  -7   4   7   11.86    4.47
  -7   5  -3   55.79    8.27
  -7   5  -2  144.33   12.46
  -7   5  -1   32.56    5.94
  -7   5  -1   28.69    4.80
  -7   5   0    0.71    2.00
  -7   5   0    0.50    1.78
  -7   5   1   62.28    6.98
  -7   5   1   56.75    7.28
  -7   5   2  316.21   17.27
  -7   5   3  121.38   11.16
  -7   5   4   18.12    4.85
  -7   5   5    6.39    3.57
  -7   5   6   67.42    9.43
  -7   6  -3   12.28    4.81
  -7   6  -2   20.71    5.06
  -7   6  -1   59.55    6.84
  -7   6  -1   70.08    8.55
  -7   6   0   60.72    7.31
  -7   6   0   68.03    7.59
  -7   6   1   -1.88    2.80
  -7   6   1    2.41    2.30
  -7   6   2   72.80    8.70
  -7   6   3  140.23   12.33
  -7   6   4    8.61    3.79
  -7   6   5   49.56    8.05
  -7   7  -3   37.29    7.05
  -7   7  -2   17.88    4.70
  -7   7  -1    5.27    3.61
  -7   7  -1    9.15    4.11
  -7   7   0  104.26   10.08
  -7   7   0   89.65    9.47
  -7   7   1   22.24    5.06
  -7   7   2   18.36    5.25
  -7   7   3   20.81    5.42
  -7   7   4   37.51    7.24
  -7   8  -2   62.52    9.18
  -7   8  -1   49.13    8.06
  -7   8   0   13.72    5.00
  -7   8   0   12.19    5.10
  -7   8   1   21.82    5.91
  -7   8   2   26.82    6.52
  -7   9  -1    6.55    3.28
  -7   9   0    9.10    5.05
  -6  -7   4    3.45    2.76
  -6  -7   5   19.81    5.52
  -6  -7   6   12.32    4.45
  -6  -7   7   46.82    7.89
  -6  -6   2    3.21    3.09
  -6  -6   3   27.30    6.18
  -6  -6   4   16.31    4.82
  -6  -6   5   13.04    4.89
  -6  -6   6    8.60    3.57
  -6  -6   7   40.76    6.68
  -6  -6   9    6.93    4.91
  -6  -5   0   37.38    7.11
  -6  -5   1   96.57   11.00
  -6  -5   2   43.62    7.30
  -6  -5   3    3.01    2.43
  -6  -5   4   14.34    4.19
  -6  -5   5  165.34   12.61
  -6  -5   6   18.48    4.83
  -6  -5   7    0.29    2.35
  -6  -5   8  100.67   11.23
  -6  -5   9   24.76    5.83
  -6  -4  -1   92.31   11.54
  -6  -4   0    0.58    2.55
  -6  -4   1   96.62   10.57
  -6  -4   2  134.19   12.01
  -6  -4   3  113.31   10.71
  -6  -4   4    0.74    1.83
  -6  -4   5   86.94    8.60
  -6  -4   6  111.79    9.43
  -6  -4   7  137.24   12.53
  -6  -4   8   -1.58    2.60
  -6  -4   9   69.56    8.95
  -6  -3  -2   24.37    6.54
  -6  -3  -1   73.28    9.95
  -6  -3   0  154.57   13.33
  -6  -3   1    4.32    2.86
  -6  -3   2   11.06    3.63
  -6  -3   3  283.61   15.81
  -6  -3   4  277.73   15.00
  -6  -3   5   25.47    4.46
  -6  -3   6  142.29    9.97
  -6  -3   6  146.83   11.90
  -6  -3   7  326.77   17.83
  -6  -3   8   91.72    9.66
  -6  -3   9   -3.31    3.53
  -6  -2  -3  166.78   16.40
  -6  -2  -2   18.98    5.49
  -6  -2  -1   -1.02    2.63
  -6  -2   0  379.77   19.84
  -6  -2   1  401.81   19.15
  -6  -2   2   60.55    7.46
  -6  -2   3   33.98    5.33
  -6  -2   4  343.53   17.26
  -6  -2   4  350.98   15.59
  -6  -2   5  228.89   12.11
  -6  -2   5  204.12   13.10
  -6  -2   6   28.35    4.96
  -6  -2   7   93.85    9.10
  -6  -2   8  111.63   10.25
  -6  -2   9  306.25   16.88
  -6  -1  -3  107.09   13.04
  -6  -1  -2  227.29   17.10
  -6  -1  -1  103.78   10.76
  -6  -1   0   54.71    7.10
  -6  -1   1  260.91   14.39
  -6  -1   2  251.30   13.07
  -6  -1   3  790.53   21.98
  -6  -1   3  821.50   24.80
  -6  -1   4   48.86    5.99
  -6  -1   4   45.14    4.88
  -6  -1   5  170.03    8.33
  -6  -1   5  180.99   11.86
  -6  -1   6  563.25   21.09
  -6  -1   7   51.15    6.83
  -6  -1   8   29.41    5.41
  -6  -1   9  282.68   16.87
  -6   0  -4   94.13   12.90
  -6   0  -3   44.02    8.23
  -6   0  -2  113.19   11.25
  -6   0  -2  126.23    9.51
  -6   0  -1  314.41   15.23
  -6   0  -1  283.85   16.71
  -6   0   0  398.99   18.31
  -6   0   0  431.01   17.46
  -6   0   1   10.34    3.10
  -6   0   1    9.03    2.67
  -6   0   2  195.74   10.95
  -6   0   2  206.97   11.81
  -6   0   3 1723.86   34.69
  -6   0   3 1723.12   29.82
  -6   0   4  146.59   10.34
  -6   0   4  136.47    7.66
  -6   0   5    0.04    1.33
  -6   0   6  109.56    9.29
  -6   0   7  326.42   16.46
  -6   0   8   97.13    9.85
  -6   0   9   -3.98    3.71
  -6   1  -4  309.96   21.09
  -6   1  -3  469.59   23.65
  -6   1  -2    7.24    3.31
  -6   1  -2    6.63    2.77
  -6   1  -1   54.97    5.95
  -6   1  -1   58.07    7.35
  -6   1   0  577.80   19.27
  -6   1   0  579.80   21.06
  -6   1   1  401.35   16.42
  -6   1   1  387.45   16.11
  -6   1   2   16.69    3.36
  -6   1   2   17.80    3.64
  -6   1   3  253.11   10.97
  -6   1   3  263.21   13.33
  -6   1   4  546.20   13.99
  -6   1   4  573.67   20.41
  -6   1   5  477.05   18.94
  -6   1   6  118.50   10.03
  -6   1   7  246.85   15.11
  -6   1   8  241.55   15.75
  -6   1   9  234.41   16.20
  -6   2  -5   71.19   10.51
  -6   2  -4   81.64   10.24
  -6   2  -3  232.74   15.69
  -6   2  -2  372.32   14.78
  -6   2  -2  380.10   18.52
  -6   2  -1  217.81   11.49
  -6   2  -1  196.10   12.74
  -6   2   0    8.40    2.41
  -6   2   0   12.70    3.21
  -6   2   1  622.71   20.50
  -6   2   1  641.77   20.08
  -6   2   2  772.28   20.00
  -6   2   2  761.73   22.93
  -6   2   3  166.22   10.89
  -6   2   3  146.23    7.79
  -6   2   4  206.97   12.53
  -6   2   5  443.48   19.13
  -6   2   6  444.73   20.13
  -6   2   7    3.59    2.54
  -6   2   8   37.10    5.23
  -6   2   9  146.15   13.59
  -6   3  -5  271.66   18.62
  -6   3  -4   65.91    8.63
  -6   3  -3    2.36    2.38
  -6   3  -2  263.15   15.32
  -6   3  -2  290.18   12.69
  -6   3  -1  952.63   23.60
  -6   3  -1 1006.94   28.13
  -6   3   0  125.23    9.62
  -6   3   0  139.65    9.29
  -6   3   1   16.03    3.00
  -6   3   1   19.24    3.68
  -6   3   2  596.69   17.43
  -6   3   2  605.25   20.83
  -6   3   3  558.11   15.37
  -6   3   3  567.87   20.87
  -6   3   4   84.43    8.37
  -6   3   5    1.84    1.84
  -6   3   6  126.24   11.25
  -6   3   7  397.90   20.63
  -6   3   8   11.79    4.78
  -6   3   9   15.61    5.95
  -6   4  -5   68.07    9.25
  -6   4  -4  369.73   19.85
  -6   4  -3   93.41    9.66
  -6   4  -2   29.50    5.20
  -6   4  -2   29.26    4.15
  -6   4  -1  278.75   13.07
  -6   4  -1  298.68   15.20
  -6   4   0  258.48   12.99
  -6   4   0  274.91   13.96
  -6   4   1  397.30   15.85
  -6   4   1  431.85   17.59
  -6   4   2   14.39    3.51
  -6   4   2   16.80    3.18
  -6   4   3  168.55   11.84
  -6   4   4  594.77   22.95
  -6   4   5  285.30   16.63
  -6   4   6    1.26    2.06
  -6   4   7  150.31   13.13
  -6   4   8   39.33    7.45
  -6   5  -5   34.62    6.84
  -6   5  -4  100.63   10.49
  -6   5  -3  109.54   10.39
  -6   5  -2  542.27   22.09
  -6   5  -2  558.37   18.85
  -6   5  -1   63.62    7.24
  -6   5  -1   55.81    6.25
  -6   5   0   79.36    7.46
  -6   5   0   86.84    7.91
  -6   5   1  505.51   19.55
  -6   5   1  491.39   17.75
  -6   5   2  105.14    8.03
  -6   5   2  105.99    9.49
  -6   5   3    0.04    1.90
  -6   5   4   74.63    8.43
  -6   5   5  396.73   20.25
  -6   5   6   46.09    7.53
  -6   5   7   21.68    6.09
  -6   6  -5  154.41   14.13
  -6   6  -4   12.29    4.25
  -6   6  -3    4.72    2.95
  -6   6  -2  384.98   19.01
  -6   6  -1  323.45   16.54
  -6   6  -1  317.36   15.40
  -6   6   0    4.88    2.69
  -6   6   0    2.59    1.99
  -6   6   1    8.33    3.07
  -6   6   1   12.75    3.87
  -6   6   2  199.99   13.46
  -6   6   3  104.35   10.16
  -6   6   4   40.37    6.79
  -6   6   5   66.09    9.34
  -6   6   6   85.50   11.02
  -6   7  -4   74.04    9.53
  -6   7  -3   46.20    7.28
  -6   7  -2    5.14    3.13
  -6   7  -1  241.87   15.10
  -6   7  -1  222.10   13.77
  -6   7   0   84.40    8.90
  -6   7   0   89.55    8.85
  -6   7   1  179.46   13.30
  -6   7   1  163.79   11.73
  -6   7   2    6.18    3.21
  -6   7   3   99.70   10.88
  -6   7   4   49.90    8.01
  -6   7   5    5.73    4.18
  -6   8  -4   32.29    6.74
  -6   8  -3  105.35   11.23
  -6   8  -2   15.06    4.67
  -6   8  -1    0.18    2.90
  -6   8  -1   -3.31    3.22
  -6   8   0   49.19    7.38
  -6   8   0   40.55    6.78
  -6   8   1   75.65    9.47
  -6   8   2   28.01    5.93
  -6   8   3    0.97    3.10
  -6   8   4   20.84    6.73
  -6   9  -3    9.29    3.63
  -6   9  -2   10.35    3.58
  -6   9  -1   43.07    7.31
  -6   9  -1   40.53    7.36
  -6   9   0    4.91    4.35
  -6   9   1   12.39    5.46
  -5  -8   4   18.51    5.29
  -5  -8   5   11.45    4.99
  -5  -8   6    6.04    3.72
  -5  -8   7   58.31    9.06
  -5  -8   8   31.24    6.91
  -5  -7   2    8.73    3.34
  -5  -7   3   30.10    6.12
  -5  -7   4    6.98    3.56
  -5  -7   5   24.96    5.46
  -5  -7   6   38.46    6.76
  -5  -7   7    4.82    3.92
  -5  -7   8    7.62    3.90
  -5  -6   0   11.67    4.27
  -5  -6   1   20.94    5.24
  -5  -6   2   16.76    4.30
  -5  -6   3  167.23   13.13
  -5  -6   4  104.98   10.22
  -5  -6   5   11.64    3.95
  -5  -6   6   50.58    7.16
  -5  -6   7   59.95    7.93
  -5  -5  -2    4.67    3.83
  -5  -5  -1   35.22    6.62
  -5  -5   0   57.95    8.23
  -5  -5   1   97.08    9.88
  -5  -5   2    0.06    2.13
  -5  -5   3  154.23   12.01
  -5  -5   4  186.35   12.99
  -5  -5   5   63.75    7.57
  -5  -5   6   19.14    4.35
  -5  -5   7   72.37    7.78
  -5  -5   8  143.15   12.05
  -5  -4  -2   45.64    8.08
  -5  -4  -1   24.59    5.36
  -5  -4   0   19.83    4.81
  -5  -4   1   83.05    9.12
  -5  -4   2  347.64   17.21
  -5  -4   3   41.29    5.90
  -5  -4   4  126.37   10.10
  -5  -4   5  376.47   16.79
  -5  -4   6  195.30   11.76
  -5  -4   7   -0.36    2.32
  -5  -4   7    3.41    2.77
  -5  -4   8   87.83    8.64
  -5  -3  -3   20.66    6.09
  -5  -3  -2   30.30    6.62
  -5  -3  -1  397.62   20.74
  -5  -3  -1  402.52   20.92
  -5  -3   0   59.99    7.82
  -5  -3   1   58.04    7.40
  -5  -3   2  379.92   17.41
  -5  -3   3  402.05   16.90
  -5  -3   4   83.28    7.60
  -5  -3   5   58.70    6.12
  -5  -3   6  111.07    8.17
  -5  -3   6  102.46    9.24
  -5  -3   7  334.31   16.24
  -5  -3   8   86.60    8.25
  -5  -2  -4  193.68   18.37
  -5  -2  -3   43.83    8.11
  -5  -2  -2    2.18    2.75
  -5  -2  -1  174.92   13.25
  -5  -2   0  230.28   14.18
  -5  -2   0  209.76   13.52
  -5  -2   1  314.66   15.79
  -5  -2   2    1.62    1.76
  -5  -2   3  594.21   19.62
  -5  -2   4  752.56   20.54
  -5  -2   5  384.13   13.65
  -5  -2   5  354.70   15.93
  -5  -2   6   -1.65    1.70
  -5  -2   6    0.40    1.57
  -5  -2   7  370.97   16.42
  -5  -2   8  306.41   15.32
  -5  -1  -5   19.54    8.00
  -5  -1  -4   52.98    9.33
  -5  -1  -3  261.31   18.30
  -5  -1  -2  384.34   20.17
  -5  -1  -1   65.19    7.60
  -5  -1   0   96.97    8.51
  -5  -1   1  768.83   22.53
  -5  -1   2  481.29   16.80
  -5  -1   2  458.81   16.02
  -5  -1   3   89.34    6.80
  -5  -1   3   91.74    7.62
  -5  -1   4  240.01   12.00
  -5  -1   4  242.85   10.45
  -5  -1   5  776.18   22.36
  -5  -1   5  759.26   16.89
  -5  -1   6  561.30   19.35
  -5  -1   7    0.10    1.33
  -5  -1   8  129.04   10.12
  -5  -1   9  123.06   10.86
  -5   0  -5  290.83   22.15
  -5   0  -4   13.96    5.23
  -5   0  -3   47.72    7.60
  -5   0  -2  377.31   18.61
  -5   0  -1  961.50   27.29
  -5   0   0  131.51    9.13
  -5   0   1  132.07    8.66
  -5   0   1  163.66    9.54
  -5   0   2  315.90   13.25
  -5   0   2  326.62   12.24
  -5   0   3  592.74   15.09
  -5   0   3  590.95   18.49
  -5   0   4  111.22    8.16
  -5   0   4  123.52    5.98
  -5   0   5  245.28   12.46
  -5   0   6  746.64   22.91
  -5   0   7  509.93   20.13
  -5   0   8   17.28    4.10
  -5   0   9   56.58    7.73
  -5   1  -6    1.80    3.70
  -5   1  -5  181.56   15.68
  -5   1  -4  153.12   13.48
  -5   1  -3  182.22   13.44
  -5   1  -2    1.64    1.57
  -5   1  -2   -0.42    1.82
  -5   1  -1  755.47   22.86
  -5   1  -1  746.66   19.59
  -5   1   0 1010.54   23.17
  -5   1   0 1037.95   25.39
  -5   1   1  355.23   13.72
  -5   1   1  345.98   13.66
  -5   1   2   22.76    3.39
  -5   1   2   23.93    3.81
  -5   1   3  742.42   20.79
  -5   1   3  774.66   16.03
  -5   1   4 1085.86   15.12
  -5   1   4 1085.11   25.41
  -5   1   5   65.46    6.51
  -5   1   6   94.53    8.42
  -5   1   7  465.17   19.83
  -5   1   8  197.19   13.67
  -5   1   9   74.50    8.62
  -5   2  -6  164.03   15.86
  -5   2  -5   14.89    4.87
  -5   2  -4   19.26    4.80
  -5   2  -3  607.35   22.93
  -5   2  -2  510.18   15.40
  -5   2  -2  495.36   19.40
  -5   2  -1   24.97    4.13
  -5   2  -1    9.62    2.33
  -5   2   0  411.94   15.35
  -5   2   0  406.58   14.26
  -5   2   1 1428.37   27.69
  -5   2   1 1417.06   26.30
  -5   2   2  511.39   14.23
  -5   2   2  532.07   17.23
  -5   2   3   20.53    3.62
  -5   2   3   20.02    2.46
  -5   2   4  360.69   15.42
  -5   2   5  446.74   18.35
  -5   2   6  362.38   16.92
  -5   2   7   15.46    3.89
  -5   2   8   33.05    6.14
  -5   2   9  293.71   17.91
  -5   3  -6  201.75   16.01
  -5   3  -5  356.60   19.41
  -5   3  -4   62.71    7.56
  -5   3  -3  121.72    9.82
  -5   3  -2  713.19   22.51
  -5   3  -2  680.29   17.16
  -5   3  -1  324.96   12.31
  -5   3  -1  322.63   14.49
  -5   3   0   53.87    5.44
  -5   3   0   56.54    5.45
  -5   3   1   67.49    5.59
  -5   3   1   76.04    6.50
  -5   3   2  544.54   14.98
  -5   3   2  604.08   18.99
  -5   3   3  817.59   16.22
  -5   3   3  848.82   23.62
  -5   3   4   27.20    4.61
  -5   3   5  172.76   11.85
  -5   3   6  682.97   24.79
  -5   3   7  109.02   10.39
  -5   3   8    6.64    3.34
  -5   4  -6   -0.90    2.75
  -5   4  -5  206.22   14.76
  -5   4  -4  242.21   14.83
  -5   4  -3  186.55   12.39
  -5   4  -2    0.28    1.62
  -5   4  -2   -0.91    1.74
  -5   4  -1  726.94   21.77
  -5   4  -1  706.03   19.21
  -5   4   0  886.41   22.29
  -5   4   0  866.49   22.28
  -5   4   1  284.49   12.05
  -5   4   1  295.76   13.31
  -5   4   2   45.85    4.59
  -5   4   2   37.56    4.81
  -5   4   3  837.19   18.24
  -5   4   3  832.93   24.51
  -5   4   4  103.32    9.03
  -5   4   5   -0.12    1.94
  -5   4   6    5.69    2.93
  -5   4   7  122.37   11.68
  -5   4   8  168.08   14.72
  -5   5  -6  150.89   13.56
  -5   5  -5   20.56    4.95
  -5   5  -4  209.04   14.07
  -5   5  -3  559.35   21.76
  -5   5  -2   92.93    8.52
  -5   5  -2   91.80    7.06
  -5   5  -1   70.28    6.80
  -5   5  -1   59.89    5.92
  -5   5   0  200.88   11.38
  -5   5   0  196.52   10.95
  -5   5   1  463.47   17.75
  -5   5   1  451.26   16.17
  -5   5   2  248.65   13.50
  -5   5   2  278.94   12.26
  -5   5   3    0.57    1.68
  -5   5   4   12.12    3.57
  -5   5   5  296.49   17.19
  -5   5   6   84.31   10.08
  -5   5   7   22.56    5.76
  -5   5   8   88.02   11.91
  -5   6  -6  149.37   13.46
  -5   6  -5  125.36   11.85
  -5   6  -4   13.69    3.84
  -5   6  -3   30.43    5.46
  -5   6  -2   82.35    8.21
  -5   6  -2   92.63    7.84
  -5   6  -1  280.42   14.59
  -5   6  -1  283.18   13.96
  -5   6   0   74.73    7.52
  -5   6   0   70.10    7.17
  -5   6   1  223.72   12.24
  -5   6   1  233.22   13.39
  -5   6   2  671.85   24.03
  -5   6   3   58.48    7.48
  -5   6   4   51.02    7.64
  -5   6   5   67.57    9.13
  -5   6   6   42.62    8.25
  -5   7  -6   10.72    4.18
  -5   7  -5  174.78   14.14
  -5   7  -4  198.55   14.42
  -5   7  -3   82.68    8.96
  -5   7  -2    2.75    1.90
  -5   7  -2    4.10    2.74
  -5   7  -1  346.74   16.90
  -5   7  -1  360.12   17.41
  -5   7   0   29.57    4.93
  -5   7   0   34.70    5.84
  -5   7   1    4.87    2.84
  -5   7   2   26.77    5.59
  -5   7   3   29.95    6.13
  -5   7   4  121.33   12.34
  -5   7   5   32.72    7.24
  -5   7   5   36.51    7.52
  -5   8  -5   19.89    5.57
  -5   8  -4   54.67    8.04
  -5   8  -3   80.81    9.14
  -5   8  -2  103.21    9.89
  -5   8  -2  111.62   10.55
  -5   8  -1    2.23    3.16
  -5   8  -1    0.79    2.39
  -5   8   0   38.56    6.43
  -5   8   1  100.62   10.85
  -5   8   2   58.17    8.05
  -5   8   2   41.68    7.36
  -5   8   3    5.53    3.82
  -5   8   3    1.88    2.84
  -5   8   4   37.52    7.91
  -5   8   4   48.41    8.74
  -5   9  -4   16.74    4.82
  -5   9  -3   43.79    7.36
  -5   9  -2   96.77   10.95
  -5   9  -1   22.41    5.88
  -5   9   0    0.52    3.30
  -5   9   1   38.58    7.54
  -5   9   2   17.66    6.46
  -5   9   3   20.97    7.10
  -4  -9   6   10.16    3.96
  -4  -9   7    7.33    4.30
  -4  -8   2   -1.41    2.31
  -4  -8   3   11.49    4.47
  -4  -8   4   75.05    9.35
  -4  -8   5    3.09    3.05
  -4  -8   6   19.30    5.06
  -4  -8   7   11.05    4.30
  -4  -8   8   56.15    8.38
  -4  -7   0    1.27    2.94
  -4  -7   1   38.47    6.66
  -4  -7   2   51.04    7.54
  -4  -7   3    4.92    2.96
  -4  -7   4  126.37   11.16
  -4  -7   5   28.07    5.19
  -4  -7   6  111.30   10.40
  -4  -7   7   30.80    5.64
  -4  -7   8   42.78    7.01
  -4  -6  -2   71.29   10.01
  -4  -6  -1   37.30    6.84
  -4  -6   0   67.61    8.71
  -4  -6   1   18.85    4.61
  -4  -6   2   48.40    6.93
  -4  -6   3   54.89    7.13
  -4  -6   4   47.18    6.68
  -4  -6   5   30.01    5.30
  -4  -6   6  183.79   12.28
  -4  -6   7  350.58   16.77
  -4  -6   8    4.89    3.04
  -4  -5  -3    2.95    3.29
  -4  -5  -2    1.16    2.95
  -4  -5  -1   65.52    8.56
  -4  -5   0  336.90   17.70
  -4  -5   1  200.30   13.33
  -4  -5   2   30.55    5.26
  -4  -5   3  141.45   10.39
  -4  -5   4  483.60   19.31
  -4  -5   5   11.36    3.32
  -4  -5   6   14.02    3.53
  -4  -5   7  314.07   14.60
  -4  -5   8   90.30    8.72
  -4  -4  -4   37.31    8.39
  -4  -4  -3   79.89   10.36
  -4  -4  -2  235.26   16.16
  -4  -4  -1   40.57    6.64
  -4  -4   0  280.48   15.80
  -4  -4   1  319.77   15.95
  -4  -4   2  301.37   15.07
  -4  -4   3   26.34    4.49
  -4  -4   4  276.53   13.34
  -4  -4   5  496.58   17.61
  -4  -4   6  579.48   18.51
  -4  -4   7   15.49    3.95
  -4  -4   7   14.46    2.97
  -4  -4   8  251.48   13.27
  -4  -3  -5   90.91   13.50
  -4  -3  -4    7.86    4.12
  -4  -3  -3   27.65    6.40
  -4  -3  -2  225.16   15.89
  -4  -3  -2  236.21   15.77
  -4  -3  -1  570.04   23.00
  -4  -3   0   49.77    6.57
  -4  -3   1  127.97    9.41
  -4  -3   2 1372.86   30.15
  -4  -3   3  867.10   23.05
  -4  -3   4    6.83    2.24
  -4  -3   5  513.05   16.45
  -4  -3   6  873.86   23.93
  -4  -3   6  931.92   21.34
  -4  -3   7  347.83   12.88
  -4  -3   7  308.90   13.96
  -4  -3   8    5.59    2.15
  -4  -2  -5   94.64   13.27
  -4  -2  -4  501.02   27.19
  -4  -2  -3   49.00    7.74
  -4  -2  -2   33.09    5.88
  -4  -2  -1 1268.34   32.58
  -4  -2   0  850.10   25.36
  -4  -2   1  151.99   10.09
  -4  -2   2   58.80    5.85
  -4  -2   3  884.60   21.16
  -4  -2   4 1294.95   24.52
  -4  -2   5  179.05    9.99
  -4  -2   5  169.52    8.47
  -4  -2   6  427.14   15.82
  -4  -2   6  452.25   12.80
  -4  -2   7  556.07   18.26
  -4  -2   8  802.87   22.87
  -4  -1  -6   82.41   13.62
  -4  -1  -5    3.63    4.60
  -4  -1  -4  267.84   18.71
  -4  -1  -3  504.82   22.98
  -4  -1  -2  435.96   19.46
  -4  -1  -1   70.57    7.22
  -4  -1   0 1122.47   26.61
  -4  -1   0 1108.60   26.00
  -4  -1   1 1620.47   29.34
  -4  -1   2 2411.29   33.70
  -4  -1   3  489.41   14.14
  -4  -1   3  505.68   15.97
  -4  -1   4  686.96   18.39
  -4  -1   4  692.79   15.05
  -4  -1   5 1280.62   26.01
  -4  -1   5 1238.66   17.97
  -4  -1   6   81.46    6.83
  -4  -1   7   23.42    4.06
  -4  -1   8  778.14   23.45
  -4   0  -7   63.77   11.90
  -4   0  -6  314.73   22.44
  -4   0  -5  352.77   21.85
  -4   0  -4   98.90   10.57
  -4   0  -3  515.82   21.39
  -4   0  -2 1055.89   28.07
  -4   0  -1  585.98   18.96
  -4   0   0  143.03    8.28
  -4   0   1  231.29    9.64
  -4   0   1  260.93   10.75
  -4   0   2 4753.05   39.42
  -4   0   2 4762.57   46.15
  -4   0   3  666.12   17.41
  -4   0   3  672.29   12.87
  -4   0   4   86.72    6.51
  -4   0   4   98.79    3.94
  -4   0   5  565.37   17.25
  -4   0   6 1573.38   30.52
  -4   0   7  316.51   14.83
  -4   0   8   43.81    5.75
  -4   1  -7   26.47    8.00
  -4   1  -6   63.43    9.46
  -4   1  -5  614.90   26.11
  -4   1  -4  946.35   29.76
  -4   1  -3   39.59    4.12
  -4   1  -3   39.67    5.53
  -4   1  -2   19.41    2.94
  -4   1  -2   18.24    3.48
  -4   1  -1 1896.04   27.75
  -4   1  -1 1889.19   32.11
  -4   1   0 1955.46   28.17
  -4   1   0 1978.27   30.29
  -4   1   1  127.56    7.03
  -4   1   1  117.54    7.11
  -4   1   2 1983.32   29.56
  -4   1   2 2005.09   24.45
  -4   1   3 2259.58   32.48
  -4   1   3 2205.27   20.94
  -4   1   4  877.38   21.05
  -4   1   5  134.60    8.89
  -4   1   6  453.06   17.19
  -4   1   7  432.60   17.82
  -4   1   8  604.66   21.92
  -4   2  -7  238.82   18.41
  -4   2  -6  213.81   15.92
  -4   2  -5  125.02   11.09
  -4   2  -4  946.84   28.08
  -4   2  -3 1204.65   29.02
  -4   2  -3 1254.69   19.72
  -4   2  -2  347.30   10.96
  -4   2  -2  356.86   14.61
  -4   2  -1  197.35   10.14
  -4   2  -1  188.37    8.29
  -4   2   0 1600.11   25.36
  -4   2   0 1582.69   26.50
  -4   2   1 1088.26   21.38
  -4   2   1 1080.87   19.75
  -4   2   2  484.05   14.91
  -4   2   2  490.30   11.54
  -4   2   3  134.03    5.12
  -4   2   3  133.40    8.25
  -4   2   4 1136.93   26.15
  -4   2   5 1914.29   34.89
  -4   2   6   42.50    5.62
  -4   2   7  186.71   12.27
  -4   2   8  534.88   21.80
  -4   3  -7  136.62   13.06
  -4   3  -6  553.29   24.04
  -4   3  -5   64.55    7.51
  -4   3  -4    3.15    1.97
  -4   3  -3  431.53   16.99
  -4   3  -3  442.56   11.76
  -4   3  -2 1839.42   24.96
  -4   3  -2 1803.66   32.46
  -4   3  -1  812.38   17.69
  -4   3  -1  817.99   20.08
  -4   3   0    8.33    2.00
  -4   3   0    8.03    2.12
  -4   3   1 2099.13   28.37
  -4   3   1 2080.08   31.41
  -4   3   2 2628.14   28.76
  -4   3   2 2610.18   36.76
  -4   3   3  118.33    8.12
  -4   3   3  122.20    5.90
  -4   3   4   86.44    7.46
  -4   3   5  373.70   16.42
  -4   3   6  552.67   20.84
  -4   3   7   30.87    5.60
  -4   3   8   -2.44    3.95
  -4   4  -7   38.96    7.30
  -4   4  -6  116.01   11.01
  -4   4  -5  824.56   26.98
  -4   4  -4  473.30   19.30
  -4   4  -3   81.09    7.43
  -4   4  -3   67.66    4.78
  -4   4  -2 1254.05   27.53
  -4   4  -2 1226.27   22.24
  -4   4  -1  848.64   21.34
  -4   4  -1  812.57   18.93
  -4   4   0  512.17   15.78
  -4   4   0  520.13   15.83
  -4   4   1  139.49    8.61
  -4   4   1  138.80    7.80
  -4   4   2  186.50    8.60
  -4   4   2  196.47   10.72
  -4   4   3  895.75   24.14
  -4   4   4  780.23   23.87
  -4   4   5   75.19    7.87
  -4   4   6  427.86   19.86
  -4   4   7  247.59   16.10
  -4   4   8   54.25    8.53
  -4   5  -7  145.22   13.17
  -4   5  -6   64.94    8.33
  -4   5  -5  301.09   16.60
  -4   5  -4  208.05   12.93
  -4   5  -3  734.37   23.00
  -4   5  -3  729.10   17.46
  -4   5  -2  141.91    9.54
  -4   5  -2  135.25    8.09
  -4   5  -1   14.87    3.05
  -4   5  -1   12.34    2.93
  -4   5   0 1119.25   25.02
  -4   5   0 1134.11   25.45
  -4   5   1  529.11   16.60
  -4   5   1  539.18   18.17
  -4   5   2   33.75    4.98
  -4   5   3  397.84   17.73
  -4   5   4 1148.79   32.05
  -4   5   5   84.64    9.24
  -4   5   6    1.46    2.83
  -4   5   7   -1.80    3.81
  -4   5   8   40.22    8.34
  -4   6  -7   72.15    9.59
  -4   6  -6  271.12   16.85
  -4   6  -5   47.22    6.73
  -4   6  -4    2.30    2.03
  -4   6  -3  978.91   22.43
  -4   6  -3  940.58   26.83
  -4   6  -2  939.61   26.04
  -4   6  -2  963.66   24.06
  -4   6  -1    3.70    2.23
  -4   6  -1    3.45    2.14
  -4   6   0   20.56    4.01
  -4   6   0   18.32    3.48
  -4   6   1  343.17   16.54
  -4   6   2   88.35    8.72
  -4   6   3   52.85    7.30
  -4   6   4   62.12    8.17
  -4   6   5   89.76   10.39
  -4   6   6  272.50   18.98
  -4   6   6  270.62   19.17
  -4   7  -7    2.40    3.40
  -4   7  -6  101.83   10.81
  -4   7  -5  155.32   12.43
  -4   7  -4   52.71    6.97
  -4   7  -3   22.57    3.90
  -4   7  -3   26.56    4.94
  -4   7  -2  317.77   15.55
  -4   7  -2  332.04   16.34
  -4   7  -1   73.30    7.99
  -4   7  -1   59.77    6.73
  -4   7   0  472.92   20.43
  -4   7   0  493.83   17.79
  -4   7   1    0.44    2.23
  -4   7   1    6.25    3.10
  -4   7   2  205.18   13.64
  -4   7   2  191.37   14.25
  -4   7   3  229.94   15.46
  -4   7   3  223.77   15.85
  -4   7   4   16.04    4.94
  -4   7   4   15.36    4.81
  -4   7   5   17.76    5.73
  -4   7   5   21.59    6.31
  -4   8  -6   34.19    6.57
  -4   8  -5   16.86    4.57
  -4   8  -4  131.65   11.43
  -4   8  -3   83.12    9.04
  -4   8  -2    6.81    3.36
  -4   8  -1  133.72   11.88
  -4   8   0  271.01   17.05
  -4   8   1   45.25    7.10
  -4   8   1   35.39    6.45
  -4   8   2    5.87    3.61
  -4   8   2    8.94    3.92
  -4   8   3   16.45    5.08
  -4   8   3   17.19    5.52
  -4   8   4   43.16    8.37
  -4   9  -5    7.77    3.86
  -4   9  -4   58.61    8.65
  -4   9  -3   35.37    6.82
  -4   9   2   21.66    5.82
  -4   9   3    9.87    5.88
  -3  -9   2   13.96    4.77
  -3  -9   3   12.64    4.77
  -3  -9   4    1.62    3.05
  -3  -9   5   11.65    4.20
  -3  -9   6   65.27    8.75
  -3  -9   7   18.98    4.81
  -3  -9   8    3.58    3.68
  -3  -9   9    3.88    3.97
  -3  -8   0   41.28    7.72
  -3  -8   1   -0.58    2.57
  -3  -8   2   23.09    5.38
  -3  -8   3   51.88    7.41
  -3  -8   4    6.90    3.03
  -3  -8   5   11.83    3.93
  -3  -8   6   77.42    8.41
  -3  -8   7   73.28    8.68
  -3  -8   8   45.83    7.11
  -3  -8   9    4.67    2.70
  -3  -7  -2   -1.06    3.48
  -3  -7  -1   12.88    4.62
  -3  -7   0  141.33   12.47
  -3  -7   1   12.94    4.00
  -3  -7   2  109.81   10.39
  -3  -7   3    2.61    2.24
  -3  -7   4  102.34    9.23
  -3  -7   5  210.38   13.17
  -3  -7   6    3.49    2.63
  -3  -7   7   75.51    8.00
  -3  -7   8  142.28   10.84
  -3  -6  -3    5.15    3.85
  -3  -6  -2   72.24    9.30
  -3  -6  -1   90.17    9.46
  -3  -6   0   83.53    8.98
  -3  -6   1  138.43   10.97
  -3  -6   2  468.91   19.51
  -3  -6   3  110.64    9.42
  -3  -6   4   68.96    7.33
  -3  -6   5   93.84    8.01
  -3  -6   6   76.06    7.35
  -3  -6   7   83.75    7.66
  -3  -6   8    2.69    2.21
  -3  -5  -4   88.62   11.98
  -3  -5  -3   -1.34    3.34
  -3  -5  -2  153.47   12.73
  -3  -5  -1   78.89    8.48
  -3  -5   0   13.70    3.55
  -3  -5   1   22.21    4.34
  -3  -5   2  179.26   11.20
  -3  -5   3  624.12   20.16
  -3  -5   4  453.34   16.81
  -3  -5   5   49.21    5.43
  -3  -5   6  432.70   16.01
  -3  -5   7  482.85   16.92
  -3  -5   8  116.96    8.73
  -3  -4  -5   15.63    5.11
  -3  -4  -4  102.52   12.47
  -3  -4  -3  131.02   12.32
  -3  -4  -2  142.76   12.06
  -3  -4  -1   19.87    4.32
  -3  -4   0  525.71   19.51
  -3  -4   1 1201.38   28.16
  -3  -4   2    2.60    1.77
  -3  -4   3  735.93   20.55
  -3  -4   4  672.74   18.82
  -3  -4   5  332.05   12.71
  -3  -4   6   12.94    2.61
  -3  -4   7  126.53    8.43
  -3  -4   7  130.08    8.11
  -3  -3  -6  144.11   16.71
  -3  -3  -5   90.47   12.78
  -3  -3  -4   97.26   11.34
  -3  -3  -3  246.02   16.24
  -3  -3  -3  235.24   16.11
  -3  -3  -2  872.27   28.20
  -3  -3  -1   31.52    5.11
  -3  -3   0  104.46    8.35
  -3  -3   1  416.02   15.75
  -3  -3   2 1039.81   23.40
  -3  -3   3  720.47   18.66
  -3  -3   4   89.63    6.20
  -3  -3   5  692.43   16.50
  -3  -3   6 1311.02   22.72
  -3  -3   6 1289.62   25.27
  -3  -3   7   95.42    7.00
  -3  -3   7   95.46    6.28
  -3  -2  -7   10.04    8.40
  -3  -2  -6   86.29   12.46
  -3  -2  -5  317.79   22.09
  -3  -2  -4   75.41    9.72
  -3  -2  -3   65.09    8.30
  -3  -2  -2  276.15   15.24
  -3  -2  -1 1102.86   27.83
  -3  -2   0 1446.99   29.12
  -3  -2   1   36.88    4.45
  -3  -2   2 2734.78   35.26
  -3  -2   3 2011.54   28.12
  -3  -2   4  349.17   11.09
  -3  -2   5    2.54    1.14
  -3  -2   5    8.72    1.89
  -3  -2   6  544.79   15.66
  -3  -2   6  538.45   12.48
  -3  -2   7  756.29   19.50
  -3  -1  -7   94.70   10.43
  -3  -1  -7   81.36   11.69
  -3  -1  -6   65.71   10.48
  -3  -1  -5  130.86   13.22
  -3  -1  -4  798.56   29.15
  -3  -1  -3  973.47   28.70
  -3  -1  -2   16.66    3.52
  -3  -1  -1  302.81   13.17
  -3  -1  -1  294.93   12.99
  -3  -1   0 1312.68   25.51
  -3  -1   1  816.58   18.35
  -3  -1   2   68.35    4.95
  -3  -1   3  200.55    7.70
  -3  -1   3  204.13    8.87
  -3  -1   4 2615.98   25.31
  -3  -1   4 2622.99   31.91
  -3  -1   4 2579.31   21.88
  -3  -1   5 2372.49   19.17
  -3  -1   5 2415.87   31.82
  -3  -1   5 2379.70   21.96
  -3  -1   6   16.64    2.93
  -3  -1   6    5.13    1.07
  -3  -1   7  581.11   17.58
  -3   0  -7  136.06   14.04
  -3   0  -6  495.95   24.90
  -3   0  -5   12.06    3.60
  -3   0  -4   59.77    7.40
  -3   0  -3  600.47   20.69
  -3   0  -2 2432.15   37.38
  -3   0  -1  886.09   20.01
  -3   0   0  274.97    9.95
  -3   0   1 1853.35   23.00
  -3   0   2 1877.85   20.92
  -3   0   2 1863.53   19.85
  -3   0   2 1896.93   25.23
  -3   0   3   28.83    2.21
  -3   0   3   28.89    3.29
  -3   0   3   28.67    1.92
  -3   0   4 1074.48   20.65
  -3   0   5 1575.41   26.52
  -3   0   6  852.44   21.03
  -3   0   7   72.98    6.40
  -3   1  -8  102.04   12.12
  -3   1  -8  111.97   13.10
  -3   1  -7   27.05    6.72
  -3   1  -6  309.86   18.20
  -3   1  -5  549.35   21.80
  -3   1  -4  492.89   19.05
  -3   1  -3   19.51    3.63
  -3   1  -2 2501.55   35.60
  -3   1  -1 2250.87   25.54
  -3   1  -1 2243.87   30.65
  -3   1   0  271.30    9.02
  -3   1   0  244.93    9.10
  -3   1   1  195.68    7.85
  -3   1   1  196.50    7.10
  -3   1   2  812.04   16.83
  -3   1   2  829.71   11.71
  -3   1   3 2457.61   30.43
  -3   1   3 2405.80   13.12
  -3   1   4  449.97   13.95
  -3   1   5   64.71    5.77
  -3   1   6 1379.92   27.94
  -3   1   7  717.38   20.86
  -3   2  -8  255.20   18.24
  -3   2  -7  284.75   17.68
  -3   2  -6   18.10    4.60
  -3   2  -5   73.47    7.76
  -3   2  -4 1072.83   13.33
  -3   2  -4 1050.48   26.41
  -3   2  -3  860.41   13.23
  -3   2  -3  850.09   21.96
  -3   2  -2    1.04    0.50
  -3   2  -2    5.87    1.72
  -3   2  -1  490.75   11.33
  -3   2  -1  485.43   13.88
  -3   2   0 3671.87   32.86
  -3   2   0 3708.70   34.19
  -3   2   1 2328.79   27.72
  -3   2   1 2302.58   24.10
  -3   2   2   69.72    5.16
  -3   2   2   65.99    3.62
  -3   2   3 1402.26   25.07
  -3   2   4 1195.89   24.83
  -3   2   5  428.42   15.51
  -3   2   6   56.29    6.14
  -3   2   7   47.82    6.26
  -3   3  -8   13.48    4.92
  -3   3  -7  313.84   18.07
  -3   3  -6  639.28   23.71
  -3   3  -5  255.65   13.72
  -3   3  -4  177.80   10.54
  -3   3  -3 1781.26   31.40
  -3   3  -3 1829.49   20.00
  -3   3  -2  892.50   20.53
  -3   3  -2  936.89   15.88
  -3   3  -1   44.89    3.83
  -3   3  -1   57.65    4.92
  -3   3   0  373.64   11.59
  -3   3   0  358.77   11.26
  -3   3   1 1213.66   19.13
  -3   3   1 1227.76   22.22
  -3   3   2 1043.05   21.90
  -3   3   2 1058.02   17.34
  -3   3   3  110.46    7.57
  -3   3   4  143.62    9.19
  -3   3   5 1405.15   30.86
  -3   3   6  389.95   17.27
  -3   3   7   58.56    7.31
  -3   4  -9  114.66   12.81
  -3   4  -8  105.80   11.19
  -3   4  -7    2.41    2.64
  -3   4  -6  506.43   20.96
  -3   4  -5  507.73   19.50
  -3   4  -4  241.89   12.51
  -3   4  -3    6.94    1.59
  -3   4  -3    6.59    2.12
  -3   4  -2 1076.60   23.62
  -3   4  -2 1073.30   19.19
  -3   4  -1 1271.49   22.45
  -3   4  -1 1293.15   24.23
  -3   4   0  940.15   19.78
  -3   4   0  951.40   20.44
  -3   4   1    3.49    1.49
  -3   4   1    1.50    0.81
  -3   4   2 1966.59   33.18
  -3   4   3  576.78   19.15
  -3   4   4    1.62    2.04
  -3   4   5   82.51    8.49
  -3   4   6  302.77   16.78
  -3   4   7  221.35   15.09
  -3   4   8   38.26    7.81
  -3   5  -8  205.94   15.51
  -3   5  -7  219.39   14.89
  -3   5  -6   25.29    4.74
  -3   5  -5  233.63   13.52
  -3   5  -4  832.89   23.93
  -3   5  -3  444.62   12.91
  -3   5  -3  441.30   16.45
  -3   5  -2   41.27    2.54
  -3   5  -2   41.59    4.48
  -3   5  -2   39.51    4.87
  -3   5  -1  758.70   20.07
  -3   5  -1  777.73   20.09
  -3   5   0 1356.70   26.13
  -3   5   0 1377.91   28.03
  -3   5   1  417.14   16.44
  -3   5   2   22.74    4.06
  -3   5   3   18.80    4.23
  -3   5   4  298.00   16.43
  -3   5   5  182.43   13.27
  -3   5   6    3.98    3.30
  -3   5   6    5.47    3.58
  -3   5   7  171.37   15.92
  -3   6  -8   50.40    7.86
  -3   6  -7  289.64   17.49
  -3   6  -6  355.10   17.92
  -3   6  -5   27.77    4.92
  -3   6  -4  173.86   11.48
  -3   6  -3  189.66    9.83
  -3   6  -3  211.87   12.27
  -3   6  -2  234.10    7.98
  -3   6  -2  238.64   12.62
  -3   6  -2  249.31   11.99
  -3   6  -1  100.54    6.32
  -3   6  -1   95.08    8.04
  -3   6  -1   87.82    7.52
  -3   6   0  262.65   11.92
  -3   6   0  253.76   13.47
  -3   6   1 1020.23   26.11
  -3   6   1 1000.21   27.95
  -3   6   2  214.57   13.07
  -3   6   2  199.60   13.15
  -3   6   3  225.17   14.54
  -3   6   3  232.52   14.75
  -3   6   4  169.95   13.66
  -3   6   4  182.13   14.03
  -3   6   5  179.70   14.89
  -3   6   6    1.75    3.02
  -3   7  -8   48.70    8.04
  -3   7  -7   28.55    5.94
  -3   7  -6  198.84   14.14
  -3   7  -5  218.01   14.09
  -3   7  -4  162.62   11.55
  -3   7  -3   16.05    3.81
  -3   7  -2  531.97   20.51
  -3   7  -1  239.64   11.14
  -3   7  -1  245.48   14.18
  -3   7   0   31.04    4.78
  -3   7   0   29.43    5.35
  -3   7   1  190.88   12.40
  -3   7   1  173.20   13.11
  -3   7   2  121.53   11.54
  -3   7   2  119.91   10.78
  -3   7   3  143.01   12.45
  -3   7   4   25.13    5.92
  -3   7   5    3.02    4.06
  -3   8  -8  145.82   14.02
  -3   8  -7   48.39    7.78
  -3   8  -6   11.15    4.24
  -3   8  -5  121.69   11.18
  -3   8  -4  227.46   14.87
  -3   8  -3  143.54   11.90
  -3   8   0   79.72    8.59
  -3   8   1   71.57    8.65
  -3   8   2    6.82    3.93
  -3   8   3   62.72    9.40
  -3   8   4  111.93   13.23
  -3   9  -7   30.48    6.50
  -3   9  -6   16.67    4.86
  -3   9  -5   15.08    4.71
  -3   9   0   87.96    9.53
  -3   9   1   80.03   10.25
  -3   9   2   31.42    7.86
  -3   9   3   12.42    5.68
  -3  10   2   17.33    5.69
  -2 -10   5   14.88    4.85
  -2  -9   0    0.85    2.72
  -2  -9   1    9.49    4.24
  -2  -9   2   19.35    5.03
  -2  -9   3    5.41    2.76
  -2  -9   4    0.60    2.10
  -2  -9   5   18.20    4.59
  -2  -9   6   13.15    4.06
  -2  -9   7   23.68    5.31
  -2  -9   8    6.50    3.61
  -2  -9   9   57.22    8.44
  -2  -8  -2    9.47    5.33
  -2  -8  -1   17.76    5.84
  -2  -8   0   21.18    5.79
  -2  -8   1   11.17    3.97
  -2  -8   2   30.58    5.75
  -2  -8   3  230.62   14.29
  -2  -8   4   32.95    5.53
  -2  -8   5    2.98    2.27
  -2  -8   6   68.80    7.87
  -2  -8   7   47.98    6.72
  -2  -8   8   11.96    4.08
  -2  -8   9    6.22    3.37
  -2  -7  -3  102.17   11.84
  -2  -7  -2    3.36    3.38
  -2  -7  -1   18.21    4.83
  -2  -7   0  157.71   12.61
  -2  -7   1   85.23    8.98
  -2  -7   2   10.31    3.24
  -2  -7   3  279.76   14.59
  -2  -7   4   12.24    3.00
  -2  -7   5  258.51   13.58
  -2  -7   6   78.81    7.83
  -2  -7   7   68.14    7.42
  -2  -7   8   94.45    8.88
  -2  -7   9  104.20    9.62
  -2  -6  -4   38.03    6.90
  -2  -6  -3  118.11   11.99
  -2  -6  -2   39.11    6.40
  -2  -6  -1  118.97   10.56
  -2  -6   0    8.08    2.93
  -2  -6   1   77.18    7.69
  -2  -6   2  333.96   15.11
  -2  -6   3  130.94    9.18
  -2  -6   4  123.62    8.75
  -2  -6   5  719.09   20.94
  -2  -6   6  684.35   20.85
  -2  -6   7   18.54    3.88
  -2  -6   8   32.54    4.87
  -2  -5  -5   44.31    9.54
  -2  -5  -4   23.92    6.06
  -2  -5  -3   -0.05    2.86
  -2  -5  -2  182.81   12.83
  -2  -5  -1 1091.20   29.27
  -2  -5   0  325.80   15.16
  -2  -5   1  250.93   12.67
  -2  -5   2  303.20   13.11
  -2  -5   3  793.08   20.43
  -2  -5   4    4.66    1.79
  -2  -5   5    8.23    2.07
  -2  -5   6  575.74   17.74
  -2  -5   7  335.28   13.87
  -2  -5   8  336.18   14.30
  -2  -4  -5   84.07   11.28
  -2  -4  -4  188.64   14.88
  -2  -4  -3  375.45   19.61
  -2  -4  -2  119.46    9.81
  -2  -4  -1  427.59   17.36
  -2  -4   0  607.68   19.26
  -2  -4   1  788.34   20.74
  -2  -4   2  223.96   10.37
  -2  -4   3  818.63   18.87
  -2  -4   4 1464.41   24.65
  -2  -4   5 1316.98   23.62
  -2  -4   6  131.90    7.83
  -2  -4   7  722.14   17.05
  -2  -4   7  749.34   19.06
  -2  -4   8  427.33   15.01
  -2  -3  -6  123.48   13.90
  -2  -3  -5    9.91    4.10
  -2  -3  -4   45.25    7.39
  -2  -3  -3  629.83   24.12
  -2  -3  -2 1296.27   31.66
  -2  -3  -1   60.92    6.24
  -2  -3   0  434.20   15.16
  -2  -3   1 3461.40   39.92
  -2  -3   2 1521.20   24.05
  -2  -3   3   13.18    2.26
  -2  -3   4  952.60   17.70
  -2  -3   5 1792.50   24.61
  -2  -3   6  819.95   17.32
  -2  -3   6  828.40   17.32
  -2  -3   7   14.55    2.38
  -2  -3   7   19.24    2.94
  -2  -2  -6  175.52   12.12
  -2  -2  -6  190.68   16.40
  -2  -2  -5  900.07   33.17
  -2  -2  -4   64.57    8.23
  -2  -2  -3   77.99    8.04
  -2  -2  -3   78.09    8.34
  -2  -2  -2 2353.87   40.42
  -2  -2  -1 1614.36   29.79
  -2  -2   0  413.86   13.73
  -2  -2   1  143.61    7.48
  -2  -2   2 1689.83   22.85
  -2  -2   3 3554.53   30.27
  -2  -2   4  366.24    9.33
  -2  -2   5 1178.91   19.68
  -2  -2   5 1171.64   17.15
  -2  -2   6 1567.12   21.08
  -2  -2   6 1532.18   23.06
  -2  -2   7 1658.25   22.93
  -2  -2   7 1676.76   24.88
  -2  -1  -8  252.98   16.49
  -2  -1  -7  107.07   10.49
  -2  -1  -7   98.02   11.26
  -2  -1  -6    3.52    3.68
  -2  -1  -5  546.39   23.37
  -2  -1  -4  964.79   28.34
  -2  -1  -3  922.92   24.72
  -2  -1  -2  231.42   11.27
  -2  -1  -1 2423.70   32.82
  -2  -1   0 3662.69   36.47
  -2  -1   1 4739.20   37.71
  -2  -1   2 1287.39   17.40
  -2  -1   3 1565.64   16.69
  -2  -1   3 1580.23   20.64
  -2  -1   3 1579.51   15.57
  -2  -1   4 3105.30   30.10
  -2  -1   4 3117.53   21.98
  -2  -1   4 3099.55   21.39
  -2  -1   5  119.76    6.18
  -2  -1   5  106.33    4.19
  -2  -1   6   43.97    2.97
  -2  -1   6   47.16    4.21
  -2  -1   7 1580.16   24.43
  -2   0  -8   99.73   10.92
  -2   0  -7  432.49   20.54
  -2   0  -7  491.84   22.84
  -2   0  -6  478.48   21.33
  -2   0  -5  119.03   10.02
  -2   0  -4  732.55   22.05
  -2   0  -3 2274.93   34.95
  -2   0  -2 1388.31   23.96
  -2   0  -1  318.87   10.07
  -2   0   0  393.06    9.77
  -2   0   1 9999.00   42.20
  -2   0   1 9933.57   47.88
  -2   0   2  808.78   13.92
  -2   0   2  812.91    9.86
  -2   0   3  206.28    7.44
  -2   0   4 1112.28   18.87
  -2   0   5 2726.33   15.41
  -2   0   5 2742.35   31.39
  -2   0   5 2703.02   14.78
  -2   0   6  654.70   16.03
  -2   0   7   85.23    6.19
  -2   0  10  164.51   14.30
  -2   1  -8   55.14    8.60
  -2   1  -8   43.93    7.14
  -2   1  -7   92.45    9.53
  -2   1  -6 1049.17   29.25
  -2   1  -5 1786.97   35.17
  -2   1  -4   47.34    5.29
  -2   1  -3  127.75    7.80
  -2   1  -2 3673.84   37.08
  -2   1  -1 2350.09   26.05
  -2   1  -1 2371.16   20.63
  -2   1   0  325.14    7.95
  -2   1   0  331.06    8.36
  -2   1   1 3275.91   26.46
  -2   1   1 3246.81   21.07
  -2   1   2 4129.31   33.04
  -2   1   2 4195.66   16.29
  -2   1   3 2709.44   29.37
  -2   1   4  421.16   12.71
  -2   1   5 1052.67   21.10
  -2   1   6 1041.42   22.59
  -2   1   7  905.04   22.21
  -2   1   9  151.66   13.29
  -2   1  10  334.76   20.90
  -2   2  -8  372.29   20.92
  -2   2  -8  332.64   18.27
  -2   2  -7  214.43   13.66
  -2   2  -6  172.79   11.28
  -2   2  -5 1431.98   29.90
  -2   2  -4 1616.83   29.13
  -2   2  -3 1145.83   22.37
  -2   2  -3 1151.72   10.89
  -2   2  -2   48.08    2.66
  -2   2  -2   54.83    2.60
  -2   2  -2   61.06    4.64
  -2   2  -1 4202.25   34.46
  -2   2  -1 4230.17   27.89
  -2   2   0 3112.40   26.63
  -2   2   0 3038.91   26.99
  -2   2   1  676.43   11.11
  -2   2   1  685.44   13.87
  -2   2   2  850.85   17.09
  -2   2   3 2220.11   29.78
  -2   2   4 2612.11   34.56
  -2   2   5   32.05    4.30
  -2   2   6  126.19    8.72
  -2   2   7  957.45   25.23
  -2   2   8  344.21   19.69
  -2   2   9   19.40    5.78
  -2   3  -9    9.07    4.78
  -2   3  -9    0.06    3.30
  -2   3  -8  132.83   12.74
  -2   3  -8  112.45   10.82
  -2   3  -7  948.49   28.53
  -2   3  -6  229.86   13.01
  -2   3  -5    7.95    2.32
  -2   3  -4 1355.60   26.64
  -2   3  -3 3490.56   22.28
  -2   3  -3 3525.35   39.67
  -2   3  -2  793.62   17.66
  -2   3  -2  803.65   12.99
  -2   3  -1   26.40    3.03
  -2   3  -1   27.35    2.73
  -2   3   0 2398.17   26.45
  -2   3   0 2406.03   27.67
  -2   3   1 3566.90   36.64
  -2   3   2  368.44   12.81
  -2   3   3    1.70    1.22
  -2   3   4  978.44   23.94
  -2   3   5 1419.29   30.65
  -2   3   6   47.58    5.77
  -2   3   7   16.74    4.87
  -2   3   8  288.84   19.28
  -2   4  -9  242.84   18.55
  -2   4  -9  196.51   14.74
  -2   4  -8   42.48    7.47
  -2   4  -8   38.54    6.44
  -2   4  -7  292.82   16.09
  -2   4  -6  878.40   25.79
  -2   4  -5  513.13   18.45
  -2   4  -4  169.02    9.75
  -2   4  -3 1184.76   16.91
  -2   4  -3 1196.87   24.25
  -2   4  -2 1291.36   20.07
  -2   4  -2 1327.17   24.27
  -2   4  -2 1303.99   12.87
  -2   4  -1 2126.36   21.89
  -2   4  -1 2080.99   29.14
  -2   4  -1 2135.56   28.28
  -2   4   0  124.47    6.86
  -2   4   0  131.63    7.52
  -2   4   1 1015.11   22.30
  -2   4   2 2196.68   35.31
  -2   4   3  755.57   22.07
  -2   4   4   30.91    4.82
  -2   4   5  547.83   20.92
  -2   4   5  559.46   22.99
  -2   4   6  232.43   16.35
  -2   4   7  114.61   12.29
  -2   4   8   -0.74    3.63
  -2   5  -9  242.53   18.57
  -2   5  -9  212.73   15.47
  -2   5  -8  239.28   16.84
  -2   5  -8  195.63   13.89
  -2   5  -7  167.19   12.16
  -2   5  -6  294.88   14.91
  -2   5  -5  563.27   19.60
  -2   5  -4 1584.39   31.15
  -2   5  -3   66.31    6.19
  -2   5  -2  205.80    9.45
  -2   5  -2  190.38    9.89
  -2   5  -2  200.63    7.24
  -2   5  -1 1625.39   23.26
  -2   5  -1 1608.86   28.56
  -2   5  -1 1660.57   28.89
  -2   5   0  175.36    8.82
  -2   5   0  137.03    8.98
  -2   5   1  102.94    7.69
  -2   5   1   98.88    8.03
  -2   5   2  224.29   12.53
  -2   5   2  213.54   12.37
  -2   5   3 1631.64   36.37
  -2   5   3 1570.69   35.24
  -2   5   4  371.90   19.00
  -2   5   5   21.41    5.30
  -2   5   6   42.25    7.49
  -2   5   7  118.21   13.31
  -2   6  -9   12.83    5.60
  -2   6  -9   10.49    4.00
  -2   6  -8  154.59   12.92
  -2   6  -8  162.47   14.05
  -2   6  -7  384.42   18.82
  -2   6  -6   12.57    3.33
  -2   6  -5    0.93    1.47
  -2   6  -4  820.02   23.96
  -2   6  -3  964.24   25.01
  -2   6  -2  179.09   10.70
  -2   6  -1    3.67    1.82
  -2   6   0  790.06   21.63
  -2   6   1  427.89   17.63
  -2   6   2   40.74    5.82
  -2   6   3  298.66   17.23
  -2   6   4  146.27   12.93
  -2   6   5  228.83   17.38
  -2   6   6   36.11    7.86
  -2   7  -9   73.71   10.20
  -2   7  -8    8.17    4.29
  -2   7  -8    5.27    3.64
  -2   7  -7   94.04    9.86
  -2   7  -7   91.86    9.67
  -2   7  -6  210.06   13.87
  -2   7  -5  239.76   14.09
  -2   7  -4   34.74    5.41
  -2   7  -3  849.29   25.93
  -2   7  -1  338.11   14.49
  -2   7   0    8.53    3.01
  -2   7   1  102.96    9.75
  -2   7   2  179.60   13.61
  -2   7   3   47.89    7.78
  -2   7   4    2.28    3.33
  -2   7   5  206.61   17.99
  -2   8  -8   89.88   10.88
  -2   8  -8   71.93    9.66
  -2   8  -7   24.28    5.79
  -2   8  -7   16.76    4.67
  -2   8  -6   73.42    8.01
  -2   8  -6   58.12    7.63
  -2   8  -5   99.80   10.09
  -2   8  -1  358.60   17.11
  -2   8   0  173.52   12.95
  -2   8   1    0.86    2.47
  -2   8   2  124.26   12.73
  -2   8   3  111.89   13.07
  -2   8   4    1.27    4.39
  -2   9  -8   58.94    8.74
  -2   9  -7   91.06   10.82
  -2   9   0   51.07    8.60
  -2   9   1   -0.20    3.54
  -2   9   2   13.15    5.34
  -2   9   3    7.16    3.86
  -2  10   1   57.37   11.41
  -1 -10   1    0.46    3.62
  -1 -10   2    2.38    3.57
  -1 -10   3   18.10    5.11
  -1 -10   4   11.80    3.84
  -1 -10   5   11.92    4.17
  -1 -10   6   -2.49    3.13
  -1 -10   7   37.98    7.09
  -1  -9  -1    3.39    4.15
  -1  -9   0   16.71    5.11
  -1  -9   1   36.46    6.80
  -1  -9   2   37.45    6.25
  -1  -9   3    6.21    3.02
  -1  -9   4   59.12    7.44
  -1  -9   5   99.59    9.72
  -1  -9   6   22.38    5.05
  -1  -9   7    8.68    3.35
  -1  -9   8   10.76    4.09
  -1  -9   9   15.31    4.43
  -1  -8  -2   96.13   11.57
  -1  -8  -1   69.60    9.60
  -1  -8   0    5.35    3.54
  -1  -8   1   62.12    7.71
  -1  -8   2   54.07    6.80
  -1  -8   3    5.23    2.58
  -1  -8   4   27.27    4.79
  -1  -8   5  121.23    9.96
  -1  -8   6  153.24   11.50
  -1  -8   7  115.73   10.27
  -1  -8   8   17.67    4.59
  -1  -8   9   32.83    6.51
  -1  -7  -3    4.86    4.31
  -1  -7  -2   18.03    4.88
  -1  -7  -1  168.45   12.97
  -1  -7   0   68.09    7.82
  -1  -7   1  203.98   12.67
  -1  -7   2   20.60    4.09
  -1  -7   3  223.70   12.28
  -1  -7   4  375.50   15.68
  -1  -7   5   10.66    3.02
  -1  -7   6  140.89   10.39
  -1  -7   7  238.53   13.86
  -1  -7   8  151.54   11.35
  -1  -7   9   16.93    4.66
  -1  -6  -3  159.41   12.74
  -1  -6  -2  154.33   11.90
  -1  -6  -1  240.34   13.96
  -1  -6   0  201.30   12.16
  -1  -6   1  670.47   20.65
  -1  -6   2  204.54   10.87
  -1  -6   3   76.80    6.58
  -1  -6   4  190.66   10.38
  -1  -6   5  213.17   11.24
  -1  -6   6  177.32   10.91
  -1  -6   7   30.51    4.87
  -1  -6   8  354.52   16.14
  -1  -6   9  265.25   14.66
  -1  -5  -5  100.15   12.03
  -1  -5  -4    5.89    4.14
  -1  -5  -3  145.78   11.42
  -1  -5  -2  192.26   12.35
  -1  -5  -1   74.98    7.17
  -1  -5   0   39.57    4.92
  -1  -5   1  564.96   17.29
  -1  -5   2 1346.48   25.18
  -1  -5   3  636.79   17.00
  -1  -5   4   29.19    3.94
  -1  -5   5  611.00   17.79
  -1  -5   6  797.41   21.44
  -1  -5   7  251.22   12.24
  -1  -5   8   22.96    4.06
  -1  -4  -5  218.48   16.50
  -1  -4  -4  321.61   17.63
  -1  -4  -3   85.57    8.35
  -1  -4  -2   85.23    7.84
  -1  -4  -2   78.57    4.34
  -1  -4  -1  604.22   18.24
  -1  -4   0 1572.04   27.21
  -1  -4   1    1.38    0.48
  -1  -4   1    2.15    1.31
  -1  -4   2  821.73   17.37
  -1  -4   3 1155.30   20.88
  -1  -4   4 1285.35   22.49
  -1  -4   5   18.59    2.83
  -1  -4   6  405.58   13.79
  -1  -4   6  445.44   11.33
  -1  -3  -6   84.52   10.31
  -1  -3  -5   79.49    6.90
  -1  -3  -5   78.26    9.36
  -1  -3  -4  188.26    9.70
  -1  -3  -4  187.71   13.08
  -1  -3  -3 1459.32   34.05
  -1  -3  -2  312.66   13.59
  -1  -3  -1  100.58    6.85
  -1  -3   0 1428.78   23.53
  -1  -3   1 2886.02   30.22
  -1  -3   2  313.48    9.42
  -1  -3   3  514.58   12.19
  -1  -3   4  818.23   15.97
  -1  -3   5 1568.21   19.99
  -1  -3   6  251.49    7.31
  -1  -2  -7   69.44    8.06
  -1  -2  -6  580.06   20.58
  -1  -2  -6  601.19   24.84
  -1  -2  -5  197.56   11.01
  -1  -2  -5  211.20   13.94
  -1  -2  -4   18.36    4.16
  -1  -2  -3 1052.35   25.89
  -1  -2  -2 1427.80   27.52
  -1  -2  -1  942.24   19.87
  -1  -2   0   29.08    3.11
  -1  -2   1 1721.74   19.89
  -1  -2   2 3434.35   26.27
  -1  -2   3 1660.09   18.74
  -1  -2   4   70.98    3.71
  -1  -2   5 1702.80   18.58
  -1  -2   6 1937.86   19.55
  -1  -1  -8  120.98   11.18
  -1  -1  -7   18.55    4.09
  -1  -1  -7   19.85    4.10
  -1  -1  -6  148.05   10.64
  -1  -1  -6  154.17   11.69
  -1  -1  -5  705.95   22.67
  -1  -1  -4 1284.01   28.11
  -1  -1  -3  366.69   13.57
  -1  -1  -2   28.91    3.39
  -1  -1  -1 4356.86   36.58
  -1  -1   0 3029.45   27.12
  -1  -1   1  971.85   12.18
  -1  -1   2 1875.47   14.66
  -1  -1   2 1873.97   15.02
  -1  -1   3 3855.42   25.57
  -1  -1   3 3890.00   24.73
  -1  -1   4 2364.48   21.34
  -1  -1   5   16.23    1.88
  -1  -1   6  378.17    9.68
  -1  -1   9   25.30    5.44
  -1   0  -9   -2.38    3.97
  -1   0  -8  107.96   10.71
  -1   0  -7  727.59   24.94
  -1   0  -7  741.62   24.25
  -1   0  -6  142.10   10.05
  -1   0  -6  148.60   10.03
  -1   0  -5  138.49    9.04
  -1   0  -4 2128.38   32.44
  -1   0  -3 3773.94   37.89
  -1   0  -2  183.88    7.26
  -1   0  -1  671.39   10.94
  -1   0  -1  711.09   11.62
  -1   0   2  925.20   11.55
  -1   0   3  444.31    7.19
  -1   0   3  425.09    9.17
  -1   0   4 3964.51   25.12
  -1   0   4 4004.17   31.17
  -1   0   5 2423.90   26.65
  -1   0   6   80.22    5.25
  -1   0   9  183.67   13.53
  -1   1  -9  157.49   13.46
  -1   1  -8    3.75    2.88
  -1   1  -8    8.79    3.00
  -1   1  -7  553.15   21.99
  -1   1  -7  584.02   20.49
  -1   1  -6  399.44   15.96
  -1   1  -5  313.31   12.74
  -1   1  -4   64.38    5.32
  -1   1  -4   55.79    2.33
  -1   1  -3 1962.28   11.45
  -1   1  -3 1989.01   25.79
  -1   1  -2 4388.61   33.57
  -1   1  -1 2554.87   13.53
  -1   1  -1 2595.81   21.11
  -1   1   1 3801.23   25.11
  -1   1   2 5192.64   18.59
  -1   1   2 5133.78   33.65
  -1   1   3   89.35    4.89
  -1   1   3   11.60    1.27
  -1   1   4  457.65    9.69
  -1   1   4  436.29   12.03
  -1   1   5 1248.44   22.26
  -1   1   6  732.79   18.28
  -1   1   7  273.22   15.12
  -1   1   8   37.40    5.99
  -1   1   9  198.84   15.00
  -1   2  -9  252.42   17.30
  -1   2  -8  423.24   20.47
  -1   2  -8  425.03   18.68
  -1   2  -7  137.96   10.73
  -1   2  -7  124.69    9.37
  -1   2  -6   60.36    6.08
  -1   2  -5 2448.22   35.00
  -1   2  -4 1875.46   27.54
  -1   2  -3  337.52   10.47
  -1   2  -2 2290.31   13.99
  -1   2  -2 2285.46   24.77
  -1   2  -1 3656.23   28.27
  -1   2  -1 3663.16   22.97
  -1   2   0 1047.68   13.45
  -1   2   0 1046.49   14.54
  -1   2   1   32.95    2.94
  -1   2   2  306.54    7.03
  -1   2   2  313.33    9.99
  -1   2   3 1925.13   26.99
  -1   2   4 1781.67   28.23
  -1   2   5   27.21    3.94
  -1   2   6  377.49   17.77
  -1   2   7  960.95   30.60
  -1   2   8   95.27   10.62
  -1   2   9   23.22    6.49
  -1   3  -9   49.48    8.08
  -1   3  -8  619.44   25.01
  -1   3  -8  591.98   22.25
  -1   3  -7  711.79   24.70
  -1   3  -7  727.16   22.92
  -1   3  -6  128.28    8.76
  -1   3  -5  209.63   10.54
  -1   3  -4 1048.99   21.99
  -1   3  -3  931.81   18.68
  -1   3  -2 1192.18   19.77
  -1   3  -1   49.77    2.92
  -1   3  -1   48.33    3.47
  -1   3  -1   47.24    3.65
  -1   3   0 4657.40   34.73
  -1   3   0 4657.57   37.91
  -1   3   1 2768.62   32.03
  -1   3   1 2742.81   31.97
  -1   3   2    5.63    1.82
  -1   3   2    1.16    1.06
  -1   3   3  839.00   20.24
  -1   3   3  815.29   21.89
  -1   3   4 1788.70   35.27
  -1   3   5  187.04   12.57
  -1   3   6  105.31   10.07
  -1   3   7   66.18    8.85
  -1   3   8  239.48   17.91
  -1   4  -9  108.84   11.46
  -1   4  -9   93.25    9.28
  -1   4  -8   11.18    4.08
  -1   4  -8    7.29    2.73
  -1   4  -7  459.45   20.04
  -1   4  -7  471.54   18.55
  -1   4  -6  984.91   24.98
  -1   4  -5  788.37   21.01
  -1   4  -4   63.52    5.63
  -1   4  -3 2871.02   35.99
  -1   4  -2 1431.83   23.84
  -1   4  -1  252.35    8.66
  -1   4   0    1.97    1.22
  -1   4   1 1251.22   24.52
  -1   4   1 1218.73   10.64
  -1   4   1 1256.16   24.70
  -1   4   2  466.95   16.66
  -1   4   3  199.93   11.96
  -1   4   4   18.73    4.17
  -1   4   5  620.73   24.76
  -1   4   6  520.52   24.67
  -1   4   7   42.34    6.48
  -1   5  -9  353.68   20.34
  -1   5  -9  386.90   19.49
  -1   5  -8  337.23   18.53
  -1   5  -8  308.81   16.40
  -1   5  -7    0.64    2.49
  -1   5  -7    2.54    2.40
  -1   5  -6  418.68   17.49
  -1   5  -6  416.51   16.87
  -1   5  -5  626.71   19.92
  -1   5  -4  326.49   13.59
  -1   5  -3    1.53    1.40
  -1   5  -1 2085.22   30.51
  -1   5   0 1542.67   28.52
  -1   5   1   45.77    5.54
  -1   5   2  322.25   15.46
  -1   5   3  406.72   18.98
  -1   5   4   79.08    9.18
  -1   5   5   21.16    5.34
  -1   5   6  140.20   14.03
  -1   6  -9   56.83    8.54
  -1   6  -9   56.61    8.01
  -1   6  -8  259.93   16.34
  -1   6  -8  237.45   14.81
  -1   6  -7  455.50   20.32
  -1   6  -7  416.33   18.80
  -1   6  -6  143.08   10.32
  -1   6  -6  121.96    9.73
  -1   6  -5  178.44   10.57
  -1   6  -5  180.13   11.36
  -1   6  -4  508.34   18.42
  -1   6  -1  578.80    7.97
  -1   6  -1  584.45   18.65
  -1   6   0  815.77   23.49
  -1   6   1   78.48    8.02
  -1   6   2  439.20   20.28
  -1   6   3   83.01    9.68
  -1   6   4  247.82   17.61
  -1   6   5   45.18    8.61
  -1   7  -9   86.86   10.51
  -1   7  -9   73.02    9.10
  -1   7  -8   52.00    7.52
  -1   7  -8   37.17    6.59
  -1   7  -7  314.75   16.67
  -1   7  -7  303.78   16.98
  -1   7  -6  253.27   14.04
  -1   7  -6  238.65   14.36
  -1   7  -5   99.27    8.04
  -1   7  -5   90.41    8.91
  -1   7  -3  312.67   10.74
  -1   7  -1  142.39   10.55
  -1   7   0  159.04   12.00
  -1   7   1  243.04   15.84
  -1   7   2  327.40   19.57
  -1   7   3   11.71    4.94
  -1   7   4   11.25    5.17
  -1   8  -9  131.96   12.83
  -1   8  -9  119.56   12.75
  -1   8  -8   47.76    7.76
  -1   8  -8   34.67    6.95
  -1   8  -7    4.14    3.09
  -1   8  -7    9.26    4.10
  -1   8  -6  107.08    9.25
  -1   8  -5  323.96   14.20
  -1   8   0   33.72    6.60
  -1   8   1    7.76    4.56
  -1   8   2   32.53    7.15
  -1   8   3  103.36   13.14
  -1   9  -9   45.55    8.12
  -1   9   1   73.60   11.32
  -1   9   2    7.10    5.97
   0 -10   0   11.68    4.37
   0 -10   1    0.36    2.89
   0 -10   2   38.46    6.29
   0 -10   3   16.34    4.34
   0 -10   4   15.12    4.41
   0 -10   5    2.01    2.72
   0 -10   6    1.12    2.97
   0 -10   7   21.91    5.79
   0  -9  -1    6.57    4.14
   0  -9   0    6.77    4.05
   0  -9   1   32.87    5.92
   0  -9   2   18.00    4.16
   0  -9   3   -0.40    2.10
   0  -9   4   54.90    7.13
   0  -9   5   36.09    6.13
   0  -9   6   33.37    5.97
   0  -9   7   17.08    4.62
   0  -9   8   78.51    9.61
   0  -9   9   42.59    7.36
   0  -8  -2   66.37    9.66
   0  -8  -1   65.56    8.81
   0  -8   0    3.55    2.30
   0  -8   1  117.94    9.72
   0  -8   2  266.70   14.07
   0  -8   3   36.76    5.20
   0  -8   4   -1.42    2.02
   0  -8   5   55.39    6.90
   0  -8   6   88.81    8.89
   0  -8   7   44.53    6.66
   0  -8   8   19.99    5.03
   0  -8   9   56.53    8.18
   0  -7  -3   13.30    5.06
   0  -7  -2   27.89    5.58
   0  -7  -1  147.06   11.47
   0  -7   0  100.70    8.72
   0  -7   1    4.62    2.08
   0  -7   2  330.93   14.24
   0  -7   3   95.15    7.52
   0  -7   4  602.66   20.05
   0  -7   5   38.45    5.32
   0  -7   6  194.44   12.59
   0  -7   7  141.33   11.08
   0  -7   8   98.62    9.48
   0  -7   9    5.35    3.15
   0  -6  -3  134.70   11.39
   0  -6  -2  315.56   16.01
   0  -6  -1   59.03    6.58
   0  -6   0  369.88   14.89
   0  -6   1  485.73   16.10
   0  -6   2    1.10    1.18
   0  -6   3  161.44    9.22
   0  -6   4  729.28   20.86
   0  -6   5  943.74   24.67
   0  -6   6   -2.96    2.54
   0  -5  -4   23.73    5.01
   0  -5  -3  336.80   16.24
   0  -5  -2 1115.36   27.03
   0  -5  -1  232.59   11.41
   0  -5   0   64.06    5.47
   0  -5   1   65.03    5.24
   0  -5   2 1838.47   27.96
   0  -5   3  216.02    9.87
   0  -5   4   87.17    6.63
   0  -4  -4  569.98   21.74
   0  -4  -3    7.07    1.57
   0  -4  -3    9.70    2.93
   0  -4  -2  701.40   19.53
   0  -4  -1 2550.91   33.24
   0  -4   0 1125.07   20.30
   0  -4   1    0.23    0.56
   0  -4   2 2183.83   27.32
   0  -3  -6   26.46    4.01
   0  -3  -6   17.27    3.95
   0  -3  -5  129.46    8.32
   0  -3  -5  126.43   10.65
   0  -3  -4 1329.34   23.26
   0  -3  -4 1298.19   30.27
   0  -3  -3  805.99   21.87
   0  -3  -3  710.32   14.77
   0  -3  -2  127.19    7.52
   0  -3  -2   95.83    4.33
   0  -3  -1  138.77    6.89
   0  -3   0 2506.01   25.95
   0  -3   1 2720.00   26.03
   0  -3   5 1572.29   10.47
   0  -2  -7  229.81   13.67
   0  -2  -6  628.56   20.69
   0  -2  -6  609.64   20.92
   0  -2  -5   69.21    6.29
   0  -2  -5   68.13    6.68
   0  -2  -4   21.18    3.04
   0  -2  -4   26.28    4.10
   0  -2  -3 2373.36   34.26
   0  -2  -3 2324.13   27.07
   0  -2  -2 3898.34   38.89
   0  -2  -2 3925.83   28.18
   0  -2  -1 1751.87   21.07
   0  -2  -1 1770.19   12.81
   0  -2   0 1679.67   17.11
   0  -2   1 4608.38   21.23
   0  -2   1 4657.36   27.82
   0  -2   1 4631.99   26.41
   0  -1  -9  247.72   16.74
   0  -1  -8  179.40   13.34
   0  -1  -7   24.51    4.55
   0  -1  -6  920.66   25.12
   0  -1  -6  908.88   23.25
   0  -1  -5 1887.06   32.41
   0  -1  -5 1911.06   31.43
   0  -1  -4  961.79   20.69
   0  -1  -4  973.63   20.04
   0  -1  -3 1675.33   23.34
   0  -1  -3 1660.81   24.00
   0  -1  -3 1645.17   21.30
   0  -1  -2 3174.40   28.25
   0  -1  -2 3251.46   24.62
   0  -1  -1 2245.26   20.07
   0  -1  -1 2242.27   18.61
   0  -1  -1 2253.23   14.82
   0  -1   2  978.55   12.81
   0  -1   3 6377.06   20.46
   0  -1   4  866.35    9.51
   0  -1   7 1427.46   29.70
   0  -1   8   48.97    6.22
   0   0  -9  208.67   15.32
   0   0  -8  626.85   24.55
   0   0  -7  308.95   15.99
   0   0  -7  339.46   14.22
   0   0  -6   18.43    3.61
   0   0  -6   21.78    3.48
   0   0  -5  382.97   14.46
   0   0  -5  392.18   12.80
   0   0  -4 1642.33   26.93
   0   0  -4 1689.72   23.70
   0   0  -4 1714.14   25.22
   0   0  -3 2388.29   24.24
   0   0  -3 2394.28   19.76
   0   0  -3 2395.07   26.22
   0   0  -2   97.95    3.89
   0   0  -2   90.19    3.09
   0   0  -2  100.88    4.45
   0   0   2  108.81    3.33
   0   0   2  102.72    4.04
   0   0   3 2638.67   20.18
   0   0   6   21.85    3.75
   0   0   7  433.20   17.60
   0   0   8  853.27   27.15
   0   1  -9   65.61    8.73
   0   1  -8   37.71    6.16
   0   1  -7 1089.56   29.37
   0   1  -7 1084.75   24.80
   0   1  -6 2765.11   43.02
   0   1  -6 2688.12   35.10
   0   1  -5  173.33    9.85
   0   1  -5  165.57    4.92
   0   1  -5  161.06    7.92
   0   1  -5  172.91    8.96
   0   1  -4  785.36    9.03
   0   1  -4  804.19   17.35
   0   1  -3 6051.05   20.67
   0   1  -3 6141.86   36.12
   0   1  -2  886.19   11.83
   0   1  -2  921.50   13.81
   0   1   1 2564.87   16.73
   0   1   1 2518.95   21.61
   0   1   1 2543.32   20.38
   0   1   2 3750.64   32.91
   0   1   3 1950.09   27.20
   0   1   4 1139.67   23.70
   0   1   5 2397.54   37.81
   0   1   6 1248.41   30.26
   0   1   7   45.87    6.65
   0   1   8  296.82   17.63
   0   1   9  358.09   20.71
   0   2 -10  155.21   14.07
   0   2  -9  496.50   23.47
   0   2  -8  204.54   13.90
   0   2  -8  216.68   12.02
   0   2  -7  354.78   16.73
   0   2  -7  342.53   14.17
   0   2  -6 1695.34   33.28
   0   2  -6 1680.17   28.30
   0   2  -5  935.01   19.28
   0   2  -5  942.59   21.43
   0   2  -4 1300.44   20.82
   0   2  -4 1325.62   22.75
   0   2  -3  123.39    5.78
   0   2  -3  124.72    6.25
   0   2  -2 4345.53   30.06
   0   2  -2 4315.86   30.93
   0   2  -1 5094.92   21.85
   0   2  -1 5039.22   23.63
   0   2   0 1810.87   20.03
   0   2   1 1921.15   23.75
   0   2   2 4442.65   41.54
   0   2   3 2845.00   37.09
   0   2   4   27.28    4.25
   0   2   5   93.19    8.31
   0   2   6  873.87   27.46
   0   2   7  351.22   18.99
   0   2   8   45.12    7.20
   0   3 -10   10.22    4.49
   0   3  -9  109.08   10.98
   0   3  -8  832.91   27.42
   0   3  -8  791.09   23.21
   0   3  -7  330.37   15.82
   0   3  -7  313.12   13.59
   0   3  -6   53.56    5.86
   0   3  -6   56.62    5.37
   0   3  -5 1641.56   26.79
   0   3  -5 1660.92   28.65
   0   3  -4 4920.07   42.75
   0   3  -4 4756.36   44.60
   0   3  -3  953.39   17.37
   0   3  -3  988.60   17.71
   0   3  -2  499.57    9.97
   0   3  -2  505.27   12.13
   0   3  -2  520.43   10.98
   0   3  -1 3071.34   16.62
   0   3   0 2710.96   30.85
   0   3   1  148.33    8.00
   0   3   2  113.70    7.55
   0   3   3  873.04   23.32
   0   3   4 1729.72   35.94
   0   3   5  224.77   14.02
   0   3   6   37.24    6.34
   0   3   7  459.21   23.86
   0   3   8  276.48   20.34
   0   4 -10  258.14   18.20
   0   4  -9   65.60    8.61
   0   4  -8  415.61   19.34
   0   4  -8  404.44   16.99
   0   4  -7  899.62   26.05
   0   4  -7  893.38   23.93
   0   4  -6  504.38   17.74
   0   4  -6  498.39   16.67
   0   4  -5   59.34    5.63
   0   4  -5   66.05    5.86
   0   4  -4 1100.69   22.13
   0   4  -4 1126.91   22.14
   0   4  -3  891.39   16.46
   0   4  -3  921.49   19.41
   0   4  -2 2322.48   21.26
   0   4   0 1278.03   24.72
   0   4   1 3002.56   40.96
   0   4   2  819.44   23.29
   0   4   3   56.61    6.47
   0   4   4  746.01   26.09
   0   4   5  184.63   14.21
   0   4   6   96.37   11.15
   0   4   7    3.65    4.11
   0   5 -10  239.76   17.51
   0   5  -9  195.44   14.53
   0   5  -9  194.61   12.98
   0   5  -8  158.57   12.24
   0   5  -8  141.04   10.39
   0   5  -7  234.25   13.33
   0   5  -7  242.76   12.81
   0   5  -6  487.19   17.49
   0   5  -6  471.64   17.10
   0   5  -5 1738.82   29.83
   0   5  -5 1724.36   31.68
   0   5  -4   88.10    6.94
   0   5  -3  205.95    7.95
   0   5  -2 2127.58   19.53
   0   5   0   72.48    6.83
   0   5   1  270.83   13.91
   0   5   2 1319.20   33.22
   0   5   3  394.42   19.73
   0   5   4   29.38    6.11
   0   5   5   45.10    7.84
   0   5   6  170.44   15.83
   0   6 -10    5.89    3.24
   0   6  -9  105.07   10.90
   0   6  -9  106.57   10.13
   0   6  -8  447.32   20.27
   0   6  -8  412.57   18.76
   0   6  -7   18.07    3.98
   0   6  -7   14.14    3.31
   0   6  -6    9.37    3.04
   0   6  -6    3.85    2.32
   0   6  -5  931.63   21.94
   0   6  -3  192.67    7.45
   0   6   0  413.73   18.30
   0   6   1   64.77    7.82
   0   6   2  345.68   19.12
   0   6   3  161.88   13.91
   0   6   4  208.46   16.96
   0   6   5   27.74    6.93
   0   7  -9    1.89    2.63
   0   7  -9    5.22    3.92
   0   7  -8  103.60    9.87
   0   7  -8  101.39   10.13
   0   7  -7  168.67   11.74
   0   7  -6  204.71   11.68
   0   7  -5   50.00    5.25
   0   7   1  156.78   13.39
   0   7   2   33.95    7.05
   0   7   3    3.91    3.78
   0   7   4  197.34   18.69
   0   8  -9   56.81    8.36
   0   8  -8   17.11    4.32
   0   8  -7   37.40    5.75
   0   8  -6  104.09    8.66
   0   8   2   85.39   12.13
   0   8   3    5.57    5.10
   1 -10  -1   -4.78    6.26
   1 -10   0    5.95    4.23
   1 -10   1    3.16    3.35
   1 -10   2   20.61    4.70
   1 -10   3   35.62    5.93
   1 -10   4   23.42    5.34
   1 -10   5   12.38    4.19
   1 -10   6   67.11    9.01
   1  -9  -1   51.85    8.26
   1  -9   0   77.33    8.64
   1  -9   1   33.81    5.61
   1  -9   2   32.76    5.28
   1  -9   3   63.19    7.27
   1  -9   4   62.32    7.57
   1  -9   5   40.87    6.52
   1  -9   6    4.37    2.94
   1  -9   7   22.69    5.66
   1  -9   8   46.80    7.73
   1  -8  -2   36.13    7.29
   1  -8  -1    5.13    3.31
   1  -8   0   27.57    4.84
   1  -8   1   60.37    6.58
   1  -8   2   54.58    6.35
   1  -8   3   58.90    6.73
   1  -8   4  238.64   13.81
   1  -8   5  268.99   15.59
   1  -8   6  110.28   10.05
   1  -8   7    3.48    2.50
   1  -8   8   25.34    5.06
   1  -8   9  108.84   10.65
   1  -7  -3   15.37    5.03
   1  -7  -2  314.15   17.03
   1  -7  -1  219.94   13.10
   1  -7   0  144.45    9.55
   1  -7   1  117.34    8.28
   1  -7   2  239.04   11.95
   1  -7   3  271.87   13.36
   1  -7   4    6.28    2.26
   1  -7   5   85.15    8.20
   1  -6  -3   69.62    7.60
   1  -6  -2  418.22   17.37
   1  -6  -1   75.31    6.89
   1  -6   0  661.30   18.48
   1  -6   1  509.85   15.84
   1  -6   2    6.48    1.86
   1  -6   3  425.26   15.63
   1  -5  -4   51.23    6.04
   1  -5  -3  335.88   14.82
   1  -5  -2  290.08   12.69
   1  -5  -1   38.83    4.28
   1  -5   0 1293.51   23.06
   1  -5   1 1858.43   27.57
   1  -5   1 1816.15   15.81
   1  -5   2  331.77   11.93
   1  -4  -4   13.40    3.34
   1  -4  -3  178.65    9.75
   1  -4  -3  175.25    6.52
   1  -4  -2  429.81    8.00
   1  -4  -2  431.31   13.36
   1  -4  -1 1107.49    9.73
   1  -4  -1 1137.39   19.89
   1  -4   0  110.75    5.73
   1  -4   1  224.52    8.51
   1  -4   4   65.95    3.19
   1  -4   5  880.55    9.40
   1  -3  -5  123.43    7.37
   1  -3  -4 1327.24   26.57
   1  -3  -4 1448.42   22.38
   1  -3  -3  722.02   13.26
   1  -3  -3  718.09   17.84
   1  -3  -2    3.84    0.85
   1  -3  -2    2.79    1.12
   1  -3  -1 2566.59   24.86
   1  -3   0 3985.03   30.08
   1  -3   3  953.52   10.47
   1  -3   4 1162.23   11.36
   1  -3   5  257.28    7.14
   1  -2  -6  289.67   13.45
   1  -2  -6  261.84   11.30
   1  -2  -6  276.16   12.11
   1  -2  -5   19.72    2.98
   1  -2  -5   18.98    3.10
   1  -2  -5   15.51    2.59
   1  -2  -4 1517.20   22.55
   1  -2  -4 1489.91   23.95
   1  -2  -3 1660.19   20.50
   1  -2  -3 1659.28   22.91
   1  -2  -2  284.28    7.60
   1  -2  -1   18.75    1.68
   1  -2  -1   22.14    1.93
   1  -2   1 3735.29   22.86
   1  -2   2 2384.65   13.97
   1  -2   3  382.46    6.66
   1  -2   4 2101.37   21.24
   1  -2   5 2843.84   29.61
   1  -2   6   74.27    5.57
   1  -1  -8   30.67    5.92
   1  -1  -7  203.33   12.58
   1  -1  -7  194.36   10.96
   1  -1  -6  600.28   19.48
   1  -1  -6  626.46   18.16
   1  -1  -5 1056.26   21.44
   1  -1  -5 1061.91   23.11
   1  -1  -5 1025.44   18.39
   1  -1  -4  368.97   11.26
   1  -1  -4  379.13   12.03
   1  -1  -4  379.22    9.64
   1  -1  -3    7.53    1.40
   1  -1  -3    6.52    1.45
   1  -1  -3    8.49    1.28
   1  -1  -2 4692.65   22.86
   1  -1  -1 3718.05   15.41
   1  -1   0  529.71    7.73
   1  -1   0  528.18    7.71
   1  -1   1 2711.32   14.52
   1  -1   2 4211.33   24.18
   1  -1   3 2110.90   21.95
   1  -1   4  105.60    5.84
   1  -1   5  370.12   12.33
   1  -1   6  542.25   16.80
   1  -1   7  817.42   23.10
   1   0  -9  116.86   11.65
   1   0  -8  726.79   25.90
   1   0  -7  194.65   12.11
   1   0  -7  179.52   10.64
   1   0  -6   70.50    6.66
   1   0  -6   85.22    5.51
   1   0  -6   70.29    6.25
   1   0  -5 2131.06   30.56
   1   0  -5 2189.39   32.96
   1   0  -5 2113.42   24.36
   1   0  -4 3699.24   36.10
   1   0  -4 3653.92   37.75
   1   0  -4 3702.52   26.35
   1   0  -3  385.64    9.90
   1   0  -3  363.80   10.13
   1   0  -3  376.03    6.48
   1   0  -2  852.08   11.27
   1   0   1  662.97   10.94
   1   0   2  219.84    7.41
   1   0   3 4076.26   36.79
   1   0   4 2452.50   32.23
   1   0   5  162.42    9.44
   1   0   6  208.77   11.63
   1   0   7 1115.78   29.97
   1   1 -10  186.47   15.48
   1   1  -9   13.04    3.29
   1   1  -8  578.74   23.02
   1   1  -8  585.08   21.01
   1   1  -7  477.75   14.48
   1   1  -7  513.59   19.98
   1   1  -6  360.49   14.79
   1   1  -6  335.62   10.75
   1   1  -6  346.70   13.69
   1   1  -5   16.52    2.84
   1   1  -5   16.34    2.22
   1   1  -4 2191.63   27.94
   1   1  -4 2197.80   20.99
   1   1  -3 3591.25   31.07
   1   1  -3 3565.14   22.52
   1   1  -1  872.18   11.87
   1   1   1 4386.73   36.02
   1   1   2  103.61    6.24
   1   1   3  405.09   13.60
   1   1   4 1484.77   28.42
   1   1   5  814.18   23.34
   1   1   6  239.70   13.81
   1   1   7   40.13    6.77
   1   1   8  209.99   15.54
   1   2 -10  257.43   17.89
   1   2  -9  383.93   20.33
   1   2  -8   60.29    7.50
   1   2  -8   69.49    7.30
   1   2  -7   56.27    6.60
   1   2  -7   48.12    4.54
   1   2  -7   61.81    6.46
   1   2  -6 1710.77   32.30
   1   2  -6 1680.09   24.90
   1   2  -6 1686.37   31.06
   1   2  -5 1604.16   27.10
   1   2  -5 1582.53   21.86
   1   2  -4   68.49    5.01
   1   2  -4   65.09    3.99
   1   2  -3 1631.79   20.99
   1   2  -3 1627.10   21.25
   1   2  -3 1639.27   18.79
   1   2   1  840.99   18.69
   1   2   2 1585.48   27.88
   1   2   3 1242.22   26.92
   1   2   4   22.44    3.93
   1   2   5  291.50   15.38
   1   2   6  923.00   29.89
   1   2   7  121.39   12.00
   1   2   8   -0.23    5.20
   1   3 -10   30.55    6.66
   1   3  -9  460.54   21.84
   1   3  -8  732.46   25.49
   1   3  -8  749.71   20.14
   1   3  -8  715.56   23.84
   1   3  -7  293.26   14.62
   1   3  -7  302.58   11.99
   1   3  -7  322.50   14.92
   1   3  -6  236.60   11.91
   1   3  -6  214.92    9.43
   1   3  -6  211.42   11.14
   1   3  -5 1558.42   26.99
   1   3  -5 1528.46   27.09
   1   3  -5 1556.92   23.67
   1   3  -4  817.31   17.61
   1   3  -4  821.19   16.41
   1   3  -3  515.96   12.04
   1   3   1   86.86    4.11
   1   3   1   96.38    7.28
   1   3   2  338.78   14.70
   1   3   3 1756.98   35.53
   1   3   4  278.07   15.39
   1   3   5  126.52   11.18
   1   3   6  131.44   12.58
   1   3   7  259.21   18.49
   1   4 -10  115.11   12.13
   1   4  -9   10.69    3.78
   1   4  -8  515.59   21.26
   1   4  -8  492.54   17.12
   1   4  -8  497.32   20.14
   1   4  -7  664.86   22.21
   1   4  -7  657.70   18.74
   1   4  -7  682.78   21.84
   1   4  -6  409.62   15.76
   1   4  -6  396.52   13.82
   1   4  -6  399.72   15.66
   1   4  -5   28.38    3.73
   1   4  -5   23.87    3.42
   1   4  -5   21.75    3.17
   1   4  -4 1277.36   22.18
   1   4  -3 1149.22   18.50
   1   4  -2  777.75   12.27
   1   4   0 1460.70   10.99
   1   4   1  634.74   10.56
   1   4   1  678.94   21.73
   1   4   2   94.81    8.73
   1   4   3   81.02    8.52
   1   4   4  457.31   21.61
   1   4   5  347.72   20.27
   1   4   6   35.36    7.11
   1   5 -10  196.85   15.39
   1   5  -9  273.17   16.80
   1   5  -8   17.50    4.04
   1   5  -8   19.92    4.44
   1   5  -8   16.03    3.53
   1   5  -7  240.49   13.19
   1   5  -7  238.47   12.54
   1   5  -7  228.08   12.91
   1   5  -6  758.02   21.51
   1   5  -6  771.78   22.14
   1   5  -5  625.27   17.40
   1   5  -5  582.54   17.34
   1   5  -4   26.43    3.33
   1   5  -3  642.74   13.93
   1   5  -2 1434.10   16.44
   1   5   1   86.71    8.73
   1   5   2  226.77   14.77
   1   5   3  200.76   14.98
   1   5   4    7.67    4.09
   1   5   5  179.98   16.37
   1   6 -10   61.55    8.94
   1   6  -9  302.58   17.60
   1   6  -8  354.82   17.61
   1   6  -7   17.59    3.87
   1   6  -7   20.41    4.01
   1   6  -6  176.08   10.62
   1   6  -6  168.55   10.32
   1   6  -5  195.25   10.00
   1   6  -4  207.55    9.28
   1   6  -3   91.25    5.23
   1   6   2  183.01   15.06
   1   6   3  212.74   17.29
   1   6   4   13.93    6.20
   2 -10   0    7.18    4.40
   2 -10   1   45.87    7.09
   2 -10   2   14.37    4.12
   2 -10   3    4.90    2.76
   2 -10   4   14.88    4.42
   2 -10   5    0.49    2.46
   2 -10   6   18.62    5.48
   2  -9  -1   -5.31    4.24
   2  -9   0   36.85    5.89
   2  -9   1   28.48    5.13
   2  -9   2    2.14    1.58
   2  -9   3   77.05    8.34
   2  -9   4   77.76    8.80
   2  -9   5   41.09    6.91
   2  -9   6   35.78    6.48
   2  -9   7   86.64    9.93
   2  -8  -2  103.03   10.33
   2  -8  -1   -0.11    1.77
   2  -8   0  146.37   10.29
   2  -8   1  298.76   14.37
   2  -8   2   30.92    4.77
   2  -8   3    5.37    2.74
   2  -8   4   39.03    5.92
   2  -7  -2  141.84   10.71
   2  -7  -1   89.63    7.90
   2  -7   0    4.60    1.80
   2  -7   1  258.86   12.51
   2  -7   2  102.42    8.07
   2  -6  -3  300.08   14.93
   2  -6  -2   41.56    5.22
   2  -6  -1  363.99   13.87
   2  -6   0  643.13   17.72
   2  -6   1    3.04    1.12
   2  -5  -3 1369.67   27.68
   2  -5  -2  196.42    9.62
   2  -5  -1   88.21    6.08
   2  -5   0  123.84    7.07
   2  -4  -5  430.46   13.44
   2  -4  -4   25.30    3.06
   2  -4  -4   25.34    3.68
   2  -4  -3  608.16   12.53
   2  -4  -3  648.53   16.05
   2  -4  -2 2047.56   26.55
   2  -4  -1  858.54   16.30
   2  -3  -7   19.33    3.83
   2  -3  -6   36.23    4.45
   2  -3  -5 1130.74   21.67
   2  -3  -4  787.36   16.28
   2  -3  -4  793.05   16.61
   2  -3  -3    0.82    0.68
   2  -3  -2  357.46    9.07
   2  -3   3 3901.81   24.39
   2  -2  -8  246.69   13.06
   2  -2  -7  768.06   21.68
   2  -2  -6   92.71    6.92
   2  -2  -5   25.59    3.49
   2  -2  -5   24.55    2.46
   2  -2  -4 2322.98   29.01
   2  -2  -3 2006.72   18.11
   2  -2  -3 2035.55   15.85
   2  -2  -2  766.22   10.10
   2  -2  -2  778.01   10.01
   2  -2   5 1871.68   27.94
   2  -1  -9  113.28    9.52
   2  -1  -8    4.93    2.44
   2  -1  -7  709.32   20.95
   2  -1  -6  941.23   22.14
   2  -1  -6  916.64   14.20
   2  -1  -5  912.93   19.87
   2  -1  -5  882.17   11.57
   2  -1  -4  351.53    5.34
   2  -1  -2 3933.44   16.23
   2  -1  -1 3165.63   21.51
   2  -1   4   51.57    4.89
   2  -1   5 2340.38   35.95
   2  -1   6 1515.04   31.50
   2   0  -9  428.32   18.84
   2   0  -8  481.61   18.78
   2   0  -7   64.80    6.39
   2   0  -6  557.90   17.32
   2   0  -6  594.80   10.48
   2   0  -5 2449.73   32.91
   2   0  -5 2452.33   16.98
   2   0  -2  921.32   13.10
   2   0   3 2564.26   35.34
   2   0   4  897.98   22.69
   2   0   5  129.32    9.53
   2   0   6  728.42   24.01
   2   1 -10   37.89    6.07
   2   1  -9  116.32   10.19
   2   1  -8  877.25   25.87
   2   1  -7 1351.75   29.28
   2   1  -6   46.50    5.00
   2   1  -6   39.21    2.90
   2   1  -5   99.47    6.71
   2   1  -5   94.77    3.86
   2   1  -3 1504.82   15.98
   2   1   3 1120.66   26.12
   2   1   4 1215.90   29.43
   2   1   5  709.88   23.99
   2   1   6    2.98    3.35
   2   1   7  170.31   14.06
   2   2 -10  267.11   16.37
   2   2  -9  200.64   13.66
   2   2  -8   97.06    8.63
   2   2  -7 1409.66   30.75
   2   2  -7 1427.40   21.02
   2   2  -6 1444.60   28.55
   2   2  -6 1434.89   19.71
   2   2  -5 1095.64   22.71
   2   2   3  116.58    9.35
   2   2   4   81.31    8.50
   2   2   5 1179.04   33.85
   2   2   6  305.12   18.38
   2   2   7   16.97    6.99
   2   3 -10  141.65   12.24
   2   3  -9  749.75   26.38
   2   3  -8   87.43    8.38
   2   3  -7   15.63    3.34
   2   3  -6  746.45   21.16
   2   3  -5 1713.37   29.14
   2   3   3  747.42   25.99
   2   3   4   39.96    6.53
   2   3   5   18.17    5.25
   2   3   6  203.33   17.06
   2   4 -10   37.86    6.62
   2   4  -9  216.21   14.64
   2   4  -8  408.33   18.60
   2   4  -7  677.79   21.92
   2   4  -6  128.29    8.97
   2   4  -5 1264.94   25.48
   2   4  -4 1453.55   25.03
   2   5 -10  196.87   14.87
   2   5  -9   55.43    7.65
   2   5  -8  313.96   16.62
   2   5  -7  312.33   15.33
   2   5  -6  570.96   19.07
   2   5  -5   10.50    2.64
   2   5  -4    4.01    1.60
   2   5  -3  755.10   16.35
   2   6 -10   24.21    5.38
   2   6  -9  184.40   13.75
   2   6  -8   22.56    4.81
   2   6  -7   18.51    4.37
   2   6  -6  660.31   20.83
   2   6  -5  674.79   18.90
   2   6  -4  129.15    7.42
   2   6  -3  132.86    6.49
   2   7  -9  101.83   10.39
   2   7  -8   95.09    9.62
   2   7  -7   78.97    8.18
   2   7  -6   71.72    6.95
   2   7  -5  267.80   11.92
   3 -11   1    3.88    3.90
   3 -10   0    3.33    3.53
   3 -10   1    3.20    2.20
   3 -10   2   21.07    5.14
   3 -10   3   34.02    6.31
   3 -10   4   17.39    5.03
   3 -10   5   69.26    9.32
   3  -9  -1   67.44    7.82
   3  -9   0   53.93    6.62
   3  -9   1   20.97    4.52
   3  -9   2   73.52    8.32
   3  -9   3   86.53    9.25
   3  -9   4   27.59    5.40
   3  -8  -2    3.31    2.51
   3  -8  -1   63.45    6.95
   3  -8   0   56.06    6.33
   3  -8   1   20.12    3.93
   3  -8   2   35.63    5.41
   3  -7  -2  114.51    9.06
   3  -7  -1  141.36    9.25
   3  -7   0   25.88    4.10
   3  -7   1  219.50   11.67
   3  -6  -3  223.25   11.95
   3  -6  -2  168.21    9.56
   3  -6  -1  767.91   19.42
   3  -6   0  194.56    9.81
   3  -5  -3   18.28    2.83
   3  -5  -2   26.62    3.49
   3  -5  -1  333.64   11.45
   3  -4  -6  234.63   11.05
   3  -4  -5   59.50    5.29
   3  -4  -4   -0.74    1.54
   3  -4  -3  557.51   13.71
   3  -4  -2 1737.04   23.19
   3  -3  -8  109.82    9.07
   3  -3  -7   38.05    4.61
   3  -3  -6  297.18   12.86
   3  -3  -5 1201.09   24.40
   3  -3  -4  112.76    5.15
   3  -3  -3  107.02    4.85
   3  -2  -9   95.69    9.33
   3  -2  -8  389.48   16.96
   3  -2  -7   40.02    5.16
   3  -2  -6   39.32    4.86
   3  -2  -3 1257.53   12.30
   3  -1 -10   88.77    9.61
   3  -1  -9   64.73    7.92
   3  -1  -8   61.29    6.80
   3  -1  -7  624.51   20.29
   3  -1  -6 1224.51   26.89
   3  -1  -3 2649.31   21.57
   3   0 -10  160.76   12.82
   3   0  -9  442.47   19.59
   3   0  -8   31.31    4.92
   3   0  -7   68.22    6.79
   3   0  -6  721.59   20.98
   3   0  -4 1070.27   10.47
   3   0  -3   28.34    2.92
   3   1 -10   26.77    5.41
   3   1  -9  246.64   14.81
   3   1  -8  314.59   15.92
   3   1  -7  524.47   18.77
   3   1  -6    5.96    2.11
   3   2 -10  283.02   17.42
   3   2  -9    7.22    2.92
   3   2  -8   77.73    8.07
   3   2  -7  664.11   21.44
   3   2  -6  488.45   17.45
   3   3 -10  195.83   14.47
   3   3  -9  365.38   18.43
   3   3  -8  321.69   16.25
   3   3  -7   79.87    7.71
   3   3  -6 1205.85   28.04
   3   4 -10    4.64    2.99
   3   4  -9  352.70   18.51
   3   4  -8  330.12   16.83
   3   4  -7  111.15    9.16
   3   4  -6   16.54    3.59
   3   5 -10  140.32   13.06
   3   5  -9    9.59    4.09
   3   5  -8   93.87    9.14
   3   5  -7  456.16   19.29
   3   5  -6  417.11   17.02
   3   5  -5   52.79    5.96
   3   6 -10  170.82   14.66
   3   6  -9  188.13   14.33
   3   6  -8    4.59    2.95
   3   6  -7   80.01    8.47
   3   6  -6   86.61    8.11
   3   6  -5  100.42    7.82
   3   6  -4   90.99    7.00
   3   7 -10   10.65    5.29
   3   7  -9   72.01    9.63
   3   7  -8  139.68   11.84
   3   7  -7   77.83    8.30
   3   7  -6   -3.89    3.21
   3   8 -10   17.79    6.71
   4 -10   0   13.27    4.08
   4 -10   1   28.46    5.89
   4 -10   2   21.27    5.48
   4 -10   3    4.60    3.43
   4 -10   4    8.54    3.73
   4  -9  -1   36.86    5.31
   4  -9   0    2.61    2.64
   4  -9   1   -0.68    1.96
   4  -9   2   26.95    5.38
   4  -8  -1   27.78    4.90
   4  -8   0  234.01   13.03
   4  -8   1  115.34    9.48
   4  -7  -2  161.76   10.10
   4  -7  -1    2.91    1.92
   4  -6  -2   67.75    6.05
   4  -5  -3  381.58   12.67
   4  -4  -6  368.37   15.34
   4  -4  -3  815.27   15.83
   4  -3  -8    2.23    2.91
   4  -3  -7   16.50    3.58
   4  -3  -4   88.60    4.10
   4  -2 -10    5.64    4.33
   4  -2  -9  111.70   10.61
   4  -2  -8  470.85   19.97
   4  -2  -7  155.04   10.83
   4  -2  -4  982.11   12.66
   4  -1 -10   75.06    9.19
   4  -1  -9    0.79    2.41
   4  -1  -8  529.54   21.40
   4  -1  -7  396.78   17.94
   4  -1  -4  833.54   15.07
   4   0 -10  201.37   15.07
   4   0  -9  258.63   16.06
   4   0  -8   39.60    6.00
   4   1 -10   63.02    8.34
   4   1  -9  440.55   21.13
   4   1  -8  683.48   24.36
   4   2 -10   93.45   10.40
   4   2  -9   53.28    7.58
   4   2  -8  767.83   25.96
   4   3 -10  283.46   18.07
   4   3  -9   33.35    6.03
   4   3  -8    6.11    3.05
   4   4 -10   96.14   10.78
   4   4  -9  195.40   14.37
   4   4  -8  252.72   15.56
   4   4  -7   13.62    3.94
   4   5 -10   21.22    5.69
   4   5  -9   89.76   10.25
   4   5  -8   93.22    9.81
   4   5  -7  295.06   16.32
   4   6 -10  107.09   12.17
   4   6  -9    0.42    3.67
   4   6  -8    1.77    2.96
   4   6  -7  337.55   17.88
   4   6  -6  205.63   13.28
   4   7 -10   40.91    7.99
   4   7  -9   16.33    5.78
   4   7  -8   41.42    7.21
   4   7  -7   28.88    5.92
   5 -10   0   16.05    4.94
   5 -10   1    8.29    4.32
   5 -10   2   10.01    4.44
   5  -9   0    2.27    2.98
   5  -9   1   25.96    5.30
   5  -8  -1   99.32    8.72
   5  -7  -2   30.23    4.60
   5  -4  -7  111.22   10.30
   5  -3  -9   53.01    8.35
   5  -3  -8   11.83    4.54
   5  -2 -10   35.14    6.46
   5  -2  -9  269.69   17.63
   5  -2  -8   31.25    6.10
   5  -1 -10   17.21    5.96
   5  -1  -9   57.09    8.41
   5  -1  -8  173.35   13.91
   5   0 -10  196.94   16.24
   5   0  -9   51.82    7.98
   5   1 -10  170.94   15.19
   5   1  -9  109.22   11.50
   5   2 -10    5.89    3.63
   5   2  -9    2.79    2.49
   5   3 -10  147.90   13.96
   5   3  -9   90.67   10.53
   5   4 -10   87.68   11.07
   5   4  -9  105.52   11.59
   5   4  -8   91.41   10.63
   5   5 -10    4.79    4.50
   5   5  -9   56.53    8.85
   5   5  -8  149.68   13.37
   5   6 -10   56.70    9.88
   5   6  -9    4.65    4.79
   5   6  -8   19.52    5.91
   5   6  -7   70.90    9.47
   5   7 -10   33.93    7.15
   5   7  -9   62.50   10.39
   6 -10   1   17.44    5.50
   6  -9   0    1.32    2.79
   6  -3  -9    9.30    5.74
   6  -2  -9  122.27   13.35
   6  -1  -9  217.22   18.15
   6   0 -10  100.13   12.88
   6   1 -10  125.38   14.14
   6   2 -10   34.15    7.84
   6   3 -10   17.69    5.80
   6   4 -10   52.94    9.83
   6   4  -9   64.88   10.52
   6   5  -9   39.12    8.70
   6   6  -9    4.54    5.85
   6   6  -8  116.54   14.50
   0   0   0    0.00    0.00


TITL 20170629SSS in P1
REM P1 (#1 in standard setting)
CELL 0.71073   7.545829   8.565887   8.608924 108.1890 110.4919  98.6776
ZERR    5.00   0.000709   0.000598   0.000507   0.0059   0.0071   0.0067
LATT -1
SFAC C H B N F I
UNIT 5.00 5.00 5.00 5.00 5.00 5.00
TREF
HKLF 4
END
_computing_structure_solution     'SHELXT 2014/5 (Sheldrick, 2014)'
;
loop_
_space_group_symop_operation_xyz
'x, y, z'
'-x, -y, -z'
loop_
_atom_site_label
_atom_site_type_symbol
_atom_site_fract_x
_atom_site_fract_y
_atom_site_fract_z
_atom_site_U_iso_or_equiv
_atom_site_adp_type
_atom_site_occupancy
_atom_site_site_symmetry_order
_atom_site_calc_flag
_atom_site_refinement_flags_posn
_atom_site_refinement_flags_adp
_atom_site_refinement_flags_occupancy
_atom_site_disorder_assembly
_atom_site_disorder_group
B1 B 0.4114(8) 0.2653(5) 0.7872(6) 0.0379(10) Uani 1 1 d . . . . .
C1 C 0.2518(5) 0.2664(5) 0.4677(5) 0.0338(8) Uani 1 1 d . . . . .
C2 C 0.2067(6) 0.3913(5) 0.3997(5) 0.0355(8) Uani 1 1 d . . . . .
C3 C 0.2655(6) 0.5488(5) 0.5418(5) 0.0343(8) Uani 1 1 d . . . . .
C4 C 0.3492(5) 0.5170(5) 0.6987(5) 0.0315(8) Uani 1 1 d . . . . .
C5 C 0.2141(8) 0.0795(6) 0.3670(6) 0.0493(11) Uani 1 1 d . . . . .
H5A H 0.3171 0.0409 0.4330 0.074 Uiso 1 1 calc GR . . . .
H5B H 0.2122 0.0603 0.2504 0.074 Uiso 1 1 calc GR . . . .
H5C H 0.0888 0.0169 0.3528 0.074 Uiso 1 1 calc GR . . . .
C6 C 0.2426(7) 0.7148(5) 0.5322(6) 0.0457(10) Uani 1 1 d . . . . .
H6A H 0.3278 0.7551 0.4835 0.069 Uiso 1 1 calc GR . . . .
H6B H 0.2773 0.7976 0.6510 0.069 Uiso 1 1 calc GR . . . .
H6C H 0.1077 0.6992 0.4558 0.069 Uiso 1 1 calc GR . . . .
C7 C 0.4281(5) 0.6256(4) 0.8775(5) 0.0312(8) Uani 1 1 d . . . . .
H7 H 0.4302 0.7397 0.9022 0.037 Uiso 1 1 calc R . . . .
F1 F 0.2618(5) 0.1442(4) 0.7743(4) 0.0785(10) Uani 1 1 d . . . . .
F2 F 0.5609(5) 0.1966(4) 0.7722(4) 0.0695(9) Uani 1 1 d . . . . .
I1 I 0.06425(4) 0.34161(4) 0.12839(3) 0.05323(18) Uani 1 1 d . . . . .
N1 N 0.3391(5) 0.3433(4) 0.6490(4) 0.0320(7) Uani 1 1 d . . . . .
N2 N 0.5007(4) 0.5852(4) 1.0166(4) 0.0288(6) Uani 1 1 d . . . . .
loop_
_atom_site_aniso_label
_atom_site_aniso_U_11
_atom_site_aniso_U_22
_atom_site_aniso_U_33
_atom_site_aniso_U_23
_atom_site_aniso_U_13
_atom_site_aniso_U_12
I1 0.0538(2) 0.0723(3) 0.0276(2) 0.01722(16) 0.01207(15) 0.02019(17)
F2 0.103(2) 0.0715(19) 0.0369(14) 0.0128(13) 0.0232(15) 0.0684(18)
F1 0.107(3) 0.0479(16) 0.0405(16) 0.0076(13) 0.0174(17) -0.0292(16)
N2 0.0377(16) 0.0204(14) 0.0259(15) 0.0044(12) 0.0138(13) 0.0112(12)
N1 0.0351(16) 0.0269(15) 0.0267(16) 0.0045(13) 0.0097(13) 0.0114(13)
C2 0.0353(19) 0.044(2) 0.0239(18) 0.0105(16) 0.0103(16) 0.0129(17)
C7 0.0373(19) 0.0249(17) 0.030(2) 0.0077(15) 0.0143(17) 0.0121(15)
C1 0.0340(18) 0.0329(19) 0.0249(18) 0.0013(15) 0.0102(16) 0.0109(15)
C4 0.0370(19) 0.0267(17) 0.032(2) 0.0107(16) 0.0152(16) 0.0133(15)
C3 0.0364(19) 0.038(2) 0.033(2) 0.0147(17) 0.0173(17) 0.0144(16)
C6 0.059(3) 0.038(2) 0.042(2) 0.019(2) 0.019(2) 0.019(2)
C5 0.064(3) 0.036(2) 0.031(2) 0.0007(18) 0.012(2) 0.017(2)
B1 0.058(3) 0.024(2) 0.026(2) 0.0040(17) 0.016(2) 0.0118(19)
loop_
_atom_type_symbol
_atom_type_description
_atom_type_scat_dispersion_real
_atom_type_scat_dispersion_imag
_atom_type_scat_source
C C 0.0033 0.0016 'International Tables Vol C Tables 4.2.6.8 and 6.1.1.4'
H H 0.0000 0.0000 'International Tables Vol C Tables 4.2.6.8 and 6.1.1.4'
B B 0.0013 0.0007 'International Tables Vol C Tables 4.2.6.8 and 6.1.1.4'
N N 0.0061 0.0033 'International Tables Vol C Tables 4.2.6.8 and 6.1.1.4'
F F 0.0171 0.0103 'International Tables Vol C Tables 4.2.6.8 and 6.1.1.4'
I I -0.4742 1.8119 'International Tables Vol C Tables 4.2.6.8 and 6.1.1.4'
loop_
_geom_angle_atom_site_label_1
_geom_angle_atom_site_label_2
_geom_angle_atom_site_label_3
_geom_angle
_geom_angle_site_symmetry_1
_geom_angle_site_symmetry_3
N2 N2 B1 124.3(4) 2_667 2_667
C7 N2 N2 117.8(4) . 2_667
C7 N2 B1 117.9(3) . 2_667
C1 N1 C4 108.3(3) . .
C1 N1 B1 129.3(3) . .
C4 N1 B1 122.3(3) . .
C1 C2 I1 124.3(3) . .
C3 C2 I1 126.2(3) . .
C3 C2 C1 109.5(3) . .
N2 C7 H7 116.6 . .
N2 C7 C4 126.8(3) . .
C4 C7 H7 116.6 . .
N1 C1 C2 108.1(3) . .
N1 C1 C5 123.1(3) . .
C2 C1 C5 128.8(4) . .
N1 C4 C3 109.0(3) . .
C7 C4 N1 120.5(3) . .
C7 C4 C3 130.4(3) . .
C2 C3 C4 105.1(3) . .
C2 C3 C6 127.8(4) . .
C4 C3 C6 127.1(4) . .
C3 C6 H6A 109.5 . .
C3 C6 H6B 109.5 . .
C3 C6 H6C 109.5 . .
H6A C6 H6B 109.5 . .
H6A C6 H6C 109.5 . .
H6B C6 H6C 109.5 . .
C1 C5 H5A 109.5 . .
C1 C5 H5B 109.5 . .
C1 C5 H5C 109.5 . .
H5A C5 H5B 109.5 . .
H5A C5 H5C 109.5 . .
H5B C5 H5C 109.5 . .
F2 B1 N2 107.4(3) . 2_667
F2 B1 N1 111.4(3) . .
F1 B1 F2 110.1(4) . .
F1 B1 N2 107.7(3) . 2_667
F1 B1 N1 111.9(4) . .
N1 B1 N2 108.2(3) . 2_667
loop_
_geom_bond_atom_site_label_1
_geom_bond_atom_site_label_2
_geom_bond_distance
_geom_bond_site_symmetry_2
I1 C2 2.068(4) .
F2 B1 1.375(5) .
F1 B1 1.360(6) .
N2 N2 1.395(5) 2_667
N2 C7 1.308(5) .
N2 B1 1.594(5) 2_667
N1 C1 1.346(5) .
N1 C4 1.395(4) .
N1 B1 1.521(5) .
C2 C1 1.401(5) .
C2 C3 1.387(6) .
C7 H7 0.9300 .
C7 C4 1.373(5) .
C1 C5 1.490(5) .
C4 C3 1.407(5) .
C3 C6 1.482(5) .
C6 H6A 0.9600 .
C6 H6B 0.9600 .
C6 H6C 0.9600 .
C5 H5A 0.9600 .
C5 H5B 0.9600 .
C5 H5C 0.9600 .
B1 N2 1.594(5) 2_667
