#------------------------------------------------------------------------------
#$Date: 2022-06-13 11:09:02 +0300 (Mon, 13 Jun 2022) $
#$Revision: 275991 $
#$URL: file:///home/coder/svn-repositories/cod/cif/8/10/53/8105396.cif $
#------------------------------------------------------------------------------
#
# This file is available in the Crystallography Open Database (COD),
# http://www.crystallography.net/
#
# All data on this site have been placed in the public domain by the
# contributors.
#
data_8105396
loop_
_publ_author_name
'Fang, Hui-Long'
'Zhu, Li-Zhi'
'Li, Biao'
'Wang, Jun-Jie'
_publ_section_title
;
 Crystal structure of
 catena-poly[aqua-(\m4-4,4&#x2032;-(pyridine-3,5-diyl)dibenzoato-\k4
 O,O&#x2032;:O&#x2032;&#x2032;:O&#x2032;&#x2032;&#x2032;)zinc(II)],
 C19H13NO5Zn
;
_journal_issue                   5
_journal_name_full
'Zeitschrift f\"ur Kristallographie - New Crystal Structures'
_journal_page_first              1123
_journal_page_last               1124
_journal_paper_doi               10.1515/ncrs-2020-0197
_journal_volume                  235
_journal_year                    2020
_chemical_formula_moiety         'C19 H13 N O5 Zn'
_chemical_formula_sum            'C19 H13 N O5 Zn'
_chemical_formula_weight         400.67
_space_group_crystal_system      monoclinic
_space_group_IT_number           13
_space_group_name_Hall           '-P 2yc'
_space_group_name_H-M_alt        'P 1 2/c 1'
_atom_sites_solution_hydrogens   mixed
_cell_angle_alpha                90
_cell_angle_beta                 100.449(3)
_cell_angle_gamma                90
_cell_formula_units_Z            2
_cell_length_a                   16.7294(5)
_cell_length_b                   6.4985(2)
_cell_length_c                   7.1414(2)
_cell_measurement_reflns_used    1511
_cell_measurement_temperature    293(2)
_cell_measurement_theta_max      26.3085
_cell_measurement_theta_min      2.8946
_cell_volume                     763.51(4)
_computing_cell_refinement
;
CrysAlisPro, Agilent Technologies,
Version 1.171.35.21 (release 20-01-2012 CrysAlis171 .NET)
(compiled Jan 23 2012,18:06:46) [1]
;
_computing_data_collection
;
CrysAlisPro, Agilent Technologies,
Version 1.171.35.21 (release 20-01-2012 CrysAlis171 .NET)
(compiled Jan 23 2012,18:06:46) [1]
;
_computing_data_reduction
;
CrysAlisPro, Agilent Technologies,
Version 1.171.35.21 (release 20-01-2012 CrysAlis171 .NET)
(compiled Jan 23 2012,18:06:46) [1]
;
_computing_molecular_graphics    'Olex2 1.3 (Dolomanov et al., 2009) [2]'
_computing_publication_material  'Olex2 1.3 (Dolomanov et al., 2009) [2]'
_computing_structure_refinement  'SHELXL 2018/3 (Sheldrick, 2015) [3]'
_computing_structure_solution    'SHELXT 2018/2 (Sheldrick, 2018) [4]'
_diffrn_ambient_temperature      293(2)
_diffrn_detector_area_resol_mean 16.2542
_diffrn_measured_fraction_theta_full 0.996
_diffrn_measured_fraction_theta_max 0.995
_diffrn_measurement_details
;
#__ type_ start__ end____ width___ exp.time_
  1 omega  -51.00   46.00   1.0000   13.9500
omega____ theta____ kappa____ phi______ frames
    -       18.2642  -77.0000  150.0000 97

#__ type_ start__ end____ width___ exp.time_
  2 omega   -1.00   42.00   1.0000   13.9500
omega____ theta____ kappa____ phi______ frames
    -      -18.8892   77.0000  -60.0000 43

#__ type_ start__ end____ width___ exp.time_
  3 omega  -42.00   -9.00   1.0000   13.9500
omega____ theta____ kappa____ phi______ frames
    -      -18.8892   77.0000    0.0000 33

#__ type_ start__ end____ width___ exp.time_
  4 omega    2.00   47.00   1.0000   13.9500
omega____ theta____ kappa____ phi______ frames
    -      -18.8892   77.0000    0.0000 45

#__ type_ start__ end____ width___ exp.time_
  5 omega  -18.00   19.00   1.0000   13.9500
omega____ theta____ kappa____ phi______ frames
    -      -18.8892  -99.0000   60.0000 37
;
_diffrn_measurement_device_type  'Xcalibur, Eos, Gemini'
_diffrn_measurement_method       '\w scans'
_diffrn_orient_matrix_UB_11      0.0178434000
_diffrn_orient_matrix_UB_12      0.0926284000
_diffrn_orient_matrix_UB_13      0.0402628000
_diffrn_orient_matrix_UB_21      -0.0387465000
_diffrn_orient_matrix_UB_22      0.0353202000
_diffrn_orient_matrix_UB_23      0.0130316000
_diffrn_orient_matrix_UB_31      0.0062835000
_diffrn_orient_matrix_UB_32      -0.0456334000
_diffrn_orient_matrix_UB_33      0.0917071000
_diffrn_radiation_monochromator  graphite
_diffrn_radiation_type           'Mo K\a'
_diffrn_radiation_wavelength     0.71073
_diffrn_reflns_av_R_equivalents  0.0260
_diffrn_reflns_av_unetI/netI     0.0388
_diffrn_reflns_Laue_measured_fraction_full 0.996
_diffrn_reflns_Laue_measured_fraction_max 0.995
_diffrn_reflns_limit_h_max       20
_diffrn_reflns_limit_h_min       -20
_diffrn_reflns_limit_k_max       8
_diffrn_reflns_limit_k_min       -8
_diffrn_reflns_limit_l_max       8
_diffrn_reflns_limit_l_min       -8
_diffrn_reflns_number            3268
_diffrn_reflns_point_group_measured_fraction_full 0.996
_diffrn_reflns_point_group_measured_fraction_max 0.995
_diffrn_reflns_theta_full        25.242
_diffrn_reflns_theta_max         26.366
_diffrn_reflns_theta_min         3.135
_diffrn_source                   'Enhance (Mo) X-ray Source'
_exptl_absorpt_coefficient_mu    1.642
_exptl_absorpt_correction_T_max  1.00000
_exptl_absorpt_correction_T_min  0.83377
_exptl_absorpt_correction_type   multi-scan
_exptl_absorpt_process_details
;
CrysAlisPro, Agilent Technologies,
Version 1.171.35.21 (release 20-01-2012 CrysAlis171 .NET)
(compiled Jan 23 2012,18:06:46)
Empirical absorption correction using spherical harmonics,
 implemented in SCALE3 ABSPACK scaling algorithm.
;
_exptl_crystal_colour            colorless
_exptl_crystal_density_diffrn    1.743
_exptl_crystal_description       needle
_exptl_crystal_F_000             408
_exptl_crystal_size_max          0.12
_exptl_crystal_size_mid          0.09
_exptl_crystal_size_min          0.08
_refine_diff_density_max         0.311
_refine_diff_density_min         -0.276
_refine_diff_density_rms         0.065
_refine_ls_extinction_coef       .
_refine_ls_extinction_method     none
_refine_ls_goodness_of_fit_ref   1.056
_refine_ls_hydrogen_treatment    mixed
_refine_ls_matrix_type           full
_refine_ls_number_parameters     124
_refine_ls_number_reflns         1553
_refine_ls_number_restraints     0
_refine_ls_restrained_S_all      1.056
_refine_ls_R_factor_all          0.0387
_refine_ls_R_factor_gt           0.0297
_refine_ls_shift/su_max          0.000
_refine_ls_shift/su_mean         0.000
_refine_ls_structure_factor_coef Fsqd
_refine_ls_weighting_details
'w=1/[\s^2^(Fo^2^)+(0.0303P)^2^+0.3360P] where P=(Fo^2^+2Fc^2^)/3'
_refine_ls_weighting_scheme      calc
_refine_ls_wR_factor_gt          0.0688
_refine_ls_wR_factor_ref         0.0732
_reflns_Friedel_coverage         0.000
_reflns_Friedel_fraction_full    .
_reflns_Friedel_fraction_max     .
_reflns_number_gt                1342
_reflns_number_total             1553
_reflns_threshold_expression     'I > 2\s(I)'
_cod_data_source_file            suppl_ncrs-2020-0197_suppl.cif
_cod_data_source_block           zn
_cod_original_sg_symbol_H-M      'P 2/c'
_cod_database_code               8105396
_chemical_oxdiff_formula         'C H O N Zn'
_chemical_oxdiff_usercomment     HJY8.22-243
_shelx_space_group_comment
;
The symmetry employed for this shelxl refinement is uniquely defined
by the following loop, which should always be used as a source of
symmetry information in preference to the above space-group names.
They are only intended as comments.
;
_shelx_estimated_absorpt_t_max   0.880
_shelx_estimated_absorpt_t_min   0.827
_reflns_odcompleteness_completeness 99.53
_reflns_odcompleteness_iscentric 1
_reflns_odcompleteness_theta     26.32
_olex2_refinement_description
;
1. Fixed Uiso
 At 1.2 times of:
  All C(H) groups
2.a Aromatic/amide H refined with riding coordinates:
 C3(H3A), C4(H4), C5(H5), C7(H7), C9(H9), C10(H10)
;
_shelx_res_file
;
TITL Zn.res in P2/c
    zn.res
    created by SHELXL-2018/3 at 10:48:13 on 12-Apr-2020
REM Old TITL 20120829A in P2(1)/c
REM SHELXT solution in P2/c: R1 0.135, Rweak 0.005, Alpha 0.042
REM <I/s> 0.443 for 139 systematic absences, Orientation as input
REM Formula found by SHELXT: C19 N O5 Cd
CELL 0.71073 16.7294 6.4985 7.1414 90 100.449 90
ZERR 2 0.0005 0.0002 0.0002 0 0.003 0
LATT 1
SYMM -X,+Y,0.5-Z
SFAC C H N O Zn
UNIT 38 26 2 10 2

L.S. 4 0 0
PLAN  5
SIZE 0.12 0.09 0.08
CONF
list 4
MORE -1
BOND $H
fmap 2 53
acta
REM <olex2.extras>
REM <HklSrc "%.\\Zn.hkl">
REM </olex2.extras>

WGHT    0.030300    0.336000
FVAR       0.58390
ZN1   5    0.500000    0.683176    0.750000    10.50000    0.01381    0.01653 =
         0.02958    0.00000    0.00049    0.00000
O1    4    0.451745    0.304903    0.515587    11.00000    0.01382    0.02366 =
         0.02677    0.00387    0.00327   -0.00020
O2    4    0.394834    0.579360    0.622503    11.00000    0.01589    0.02814 =
         0.03694   -0.01179    0.00513   -0.00559
O3    4    0.500000    0.989615    0.750000    10.50000    0.05170    0.01415 =
         0.02965    0.00000   -0.00437    0.00000
H3    2    0.484294    1.066879    0.658765    11.00000    0.04886
N1    3    0.000000   -0.277736    0.250000    10.50000    0.01776    0.01857 =
         0.04544    0.00000    0.00237    0.00000
C1    1    0.390217    0.406771    0.540449    11.00000    0.01682    0.02186 =
         0.01701    0.00314    0.00235   -0.00123
C2    1    0.072506    0.044953    0.301140    11.00000    0.01371    0.02220 =
         0.02016    0.00011    0.00018   -0.00072
C3    1    0.000000    0.152774    0.250000    10.50000    0.01649    0.01483 =
         0.02779    0.00000    0.00206    0.00000
AFIX  43
H3A   2    0.000000    0.295884    0.250000    10.50000   -1.20000
AFIX   0
C4    1    0.223123    0.044725    0.324989    11.00000    0.01868    0.02243 =
         0.02765   -0.00726    0.00132   -0.00115
AFIX  43
H4    2    0.218499   -0.082224    0.263858    11.00000   -1.20000
AFIX   0
C5    1    0.161551    0.339021    0.442922    11.00000    0.01517    0.02041 =
         0.02699    0.00264    0.00317    0.00355
AFIX  43
H5    2    0.115557    0.410662    0.461875    11.00000   -1.20000
AFIX   0
C6    1    0.307293    0.319836    0.474115    11.00000    0.01337    0.02275 =
         0.01964    0.00211    0.00150   -0.00393
C7    1    0.299091    0.130054    0.384159    11.00000    0.01358    0.02399 =
         0.03128   -0.00382    0.00436    0.00047
AFIX  43
H7    2    0.345102    0.059639    0.363490    11.00000   -1.20000
AFIX   0
C8    1    0.153051    0.146699    0.355785    11.00000    0.01286    0.02012 =
         0.02245    0.00265    0.00027   -0.00113
C9    1    0.237725    0.424871    0.501704    11.00000    0.01872    0.01553 =
         0.02734   -0.00279    0.00286   -0.00158
AFIX  43
H9    2    0.242492    0.553394    0.559945    11.00000   -1.20000
AFIX   0
C10   1    0.068041   -0.168623    0.302444    11.00000    0.01280    0.02230 =
         0.03477    0.00333    0.00022    0.00279
AFIX  43
H10   2    0.116031   -0.240975    0.342866    11.00000   -1.20000
AFIX   0
HKLF 4




REM  Zn.res in P2/c
REM wR2 = 0.0732, GooF = S = 1.056, Restrained GooF = 1.056 for all data
REM R1 = 0.0297 for 1342 Fo > 4sig(Fo) and 0.0387 for all 1553 data
REM 124 parameters refined using 0 restraints

END

WGHT      0.0303      0.3360

REM Highest difference peak  0.311,  deepest hole -0.276,  1-sigma level  0.065
Q1    1   0.2980  0.2403  0.3981  11.00000  0.05    0.31
Q2    1   0.1154  0.1042  0.3161  11.00000  0.05    0.30
Q3    1   0.2799  0.3771  0.4740  11.00000  0.05    0.30
Q4    1   0.1818  0.0977  0.3373  11.00000  0.05    0.29
Q5    1   0.0380  0.0955  0.3208  11.00000  0.05    0.28
;
_shelx_hkl_file
;
   4   0   0 1433.55   20.89
  -4   0   0 1401.90   20.84
  -5   0   0  397.91    9.06
   5   0   0  390.99    9.14
   6   0   0  519.65   11.67
  -6   0   0  526.91   11.56
  -7   0   0  452.16   11.18
   7   0   0  457.84   13.75
   8   0   0  601.98   17.19
  -8   0   0  635.64   14.44
   9   0   0 1086.97   25.28
  -9   0   0 1082.41   21.35
  10   0   0  902.13   23.48
  11   0   0  806.86   22.90
  12   0   0  577.37   19.88
  13   0   0  490.76   18.98
  14   0   0  454.45   18.72
  15   0   0  214.63   13.28
  16   0   0  321.18   16.72
  17   0   0   82.73    9.25
  18   0   0  457.56   21.74
 -19   0   0  292.31   18.00
  19   0   0  297.52   18.01
  20   0   0  379.13   20.81
 -20   0   0  356.41   20.54
   0  -1   0   97.44    3.18
  -1  -1   0 2149.10   28.19
   1  -1   0 2174.05   28.15
  -2  -1   0   21.01    1.93
  -3  -1   0    7.08    1.85
   3   1   0    8.53    1.32
  -3  -1   0    9.14    1.34
  -4   1   0  111.22    4.95
   4   1   0  124.17    4.09
  -4  -1   0  127.88    4.20
  -4  -1   0  116.02    5.25
  -5   1   0  430.54   10.97
  -5  -1   0  419.84   11.41
   5  -1   0  417.86   10.72
  -5  -1   0  409.54    8.96
  -6  -1   0    5.53    1.18
  -6   1   0    8.07    2.11
  -6  -1   0    2.88    2.28
   6  -1   0    3.13    1.46
  -7   1   0   72.94    2.79
  -7  -1   0   70.83    3.87
  -7   1   0   76.39    4.84
  -7  -1   0   72.40    5.48
   7  -1   0   65.74    4.93
   7   1   0   74.91    3.98
   8   1   0  529.88   12.39
  -8  -1   0  518.49   12.12
   8  -1   0  514.98   14.86
  -8  -1   0  527.91   15.64
  -8   1   0  513.86    8.59
   9   1   0  134.13    8.79
   9  -1   0  124.25    7.59
  -9  -1   0  117.29    5.63
  -9  -1   0  111.48    7.49
   9   1   0  135.09    6.17
  10   1   0  106.40    8.17
 -10  -1   0   91.94    5.20
 -10  -1   0   88.82    7.08
  10  -1   0   86.83    6.54
  10   1   0  105.75    5.81
 -11  -1   0   56.77    6.37
  11   1   0   55.23    4.42
  11  -1   0   54.00    5.52
  11   1   0   54.67    6.46
  12   1   0   23.17    5.16
  12  -1   0   11.05    3.60
  12   1   0   12.07    2.48
 -12  -1   0   20.84    5.19
  13  -1   0   17.23    4.23
 -13  -1   0   20.12    5.11
  13   1   0   26.32    5.14
  13   1   0   18.24    1.51
  14   1   0  243.42   14.29
 -14  -1   0  249.19   14.40
  14  -1   0  240.37   13.39
  15  -1   0   20.41    4.10
 -15  -1   0   21.66    4.84
  15   1   0   26.26    5.49
  16  -1   0   23.98    5.22
 -16  -1   0   18.77    4.91
  16   1   0   24.82    5.59
 -17  -1   0   39.53    7.04
  17   1   0   50.16    7.19
  17  -1   0   52.60    7.24
  18  -1   0   63.75    8.05
 -18  -1   0   49.86    7.81
  18   1   0   50.40    7.74
  19  -1   0   71.36    8.73
 -19  -1   0   92.51   10.64
  19   1   0   69.92    9.29
  20  -1   0   98.55   10.51
  20   1   0   93.86   10.77
 -20  -1   0   92.29   10.80
   0  -2   0  184.69    6.21
   1  -2   0   58.15    3.57
  -1  -2   0   59.88    3.62
  -2  -2   0  998.54   17.94
  -3  -2   0  150.05    6.15
   4   2   0  299.40    8.32
  -4  -2   0  301.76    9.47
   5   2   0  590.02   12.72
  -5  -2   0  595.75   14.90
   6   2   0 1407.43   23.35
  -6  -2   0 1414.27   26.71
   7   2   0  217.20    7.43
  -7  -2   0  221.54    9.59
  -7  -2   0  219.17    7.58
  -8  -2   0    1.01    2.45
  -8  -2   0    3.01    1.22
  -9  -2   0   15.13    3.63
  -9  -2   0   13.41    2.11
  10   2   0   28.42    3.22
 -10  -2   0   21.31    4.35
 -11  -2   0    7.99    4.09
  11   2   0    5.39    1.73
 -11   2   0    8.79    1.61
 -12  -2   0   65.86    7.28
  12   2   0   71.06    5.30
  13   2   0   51.13    4.65
 -13  -2   0   57.31    6.94
  13   2   0   57.85    7.82
 -14  -2   0  106.92    9.37
  14   2   0  127.03   11.09
  14   2   0  121.63    7.41
  15   2   0   94.86   10.23
 -15  -2   0   77.63    8.62
  16   2   0  152.56   12.83
 -16  -2   0  134.15   11.30
 -17  -2   0   49.83    7.30
  17   2   0   56.45    8.46
  18   2   0   50.33    8.21
 -18  -2   0   35.25    6.77
  19   2   0   -4.55    3.88
 -19  -2   0    2.58    4.27
   0  -3   0 1906.30   31.18
   1  -3   0 1850.54   30.43
  -1  -3   0 1823.42   30.44
   2  -3   0  905.72   19.07
  -2  -3   0  893.99   18.84
  -3  -3   0 1248.66   23.75
  -4  -3   0  898.04   19.83
  -5  -3   0  578.68   15.71
   5   3   0  594.37   14.71
   6   3   0  684.20   16.19
  -6  -3   0  711.31   18.28
  -7  -3   0  576.49   17.09
   7   3   0  579.46   14.80
   8   3   0  256.18    9.40
  -8  -3   0  253.74   11.49
   9   3   0  158.37    7.40
  -9  -3   0  153.20    9.53
  10   3   0  282.59   10.35
 -10  -3   0  282.16   13.39
 -11  -3   0  215.09   12.09
 -12  -3   0  179.70   11.44
  13   3   0  133.16    7.59
 -13  -3   0  141.48   10.70
 -14  -3   0   92.60    8.95
 -15  -3   0  264.43   15.50
  15   3   0  253.71   16.73
  16   3   0  114.30   11.63
 -16  -3   0  126.02   11.20
 -17  -3   0  180.11   13.89
  17   3   0  202.24   15.56
 -18  -3   0  145.48   12.73
  18   3   0  191.83   15.91
  19   3   0  103.39   12.13
 -19  -3   0   85.55   10.14
   0  -4   0  272.74   10.53
   1  -4   0   -0.06    2.01
  -1  -4   0   -0.62    1.89
  -2  -4   0   90.61    6.05
   2  -4   0   83.33    6.12
  -3  -4   0    6.24    2.26
  -4  -4   0   97.24    6.59
   5   4   0    7.45    2.72
  -5  -4   0    3.25    2.30
  -6  -4   0    7.17    2.88
   6   4   0   10.01    3.06
  -7  -4   0   64.52    6.14
   7   4   0   74.85    5.73
  -8  -4   0    0.71    2.59
   8   4   0    0.32    1.97
   9   4   0  146.66    8.15
  -9  -4   0  142.35    9.43
  10   4   0    0.42    1.68
 -10  -4   0    6.43    2.66
 -11  -4   0   11.97    3.83
  11   4   0   13.24    2.89
 -12  -4   0   -2.63    3.07
 -13  -4   0   60.57    7.48
 -14  -4   0    7.00    3.82
 -15  -4   0   11.47    4.95
 -16  -4   0    1.40    3.43
 -17  -4   0    0.47    4.10
  17   4   0   12.33    6.09
   0  -5   0  149.69    8.83
  -1  -5   0  156.91    9.05
   1  -5   0  178.31    9.61
  -2  -5   0  180.35    9.76
   2  -5   0  186.78   10.08
  -3  -5   0  199.47   10.35
  -4  -5   0  397.99   14.86
  -5  -5   0  441.26   15.94
   5   5   0  447.05   16.31
   6   5   0  594.42   18.92
  -6  -5   0  570.97   18.99
   7   5   0    0.03    2.50
  -7  -5   0    1.98    2.76
   8   5   0    2.05    2.16
  -8  -5   0    4.91    3.21
   9   5   0   -1.18    2.35
  -9  -5   0   -0.09    2.67
 -10  -5   0   56.55    6.78
  10   5   0   58.63    5.92
 -11  -5   0   12.03    4.22
  11   5   0   14.51    3.34
 -12  -5   0   39.61    6.15
 -13  -5   0   58.68    7.45
 -14  -5   0  124.52   11.24
 -15  -5   0  164.42   13.14
 -16  -5   0   70.45    9.03
   0  -6   0  245.51   12.53
  -1  -6   0   49.14    5.87
   1  -6   0   44.15    5.43
  -2  -6   0  208.77   11.43
  -3  -6   0  290.46   13.64
  -4  -6   0  194.81   11.08
   5   6   0  491.95   18.93
  -5  -6   0  466.32   18.03
   6   6   0  507.51   19.26
  -6  -6   0  471.49   18.29
  -7  -6   0   28.66    4.75
   7   6   0   26.99    4.70
  -8  -6   0   -6.21    3.23
   8   6   0    0.90    2.34
   9   6   0  118.40    9.17
  -9  -6   0  136.33   10.54
  10   6   0   15.56    3.98
 -10  -6   0   20.12    4.73
 -11  -6   0   32.36    5.65
 -12  -6   0  120.95   10.63
 -13  -6   0   27.85    6.10
   0  -7   0  240.63   13.60
  -1  -7   0   43.41    5.95
   1  -7   0   47.86    6.36
  -2  -7   0   36.55    5.79
  -3  -7   0   -0.75    2.42
  -4  -7   0   29.32    5.31
  -5  -7   0   -5.84    3.56
   5   7   0    1.81    3.29
  -6  -7   0    8.98    3.26
   6   7   0    1.72    3.17
  -7  -7   0    5.83    3.76
   7   7   0    0.72    2.98
   8   7   0   46.55    6.57
  -8  -7   0   44.86    6.88
  -9  -7   0    0.30    3.21
 -10  -7   0   26.62    5.67
  -1  -8   0   89.51    9.04
  -2  -8   0   64.37    7.90
  -3  -8   0   58.14    7.40
 -20   0   1   16.31    6.45
  20   0  -1    3.53    4.16
 -19   0   1    1.42    4.05
  19   0  -1    1.04    3.64
 -18   0   1   -1.28    3.90
  18   0  -1   -0.61    3.50
 -17   0   1   -1.37    4.27
  17   0  -1    2.05    2.93
  16   0  -1   -0.45    2.70
 -16   0   1   -3.48    4.43
 -15   0   1   -4.22    4.18
  15   0  -1   -0.48    2.82
  14   0  -1    3.02    3.51
  13   0  -1   -4.19    3.45
 -12   0   1    0.81    1.15
  12   0  -1   -4.24    3.43
 -11   0   1    0.35    1.20
  11   0  -1    0.56    1.15
  11   0  -1   -0.66    2.58
 -10   0   1    0.57    1.06
  10   0  -1   -0.85    1.07
  10   0  -1   -1.08    2.44
   9   0  -1   -1.21    1.20
   9   0  -1   -0.71    2.00
  -9   0   1    0.51    0.92
  -8   0   1   -0.11    0.82
   8   0  -1    1.01    1.19
   7   0  -1    0.72    1.04
  -7   0   1    1.58    0.89
   7   0  -1    0.29    1.64
   6   0  -1    1.12    1.67
  -6   0   1   -0.63    0.75
   6   0  -1    0.63    1.14
   5   0  -1   -0.62    1.35
  -4   0   1    2.20    1.74
  -3   0   1   -1.09    1.17
   2   0  -1    2.38    0.47
   1   0  -1    7.59    0.84
   0   0  -1    0.37    0.44
  -1   0  -1    0.95    0.76
  -2   0  -1   -1.34    1.22
   2   0   1    1.04    0.98
  -2   0  -1    0.39    0.81
  -3   0  -1    4.45    2.14
  -3   0  -1    2.73    1.21
   3   0   1    1.48    1.01
  -4   0  -1    2.13    1.79
   4   0   1    0.67    0.69
  -5   0  -1   -0.74    1.47
   5   0   1   -1.19    1.54
   6   0   1    2.34    1.65
   7   0   1    0.27    1.43
   8   0   1   -0.98    1.64
   9   0   1    0.64    1.56
  10   0   1    2.03    2.15
  10   0   1   -0.95    2.74
  11   0   1   -1.66    2.77
  12   0   1    5.15    3.63
  13   0   1   -4.59    3.44
  14   0   1    1.63    2.92
  15   0   1    3.23    3.52
  16   0   1   -1.25    2.97
  17   0   1   -5.79    4.28
  18   0   1   -3.15    3.55
  19   0   1    3.48    4.02
  20   0   1   -2.97    3.98
 -20  -1   1  231.20   16.54
  20   1  -1  230.47   16.15
  20  -1  -1  227.74   15.00
  19   1  -1  184.07   13.93
  19  -1  -1  157.87   12.26
 -19  -1   1  164.48   13.38
 -18  -1   1  117.35   11.32
  18  -1  -1  107.84    9.85
  18   1  -1  115.72   10.76
 -17  -1   1  241.43   15.34
  17   1  -1  259.64   15.51
  17  -1  -1  277.15   14.85
  16   1  -1   38.16    6.62
  16  -1  -1   42.18    5.76
 -16  -1   1   35.70    6.30
  15   1  -1  526.14   21.09
  15  -1  -1  500.81   19.11
 -15  -1   1  488.54   20.35
 -14  -1   1  818.46   26.12
  14   1  -1  857.97   26.96
  14  -1  -1  859.37   24.97
  14   1  -1  877.65   16.88
 -13  -1   1  197.67    7.17
  13   1  -1  211.97   12.47
 -13  -1   1  201.38   12.07
  13  -1  -1  213.76   11.27
  13   1  -1  212.78    7.40
 -12  -1   1  123.24    9.12
 -12  -1   1  130.58    5.53
  12  -1  -1  132.21    8.47
  12   1  -1  140.35   10.04
  11   1  -1  627.88   20.15
 -11  -1   1  592.94   19.29
  11  -1  -1  590.64   17.66
 -11  -1   1  584.20   12.31
 -10  -1   1  466.50   16.07
  10  -1  -1  439.01   14.23
 -10  -1   1  452.35    9.87
   9  -1  -1  600.97   16.08
  -9  -1   1  623.17   11.52
  -9  -1   1  624.92   17.95
  -9   1   1  637.44   12.61
  -8   1   1  702.39   17.28
  -8  -1   1  697.32   18.21
   8   1  -1  688.39   12.01
   8  -1  -1  667.66   16.06
  -8  -1   1  676.77   11.60
  -8   1   1  721.17   13.66
  -7  -1   1   58.83    2.42
  -7   1   1   64.75    3.66
  -7   1   1   58.81    4.34
   7  -1  -1   54.44    3.95
   7   1  -1   64.29    2.65
  -7  -1   1   57.70    4.89
   6   1  -1   97.63    2.83
  -6   1   1   98.22    4.52
   6  -1  -1   91.70    4.51
  -6  -1   1   98.59    5.62
  -6   1   1   87.53    4.70
   5  -1  -1  475.45   10.06
  -5  -1   1  470.22   12.06
  -5   1   1  490.63   10.86
  -5   1   1  480.15   10.50
  -4  -1   1   62.95    3.94
  -4   1   1   66.43    3.03
  -4   1   1   70.71    3.96
  -3  -1   1 1112.33   18.88
  -3   1   1 1130.73   15.78
  -2  -1   1   15.90    2.14
  -1  -1   1   16.69    1.83
   0  -1   1 1840.18   26.16
  -1  -1  -1 5154.71   64.15
   1  -1   1 5138.27   64.23
  -1  -1  -1 5212.13   61.01
  -2  -1  -1  329.34    8.20
  -2  -1  -1  313.82    7.36
  -2   1  -1  310.68    8.73
  -3  -1  -1  968.12   17.27
  -3   1  -1  994.28   18.24
  -3   1  -1  955.21   18.50
   4   1   1  937.26   17.68
  -4   1  -1  942.14   18.85
  -4   1  -1  969.17   19.24
  -4  -1  -1  955.43   17.69
  -5  -1  -1  626.93   14.01
  -5   1  -1  640.38   15.49
  -5   1  -1  622.02   15.25
  -6  -1  -1 2929.68   42.79
   7   1   1 1036.05   21.16
   8   1   1  409.28   12.52
   9   1   1  726.45   18.00
   9  -1   1  671.96   19.80
  10   1   1  412.24   16.92
  10  -1   1  374.95   15.05
  10   1   1  412.49   13.59
  11   1   1  396.78   14.01
  11  -1   1  355.21   15.34
  11   1   1  404.69    8.38
  11   1   1  411.01   17.45
  12  -1   1  440.10   17.65
  12   1   1  464.14   19.14
  12   1   1  463.55   15.55
  13   1   1   66.73    6.09
  13   1   1   71.37    7.93
  13  -1   1   57.35    6.84
  14  -1   1    5.74    3.41
  14   1   1    7.65    4.18
  14   1   1    3.05    2.18
 -15  -1  -1  180.99   12.58
  15  -1   1  204.93   13.29
  15   1   1  207.44   11.30
  15   1   1  217.71   14.40
 -16  -1  -1   78.40    8.92
  16   1   1   72.52    8.46
  16  -1   1   63.31    8.16
  17   1   1   96.06   10.51
 -17  -1  -1   97.95   10.36
  17  -1   1   90.55    9.31
  18   1   1   83.25    9.78
 -18  -1  -1   79.38    9.48
  18  -1   1   79.45    9.47
 -19  -1  -1    6.77    4.72
  19  -1   1   10.22    4.66
  19   1   1   14.35    4.93
 -20  -2   1   17.21    5.74
  20   2  -1   23.31    6.08
 -19  -2   1   62.10    8.65
  19   2  -1   75.86    9.88
  18   2  -1  114.75   11.81
 -18  -2   1  102.30   10.64
  17   2  -1  126.74   11.58
 -17  -2   1  112.92   10.59
 -16  -2   1  103.65    9.79
  16   2  -1  120.97   11.34
 -15  -2   1  196.67   13.13
  15   2  -1  204.65   14.16
 -14  -2   1  122.19    9.83
  13   2  -1  239.37    8.21
 -13  -2   1  220.01   12.91
 -12  -2   1  164.91   10.43
  12   2  -1  181.61    6.83
 -11   2   1  455.33   11.83
 -11  -2   1  445.51   16.78
  11   2  -1  454.02   10.92
 -10  -2   1  170.12   10.03
 -10   2   1  183.44    7.37
  10   2  -1  190.60    6.30
  -9  -2   1  391.97   14.32
  -9   2   1  383.94   11.09
  -8  -2   1   54.67    5.43
   8   2  -1   60.93    3.16
  -7  -2   1  460.72   14.33
   7   2  -1  454.07    9.37
  -7   2   1  430.25   12.11
   6   2  -1    4.57    1.11
  -6   2   1    7.98    1.69
  -6  -2   1    7.70    2.47
  -5  -2   1   82.24    5.29
  -4  -2   1    3.61    1.78
  -3   2   1  329.31    8.14
  -3  -2   1  338.14   10.05
  -2  -2   1  626.73   14.12
  -2   2   1  612.07   11.60
  -1   2   1  384.07    8.36
   1  -2  -1  392.89    8.31
  -1  -2   1  393.04   10.63
   0  -2   1   99.52    5.19
   0   2   1  104.38    4.00
   0  -2  -1  107.48    4.02
   1  -2   1 1540.89   25.84
   1   2   1 1531.97   22.98
  -1  -2  -1 1538.36   22.60
   2   2   1  648.44   12.90
  -2  -2  -1  653.94   12.66
   3   2   1  554.84   13.47
   3   2   1  566.20   12.72
  -3  -2  -1  562.41   12.33
  -4  -2  -1  298.60    9.52
  -4  -2  -1  277.21    8.76
   4   2   1  287.66    9.41
  -5  -2  -1  617.55   14.90
   5   2   1  620.38   14.89
  -6  -2  -1  120.57    6.72
   6   2   1  122.21    6.34
  -7  -2  -1  935.74   21.58
   7   2   1  936.99   20.15
  -8  -2  -1  375.84   13.41
  -9  -2  -1  681.96   19.66
 -10  -2  -1  185.58   10.51
  10   2   1  184.96    9.04
  10   2   1  196.43   12.06
  11   2   1  115.56    9.95
 -11  -2  -1   99.57    8.14
  11   2   1  107.69    7.10
 -12  -2  -1  156.62   10.58
  12   2   1  142.17    8.52
  12   2   1  164.50   12.00
  13   2   1  293.92   12.56
 -13  -2  -1  277.15   14.68
  13   2   1  309.06   16.83
  14   2   1    5.35    3.94
  14   2   1   -0.97    2.09
 -14  -2  -1   -1.23    3.09
  15   2   1    2.84    2.16
 -15  -2  -1    3.11    4.16
  15   2   1    1.24    3.88
  16   2   1   96.46   10.32
  16   2   1   84.39    7.32
 -16  -2  -1   98.00   10.06
  17   2   1   68.78    9.08
 -17  -2  -1   61.86    8.33
  18   2   1   39.48    6.86
 -18  -2  -1   33.79    7.18
 -19  -2  -1  111.25   11.06
  19   2   1   91.82   11.11
 -19  -3   1   16.56    5.52
  19   3  -1   16.67    5.46
  18   3  -1    2.25    3.82
 -18  -3   1    0.52    3.04
 -17  -3   1   51.67    7.75
  17   3  -1   50.74    8.10
 -16  -3   1   80.80    9.09
 -15  -3   1   69.60    8.35
 -14  -3   1   16.39    4.68
 -13  -3   1  166.10   11.57
 -12  -3   1   56.26    6.64
  12   3  -1   51.39    3.95
 -11  -3   1    7.07    3.32
  10   3  -1    1.71    1.34
 -10  -3   1   -0.29    2.92
  -9  -3   1   57.20    6.37
   9   3  -1   58.06    3.84
   8   3  -1   35.38    3.07
  -8  -3   1   33.07    4.76
  -7  -3   1    0.76    2.13
   7   3  -1   -0.76    1.18
  -6  -3   1   15.22    3.13
   6   3  -1   19.01    2.51
  -5  -3   1  124.96    7.37
  -4  -3   1    9.44    2.67
  -4   3   1    7.87    1.81
  -3   3   1    5.11    1.60
  -3  -3   1    3.95    2.13
  -2  -3   1   28.80    3.71
  -2   3   1   25.79    2.67
   1  -3  -1  597.01   13.22
  -1   3   1  617.04   13.60
  -1  -3   1  588.18   15.57
   0  -3   1  361.23   11.90
   0  -3  -1  380.55   10.02
   0   3   1  387.92   10.38
   1   3   1    0.61    1.18
  -1  -3  -1    2.80    1.82
   2   3   1  186.12    7.34
   2  -3   1  183.56    8.34
   2   3   1  180.21    8.33
  -2  -3  -1  169.58    6.80
   3   3   1  476.95   14.07
  -3  -3  -1  465.81   12.34
  -4  -3  -1  128.20    6.47
   4   3   1  130.00    7.08
   5   3   1  136.78    7.27
  -5  -3  -1  141.47    7.14
  -6  -3  -1  191.54    8.85
   6   3   1  196.83    8.87
  -7  -3  -1  163.77    8.64
   7   3   1  158.50    8.20
  -8  -3  -1    6.60    3.14
   8   3   1    7.18    2.42
  -9  -3  -1    6.02    2.98
   9   3   1    6.11    2.42
 -10  -3  -1    6.49    3.66
 -11  -3  -1   26.93    5.08
 -12  -3  -1    0.68    3.32
  13   3   1  113.28   10.93
  13   3   1  113.51    7.98
 -13  -3  -1  111.79    9.63
 -14  -3  -1    8.17    3.80
  14   3   1    9.88    2.96
  14   3   1   14.16    5.19
 -15  -3  -1   15.97    4.99
  15   3   1   22.47    5.63
 -16  -3  -1    4.10    3.56
  16   3   1    4.38    3.96
 -17  -3  -1   16.92    4.72
  17   3   1    8.28    4.88
  18   3   1    4.21    4.54
 -18  -3  -1    4.25    4.30
 -18  -4   1   90.78   10.61
 -17  -4   1  106.74   11.10
 -16  -4   1  224.28   15.39
 -15  -4   1  203.78   14.11
 -14  -4   1  429.63   19.93
 -13  -4   1  205.92   13.31
 -12  -4   1  167.13   11.50
 -11  -4   1  309.59   15.19
  11   4  -1  298.46   10.58
 -10  -4   1   74.48    7.72
  10   4  -1   68.36    4.97
  -9  -4   1  577.67   19.92
   9   4  -1  610.84   15.84
  -8  -4   1   65.54    6.53
   8   4  -1   61.79    4.90
   7   4  -1  430.25   13.25
  -7  -4   1  419.03   15.65
  -6  -4   1   26.16    4.20
  -5  -4   1  563.60   17.55
  -4  -4   1  361.76   13.48
  -3  -4   1  177.04    9.16
   2  -4  -1  177.27    7.96
  -2  -4   1  158.54    8.65
   1  -4  -1   36.56    3.92
  -1  -4   1   48.93    4.83
   0  -4  -1  647.88   15.86
   0  -4   1  628.81   17.84
   1  -4   1  455.12   15.12
  -1  -4  -1  439.92   12.83
   2  -4   1  563.20   17.19
  -2  -4  -1  539.13   14.68
   3   4   1 1037.81   24.70
  -3  -4  -1 1039.43   22.11
   4   4   1  546.89   17.07
  -4  -4  -1  544.44   15.53
   5   4   1  954.44   23.54
  -5  -4  -1  962.03   22.32
  -6  -4  -1  343.14   12.87
   6   4   1  343.80   13.23
  -7  -4  -1 1719.77   34.53
   7   4   1 1778.84   35.07
  -8  -4  -1   82.64    7.02
   8   4   1   82.15    6.66
   9   4   1  156.62    9.10
  -9  -4  -1  154.11    9.90
  10   4   1  182.74    9.91
 -10  -4  -1  173.90   10.79
 -11  -4  -1  277.04   14.20
  11   4   1  271.86   12.52
 -12  -4  -1  243.42   13.80
 -13  -4  -1   61.72    7.49
 -14  -4  -1  147.46   11.70
 -15  -4  -1  100.76   10.11
  15   4   1  126.58   12.97
 -16  -4  -1   53.78    8.28
  16   4   1   62.44    9.51
 -17  -4  -1   47.63    7.41
  17   4   1   43.75    8.17
 -16  -5   1   16.27    5.65
 -15  -5   1   58.19    7.79
 -14  -5   1   69.59    8.80
 -13  -5   1   13.11    4.47
 -12  -5   1   29.83    5.89
 -11  -5   1    8.83    4.36
  10   5  -1   27.41    3.87
 -10  -5   1   26.77    5.20
   9   5  -1   48.31    4.98
  -9  -5   1   45.53    6.13
  -8  -5   1  480.68   18.69
   8   5  -1  500.36   16.22
   7   5  -1  228.80   10.85
  -7  -5   1  203.90   11.78
  -6  -5   1  174.54   10.65
  -5  -5   1  224.32   11.63
  -4  -5   1   54.40    5.87
  -3  -5   1   26.36    4.31
  -2  -5   1   23.34    4.44
  -1  -5   1    4.49    3.01
   1  -5  -1    6.24    2.78
   0  -5  -1   38.73    4.50
   0  -5   1   33.29    4.86
  -1  -5  -1  121.69    7.53
   1  -5   1  128.36    8.93
   2  -5   1   65.94    6.90
  -2  -5  -1   62.57    5.47
   3   5   1   89.24    7.48
  -3  -5  -1   90.13    6.68
   4   5   1  106.74    8.30
  -4  -5  -1  111.11    7.36
   5   5   1    3.70    3.24
  -5  -5  -1    7.66    2.77
  -6  -5  -1  832.20   22.91
   6   5   1  897.12   24.87
  -7  -5  -1    4.29    2.66
   7   5   1    2.01    2.54
   8   5   1    4.00    2.75
  -8  -5  -1    3.01    2.58
  -9  -5  -1    8.14    3.20
   9   5   1   10.48    3.30
  10   5   1   92.29    7.89
 -10  -5  -1   87.09    8.17
 -11  -5  -1   17.50    4.04
  11   5   1   17.49    3.43
 -12  -5  -1   51.51    6.74
  12   5   1   48.68    5.87
 -13  -5  -1   36.43    5.96
 -14  -5  -1   -0.26    3.33
 -15  -5  -1   82.25    9.67
 -14  -6   1   39.89    7.18
 -13  -6   1   84.37    9.80
 -12  -6   1   17.91    5.52
 -11  -6   1   48.54    7.21
 -10  -6   1   51.42    6.58
  -9  -6   1   89.68    8.84
   9   6  -1   86.75    7.50
   8   6  -1   39.68    5.07
  -8  -6   1   39.37    5.86
  -7  -6   1   19.49    4.58
   7   6  -1   32.74    5.18
  -6  -6   1    2.96    2.78
  -5  -6   1   47.91    6.31
  -4  -6   1   11.93    3.42
  -3  -6   1   49.64    6.12
  -2  -6   1    4.57    3.22
   1  -6  -1   68.05    6.15
  -1  -6   1   54.53    6.44
   0  -6  -1   43.37    5.11
   0  -6   1   41.28    5.81
  -1  -6  -1  164.02    9.58
   1  -6   1  173.28   11.03
  -2  -6  -1   68.95    6.38
  -3  -6  -1   37.21    4.93
   3   6   1   34.02    5.58
   4   6   1   20.87    4.45
  -4  -6  -1   16.12    3.35
   5   6   1  117.13    9.54
  -5  -6  -1  106.32    8.05
  -6  -6  -1  314.51   14.33
   6   6   1  318.31   15.66
  -7  -6  -1   29.20    4.93
   7   6   1   32.38    5.52
  -8  -6  -1   36.19    5.43
   8   6   1   34.05    5.44
   9   6   1  103.83    9.19
  -9  -6  -1  102.10    8.93
 -10  -6  -1   33.70    5.39
  10   6   1   33.47    5.65
 -11  -6  -1   50.73    6.88
  11   6   1   51.71    6.66
 -12  -6  -1   17.76    4.87
 -13  -6  -1   17.49    4.52
 -10  -7   1  107.35   10.47
  -9  -7   1   43.28    7.01
  -8  -7   1  104.14    9.99
  -7  -7   1   36.25    6.03
   7   7  -1   37.96    5.86
   6   7  -1   57.46    6.95
  -6  -7   1   61.20    7.61
  -5  -7   1   65.49    7.77
  -4  -7   1  104.42    9.59
  -3  -7   1  142.12   10.87
  -2  -7   1  122.40   10.06
  -1  -7   1   47.46    6.75
   0  -7   1  213.43   13.27
   0  -7  -1  194.76   11.60
  -1  -7  -1  144.85   10.12
   1  -7   1  163.78   11.90
  -2  -7  -1   82.77    7.64
  -3  -7  -1  146.67    9.97
   3   7   1  145.96   11.42
   4   7   1  227.56   14.37
  -4  -7  -1  207.71   12.18
   5   7   1   75.59    8.48
  -5  -7  -1   61.39    6.64
   6   7   1  214.08   13.82
  -6  -7  -1  211.71   12.80
   7   7   1  238.35   14.74
  -7  -7  -1  221.94   13.29
   8   7   1  191.08   13.37
  -8  -7  -1  162.27   11.68
   9   7   1   48.11    6.78
  -9  -7  -1   47.13    6.74
  -3  -8   1   -0.17    2.67
  -2  -8   1    5.69    2.95
  -1  -8   1   12.19    4.06
   2   8   1    6.97    4.73
 -20   0   2  110.69   11.42
  20   0  -2  117.91   10.78
  19   0  -2   29.65    5.61
 -19   0   2   22.62    5.81
 -18   0   2  109.31   10.60
  18   0  -2  120.97    9.98
  17   0  -2   15.53    4.04
 -17   0   2   31.09    6.66
  16   0  -2   61.16    6.94
 -16   0   2   63.53    8.00
  15   0  -2   57.71    6.35
 -15   0   2   59.90    7.09
  14   0  -2 2206.95   43.63
  14   0  -2 2244.27   36.11
 -13   0   2 1082.81   19.37
  13   0  -2 1094.89   27.17
  13   0  -2 1109.21   22.17
 -13   0   2 1054.48   28.60
  12   0  -2  667.25   19.60
 -12   0   2  652.36   13.29
  12   0  -2  667.12   16.25
 -12   0   2  611.58   19.98
 -11   0   2 1014.63   25.73
  11   0  -2 1071.75   24.92
 -11   0   2 1048.35   17.74
  11   0  -2 1049.33   21.48
  10   0  -2 1130.64   24.53
 -10   0   2 1077.35   25.50
  10   0  -2 1118.09   22.26
 -10   0   2 1107.88   17.95
   9   0  -2  927.42   20.94
   9   0  -2  926.61   19.56
  -9   0   2  914.86   21.89
  -9   0   2  942.53   15.23
  -8   0   2  840.21   19.66
   8   0  -2  855.66   18.35
   7   0  -2  509.62   13.32
  -7   0   2  502.57   13.55
  -6   0   2  347.07   10.06
   6   0  -2  340.23   10.44
  -6   0   2  343.19    6.67
  -5   0   2 1050.71   18.92
  -5   0   2 1075.13   15.41
  -4   0   2 3860.03   50.63
  -4   0   2 3914.24   48.12
   4   0  -2 3972.10   50.83
   3   0  -2 1413.13   20.10
   3   0  -2 1434.34   20.85
  -3   0   2 1404.82   20.81
  -3   0   2 1411.29   20.50
  -2   0   2 9652.57  117.44
   2   0  -2 9987.87  117.03
  -2   0   2 9999.00  116.12
  -1   0   2 1632.02   22.43
   1   0  -2 1675.53   24.56
   1   0  -2 1664.34   22.41
  -1   0   2 1643.78   26.82
   0   0  -2  425.61    9.15
   0   0   2  421.17   10.88
   0   0  -2  444.51   10.29
   0   0  -2  440.69    8.35
  -1   0  -2  279.18    7.75
  -1   0  -2  278.32    8.49
  -1   0  -2  284.15    8.45
   1   0   2  273.34    8.30
  -2   0  -2  352.15    9.74
  -2   0  -2  352.65    9.59
   2   0   2  355.63    9.48
  -3   0  -2   41.34    3.64
   3   0   2   36.90    2.87
  -3   0  -2   36.75    3.14
  -4   0  -2  504.45   11.40
  -4   0  -2  513.64   14.05
  -5   0  -2  581.21   12.31
   7   0   2 3520.97   55.36
   8   0   2  997.67   24.45
   9   0   2  400.60   15.10
  10   0   2  773.59   24.11
  10   0   2  833.24   23.03
  11   0   2   32.02    4.55
  11   0   2   30.53    5.45
  12   0   2 1121.14   31.96
  12   0   2 1180.49   29.87
  13   0   2  143.79   11.20
  14   0   2  599.91   23.73
  15   0   2  190.28   13.70
  16   0   2  475.20   22.67
  17   0   2  146.47   12.81
  18   0   2  162.57   13.78
  19   0   2   31.25    6.52
 -20  -1   2   33.73    6.75
  20  -1  -2   37.53    6.20
  20   1  -2   38.98    6.51
 -20   1   2   37.83    7.15
  19  -1  -2    6.22    3.15
  19   1  -2    2.68    3.22
 -19   1   2   -5.18    4.58
  18   1  -2   21.76    5.36
 -18   1   2   20.62    5.19
 -18  -1   2   17.49    4.90
  18  -1  -2   14.89    4.01
  17  -1  -2   10.26    3.44
 -17  -1   2    5.84    4.18
 -17   1   2    0.75    3.98
  17   1  -2   10.72    3.71
  16  -1  -2    7.50    3.30
 -16  -1   2   10.69    4.16
  16   1  -2   11.00    4.23
 -15  -1   2   33.59    6.08
  15   1  -2   38.17    3.89
  15   1  -2   43.50    6.38
  15  -1  -2   39.49    5.15
  14   1  -2    1.04    1.61
  14  -1  -2    0.85    2.27
  14   1  -2   -1.51    3.19
 -14  -1   2    1.56    4.26
  13   1  -2  355.83   11.66
  13   1  -2  352.27   15.44
  13  -1  -2  350.63   13.47
 -13  -1   2  350.65   15.54
  12  -1  -2  284.54   11.60
 -12  -1   2  286.06   13.55
  12   1  -2  288.16   10.56
 -11  -1   2   31.38    5.11
  11  -1  -2   34.19    3.79
  10  -1  -2  142.76    7.13
 -10  -1   2  145.12    8.61
  -9   1   2    3.00    1.64
  -9  -1   2   -0.29    2.30
   9  -1  -2   -0.97    1.49
  -8   1   2    4.51    1.70
   8  -1  -2    1.79    1.30
  -8  -1   2    5.39    2.72
   7  -1  -2  265.33    7.49
  -7   1   2  254.17    9.13
  -7  -1   2  280.14   10.30
  -6  -1   2   44.95    3.99
   6  -1  -2   45.98    2.49
  -6   1   2   42.21    3.72
  -5  -1   2  265.00    8.85
  -5   1   2  283.41    9.61
   5   1  -2  270.85    8.95
  -4   1   2    2.64    1.71
  -4  -1   2    0.18    1.51
   4   1  -2    1.59    1.51
   3   1  -2  187.38    6.66
  -3   1   2  183.25    6.46
  -3   1   2  196.42    7.84
  -3   1   2  190.29    4.54
   3   1  -2  194.19    5.22
  -3  -1   2  183.10    6.63
  -2   1   2  388.82   11.41
   2   1  -2  391.37    8.91
  -2  -1   2  386.29    9.87
   2   1  -2  412.52   10.03
  -1   1   2 1599.60   21.85
  -1   1   2 1603.05   27.81
   1  -1  -2 1625.22   25.49
  -1  -1   2 1608.34   25.27
   1   1  -2 1607.37   25.11
   1   1  -2 1666.57   25.37
  -1  -1   2 1611.49   25.13
   0   1   2 2034.32   28.88
   0   1  -2 2017.57   31.16
   0  -1   2 2034.56   30.41
   0   1  -2 2080.30   30.34
   0  -1  -2 2087.31   31.04
   0   1   2 2074.79   33.03
   1   1   2  350.92    9.62
  -1   1  -2  375.11   10.55
   1   1   2  364.89   10.90
  -1   1  -2  368.93    9.48
  -1  -1  -2  387.60   10.36
   2   1   2    0.87    1.55
   2   1   2    6.41    2.06
  -2  -1  -2    0.90    1.62
  -2   1  -2    6.94    2.08
   3   1   2  114.24    6.53
   3   1   2  120.41    5.86
  -3   1  -2  123.45    6.10
   4   1   2    0.54    1.50
   5   1   2   19.58    2.50
   6   1   2  786.23   16.59
  -6   1  -2  791.52   15.00
   7   1   2   51.91    4.80
   7   1   2   52.81    3.80
  -7   1  -2   47.32    3.02
  -8   1  -2  102.98    4.12
   8   1   2   98.80    5.03
   8   1   2   91.98    6.71
   9   1   2  123.17    5.45
  -9   1  -2  102.51    3.77
   9  -1   2  101.69    7.95
   9   1   2  102.27    7.13
  10   1   2   32.46    2.71
  10  -1   2   30.55    4.78
  10   1   2   19.82    4.75
  10   1   2   26.48    4.10
  11   1   2    4.95    3.51
  11   1   2    3.74    1.18
  11   1   2    7.92    3.02
  11  -1   2    3.77    3.10
  12  -1   2   90.25    8.44
  12   1   2  104.67    8.13
  12   1   2  118.30   10.14
  13   1   2  384.73   16.24
  13   1   2  399.62   19.04
  13  -1   2  349.48   17.40
  14   1   2   43.79    6.76
  14  -1   2   35.65    6.03
  14   1   2   50.72    6.01
  15   1   2    8.51    3.07
  15  -1   2    6.95    3.04
  16  -1   2   44.21    6.76
  16   1   2   50.50    6.44
  16   1   2   46.91    7.28
  17   1   2   66.64    8.96
  17  -1   2   65.90    8.80
 -17  -1  -2   57.03    8.19
  18   1   2   13.63    4.47
 -18  -1  -2   36.43    7.42
  19   1   2    3.41    3.62
 -19  -1  -2    5.52    5.05
  20   2  -2   37.96    7.18
 -20  -2   2   32.60    7.04
 -19  -2   2   51.21    8.08
  19   2  -2   52.71    8.06
  18   2  -2   48.51    8.05
 -18  -2   2   51.30    7.95
 -17  -2   2   24.97    5.76
  17   2  -2   31.63    6.48
  16   2  -2  125.33   11.13
 -16  -2   2  124.12   10.74
 -15  -2   2   60.71    7.58
 -14  -2   2   76.78    8.16
 -13  -2   2   52.14    7.02
 -12  -2   2  147.70   10.35
 -11  -2   2   70.37    7.11
 -10  -2   2  160.21    9.59
  -9   2   2  182.95    8.01
  -9  -2   2  167.35    9.40
  -8  -2   2 1792.74   34.62
  -8   2   2 1840.29   29.98
  -7  -2   2  185.47    8.94
  -7   2   2  185.26    6.53
   7   2  -2  169.25    4.06
  -6  -2   2  125.88    7.06
  -6   2   2  138.42    5.00
  -5   2   2   99.68    3.77
  -5  -2   2   89.82    5.84
  -4  -2   2  148.19    7.13
  -3   2   2   60.69    2.67
  -3  -2   2   58.17    4.49
  -2  -2   2   47.79    4.05
  -2   2   2   44.22    1.99
  -1   2   2   30.06    1.58
   1  -2  -2   33.21    1.66
  -1  -2   2   31.69    3.41
   0  -2  -2   11.80    1.11
   0  -2   2   11.80    2.23
   0   2   2   11.14    1.20
  -1  -2  -2   10.36    1.24
   1  -2   2   12.27    2.66
  -2  -2  -2  301.61    7.59
  -3  -2  -2   75.37    4.04
   4   2   2  231.53    9.64
  -4  -2  -2  248.63    8.25
   5   2   2   57.05    4.89
  -5  -2  -2   56.14    4.36
  -6  -2  -2  182.67    8.33
   6   2   2  182.05    8.82
   7   2   2   60.88    6.40
  -7  -2  -2   42.74    4.72
   8   2   2  190.13   11.53
  -8  -2  -2  191.40    9.68
   9   2   2  121.42    9.65
  -9  -2  -2  114.53    7.99
  10   2   2  297.38   15.67
 -10  -2  -2  295.98   13.45
  10   2   2  302.33   13.05
  11   2   2  144.97   11.52
  11   2   2  147.27    9.44
 -11  -2  -2  135.98    9.83
  12   2   2  304.36   16.81
  12   2   2  318.74   14.12
 -12  -2  -2  301.19   14.88
  13   2   2  197.45   13.92
 -13  -2  -2  217.62   13.17
  13   2   2  218.83   12.04
  14   2   2   66.29    6.76
 -14  -2  -2   63.73    7.91
  14   2   2   72.57    8.97
  15   2   2    8.45    3.91
 -15  -2  -2    8.51    4.18
  15   2   2    2.46    2.22
  16   2   2   54.10    8.36
  16   2   2   60.70    6.99
 -16  -2  -2   65.59    8.46
  17   2   2    1.25    3.77
 -17  -2  -2    8.86    5.04
  18   2   2   72.24    9.60
 -18  -2  -2   52.29    8.25
  19   3  -2   71.40    9.42
 -19  -3   2   59.40    8.62
 -18  -3   2   56.98    8.50
  18   3  -2   53.71    8.41
 -17  -3   2  121.55   11.59
 -16  -3   2   80.01    9.33
 -15  -3   2  156.02   12.00
 -14  -3   2  225.29   13.94
 -13  -3   2  333.66   16.44
 -12  -3   2  356.95   16.37
 -11  -3   2  468.42   18.26
 -10  -3   2  646.72   21.05
  10   3  -2  659.05   12.11
  -9  -3   2  351.95   14.41
   9   3  -2  343.39    8.26
  -8  -3   2  678.68   20.11
   8   3  -2  693.50   13.35
  -7   3   2 1262.74   22.99
  -7  -3   2 1262.88   28.36
  -6  -3   2  572.43   17.31
  -5   3   2  406.68   10.60
  -5  -3   2  410.38   14.11
  -4   3   2  595.35   12.88
  -4  -3   2  612.36   17.21
  -3   3   2  768.39   14.52
  -3  -3   2  749.65   19.27
  -2  -3   2  468.91   14.54
  -2   3   2  460.84   10.32
   1  -3  -2  465.46   10.13
  -1  -3   2  475.16   14.72
  -1   3   2  468.51   10.27
   0   3   2   51.50    3.14
   0  -3   2   43.38    4.40
   0  -3  -2   51.93    3.11
   1  -3   2  406.92   13.71
   1   3   2  384.42    9.69
  -1  -3  -2  372.32    9.24
   2   3   2  412.69   10.70
  -2  -3  -2  412.20   10.25
  -3  -3  -2  337.75    9.74
   3   3   2  355.84   10.42
   3   3   2  344.16   12.72
  -4  -3  -2  942.11   19.12
   4   3   2  909.81   22.56
  -5  -3  -2  421.34   12.47
   5   3   2  411.73   14.45
   6   3   2  100.29    7.10
  -6  -3  -2  107.27    6.67
  -7  -3  -2  749.02   19.44
   7   3   2  727.98   20.59
  -8  -3  -2 1013.26   24.42
   8   3   2  992.46   25.10
  -9  -3  -2  265.59   12.28
   9   3   2  259.09   11.98
  10   3   2  334.29   17.55
 -10  -3  -2  338.93   14.51
  11   3   2  371.14   18.83
 -11  -3  -2  359.56   15.67
  12   3   2  218.96   15.04
 -12  -3  -2  224.53   12.86
 -13  -3  -2  554.41   21.34
  13   3   2  585.34   25.38
  13   3   2  565.20   20.11
  14   3   2  203.83   15.43
 -14  -3  -2  222.93   13.88
  14   3   2  204.57   12.15
  15   3   2  126.00   12.53
 -15  -3  -2  134.18   11.22
  15   3   2  130.92    9.88
 -16  -3  -2   80.91    9.23
  16   3   2   87.77   10.77
 -17  -3  -2   56.98    8.17
  17   3   2   54.46    8.60
 -18  -4   2    3.14    4.19
 -17  -4   2   -4.02    3.80
 -16  -4   2   10.35    5.02
 -15  -4   2   21.35    5.94
 -14  -4   2   24.48    5.43
 -13  -4   2   38.09    6.40
 -12  -4   2    0.40    3.57
 -11  -4   2   -1.35    2.42
 -10  -4   2   16.28    4.11
  10   4  -2   26.35    2.83
   9   4  -2    5.36    1.90
  -9  -4   2   15.81    4.65
  -8  -4   2    0.85    3.09
   8   4  -2    7.23    2.12
  -7  -4   2   86.06    7.37
  -6  -4   2   70.95    6.65
  -5  -4   2   37.40    4.90
  -4  -4   2   12.78    3.58
  -3  -4   2   16.74    3.83
  -2  -4   2   75.08    6.79
  -2   4   2   62.35    4.27
  -1   4   2   39.11    3.47
   1  -4  -2   38.24    3.38
  -1  -4   2   39.92    5.05
   0   4   2   81.08    6.75
   0  -4   2   76.43    6.60
   0  -4  -2   76.57    4.60
   1  -4   2    6.96    3.02
   1   4   2    9.19    3.11
  -1  -4  -2    7.61    1.93
  -2  -4  -2   12.72    2.22
   2  -4   2   13.07    3.77
   2   4   2    8.69    2.69
   3   4   2    6.61    2.41
  -3  -4  -2   11.75    2.42
   4   4   2    4.35    2.85
  -4  -4  -2    0.13    1.97
  -5  -4  -2    7.05    2.55
   5   4   2    6.52    3.09
  -6  -4  -2   86.53    6.13
   6   4   2   83.89    7.16
   7   4   2   56.03    6.14
  -7  -4  -2   49.28    5.07
  -8  -4  -2   70.69    6.42
   8   4   2   57.79    6.16
  -9  -4  -2   11.93    3.39
   9   4   2    9.91    3.09
 -10  -4  -2    1.20    3.01
  10   4   2    6.27    2.35
 -11  -4  -2   23.33    4.77
 -12  -4  -2   -0.84    3.05
  13   4   2   10.53    5.39
 -13  -4  -2    9.52    3.97
 -14  -4  -2    4.44    3.34
  14   4   2    2.25    2.26
  14   4   2   -2.47    4.40
  15   4   2   11.86    5.75
 -15  -4  -2    2.90    3.51
 -16  -4  -2   13.29    4.94
  16   4   2   14.18    6.13
 -16  -5   2   42.42    7.92
 -15  -5   2   75.23    9.21
 -14  -5   2   83.51    9.27
 -13  -5   2   55.74    7.72
 -12  -5   2   74.14    8.40
 -11  -5   2   43.22    6.69
 -10  -5   2  145.00   10.98
   9   5  -2  213.86    9.54
  -9  -5   2  200.07   12.57
   8   5  -2  916.41   22.05
  -8  -5   2  835.59   26.20
  -7  -5   2  245.30   13.04
  -6  -5   2   84.95    7.81
  -5  -5   2   38.78    5.54
  -4  -5   2  102.47    8.38
  -3  -5   2   35.53    5.12
  -2  -5   2   -1.62    2.90
   1  -5  -2    9.56    2.68
  -1  -5   2   16.64    4.15
   0  -5  -2   85.68    5.94
   0  -5   2   95.18    8.02
  -1  -5  -2  192.41    8.71
   1  -5   2  206.10   11.96
   1   5   2  193.69   11.55
   2   5   2  214.99   12.08
  -2  -5  -2  200.72    9.05
   3   5   2   99.40    8.44
  -3  -5  -2   94.23    6.41
   4   5   2  117.18    9.04
  -4  -5  -2  116.18    7.23
   5   5   2    5.69    2.69
  -5  -5  -2    4.24    2.03
   6   5   2   47.76    6.18
  -6  -5  -2   59.84    5.59
   7   5   2   90.85    8.25
  -7  -5  -2   91.69    7.23
   8   5   2  212.33   12.63
  -8  -5  -2  213.19   11.36
  -9  -5  -2   87.60    7.69
   9   5   2   78.30    7.66
 -10  -5  -2  195.99   11.74
  10   5   2  205.38   12.40
 -11  -5  -2  247.86   13.70
  11   5   2  260.78   14.13
 -12  -5  -2  205.47   13.03
  12   5   2  240.72   13.87
 -13  -5  -2  146.96   11.35
  14   5   2   17.22    5.94
 -14  -5  -2   19.89    5.03
 -13  -6   2   22.50    5.57
 -12  -6   2   19.93    5.34
 -11  -6   2  138.47   11.66
 -10  -6   2   40.24    6.45
  -9  -6   2  148.31   11.71
  -8  -6   2  508.56   21.29
  -7  -6   2  280.27   15.38
  -6  -6   2   44.71    6.42
  -5  -6   2  123.28   10.02
  -4  -6   2  108.60    9.42
  -3  -6   2   23.18    4.46
  -2  -6   2  148.98   10.80
  -1  -6   2   20.77    4.77
   0   6   2  214.15   13.29
   0  -6   2  197.30   12.55
   0  -6  -2  200.61    9.89
   1  -6   2  302.21   15.57
  -1  -6  -2  295.50   12.14
   1   6   2  324.70   16.31
   2   6   2  186.68   12.26
  -2  -6  -2  167.98    9.22
   3   6   2  225.27   13.31
  -3  -6  -2  216.79   10.64
   4   6   2  166.16   11.58
  -4  -6  -2  189.24    9.98
  -5  -6  -2   23.07    4.11
   5   6   2   14.88    4.12
  -6  -6  -2    4.90    2.58
   6   6   2    2.51    3.05
   7   6   2  216.23   13.70
  -7  -6  -2  207.99   11.50
   8   6   2   87.48    8.90
  -8  -6  -2   85.67    7.71
   9   6   2  110.54    9.87
  -9  -6  -2  104.20    8.70
  10   6   2  166.98   12.09
 -10  -6  -2  157.49   11.06
  11   6   2  101.01    9.85
 -11  -6  -2   95.92    8.95
  12   6   2  292.83   16.57
 -12  -6  -2  299.37   16.27
 -10  -7   2   25.87    5.60
  -9  -7   2   13.62    4.40
  -8  -7   2   20.07    4.98
  -7  -7   2   19.68    5.19
  -6  -7   2   34.36    5.89
  -5  -7   2   11.86    3.78
  -4  -7   2   28.09    5.73
  -3  -7   2   24.09    5.57
  -2  -7   2   80.25    8.78
  -1  -7   2    0.09    2.97
   0  -7   2    5.32    3.72
   0   7   2    1.90    3.31
   1   7   2   -2.30    3.04
   2   7   2   17.03    4.66
   3   7   2   -3.16    3.33
   4   7   2   -4.70    2.98
   5   7   2    2.56    3.53
   6   7   2  226.54   15.08
   7   7   2    5.42    3.46
   8   7   2   16.51    4.81
 -20   0   3    5.01    4.17
 -19   0   3   -8.30    5.54
  18   0  -3    0.68    2.74
 -18   0   3   -4.53    4.26
  17   0  -3   -5.26    3.00
 -17   0   3   -4.10    4.06
  16   0  -3    4.19    2.79
 -16   0   3   -3.17    3.74
  15   0  -3   -3.09    2.07
  15   0  -3   -1.12    2.16
 -15   0   3   -2.64    3.57
  14   0  -3   -2.00    2.41
 -14   0   3    1.86    3.26
  14   0  -3    2.92    2.59
  13   0  -3   -3.14    2.55
 -13   0   3   -0.73    3.50
  13   0  -3   -1.64    2.31
 -13   0   3    0.26    0.59
 -12   0   3    0.25    0.57
 -12   0   3    1.54    3.00
  12   0  -3   -1.12    2.34
  12   0  -3   -1.64    2.45
 -12   0   3   -0.11    0.54
  11   0  -3   -1.43    2.43
 -11   0   3    1.58    2.56
  11   0  -3    2.07    2.36
 -11   0   3    0.18    0.54
 -11   0   3   -0.60    0.53
  10   0  -3    0.80    1.98
 -10   0   3   -1.45    2.51
  10   0  -3    2.13    2.45
 -10   0   3    0.35    0.58
   9   0  -3   -1.38    2.20
  -9   0   3    0.91    0.68
  -9   0   3    1.42    2.24
   8   0  -3   -1.18    2.32
  -8   0   3    0.50    0.66
  -8   0   3    1.64    2.07
   7   0  -3   -1.92    2.62
  -7   0   3    2.07    1.70
  -7   0   3    0.21    0.77
  -6   0   3   -0.90    1.36
   6   0  -3   -2.63    2.32
  -6   0   3    1.60    1.00
   5   0  -3   -0.10    1.19
  -5   0   3    0.00    1.06
  -5   0   3   -1.52    1.22
   4   0  -3    1.45    1.15
  -4   0   3   -0.35    1.06
   4   0  -3    0.37    1.03
  -4   0   3    0.88    1.01
  -3   0   3   -0.87    1.05
   3   0  -3   -0.93    1.12
   3   0  -3    0.75    1.11
   2   0  -3    0.19    0.84
   2   0  -3    2.10    1.26
  -2   0   3   -0.69    0.95
   1   0  -3    0.65    0.84
   1   0  -3   -0.95    1.04
  -1   0   3   -0.76    0.89
   1   0  -3   -0.65    1.14
   0   0  -3    0.40    1.22
   0   0  -3   -0.97    1.33
   0   0  -3    0.43    0.84
  -1   0  -3    0.41    1.80
  -1   0  -3   -0.74    1.19
  -1   0  -3    0.79    1.01
  -2   0  -3   -0.39    1.85
  -2   0  -3   -0.26    1.36
   3   0   3   -1.91    1.61
  -3   0  -3    0.40    1.76
  -4   0  -3    2.42    2.03
   4   0   3   -0.09    1.58
  -5   0  -3    0.26    1.85
   5   0   3   -0.47    1.81
   6   0   3   -0.13    2.03
  -6   0  -3   -0.31    1.90
   7   0   3    0.63    2.35
   7   0   3    0.22    2.06
   8   0   3   -0.30    2.54
   8   0   3    1.03    2.48
   9   0   3    2.64    2.79
   9   0   3   -2.91    3.26
  10   0   3    4.11    3.29
  10   0   3    2.46    3.01
  11   0   3   -0.02    3.19
  11   0   3   -1.11    2.32
  12   0   3   -0.03    2.22
  12   0   3    0.11    2.89
  13   0   3   -1.47    2.37
  13   0   3   -3.02    3.11
  14   0   3   -0.46    2.68
  14   0   3    0.96    2.95
  15   0   3   -0.16    3.62
  16   0   3   -4.75    4.07
  17   0   3    0.88    3.57
  18   0   3   -3.75    4.36
  20   1  -3   26.96    5.82
 -20  -1   3   12.79    4.14
 -20   1   3   29.01    6.93
  19   1  -3  150.92   11.74
 -19   1   3  141.43   12.20
 -19  -1   3  129.35   11.94
 -18   1   3   36.00    6.68
  18   1  -3   26.41    5.21
 -18  -1   3   19.53    5.18
  17   1  -3  124.53   10.25
 -17  -1   3  119.21   10.88
 -17   1   3  121.65   10.52
  16   1  -3   62.56    5.82
  16   1  -3   58.82    7.05
  16  -1  -3   57.89    5.93
 -16   1   3   71.96    8.08
 -16  -1   3   66.60    7.88
  15   1  -3    0.97    2.82
  15   1  -3    4.28    2.14
  15  -1  -3    1.83    2.22
 -15   1   3    1.67    2.99
 -15  -1   3    5.41    4.02
  14   1  -3   36.56    5.28
  14   1  -3   46.65    4.91
  14  -1  -3   43.05    4.74
 -14   1   3   43.54    5.91
 -14  -1   3   41.98    5.99
  13   1  -3  411.39   14.73
  13  -1  -3  430.71   14.06
 -13  -1   3  423.90   17.22
 -13   1   3  405.87   16.54
  12  -1  -3  209.07    8.91
  12   1  -3  199.42   10.09
 -12  -1   3  203.94   11.30
 -12   1   3  210.62   11.07
  11  -1  -3  169.26    7.54
 -11  -1   3  178.90   10.20
  11   1  -3  145.24    8.61
 -11   1   3  152.65    9.03
  10  -1  -3  259.16    8.77
 -10  -1   3  282.30   12.09
  10   1  -3  249.32   11.16
 -10   1   3  258.47   10.96
   9  -1  -3   59.81    3.64
  -9  -1   3   56.67    5.38
   9  -1  -3   58.44    5.54
  -9   1   3   62.62    5.02
  -8   1   3  758.54   17.41
  -8  -1   3  754.40   18.96
   8  -1  -3  737.94   13.39
   8  -1  -3  688.34   19.57
  -8   1   3  714.92   15.54
  -7  -1   3  828.56   19.44
   7  -1  -3  768.36   20.70
  -7   1   3  846.71   17.37
   7  -1  -3  842.19   13.10
  -7   1   3  854.22   17.11
  -6  -1   3  277.64    9.88
   6   1  -3  269.23    5.70
   6  -1  -3  266.97   11.16
  -6   1   3  273.37    8.07
  -6   1   3  288.43    8.83
   5   1  -3  941.29   15.07
  -5   1   3  960.16   18.57
  -5   1   3  929.91   15.93
  -5  -1   3  948.60   15.69
  -5  -1   3  933.68   19.47
  -4   1   3  922.51   14.45
   4   1  -3  954.56   18.91
  -4   1   3  940.01   18.70
   4   1  -3  955.75   16.17
  -4  -1   3  916.30   16.65
  -4  -1   3  904.32   18.59
   3   1  -3 1521.88   25.27
  -3  -1   3 1456.16   25.27
  -3   1   3 1504.14   25.98
  -3   1   3 1441.95   19.24
  -3  -1   3 1461.38   24.37
  -2   1   3 1998.41   32.38
  -2  -1   3 1891.09   31.19
  -2  -1   3 1964.24   30.99
   2  -1  -3 1961.81   31.56
   2   1  -3 1979.64   30.89
  -1  -1   3 1561.09   26.49
  -1  -1   3 1532.57   27.75
   1   1  -3 1590.74   26.20
  -1   1   3 1591.18   22.76
   0   1   3   43.28    3.10
   0   1  -3   48.86    3.56
   0  -1   3   41.92    3.70
   0  -1  -3   40.91    1.87
   0   1  -3   49.31    4.06
   0  -1   3   53.43    4.49
  -1   1  -3  315.50    9.59
   1   1   3  311.88    9.42
   2   1   3  361.89   11.10
   3   1   3  130.80    7.11
  -3   1  -3  120.82    6.51
   4   1   3  445.76   14.33
  -4   1  -3  448.60   13.00
  -5   1  -3   42.47    3.88
   5   1   3   33.07    4.27
   6   1   3   86.76    7.11
  -6   1  -3  102.59    5.68
   6   1   3   93.40    7.05
  -7   1  -3  491.96   12.94
   7  -1   3  466.56   17.38
   7   1   3  503.15   17.04
   8   1   3  301.05   14.40
  -8   1  -3  314.38    9.74
   8   1   3  311.14   13.60
   8  -1   3  303.93   14.22
   9   1   3  108.51    9.01
  -9   1  -3  125.55    5.77
   9   1   3  111.97    8.49
   9  -1   3  119.84    9.21
   9   1   3  110.61    6.01
  10   1   3  116.69    9.71
  10   1   3  119.06    8.94
  11   1   3   96.99    9.31
  11   1   3   98.98    8.35
  12   1   3   77.17    8.51
  12   1   3   77.06    7.91
  13   1   3  321.47   17.75
  13   1   3  296.15   15.60
  14   1   3  163.17   13.05
  14   1   3  172.82   12.04
  15   1   3  257.79   17.00
  15   1   3  246.30   14.71
  16   1   3  194.03   15.19
  16   1   3  183.09   13.03
  17   1   3  140.96   13.09
  17   1   3  112.50   10.67
 -19  -2   3   31.46    6.43
 -19   2   3   53.69    7.80
  19   2  -3   48.95    7.61
 -18   2   3    3.74    3.47
  18   2  -3    0.75    3.17
 -18  -2   3   11.45    4.39
  17   2  -3   15.48    4.80
 -17  -2   3   10.64    3.78
 -17   2   3   11.88    4.32
 -16  -2   3   64.36    8.14
  16   2  -3   52.57    5.53
  15   2  -3   69.02    6.52
 -15  -2   3   70.58    7.99
 -14  -2   3    5.98    3.47
 -13  -2   3  172.39   11.58
 -12  -2   3  250.73   13.24
 -11  -2   3  282.72   13.54
 -10  -2   3   79.32    6.99
  -9  -2   3  248.30   11.61
  -8  -2   3    3.15    2.49
  -7  -2   3  291.52   11.76
   6   2  -3  257.70    6.64
  -6  -2   3  240.10   10.27
   5   2  -3  583.35   12.23
  -5  -2   3  585.29   16.27
  -5   2   3  550.03   15.30
  -4   2   3  752.85   18.18
  -4   2   3  755.88   11.70
  -4   2   3  733.34   11.38
   4   2  -3  784.87   15.70
  -4  -2   3  785.10   18.81
  -3   2   3  341.18    6.96
  -3   2   3  343.61   11.76
  -3  -2   3  378.17   12.23
   3   2  -3  359.12   10.43
  -2  -2   3  482.82   14.04
   2   2  -3  464.29   12.85
  -1   2   3 2569.71   37.31
  -1  -2   3 2696.89   42.12
   0   2   3  173.88    7.29
   0  -2   3  174.04    8.44
   1   2   3   54.60    4.42
  -1  -2  -3   50.29    2.28
   1  -2   3   54.51    4.93
   2   2   3   24.06    3.37
  -2  -2  -3   23.85    2.11
   3   2   3  179.76    9.22
  -3  -2  -3  189.21    6.47
  -4  -2  -3   31.65    3.26
   4   2   3   34.83    4.62
   5   2   3  539.50   18.12
  -5  -2  -3  528.68   14.07
   5   2   3  521.35   16.89
  -6  -2  -3   41.55    4.49
   6   2   3   33.95    5.07
   7   2   3  217.95   12.44
  -7  -2  -3  245.66   10.70
   8   2   3  179.94   11.68
  -8  -2  -3  160.66    9.12
   9   2   3  124.83    9.91
  -9   2  -3  128.26    6.44
  -9  -2  -3  121.11    8.52
 -10   2  -3   98.46    5.26
  10   2   3   79.70    8.47
 -10  -2  -3   84.06    7.50
  10   2   3  104.25    8.55
 -11  -2  -3   74.26    7.38
  11   2   3   73.91    7.40
  11   2   3   78.08    8.72
  12   2   3   41.99    7.10
  12   2   3   27.66    4.80
 -12  -2  -3   36.01    5.61
  13   2   3   86.55   10.03
  13   2   3   81.07    8.13
 -13  -2  -3   83.84    8.43
  14   2   3  418.34   21.50
  14   2   3  402.64   18.53
 -14  -2  -3  394.52   18.90
  15   2   3  109.99   11.44
 -15  -2  -3  123.69   11.01
  15   2   3  128.12   10.82
  16   2   3   72.02    9.92
 -16  -2  -3   74.38    8.83
  16   2   3   61.50    7.88
  17   2   3  158.17   14.34
 -17  -2  -3  175.52   13.92
  17   2   3  162.49   12.60
  19   3  -3   25.72    6.09
 -19  -3   3   12.28    4.71
 -18  -3   3    4.10    4.20
 -17  -3   3   31.93    6.28
 -16  -3   3   -2.29    3.87
 -15  -3   3   92.00    9.22
 -14  -3   3    6.85    3.75
 -13  -3   3    7.69    3.84
 -12  -3   3    7.84    3.62
 -11  -3   3    9.91    3.57
 -10  -3   3   15.57    3.84
  -9   3   3   26.19    2.91
  -9  -3   3   16.04    3.77
   9   3  -3   20.71    1.55
  -8   3   3  107.78    4.91
   8   3  -3  100.35    4.33
  -8  -3   3   94.43    7.54
  -7   3   3  276.91    7.60
   7   3  -3  260.67    7.98
  -7  -3   3  258.46   12.14
  -6   3   3  177.94    5.60
  -6   3   3  177.84    6.36
   6   3  -3  174.92    6.94
  -6  -3   3  192.59   10.05
  -5   3   3  104.92    4.25
  -5  -3   3  110.13    7.70
   5   3  -3  102.59    5.59
   4   3  -3    9.68    2.11
  -4   3   3    6.29    1.10
  -4   3   3    5.06    1.99
  -3   3   3   61.28    5.69
  -3  -3   3   62.19    5.72
  -3   3   3   56.52    2.50
  -2  -3   3   81.42    6.40
  -2   3   3   63.35    2.48
  -1   3   3  153.92    4.30
  -1  -3   3  170.27    9.24
   0  -3   3   46.47    5.27
   0  -3  -3   48.03    2.37
   1  -3   3  150.09    8.70
  -1  -3  -3  154.22    4.89
  -2  -3  -3   61.58    3.47
  -3  -3  -3   71.69    4.17
   3   3   3   69.43    6.26
  -4  -3  -3   28.65    3.11
   4   3   3   26.17    4.27
  -5  -3  -3    7.61    2.23
   5   3   3    8.21    3.15
   6   3   3   21.34    4.63
   6   3   3   29.82    4.98
  -6  -3  -3   32.08    4.02
  -7  -3  -3  113.81    7.30
   7   3   3  100.79    9.17
   7   3   3  108.52    8.41
   8   3   3    6.98    3.50
  -8  -3  -3   10.59    3.20
   9   3   3   75.07    8.59
  -9  -3  -3   86.43    6.93
  10   3   3   20.26    5.29
 -10  -3  -3   21.41    4.08
  11   3   3   90.26    9.97
 -11  -3  -3   83.02    7.81
  12   3   3    3.25    3.55
 -12  -3  -3    3.50    3.00
  12   3   3    7.81    3.05
  13   3   3  137.98   12.48
  13   3   3  136.24   10.69
 -13  -3  -3  122.75   10.07
 -14  -3  -3    4.12    3.36
  14   3   3    7.04    4.18
  14   3   3    9.71    3.55
 -15  -3  -3    4.21    3.40
  15   3   3    3.48    3.79
  15   3   3   -1.80    2.72
 -16  -3  -3    3.94    4.02
  16   3   3    1.39    4.19
  16   3   3    1.45    3.42
 -17  -4   3   76.12    9.63
 -16  -4   3   91.56   10.12
 -15  -4   3   21.09    5.18
 -14  -4   3   59.12    7.81
 -13  -4   3   82.33    8.90
 -12  -4   3   10.14    4.21
 -11  -4   3  207.80   12.97
 -10  -4   3   96.76    8.68
  -9  -4   3  348.06   15.91
  -8  -4   3   66.58    7.01
  -7  -4   3 1413.72   33.40
  -6  -4   3  648.83   20.78
  -5  -4   3  147.59    9.63
  -5   4   3  163.39    6.51
  -4  -4   3  321.67   14.15
  -4   4   3  339.34    9.22
  -3   4   3  326.87    8.79
  -3   4   3  332.98   14.33
  -3  -4   3  340.72   14.30
  -2   4   3  612.40   12.62
  -2   4   3  581.12   19.40
  -2  -4   3  612.05   19.75
  -1   4   3  199.29    6.59
  -1  -4   3  216.48   11.47
  -1   4   3  192.97   10.77
   0   4   3  391.43   15.61
   0   4   3  388.71    9.98
   0  -4   3  402.67   15.77
   0  -4  -3  389.24    9.77
   1   4   3  611.30   20.19
   1   4   3  597.60   13.86
   1  -4   3  642.31   20.61
  -1  -4  -3  622.45   13.30
   2   4   3  313.48   14.14
  -2  -4  -3  293.61    8.99
   3   4   3  413.89   16.68
  -3  -4  -3  424.21   11.68
   4   4   3  125.74    9.18
  -4  -4  -3  109.37    6.10
  -5  -4  -3  636.14   16.43
   5   4   3  613.16   21.14
  -6  -4  -3  108.31    6.77
   6   4   3  118.68    9.12
   7   4   3   32.21    5.22
  -7  -4  -3   45.18    5.01
  -8  -4  -3  207.67   10.47
   8   4   3  228.14   12.89
   9   4   3  182.46   13.66
  -9  -4  -3  205.87   11.02
   9   4   3  199.22   12.40
  10   4   3  123.65   11.67
 -10  -4  -3  132.01    9.46
  11   4   3  160.37   13.62
 -11  -4  -3  170.25   11.04
  12   4   3  287.18   18.46
 -12  -4  -3  288.83   15.11
  13   4   3  166.33   14.38
 -13  -4  -3  160.40   11.71
  14   4   3  207.29   16.55
 -14  -4  -3  197.66   13.51
  14   4   3  203.66   13.81
 -15  -4  -3   50.47    7.27
  15   4   3   78.05    8.61
  15   4   3   76.82   10.83
 -15  -5   3    6.78    4.22
 -14  -5   3   11.69    4.65
 -13  -5   3   22.23    5.08
 -12  -5   3   23.62    5.41
 -11  -5   3   -2.04    2.91
 -10  -5   3  123.16   10.29
  -9  -5   3   35.96    5.60
  -8  -5   3  381.68   17.66
  -7  -5   3   72.13    7.77
  -6  -5   3   14.69    4.16
  -5  -5   3   20.71    4.05
  -4  -5   3   34.54    5.42
  -3   5   3   19.84    4.36
  -3  -5   3   23.47    4.95
  -2   5   3   54.30    6.73
  -2  -5   3   63.98    6.90
  -1   5   3  100.03    8.72
  -1  -5   3   80.93    7.86
   0  -5  -3    3.08    1.81
   0   5   3    2.61    2.80
   0  -5   3    6.09    3.51
   1   5   3   69.31    7.31
   1  -5   3   73.75    7.51
  -1  -5  -3   71.18    4.68
   2   5   3  247.57   13.62
  -2  -5  -3  233.70    9.06
  -3  -5  -3   -2.16    1.47
   3   5   3    1.72    2.81
   4   5   3  215.94   12.99
  -4  -5  -3  222.12    9.40
   5   5   3   31.52    5.61
  -5  -5  -3   26.80    3.66
   6   5   3   67.40    7.54
  -6  -5  -3   78.25    6.16
  -7  -5  -3    0.34    2.14
   7   5   3   -0.54    2.57
  -8  -5  -3   38.83    5.06
   8   5   3   34.95    6.07
  -9  -5  -3   18.49    3.61
   9   5   3   16.53    4.44
  10   5   3   44.25    6.35
 -10  -5  -3   44.67    5.94
  11   5   3   27.60    6.41
  11   5   3   32.79    5.99
 -11  -5  -3   20.74    4.32
  12   5   3   17.88    6.11
 -12  -5  -3   10.08    3.39
  13   5   3  147.21   13.78
 -13  -6   3   50.74    8.01
 -12  -6   3   36.43    6.84
 -11  -6   3    1.09    2.85
 -10  -6   3    0.30    3.15
  -9  -6   3   10.11    3.85
  -8  -6   3  210.16   13.97
  -7  -6   3   35.70    5.96
  -6  -6   3   16.53    4.61
  -5  -6   3  151.08   11.47
  -4  -6   3   49.81    6.76
  -3   6   3   90.79    9.00
  -3  -6   3   96.87    9.35
  -2  -6   3   77.36    8.63
  -2   6   3   78.43    8.20
  -1   6   3  114.12    9.97
  -1  -6   3   95.56    9.39
   0  -6   3   -0.84    3.51
   0   6   3    2.44    3.15
   1  -6   3   23.73    5.25
   1   6   3   25.04    5.42
   2   6   3   44.12    6.32
   3   6   3   63.58    7.74
   4   6   3   25.02    5.39
   5   6   3   14.11    4.65
   6   6   3   54.08    7.32
   7   6   3   49.61    7.31
   8   6   3   -1.91    3.56
   9   6   3   15.17    4.55
  10   6   3   18.43    5.36
  -9  -7   3   20.70    5.38
  -8  -7   3   61.02    8.58
  -7  -7   3  207.94   14.72
  -6  -7   3  213.33   14.92
  -5  -7   3   94.95    9.76
  -4   7   3  104.62   10.49
  -4  -7   3  106.92   10.43
  -3   7   3   86.49    9.36
  -3  -7   3   74.37    8.83
  -2   7   3  155.62   12.51
  -2  -7   3  166.92   12.97
  -1   7   3  100.70   10.18
  -1  -7   3   89.66    9.77
   0   7   3   89.65    9.53
   0  -7   3  105.58   10.41
   1   7   3  106.93   10.61
   2   7   3  106.34   10.58
   3   7   3   47.20    7.38
   4   7   3  192.29   14.27
   5   7   3   91.43   10.07
   6   7   3    9.53    4.73
 -20   0   4   41.07    7.20
 -19   0   4   17.39    4.52
 -18   0   4  312.63   17.38
 -17   0   4   67.83    8.16
  16   0  -4  942.82   25.95
 -16   0   4  932.48   28.79
  15   0  -4   99.14    7.50
  15   0  -4   99.41    8.02
 -15   0   4  105.81    8.91
  14   0  -4  174.78    9.43
 -14   0   4  173.66   10.86
  14   0  -4  162.40   10.24
  13   0  -4  214.47   10.02
 -13   0   4  214.66   11.56
  13   0  -4  198.12   11.27
 -12   0   4  136.89    8.78
  12   0  -4  128.08    7.53
  12   0  -4  107.73    8.43
  11   0  -4  134.69    7.22
 -11   0   4  119.10    7.86
  11   0  -4  116.26    8.73
 -10   0   4   80.67    6.05
  10   0  -4   66.13    6.73
  -9   0   4    4.53    2.18
   9   0  -4   15.94    3.79
  -8   0   4   90.46    5.86
   8   0  -4   77.73    7.08
  -7   0   4  978.95   20.08
   7   0  -4  933.56   25.00
   6   0  -4 1201.12   22.30
  -6   0   4 1180.25   22.07
   5   0  -4   44.83    3.38
   5   0  -4   44.91    3.43
  -5   0   4   45.79    3.44
   4   0  -4 1786.30   29.51
   4   0  -4 1842.62   28.18
  -4   0   4 1799.61   28.35
   3   0  -4   55.30    3.52
  -3   0   4   65.40    3.95
   2   0  -4 1597.70   25.39
  -2   0   4 1530.74   24.84
   2   0  -4 1569.38   24.65
   1   0  -4  197.13    7.38
  -1   0   4  181.86    8.83
   1   0  -4  171.18    6.20
   0   0  -4 1260.41   23.40
   0   0  -4 1204.42   27.68
   0   0   4 1218.70   26.39
   0   0  -4 1218.14   21.03
  -1   0  -4  841.91   21.84
  -1   0  -4  805.89   16.39
   1   0   4  818.91   21.21
  -2   0  -4  942.15   23.27
  -2   0  -4  914.95   18.59
  -3   0  -4 1106.69   25.45
  -4   0  -4 1487.65   30.43
  -5   0  -4 1163.00   25.93
   6   0   4   57.43    6.09
  -6   0  -4   62.08    5.64
   6   0   4   60.26    6.53
   7   0   4  133.34    9.41
   7   0   4  149.88   10.21
   8   0   4  581.01   20.95
   8   0   4  583.43   21.41
   9   0   4    8.91    3.72
   9   0   4   11.51    3.71
  10   0   4  194.88   12.92
  10   0   4  259.47   14.73
  11   0   4   18.75    5.00
  11   0   4   25.67    4.72
  12   0   4  458.50   21.24
  12   0   4  556.45   22.82
  13   0   4   10.38    3.81
  13   0   4    9.47    3.52
  14   0   4  127.27   11.95
  14   0   4  128.55   11.53
  15   0   4  100.80   11.02
  16   0   4  111.41   11.91
 -19   1   4   47.07    7.23
 -19  -1   4   40.79    7.20
 -18   1   4    5.59    3.80
 -18  -1   4    2.21    3.92
  17   1  -4   10.60    3.67
 -17   1   4   13.59    4.05
 -17  -1   4   10.97    4.39
  16   1  -4   23.98    4.69
 -16   1   4   26.03    4.94
  16   1  -4   15.10    4.02
 -16  -1   4   23.67    5.36
  15   1  -4  426.71   17.11
 -15  -1   4  402.46   18.21
 -15   1   4  352.49   16.10
  15   1  -4  381.70   16.16
 -14   1   4    1.13    2.47
  14   1  -4    5.42    3.03
 -13   1   4   21.79    3.98
 -13  -1   4   17.37    3.86
  13   1  -4   11.93    3.69
 -13   1   4   19.78    2.50
 -12   1   4   48.93    5.30
 -12  -1   4   49.01    5.77
  12  -1  -4   50.10    3.79
  12   1  -4   45.84    5.55
 -12   1   4   45.58    3.71
 -11  -1   4    4.86    2.80
  11   1  -4    5.73    3.44
  11  -1  -4    0.54    3.71
  11  -1  -4    2.81    1.36
 -11   1   4    3.54    1.59
 -11   1   4    1.91    2.29
  10   1  -4    2.07    2.95
  10  -1  -4    0.90    0.88
 -10   1   4   -0.44    1.43
 -10   1   4    5.96    2.67
  10  -1  -4    8.85    4.47
 -10  -1   4    1.47    2.36
   9  -1  -4   15.60    4.16
  -9   1   4   26.73    3.26
  -9   1   4   24.02    2.87
  -9  -1   4   24.64    4.08
   9  -1  -4   24.88    1.75
   9   1  -4   25.65    4.22
  -8   1   4   58.32    4.28
   8   1  -4   52.91    5.95
   8  -1  -4   48.37    5.98
  -8   1   4   55.73    4.31
  -8  -1   4   46.96    4.58
  -7   1   4   25.97    2.60
   7   1  -4   19.83    3.98
   7  -1  -4   19.84    4.37
   7   1  -4   28.73    2.15
  -7  -1   4   23.26    3.33
  -7   1   4   27.86    3.17
  -7  -1   4   28.07    2.27
  -6   1   4   31.12    2.56
  -6  -1   4   29.92    3.44
   6  -1  -4   29.56    4.71
   6   1  -4   32.29    2.59
  -6   1   4   34.93    3.65
  -6  -1   4   35.15    2.89
   5   1  -4  198.15    6.89
  -5   1   4  214.47    8.92
  -5  -1   4  207.46    7.68
  -5  -1   4  216.17    8.74
  -5   1   4  207.19    5.96
  -4   1   4   55.61    4.71
   4   1  -4   60.44    4.04
  -4   1   4   60.43    2.72
  -4  -1   4   56.24    4.44
  -4  -1   4   51.70    4.07
   3  -1  -4   79.19    2.92
  -3   1   4   76.78    2.77
  -3   1   4   79.67    5.63
  -3  -1   4   85.97    5.40
  -3  -1   4   86.25    5.57
   2  -1  -4  546.41    9.00
  -2   1   4  554.62   15.95
  -2  -1   4  554.73   14.40
  -2  -1   4  563.88   15.64
   1   1  -4  185.34    9.89
  -1   1   4  199.65    9.33
  -1  -1   4  193.41    8.13
  -1  -1   4  192.64    9.20
   1  -1  -4  197.40    4.74
   0   1  -4  201.42   10.21
   0  -1  -4  197.99   10.83
   0   1   4  212.35    9.93
   0  -1  -4  217.53    5.54
   0  -1   4  200.06    9.72
  -1   1  -4   10.88    3.34
   1   1   4    8.20    1.88
  -1  -1  -4    7.22    1.27
   1  -1   4    7.18    2.72
  -2   1  -4   58.87    5.54
   2  -1   4   62.10    5.99
   2   1   4   59.77    4.74
   3   1   4   66.62    5.54
  -3   1  -4   71.24    5.95
   3  -1   4   62.57    6.28
   4   1   4  200.05   10.04
  -4   1  -4  214.36   10.07
   4  -1   4  214.91   11.61
  -5   1  -4   43.23    4.68
   5   1   4   42.15    4.98
   5   1   4   42.89    5.27
   5  -1   4   37.23    5.45
   6   1   4   77.91    7.09
  -6   1  -4  102.52    6.95
   6   1   4   88.44    7.94
   6  -1   4   83.03    7.82
   7  -1   4    3.02    2.58
  -7   1  -4    8.40    3.12
   7   1   4    2.36    2.61
   7   1   4    5.01    3.14
   8  -1   4    6.89    3.75
  -8   1  -4    0.45    2.23
   8   1   4    6.30    3.63
   8   1   4    2.33    3.01
   9  -1   4   11.98    3.55
  -9   1  -4   10.46    2.83
   9   1   4    8.91    3.82
   9   1   4    9.00    3.70
  10  -1   4    9.82    3.61
  10   1   4    6.33    3.63
  10   1   4    3.27    3.37
  11   1   4  183.24   13.19
  11   1   4  191.74   12.78
  12   1   4    9.46    4.30
  12   1   4    8.85    3.24
  13   1   4    5.46    3.08
  13   1   4    3.22    3.70
  14   1   4   36.07    7.03
  14   1   4   34.19    6.26
  15   1   4   19.71    5.15
  15   1   4   14.59    4.24
  16   1   4    6.95    4.09
  16   1   4    5.39    4.19
 -19  -2   4   47.99    8.01
 -19   2   4   45.45    7.58
  18   2  -4   93.51    9.91
 -18  -2   4   77.56    9.28
 -18   2   4   80.02    8.69
 -17  -2   4   20.88    5.14
 -17   2   4   37.12    6.00
 -16  -2   4   77.12    8.43
  16   2  -4   65.66    6.95
 -16   2   4   74.00    7.97
 -15  -2   4   33.04    5.89
 -15   2   4   29.24    4.79
  15   2  -4   30.48    5.02
 -14   2   4    5.50    3.14
  14   2  -4    6.71    2.79
 -14  -2   4    4.62    3.18
 -13   2   4   18.66    3.78
  13   2  -4    7.57    2.88
 -13  -2   4   19.57    4.37
 -12  -2   4  110.83    8.80
 -12   2   4  111.06    7.01
 -12   2   4  120.83    8.00
 -11   2   4   18.23    3.31
 -11  -2   4   20.27    4.68
 -11   2   4   23.30    3.73
 -10  -2   4  138.07    9.20
 -10   2   4  128.61    7.51
 -10   2   4  141.25    7.46
  -9  -2   4    1.56    2.60
  -9   2   4    1.18    2.17
  -9   2   4    1.56    1.58
  -8   2   4   38.56    3.33
   8   2  -4   36.59    1.92
  -8  -2   4   43.12    5.11
  -8   2   4   41.54    4.47
  -7  -2   4    1.03    2.19
  -7   2   4    4.74    2.18
  -7   2   4    3.89    1.48
   7   2  -4    1.17    0.89
  -6   2   4   49.65    2.68
  -6  -2   4   47.35    4.94
  -6   2   4   51.08    4.71
  -5  -2   4   26.56    3.84
  -5   2   4   18.03    3.09
  -5   2   4   17.93    1.12
  -4   2   4  108.18    7.11
  -4  -2   4  120.90    7.36
  -3   2   4    4.30    2.59
  -3  -2   4    6.53    2.43
  -2   2   4  255.77    6.66
  -2   2   4  238.90   10.84
  -2  -2   4  261.29   10.73
  -1   2   4  561.31   12.45
  -1   2   4  530.09   16.96
  -1  -2   4  552.38   16.57
   0   2   4  399.89   11.48
   0  -2   4  404.06   14.17
   1   2   4   51.75    4.46
  -1  -2  -4   55.85    2.35
   2   2   4  338.81   12.36
  -2  -2  -4  349.83    8.30
   3   2   4   62.76    5.78
  -3  -2  -4   60.99    4.00
   3   2   4   61.29    6.15
   4   2   4  148.04    9.00
  -4  -2  -4  147.55    6.71
   4   2   4  144.16    9.41
   5   2   4   34.63    5.07
  -5  -2  -4   27.70    3.35
   6   2   4  208.48   11.98
  -6   2  -4  245.64   11.01
  -7   2  -4   18.33    3.49
   7   2   4   21.31    4.99
  -8   2  -4   18.19    3.32
   8   2   4   16.06    4.23
  -9   2  -4   38.17    4.31
   9   2   4   27.76    5.17
   9   2   4   45.30    6.29
  10   2   4  117.55   10.76
 -10  -2  -4  124.65    8.91
  10   2   4  126.71   10.15
 -11  -2  -4   13.51    4.03
  11   2   4   11.89    4.59
  11   2   4   13.79    4.08
 -12  -2  -4    7.77    3.89
  12   2   4   -1.08    3.05
  12   2   4    2.96    2.91
 -13  -2  -4   12.87    4.23
  13   2   4   10.80    4.19
  13   2   4    6.22    3.57
 -14  -2  -4   70.33    8.28
  14   2   4   52.59    8.12
  14   2   4   71.51    8.50
  15   2   4   -4.23    4.10
 -15  -2  -4   -4.38    4.55
  15   2   4    3.55    3.97
 -18   3   4   89.96    9.32
 -18  -3   4   86.39   10.24
 -17  -3   4  148.86   12.68
 -17   3   4  164.80   12.01
 -16  -3   4  132.35   11.60
 -16   3   4  142.98   10.86
 -15  -3   4  194.24   13.57
 -15   3   4  228.33   12.98
 -14  -3   4   77.08    8.62
 -14   3   4   79.36    7.47
 -13  -3   4   46.48    6.60
 -12  -3   4  125.49    9.98
 -11  -3   4   73.60    7.57
 -10  -3   4  276.32   14.01
  -9   3   4  267.07   12.27
  -9  -3   4  267.37   13.49
  -8  -3   4    0.72    2.45
  -8   3   4    6.89    3.03
  -8   3   4    2.86    1.73
  -7   3   4  142.97    8.97
  -7   3   4  161.45    5.85
  -7   3   4  146.90    5.28
  -7  -3   4  141.16    9.25
  -6   3   4  548.78   10.18
  -6   3   4  548.60   17.83
  -6   3   4  529.03    9.82
   6   3  -4  546.40   14.01
  -6  -3   4  572.36   18.65
  -5   3   4  278.03   12.49
  -5  -3   4  278.39   12.78
  -4   3   4  171.95    5.03
  -4   3   4  172.09    9.78
  -4  -3   4  172.67    9.90
  -3   3   4  412.14    9.98
  -3   3   4  409.56   15.45
  -3  -3   4  431.08   15.93
  -2   3   4  146.07    6.35
  -2   3   4  135.38    8.89
  -2  -3   4  130.71    8.79
  -1   3   4  825.08   18.46
  -1   3   4  792.17   22.96
  -1  -3   4  836.78   23.09
   0   3   4 1000.64   22.32
   0   3   4  980.10   26.14
   0  -3   4 1028.14   26.08
   1   3   4  463.44   14.94
   1   3   4  435.33   16.71
  -1  -3  -4  411.22    7.25
   2   3   4  524.91   17.04
   2   3   4  536.19   18.97
  -2  -3  -4  523.64   10.23
   3   3   4  360.41   14.74
  -3  -3  -4  373.50    9.41
   3   3   4  367.96   15.74
   4   3   4  289.40   13.76
  -4  -3  -4  295.59    9.29
   4   3   4  292.45   14.19
   5   3   4  853.46   25.70
  -5  -3  -4  866.81   18.88
   5   3   4  833.78   25.44
   6   3   4  290.53   15.07
  -6  -3  -4  302.43   11.04
   6   3   4  311.55   15.19
   7   3   4   11.73    4.36
  -7  -3  -4    6.60    2.43
   8   3   4  195.21   13.10
  -8  -3  -4  200.11   10.16
   9   3   4  242.26   15.13
  -9  -3  -4  242.53   11.78
  10   3   4   83.33    9.42
 -10  -3  -4   76.08    7.17
  11   3   4  288.73   17.17
 -11  -3  -4  266.41   13.64
  11   3   4  282.40   16.08
  12   3   4   32.07    6.28
 -12  -3  -4   34.21    5.41
  12   3   4   31.00    5.71
  13   3   4   12.21    4.93
 -13  -3  -4    7.88    3.83
  13   3   4   15.66    4.52
  14   3   4  127.84   12.48
 -14  -3  -4   94.31    9.18
  14   3   4  104.32   10.33
  15   3   4  135.08   13.61
 -15  -3  -4  116.91   10.56
  15   3   4  130.57   11.80
 -17  -4   4   -2.20    3.41
 -16  -4   4   22.88    5.39
 -15  -4   4    4.90    3.31
 -14  -4   4    5.50    3.83
 -13  -4   4   -0.59    3.08
 -12  -4   4    6.52    3.77
 -11  -4   4    1.88    2.82
 -10  -4   4    0.68    2.59
  -9  -4   4   21.82    4.75
  -8  -4   4   20.01    4.53
  -8   4   4   25.23    4.77
  -7  -4   4   62.85    7.19
  -7   4   4   59.93    6.54
  -6  -4   4    1.14    2.68
  -6   4   4   -1.75    3.09
  -5   4   4    7.89    3.39
  -5  -4   4    3.44    3.19
  -4   4   4    3.95    2.91
  -4  -4   4    0.13    3.03
  -3   4   4   19.10    4.36
  -3  -4   4   16.21    3.90
  -2   4   4   12.95    3.67
  -2  -4   4   16.84    4.38
  -1   4   4    0.71    2.85
  -1  -4   4   -0.88    3.35
   0   4   4   22.75    4.57
   0  -4   4   22.73    4.54
   1   4   4   12.41    3.96
   2   4   4    8.65    3.50
   3   4   4    5.80    3.31
   4   4   4   -1.44    2.69
   4   4   4   -1.29    3.11
   5   4   4   13.04    4.41
   5   4   4    5.14    2.66
   6   4   4   24.10    5.21
   6   4   4   35.19    5.86
   7   4   4   -3.89    3.32
   7   4   4    7.56    3.84
   8   4   4    2.74    2.96
   8   4   4   -3.67    3.56
   9   4   4   -5.94    3.87
  10   4   4    5.02    4.24
  11   4   4   -3.80    4.67
  12   4   4    3.91    3.42
  13   4   4    2.18    4.18
  13   4   4   10.53    3.98
 -15  -5   4   15.83    4.83
 -14  -5   4    8.84    4.48
 -13  -5   4   32.81    6.11
 -12  -5   4  117.54   10.96
 -11  -5   4   39.74    6.59
 -10  -5   4  133.37   11.12
  -9  -5   4    5.09    3.59
  -8  -5   4    5.35    3.32
  -8   5   4    9.17    3.23
  -7  -5   4   11.56    3.52
  -7   5   4   12.45    4.08
  -6   5   4   48.59    6.58
  -6  -5   4   45.29    6.46
  -5   5   4   35.12    5.69
  -5  -5   4   35.44    5.84
  -4   5   4   32.98    5.51
  -4  -5   4   32.42    5.74
  -3   5   4   94.33    8.73
  -3  -5   4  120.48    9.89
  -2   5   4  242.05   13.93
  -2  -5   4  223.84   13.57
  -1   5   4  294.29   15.45
  -1  -5   4  315.31   15.93
   0   5   4  144.65   10.94
   0  -5   4  139.39   10.76
   1   5   4   69.69    7.96
   2   5   4  152.84   11.53
   3   5   4   46.39    6.57
   4   5   4  111.54    9.87
   5   5   4   58.67    7.59
   6   5   4  162.57   12.44
   7   5   4   52.32    7.47
   7   5   4   50.37    7.35
   8   5   4   65.30    8.87
   8   5   4   58.34    7.65
   9   5   4   52.69    7.78
   9   5   4   44.05    7.81
  10   5   4   36.16    7.16
  11   5   4   14.97    5.36
 -12  -6   4   48.66    7.92
 -11  -6   4   56.68    8.50
 -10  -6   4  128.56   11.66
  -9  -6   4   75.18    8.84
  -8   6   4    5.80    3.58
  -8  -6   4    4.51    3.22
  -7   6   4   27.77    5.50
  -7  -6   4   29.20    5.77
  -6   6   4   83.62    8.99
  -6  -6   4   82.86    9.15
  -5   6   4   37.40    6.26
  -5  -6   4   36.46    6.36
  -4   6   4  104.32   10.05
  -4  -6   4   98.22    9.69
  -3   6   4   28.02    5.61
  -3  -6   4   24.38    5.53
  -2   6   4  240.92   15.00
  -2  -6   4  264.88   15.73
  -1   6   4  249.77   15.19
  -1  -6   4  273.87   16.33
   0   6   4  119.96   10.87
   0  -6   4  119.36   11.01
   1   6   4  101.08    9.94
   2   6   4  122.22   10.91
   3   6   4   55.04    7.84
   4   6   4   33.60    6.13
   5   6   4  190.74   13.99
   6   6   4  110.09   10.80
   7   6   4   51.41    7.69
   8   6   4   66.75    8.61
  -6   7   4    3.84    4.33
  -6  -7   4    1.96    3.65
  -5   7   4   11.29    4.61
  -5  -7   4   13.30    5.27
  -4   7   4   55.60    8.45
  -4  -7   4   35.54    6.77
  -3   7   4   -1.26    3.05
  -3  -7   4   -2.25    3.81
  -2   7   4   36.36    6.84
  -2  -7   4   41.08    7.16
  -1  -7   4    5.02    4.16
  -1   7   4    0.51    3.03
   0   7   4   11.34    4.57
   1   7   4   16.51    5.01
   2   7   4   29.42    6.73
   3   7   4   17.64    5.55
 -19   0   5    7.35    4.48
 -18   0   5   -0.39    2.76
 -17   0   5   -5.06    3.52
 -16   0   5   -1.27    3.12
  16   0  -5    3.74    3.28
 -15   0   5    0.08    2.48
  15   0  -5   -4.81    3.73
 -14   0   5    1.54    2.59
  14   0  -5   -0.78    3.42
 -13   0   5   -0.83    2.53
  13   0  -5   -2.83    3.62
  12   0  -5   -1.06    3.35
 -12   0   5   -1.25    2.16
  11   0  -5    3.55    3.54
 -11   0   5   -0.71    2.02
  10   0  -5    3.86    3.82
 -10   0   5    0.74    2.05
   9   0  -5    0.81    3.18
  -9   0   5   -2.32    2.02
   8   0  -5    0.67    3.45
  -8   0   5   -0.92    1.99
  -7   0   5   -1.38    1.64
   7   0  -5   -2.07    3.33
  -6   0   5    0.19    1.44
   6   0  -5    2.24    3.91
  -5   0   5   -1.80    1.49
   5   0  -5   -0.66    1.43
   4   0  -5    1.61    3.75
   4   0  -5   -1.44    1.36
   4   0  -5   -1.15    1.45
  -4   0   5   -1.92    2.08
  -4   0   5    1.17    1.37
   3   0  -5   -2.32    1.38
   3   0  -5    1.46    3.32
   3   0  -5   -1.65    1.51
  -3   0   5    1.21    1.66
  -3   0   5   -1.19    2.03
   2   0  -5    2.97    3.46
   2   0  -5    0.87    1.59
   2   0  -5   -1.03    1.34
  -2   0   5    1.56    2.26
   1   0  -5    2.75    3.62
   1   0  -5   -0.43    1.37
  -1   0   5    0.65    2.08
   0   0  -5   -0.54    1.32
   0   0  -5    2.46    3.51
   0   0   5   -0.30    2.06
  -1   0  -5    3.67    3.16
   1   0   5   -1.15    2.67
  -2   0  -5   -1.01    3.21
   2   0   5    1.44    2.48
  -3   0  -5    1.42    3.48
   3   0   5   -4.64    2.93
  -4   0  -5    5.28    3.14
   4   0   5    2.20    2.38
  -5   0  -5   -0.80    3.37
   5   0   5    3.87    2.82
  -6   0  -5   -1.39    3.28
   6   0   5   -0.55    2.85
   7   0   5   -0.03    2.39
   8   0   5   -0.82    2.34
   9   0   5    2.93    3.07
  10   0   5  -10.01    4.44
  11   0   5   -0.11    3.10
  12   0   5    1.95    3.63
  13   0   5   -1.29    3.06
  14   0   5   -4.32    3.52
 -18  -1   5   46.24    7.35
 -18   1   5   46.19    6.70
 -17  -1   5   82.44    9.27
  17   1  -5   67.06    7.61
 -17   1   5   69.87    7.67
 -16  -1   5  181.72   12.44
 -16   1   5  177.71   11.80
  16   1  -5  162.75   11.65
 -15  -1   5  323.23   16.27
 -15   1   5  331.98   15.26
  15   1  -5  300.72   15.85
 -14  -1   5  207.56   12.38
 -14   1   5  205.83   11.46
 -13  -1   5  152.36   10.22
 -13   1   5  152.78    9.36
  13   1  -5  138.94   10.58
 -12  -1   5  187.32   10.83
 -12   1   5  198.00    9.91
  12   1  -5  178.54   11.76
 -11  -1   5   94.61    7.62
 -11   1   5   99.56    6.63
  11  -1  -5   92.48    8.82
 -11   1   5   92.44    5.65
  11   1  -5   86.42    8.53
 -10   1   5  263.37   10.17
  10   1  -5  253.66   13.78
  10  -1  -5  248.34   14.15
 -10   1   5  255.44    9.90
 -10  -1   5  264.99   12.11
  -9   1   5  100.71    5.70
   9   1  -5  101.13    8.89
   9  -1  -5   86.07    8.50
  -9   1   5   99.75    6.17
  -9  -1   5  102.04    7.22
   8   1  -5   37.77    5.71
   8  -1  -5   39.08    6.40
  -8   1   5   36.27    3.27
  -8   1   5   35.36    3.83
  -8  -1   5   45.12    3.38
  -8  -1   5   36.47    4.48
   7   1  -5  208.84   12.47
   7  -1  -5  213.56   12.89
   7   1  -5  233.16    7.78
  -7   1   5  237.46   10.15
  -7  -1   5  249.25   10.59
  -7  -1   5  248.18    8.86
  -7   1   5  242.93    7.82
   6   1  -5  249.96   13.48
   6  -1  -5  247.87   13.83
  -6   1   5  262.33   11.00
  -6   1   5  271.98    7.71
  -6  -1   5  276.49   10.95
  -6  -1   5  289.67   10.25
   5   1  -5  194.98   11.73
   5  -1  -5  198.12   12.48
  -5   1   5  204.60    9.79
  -5   1   5  209.63    6.12
  -5  -1   5  218.43    9.43
  -5  -1   5  209.12    9.24
   4   1  -5   84.08    7.90
   4  -1  -5   81.48    8.24
  -4   1   5   86.39    6.48
  -4  -1   5   87.43    6.10
  -4  -1   5   84.31    6.09
   3   1  -5  134.13    9.67
   3  -1  -5  143.56   10.42
   3  -1  -5  137.02    4.34
  -3   1   5  149.03    8.64
  -3  -1   5  148.11    7.70
  -3  -1   5  128.72    7.85
   2   1  -5   12.22    3.85
   2  -1  -5   16.84    1.53
  -2  -1   5   15.36    3.12
  -2  -1   5   11.95    2.92
   1  -1  -5   36.93    2.29
   1   1  -5   38.87    5.91
   1  -1  -5   36.14    6.11
  -1  -1   5   32.44    4.53
   0   1  -5   91.40    7.87
   0  -1  -5   82.40    8.27
   0  -1   5   97.28    7.65
   0  -1  -5   90.91    3.91
  -1   1  -5  198.09   11.19
  -1  -1  -5  192.61    6.38
   1  -1   5  191.44   11.14
  -2   1  -5  345.92   15.15
  -2  -1  -5  350.40    9.77
   2  -1   5  339.27   15.20
  -3   1  -5  221.10   11.80
  -3  -1  -5  208.76    8.05
   3  -1   5  227.70   12.81
  -4   1  -5  487.41   17.75
   4   1   5  452.15   16.32
   4   1   5  482.05   18.82
   4  -1   5  468.54   19.24
   5   1   5  460.57   17.45
  -5   1  -5  481.76   17.34
   5   1   5  480.03   19.24
   5  -1   5  461.65   19.47
   6   1   5  278.61   13.94
  -6   1  -5  301.50   13.55
   6   1   5  309.90   15.74
   6  -1   5  290.54   15.64
   7   1   5  135.74   10.01
  -7   1  -5  148.80    9.27
   7   1   5  137.20   10.68
   7  -1   5  136.83   10.94
   8   1   5  134.09   10.45
  -8   1  -5  158.96    9.40
   8   1   5  157.15   11.65
   8  -1   5  146.33   11.52
   9   1   5  140.80   11.26
   9   1   5  148.95   11.76
   9  -1   5  163.06   12.45
  10   1   5   63.40    8.21
  10   1   5   80.50    9.00
  10  -1   5   92.02    9.64
  11   1   5  130.51   11.46
  11   1   5  158.50   12.52
  12   1   5  149.26   12.66
  12   1   5  154.84   12.87
  13   1   5  143.96   13.21
  13   1   5  160.76   13.40
  14   1   5   30.73    6.51
  14   1   5   24.27    5.93
 -18  -2   5   33.35    6.49
  17   2  -5   23.87    4.98
 -17  -2   5   33.89    6.60
  16   2  -5    6.40    3.50
 -16  -2   5   16.85    4.94
 -15  -2   5  508.12   21.25
  15   2  -5  459.47   20.14
 -15   2   5  482.00   18.12
  14   2  -5  265.81   15.18
 -14  -2   5  289.38   15.52
 -14   2   5  297.47   13.27
  13   2  -5   46.71    6.62
 -13  -2   5   59.60    6.93
 -13   2   5   50.81    5.18
  12   2  -5   21.36    4.48
 -12  -2   5   15.29    3.91
 -12   2   5   16.50    2.92
 -12   2   5   21.61    3.48
  11   2  -5   90.49    8.82
 -11   2   5   73.82    6.09
 -11  -2   5   77.52    7.39
  10   2  -5    3.69    3.09
 -10  -2   5    8.69    3.08
 -10   2   5    7.53    2.62
 -10   2   5    6.19    2.01
  -9   2   5  180.18    6.85
   9   2  -5  169.60   12.00
  -9   2   5  184.65    9.72
  -9  -2   5  185.95   10.63
  -8   2   5   41.53    2.87
  -8  -2   5   39.80    5.19
  -8   2   5   39.87    4.72
  -7  -2   5   55.74    5.91
  -7   2   5   50.36    5.47
  -7   2   5   46.86    2.50
  -6   2   5  240.62   11.48
  -6  -2   5  239.59   11.39
  -5   2   5  221.67   11.25
  -5  -2   5  243.00   11.36
  -4   2   5  132.65    8.68
  -4  -2   5  137.57    8.58
  -3   2   5  248.94   12.02
  -3  -2   5  279.81   12.16
  -2   2   5   78.10    7.08
  -2  -2   5   95.00    7.12
  -1  -2   5   32.16    4.58
  -1   2   5   29.24    4.70
   0   2   5  178.74    7.55
   0   2   5  158.67   10.06
  -1   2  -5  212.12   11.97
   1   2   5  196.42    8.90
  -1  -2  -5  186.27    4.50
   1   2   5  195.52   11.36
   2   2   5   57.21    5.18
  -2   2  -5   61.41    6.89
  -2  -2  -5   56.58    3.21
   3   2   5  386.89   14.66
  -3   2  -5  402.83   16.37
  -3  -2  -5  398.31   10.51
   4   2   5   62.49    6.41
  -4   2  -5   65.87    6.70
  -4  -2  -5   75.34    4.97
   5   2   5  418.35   16.92
  -5   2  -5  429.18   16.67
   6   2   5  372.94   16.71
  -6   2  -5  397.74   15.75
  -7   2  -5   30.16    4.55
   7   2   5   19.83    4.58
  -8   2  -5   -1.33    2.35
   8   2   5   -1.63    3.62
   8   2   5    2.28    2.78
   9   2   5   57.83    7.52
   9   2   5   67.77    8.01
  10   2   5    7.54    3.05
 -10  -2  -5   16.68    4.43
  10   2   5   14.30    4.61
  11   2   5  189.89   14.17
 -11  -2  -5  187.43   11.88
  11   2   5  183.18   13.52
  12   2   5  182.16   14.54
 -12  -2  -5  195.42   12.51
  12   2   5  176.97   13.68
 -13  -2  -5   18.03    4.85
  13   2   5   18.92    5.30
  13   2   5   18.02    4.51
  14   2   5   39.00    7.28
  14   2   5   27.88    6.22
  17   3  -5   11.14    4.37
 -17  -3   5   19.82    5.71
  16   3  -5    2.57    3.54
 -16  -3   5    1.91    3.27
  15   3  -5    6.71    3.61
 -15  -3   5   16.39    4.75
 -14  -3   5   -2.17    3.16
 -13  -3   5    6.40    3.94
 -13   3   5    6.67    2.80
 -12  -3   5   40.96    6.21
 -12   3   5   44.12    5.27
 -11  -3   5   65.41    7.58
 -11   3   5   58.47    6.05
 -10  -3   5   63.17    7.05
 -10   3   5   42.33    5.14
  -9   3   5   95.42    7.62
  -9  -3   5  105.67    8.66
  -8  -3   5   38.47    5.46
  -8   3   5   38.29    5.24
  -7  -3   5   24.98    4.39
  -7   3   5   17.74    3.74
  -6   3   5  125.49    9.05
  -6  -3   5  117.40    8.89
  -5   3   5   13.45    3.76
  -5  -3   5   10.23    3.35
  -4   3   5    9.25    3.31
  -4  -3   5    2.35    2.49
  -3   3   5   16.26    1.51
  -3   3   5   16.99    3.93
  -3  -3   5   15.04    3.88
  -2   3   5    5.82    1.46
  -2  -3   5    2.67    2.82
  -2   3   5    5.56    3.07
  -1   3   5  230.20    8.48
  -1   3   5  208.77   12.28
  -1  -3   5  230.60   12.11
   0   3   5  129.55    7.15
   0   3   5  113.77    9.08
   1   3   5   11.52    2.86
   1   3   5    1.84    2.77
   2   3   5    0.03    2.28
   2   3   5    3.33    2.70
   3   3   5   -2.46    2.70
   3   3   5   -0.51    3.49
   4   3   5    5.75    2.45
   4   3   5   13.84    3.53
   5   3   5    4.08    2.39
   6   3   5   72.62    7.92
   7   3   5  174.53   12.10
  -7   3  -5  167.92   10.74
  -8   3  -5   13.05    3.52
   8   3   5    5.19    2.94
   9   3   5   52.99    7.45
  10   3   5   38.20    7.07
  10   3   5   31.43    5.88
  11   3   5   77.88    9.49
  11   3   5   88.65    9.84
  12   3   5   20.74    5.81
  12   3   5   28.27    5.61
  13   3   5   12.54    5.04
  13   3   5   11.41    3.84
 -15  -4   5   81.12    9.56
 -14  -4   5   50.01    7.46
 -14   4   5   35.40    5.41
 -13   4   5  131.27   10.04
 -13  -4   5  122.92   11.07
 -12  -4   5   79.94    8.65
 -12   4   5   70.38    7.57
 -11   4   5  298.86   15.02
 -11  -4   5  311.67   16.64
 -10   4   5   90.78    8.22
 -10  -4   5  106.93    9.67
  -9   4   5  627.53   22.27
  -9  -4   5  705.94   24.66
  -8  -4   5   42.54    6.24
  -8   4   5   28.72    5.00
  -7   4   5   -1.54    2.43
  -7  -4   5   -3.15    3.41
  -6   4   5   84.31    8.09
  -6  -4   5   85.30    8.27
  -5   4   5   31.37    5.04
  -5  -4   5   51.15    6.47
  -4   4   5   61.78    7.11
  -4  -4   5   57.56    6.84
  -3   4   5   48.64    6.44
  -3  -4   5   54.36    6.75
  -2   4   5  142.22   10.65
  -2  -4   5  154.71   10.97
  -1   4   5  191.25    9.18
  -1   4   5  171.66   11.77
  -1  -4   5  183.75   11.77
   0   4   5  284.58   12.04
   0   4   5  284.47   15.33
   1   4   5  307.62   13.37
   1   4   5  281.20   15.45
   2   4   5   30.84    4.73
   2   4   5   41.92    6.52
   3   4   5  248.95   13.34
   3   4   5  283.25   15.69
   4   4   5   -1.34    2.60
   4   4   5    0.27    3.06
   5   4   5  280.71   15.05
   5   4   5  274.26   15.95
   6   4   5  249.76   14.84
   6   4   5  264.27   15.82
   7   4   5  229.49   14.71
   8   4   5  178.65   13.44
   9   4   5  187.55   14.02
  10   4   5  179.27   14.12
  11   4   5  113.64   11.90
 -13  -5   5   -4.12    4.47
 -13   5   5    0.97    3.25
 -12   5   5  138.44   11.09
 -12  -5   5  163.29   13.18
 -11  -5   5    7.54    4.48
 -11   5   5   -3.10    3.24
 -10   5   5   88.62    8.90
 -10  -5   5  115.98   10.94
  -9  -5   5    3.22    3.24
  -9   5   5    6.22    2.94
  -8   5   5   55.54    7.03
  -8  -5   5   64.56    8.06
  -7   5   5    7.35    3.39
  -7  -5   5    5.33    3.67
  -6   5   5   -0.37    2.30
  -6  -5   5    2.45    2.68
  -5   5   5   20.43    4.90
  -5  -5   5   14.18    4.56
  -4   5   5   26.18    5.47
  -4  -5   5   16.32    4.38
  -3   5   5   13.95    4.48
  -3  -5   5    8.00    4.12
  -2  -5   5    0.62    3.10
  -2   5   5    0.91    2.87
  -1   5   5   97.66    9.52
  -1  -5   5  110.36   10.28
   0   5   5   91.80    9.45
   1   5   5    4.53    3.02
   2   5   5   69.65    8.54
   3   5   5   -0.09    2.64
   3   5   5   10.98    4.32
   4   5   5   52.91    6.98
   4   5   5   61.89    8.13
   5   5   5   23.77    4.97
   5   5   5   29.38    6.03
   6   5   5   73.68    8.88
   6   5   5   72.73    9.04
   7   5   5   48.52    7.30
   7   5   5   53.97    7.96
   8   5   5   20.17    5.51
   8   5   5    8.25    3.66
   9   5   5   27.81    6.54
  -9   6   5    7.07    4.97
  -9  -6   5   -0.76    3.64
  -8   6   5   13.01    4.27
  -8  -6   5   20.62    5.30
  -7   6   5   42.10    6.93
  -7  -6   5   39.32    6.77
  -6   6   5    1.87    2.89
  -6  -6   5   -6.78    4.54
  -5   6   5   21.11    5.29
  -5  -6   5   12.96    4.91
  -4   6   5    2.61    2.92
  -4  -6   5    5.74    3.62
  -3   6   5    4.32    3.12
  -3  -6   5    7.81    3.82
  -2  -6   5    3.91    3.22
  -2   6   5   -1.45    3.16
  -1  -6   5   44.05    7.43
  -1   6   5   46.56    7.24
   0   6   5    8.32    4.29
   1   6   5    4.87    3.67
   2   6   5   26.25    5.71
   3   6   5    8.77    4.83
   4   6   5   79.17    9.62
   5   6   5   13.55    4.72
  17   0  -6    8.72    4.57
 -17   0   6   17.32    4.80
 -16   0   6   95.84    8.72
  16   0  -6   89.50    9.47
  15   0  -6   22.36    5.40
 -15   0   6   17.76    4.14
  14   0  -6   61.39    7.86
 -14   0   6   63.08    6.55
 -13   0   6  187.01   10.60
  13   0  -6  181.09   13.31
  12   0  -6   80.55    8.93
 -12   0   6   74.37    6.49
  11   0  -6  113.47   10.48
 -11   0   6  127.40    8.01
  10   0  -6  282.10   16.07
 -10   0   6  291.50   11.72
   9   0  -6  514.81   22.13
  -9   0   6  521.43   15.05
  -9   0   6  549.91   15.85
   8   0  -6  258.27   15.40
  -8   0   6  259.39   10.73
  -8   0   6  285.88   10.70
   7   0  -6   76.24    8.52
  -7   0   6   86.84    5.63
  -7   0   6   83.85    6.36
   6   0  -6  771.35   27.00
  -6   0   6  770.46   21.26
   5   0  -6  104.42    9.83
  -5   0   6   95.05    5.60
  -5   0   6   87.12    6.92
   4   0  -6  347.14   17.58
  -4   0   6  373.20   11.35
  -4   0   6  343.67   14.37
   3   0  -6   24.14    5.95
  -3   0   6   30.10    4.59
   2   0  -6  603.43   22.97
  -2   0   6  629.29   20.85
   1   0  -6   80.72    8.96
  -1   0   6   68.22    6.78
   0   0  -6   30.71    6.23
   0   0   6   23.28    4.48
  -1   0  -6  175.81   11.99
   1   0   6  171.47   11.26
  -2   0  -6  175.03   11.76
   2   0   6  173.95   11.81
  -3   0  -6  125.84    9.96
   3   0   6  126.39   10.49
  -4   0  -6   57.00    7.01
   4   0   6   36.84    5.92
  -5   0  -6  166.15   11.56
   5   0   6  169.78   12.37
   6   0   6  206.73   14.15
   7   0   6   57.44    8.10
   8   0   6  303.74   17.97
   9   0   6   63.01    8.37
  10   0   6  382.29   20.79
  11   0   6   13.30    4.72
  12   0   6  251.18   17.64
  17   1  -6   33.83    6.30
 -17  -1   6   42.71    6.54
  16   1  -6   21.76    5.51
 -16  -1   6   22.71    4.98
  15   1  -6   -2.40    3.09
 -15  -1   6    1.20    2.64
  14   1  -6   66.73    8.39
 -14  -1   6   74.80    7.62
  13   1  -6    1.50    3.47
 -13  -1   6    1.88    2.55
  12   1  -6   10.56    4.14
 -12  -1   6   11.34    2.99
 -11  -1   6    0.48    2.61
  11   1  -6    7.50    4.30
  11  -1  -6    6.27    4.27
 -10  -1   6   29.76    4.34
  10   1  -6   27.75    6.02
  10  -1  -6   30.57    6.57
 -10   1   6   22.67    3.37
  -9  -1   6   42.09    4.85
   9   1  -6   35.07    6.07
   9  -1  -6   41.16    7.03
   8   1  -6   87.53    9.15
   8  -1  -6   79.05    8.90
  -8  -1   6  105.01    7.32
  -8  -1   6   86.05    5.66
   7   1  -6   13.49    4.48
   7  -1  -6   19.39    5.83
  -7  -1   6   12.81    3.03
  -7  -1   6   15.40    2.47
   6   1  -6    1.23    3.33
   6  -1  -6    5.12    4.01
  -6  -1   6    0.47    1.93
  -6  -1   6   -0.80    1.85
   5   1  -6   87.31    8.81
   5  -1  -6   90.74    9.76
  -5  -1   6   93.63    6.54
  -5  -1   6   89.51    6.85
   4   1  -6    3.24    3.40
  -4  -1   6    2.03    2.24
  -4  -1   6    0.81    2.40
   3   1  -6  108.72    9.79
   3  -1  -6  113.45   10.36
  -3  -1   6  122.72    7.67
  -3  -1   6  100.34    7.99
   2   1  -6    1.02    3.92
   2  -1  -6    7.89    5.28
  -2  -1   6   -0.46    2.23
   1   1  -6    3.41    4.00
   1  -1  -6   -0.08    4.67
  -1  -1   6    5.78    3.00
   0   1  -6   18.90    5.34
   0  -1   6   15.56    3.82
  -1   1  -6   -3.97    4.69
   1   1   6    2.23    2.67
   1  -1   6    2.78    2.58
  -2   1  -6   35.18    5.83
   2   1   6   32.72    5.52
   2  -1   6   32.25    5.57
  -3   1  -6    4.98    3.60
   3   1   6    9.80    3.99
   3  -1   6    9.48    3.68
  -4   1  -6    3.79    3.58
   4   1   6    7.05    3.26
   4  -1   6    0.02    2.27
  -5   1  -6   21.85    5.12
   5   1   6   20.64    4.76
   5  -1   6   24.15    5.18
   6  -1   6   48.85    7.09
  -6   1  -6   59.02    7.01
   6   1   6   58.03    7.33
   7  -1   6   60.17    8.30
  -7   1  -6   71.23    7.47
   7   1   6   64.76    8.28
   8  -1   6   13.31    4.39
   8   1   6   27.92    5.82
   9  -1   6   38.82    6.81
   9   1   6   37.12    6.77
  10  -1   6    0.81    2.65
  10   1   6   -1.53    3.61
  11   1   6   33.59    6.75
  12   1   6    1.52    3.18
  16   2  -6    3.78    3.16
 -16  -2   6    1.25    3.21
  15   2  -6   55.68    8.11
 -15  -2   6   46.99    6.67
  14   2  -6   49.77    7.33
 -14  -2   6   59.75    7.35
  13   2  -6    3.08    3.67
 -13  -2   6    6.42    3.27
  12   2  -6   91.40    9.74
 -12  -2   6   92.59    8.31
 -11  -2   6   52.40    6.30
  11   2  -6   54.14    7.52
 -11   2   6   41.68    5.03
  10   2  -6   65.52    8.09
 -10   2   6   67.98    6.25
 -10  -2   6   61.56    6.80
  -9  -2   6   24.30    4.51
   9   2  -6   21.31    5.53
  -9   2   6   17.61    3.47
   8   2  -6  175.01   12.65
  -8   2   6  176.67   10.39
  -8  -2   6  190.99   10.86
   7   2  -6   53.34    7.35
  -7   2   6   62.08    6.32
  -7  -2   6   65.24    6.35
   6   2  -6   17.16    4.50
  -6   2   6   22.53    4.15
  -6  -2   6   21.94    3.76
   5   2  -6   19.72    4.77
  -5   2   6   23.67    4.42
  -5  -2   6   21.49    4.00
   4   2  -6  139.32   11.28
  -4   2   6  129.79    9.47
  -4  -2   6  148.21    9.33
   3   2  -6   75.73    8.38
  -3   2   6   85.80    7.87
  -3  -2   6   78.83    6.96
   2   2  -6    9.88    3.97
  -2  -2   6   15.80    3.65
  -2   2   6   18.88    4.20
   1   2  -6   -2.74    3.17
  -1   2   6    4.40    3.23
   0   2  -6   64.68    7.88
  -1   2  -6   -1.52    3.06
  -2   2  -6   15.27    4.75
  -3   2  -6    5.64    2.94
   3   2   6    7.41    2.66
  -4   2  -6   45.48    6.69
   4   2   6   51.94    6.00
  -5   2  -6    8.58    3.85
   5   2   6    1.41    2.29
  -6   2  -6   28.30    5.17
   6   2   6   23.24    4.88
   6   2   6   25.17    5.56
   7   2   6   76.09    8.16
  -7   2  -6   87.01    8.16
   8   2   6   44.88    6.97
   8   2   6   63.61    8.11
   9   2   6    9.70    3.97
   9   2   6   14.42    4.71
  10   2   6   26.58    5.68
  10   2   6   31.50    6.07
  11   2   6   54.62    8.09
  11   2   6   68.03    9.28
  15   3  -6   21.12    5.53
 -15  -3   6   20.86    5.38
  14   3  -6  160.18   12.98
 -14  -3   6  170.22   12.60
 -13  -3   6   82.29    8.58
  13   3  -6   77.38    8.98
  12   3  -6   79.20    9.43
 -12   3   6   77.03    7.34
 -12  -3   6   87.89    8.97
  11   3  -6  116.82   11.37
 -11   3   6  107.07    8.77
 -11  -3   6  119.15   10.00
 -10  -3   6   54.05    7.00
 -10   3   6   47.48    6.03
  -9   3   6  354.21   16.13
  -9  -3   6  372.77   16.98
  -8   3   6  326.01   15.39
  -8  -3   6  336.23   15.84
  -7   3   6   56.43    6.81
  -7  -3   6   50.81    6.43
  -6   3   6   88.32    8.42
  -6  -3   6   98.40    8.51
  -5   3   6  270.87   14.40
  -5  -3   6  269.55   13.79
  -4   3   6   83.73    8.16
  -4  -3   6   88.29    8.00
  -3   3   6  356.65   17.06
  -3  -3   6  406.99   17.10
  -2   3   6  190.63   12.47
  -2  -3   6  191.09   11.75
  -1   3   6    4.39    3.13
   0   3   6   85.83    8.61
   1   3   6  205.78   13.32
  -2   3  -6   61.32    7.58
   2   3   6   62.03    6.06
   2   3   6   68.14    8.00
   3   3   6  110.37    8.35
  -3   3  -6  109.32    9.72
  -4   3  -6   23.49    4.72
   4   3   6   22.16    4.18
  -5   3  -6   19.07    4.38
   5   3   6   12.93    3.46
   6   3   6  234.34   14.16
  -6   3  -6  236.28   13.71
   7   3   6  149.21   11.82
  -7   3  -6  167.52   11.49
   8   3   6   45.23    6.99
   8   3   6   53.24    7.95
   9   3   6  163.48   13.08
   9   3   6  195.41   15.04
  10   3   6   33.48    6.62
  10   3   6   34.25    6.66
 -13  -4   6    6.55    3.93
 -12  -4   6    5.30    3.53
 -12   4   6    0.88    2.45
 -11  -4   6    3.53    3.73
 -11   4   6    3.47    2.71
 -10  -4   6    4.98    3.58
 -10   4   6    7.45    3.36
  -9   4   6    5.98    3.30
  -9  -4   6    0.79    3.29
  -8   4   6    4.79    3.14
  -8  -4   6    7.82    3.68
  -7   4   6    8.13    3.70
  -7  -4   6   -2.72    3.26
  -6   4   6    0.38    2.37
  -6  -4   6   -4.12    3.29
  -5   4   6    4.25    3.01
  -5  -4   6    1.75    2.65
  -4   4   6   -4.60    3.55
  -4  -4   6   -3.73    3.12
  -3  -4   6    3.18    3.60
  -3   4   6   -1.65    3.38
  -2  -4   6   -0.33    2.99
  -2   4   6   -2.35    2.87
  -1   4   6   13.99    3.90
   0   4   6   -1.74    2.84
   1   4   6    0.20    2.99
   2   4   6    4.14    3.21
   3   4   6    0.87    2.82
   4   4   6    3.90    3.88
  -6   4  -6    0.72    2.77
   6   4   6    4.46    3.10
   7   4   6   -6.43    3.63
   8   4   6   -3.68    2.85
 -11   5   6   34.37    6.11
 -11  -5   6   29.56    6.09
 -10   5   6   50.46    7.11
 -10  -5   6   48.77    7.56
  -9   5   6   23.13    5.11
  -9  -5   6   26.40    5.60
  -8   5   6   83.75    9.15
  -8  -5   6  101.98   10.43
  -7   5   6   80.72    9.02
  -7  -5   6   60.40    7.91
  -6   5   6   25.52    4.94
  -6  -5   6   48.27    7.18
  -5   5   6   58.25    7.41
  -5  -5   6   58.52    7.69
  -4  -5   6   72.51    8.75
  -4   5   6   50.05    7.29
  -3   5   6   71.30    8.63
  -3  -5   6   58.00    7.69
  -2  -5   6    3.30    3.34
  -2   5   6    6.98    3.01
  -1   5   6    8.46    3.84
   0   5   6   28.57    5.91
   1   5   6    8.38    4.40
   2   5   6   27.60    6.17
   3   5   6    6.47    4.03
   4   5   6   48.08    7.63
   5   5   6    5.46    3.32
  -3  -6   6   57.63    8.54
  -3   6   6   59.64    8.26
  -2  -6   6   42.35    7.35
  -2   6   6   31.72    5.95
  15   0  -7   -1.27    3.71
  14   0  -7    2.44    3.92
  13   0  -7   -4.01    4.51
  12   0  -7   -0.65    4.01
  11   0  -7    0.64    3.91
  10   0  -7   -5.69    4.77
   9   0  -7    0.89    3.96
   8   0  -7    0.65    3.57
  -8   0   7   -3.35    2.40
   7   0  -7   -4.71    4.80
  -7   0   7   -0.85    2.03
   6   0  -7   -1.31    3.84
  -6   0   7    0.66    1.79
   5   0  -7    7.47    4.24
  -5   0   7   -1.11    2.02
   4   0  -7   -2.75    3.94
  -4   0   7    1.21    2.75
   3   0  -7   -0.63    4.11
  -3   0   7   -2.44    2.13
   2   0  -7    6.66    3.95
  -2   0   7   -3.99    2.73
   1   0  -7   -1.54    4.02
  -1   0   7    4.22    2.60
   0   0  -7    1.67    3.22
   0   0   7   -1.82    2.48
  -1   0  -7    3.77    3.74
   1   0   7    0.82    2.75
  -2   0  -7   -2.48    3.63
   2   0   7    5.86    3.51
  -3   0  -7    1.27    4.26
   3   0   7   -0.52    2.87
  -4   0  -7    1.42    3.79
   4   0   7   -2.24    2.31
   5   0   7    3.25    3.41
   6   0   7   -6.02    4.23
   7   0   7   -5.32    3.90
   8   0   7   -1.21    3.14
   9   0   7    3.15    3.50
  15   1  -7   11.79    5.23
  14   1  -7   -0.41    4.23
  13   1  -7    7.53    3.88
 -12  -1   7   30.82    4.86
  12   1  -7   32.55    6.61
 -11  -1   7   13.20    3.56
  11   1  -7   16.98    5.20
 -10  -1   7   55.14    5.78
  10   1  -7   52.00    8.30
  10  -1  -7   45.05    7.60
   9  -1  -7  101.69   11.33
   9   1  -7   88.47   10.13
  -9  -1   7  110.72    7.98
   8   1  -7  116.93   11.58
   8  -1  -7  115.82   11.81
  -8  -1   7  125.22    8.37
   7   1  -7  131.29   12.04
   7  -1  -7  124.84   12.05
  -7  -1   7  141.39    8.60
   6   1  -7   80.62    8.98
   6  -1  -7   67.43    8.86
  -6  -1   7   61.59    5.75
  -6  -1   7   71.19    6.55
   5  -1  -7  107.35   11.06
   5   1  -7  104.59   10.61
  -5  -1   7  126.33    8.06
  -5  -1   7  110.65    8.57
   4   1  -7   58.73    8.39
   4  -1  -7   53.75    8.51
  -4  -1   7   57.65    6.42
   3   1  -7   69.26    9.19
   3  -1  -7   55.17    8.54
  -3  -1   7   62.90    7.12
   2   1  -7  196.41   14.33
  -2   1   7  194.99   12.74
  -2  -1   7  174.87   11.84
   1   1  -7  254.88   15.83
  -1   1   7  264.08   15.16
  -1  -1   7  248.99   14.51
   0   1  -7  135.50   11.84
   0   1   7  141.91   11.17
   0  -1   7  126.41   10.79
  -1   1  -7   83.42    9.34
   1  -1   7   81.82    8.71
   1   1   7   82.28    8.63
  -2   1  -7  150.74   12.24
   2   1   7  156.28   12.28
   2  -1   7  151.09   12.03
  -3   1  -7   54.14    7.70
   3   1   7   62.27    8.13
   3  -1   7   47.66    6.92
   4  -1   7   49.86    7.61
  -4   1  -7   56.24    7.79
   4   1   7   56.52    7.77
   5  -1   7   21.73    5.32
  -5   1  -7   12.66    4.79
   5   1   7   15.18    5.28
   6  -1   7    8.04    4.21
  -6   1  -7    5.69    3.81
   6   1   7    3.13    2.88
   7  -1   7   30.39    6.54
   7   1   7   24.08    5.83
   8  -1   7   50.71    8.06
   8   1   7   43.63    7.57
   9  -1   7   58.64    8.73
   9   1   7   49.50    8.20
 -14  -2   7    3.19    3.25
  14   2  -7    6.68    4.22
 -13  -2   7   14.89    4.08
  13   2  -7   21.66    5.69
 -12  -2   7   -0.71    2.70
  12   2  -7    3.50    4.05
 -11  -2   7   55.68    6.63
  11   2  -7   49.98    7.81
  10   2  -7    7.27    4.57
 -10  -2   7   -3.51    3.18
   9   2  -7   50.07    7.74
  -9   2   7   48.33    5.94
  -9  -2   7   44.79    5.64
  -8   2   7  294.76   14.79
  -8  -2   7  303.48   14.51
   7   2  -7   93.69   10.08
  -7   2   7  102.95    8.91
  -7  -2   7  115.88    8.81
   6   2  -7   -4.04    3.59
  -6  -2   7    1.98    2.59
  -6   2   7   -1.16    2.42
   5   2  -7   37.75    7.10
  -5  -2   7   48.30    5.85
   4   2  -7    0.17    3.49
  -4  -2   7    9.61    3.45
   3   2  -7   51.66    7.90
   2   2  -7  134.87   11.80
   1   2  -7   92.87    9.72
   0   2  -7   50.78    7.80
  -1   2  -7  182.73   13.37
  -2   2  -7   51.92    7.68
  -3   2  -7  149.75   12.31
   3   2   7  146.61   12.53
  -4   2  -7   10.21    4.57
   4   2   7   21.11    5.51
  -5   2  -7   37.18    6.34
   5   2   7   39.64    6.93
  -6   2  -7    0.17    3.11
   6   2   7    4.53    3.49
   7   2   7  136.87   12.77
   8   2   7   14.24    5.52
 -13  -3   7   12.77    4.44
  13   3  -7    9.40    5.17
 -12  -3   7    3.20    2.96
  12   3  -7    1.89    4.04
  11   3  -7    8.27    4.80
 -11  -3   7    2.16    3.24
  10   3  -7   -2.41    2.85
 -10   3   7    3.88    2.69
 -10  -3   7    5.42    2.96
   9   3  -7   32.92    7.37
  -9   3   7   21.61    4.44
  -9  -3   7   24.96    5.04
   8   3  -7   -2.19    4.41
  -8   3   7    0.93    2.33
  -8  -3   7    7.23    3.06
   7   3  -7   49.09    8.11
  -7   3   7   43.51    6.47
  -7  -3   7   44.85    6.00
   6   3  -7    1.20    3.37
  -6  -3   7    6.85    3.84
  -6   3   7   -5.33    2.91
   5   3  -7   36.50    7.15
  -5  -3   7   35.70    5.69
  -5   3   7   34.49    5.78
   4   3  -7   25.00    6.35
  -4  -3   7   21.27    4.66
  -4   3   7   27.95    5.44
   3   3  -7  178.23   13.99
  -3  -3   7  207.48   12.89
  -3   3   7  172.47   12.52
   2   3  -7   13.61    4.44
  -2   3   7   15.53    4.48
   1   3  -7   -3.05    4.03
  -1   3   7   -8.40    4.48
   0   3  -7   -4.41    4.41
  -1   3  -7   -1.33    2.99
  -2   3  -7   -2.75    4.29
  -3   3  -7    0.39    3.28
  -4   3  -7   24.34    5.48
  -5   3  -7   25.10    5.64
   6   3   7   -1.58    3.10
   7   3   7   14.26    5.05
 -10   4   7   -3.42    3.10
 -10  -4   7   -3.40    3.63
  -9   4   7   10.98    4.14
  -9  -4   7    7.89    3.57
  -8   4   7   55.90    7.49
  -8  -4   7   52.73    7.17
  -7   4   7   39.62    6.39
  -7  -4   7   46.85    7.03
  -6   4   7  118.67   10.97
  -6  -4   7  110.71   10.19
  -5   4   7  100.59   10.22
  -5  -4   7  100.94    9.88
  -4   4   7  128.98   11.75
  -4  -4   7  132.91   11.28
  -3  -4   7  188.02   13.27
  -3   4   7  166.49   13.24
  -2   4   7  295.11   17.67
  -1   4   7   63.87    8.54
   0   4   7   -4.55    4.46
  -1   4  -7  151.56   13.14
   1   4   7  144.69   12.78
  -2   4  -7   10.39    4.37
   2   4   7    4.10    3.10
  -3   4  -7   89.67    9.79
  -4   4  -7   36.60    6.75
  -4  -5   7   17.11    5.28
  -4   5   7   14.57    4.97
  -3  -5   7   47.95    7.63
  -3   5   7   24.27    5.44
  -2   5   7   14.40    5.05
  12   0  -8   34.31    7.32
  11   0  -8   44.03    8.21
  10   0  -8   30.78    7.47
   9   0  -8   19.99    6.35
   8   0  -8   80.18   10.53
   7   0  -8   14.29    5.64
   6   0  -8  140.49   13.27
  -6   0   8  122.68    9.72
   5   0  -8    2.77    3.90
  -5   0   8    9.61    3.69
   4   0  -8  133.60   12.93
  -4   0   8  152.88   11.49
   3   0  -8   -0.13    3.65
  -3   0   8    0.43    2.41
   2   0  -8   37.02    8.16
  -2   0   8   28.02    5.70
   1   0  -8  204.27   15.72
  -1   0   8  206.86   14.43
   0   0  -8  151.79   13.54
   0   0   8  137.68   12.08
  -1   0  -8  144.38   13.22
   1   0   8  131.96   12.09
  -2   0  -8  133.21   12.64
   2   0   8  112.71   11.30
   3   0   8  110.93   11.83
   4   0   8  128.16   12.49
   5   0   8  110.28   12.00
  12   1  -8   10.35    5.73
  11   1  -8   12.02    5.20
  10   1  -8    1.91    4.28
   9   1  -8   14.17    5.96
   8   1  -8    4.26    4.15
   7   1  -8   93.04   11.00
  -7   1   8   94.17    8.82
   6   1  -8    8.49    5.03
  -6   1   8    3.38    2.85
  -5  -1   8    3.18    2.62
   5   1  -8    2.13    4.42
  -5   1   8    4.06    3.23
   4   1  -8    0.66    3.71
  -4   1   8    3.49    2.93
  -4  -1   8    2.82    2.67
   3   1  -8    1.33    4.58
  -3   1   8   -2.38    3.05
  -3  -1   8   -0.98    3.09
   2   1  -8   -5.25    4.43
  -2   1   8   -1.33    2.44
  -2  -1   8    4.59    3.63
   1   1  -8    3.26    4.09
  -1   1   8    3.06    2.99
  -1  -1   8    0.65    2.55
   0  -1   8   36.37    6.70
   0   1  -8   39.19    7.47
   0   1   8   27.44    5.97
   1  -1   8    7.90    3.76
  -1   1  -8    6.95    3.72
   1   1   8   10.67    4.30
   2  -1   8   15.90    5.07
  -2   1  -8    5.42    3.88
   2   1   8   10.46    4.29
   3  -1   8   -0.02    2.89
  -3   1  -8   -0.20    3.74
   3   1   8    3.43    3.90
   4  -1   8   69.44    9.68
  -4   1  -8   79.46    9.66
   4   1   8   67.16    9.25
   5  -1   8   -4.78    4.00
  -5   1  -8   -2.36    4.44
   5   1   8    0.15    3.11
  10   2  -8   19.50    6.03
   9   2  -8    3.33    5.21
   8   2  -8   -1.91    4.35
   7   2  -8   15.36    5.71
   6   2  -8   12.34    5.33
   5   2  -8    3.32    4.26
   4   2  -8    7.69    4.52
   3   2  -8   20.60    5.66
   2   2  -8   27.07    5.87
   1   2  -8   20.56    5.97
   0   2  -8   33.72    7.19
   0   2   8   30.80    5.82
  -1   2  -8    1.73    4.28
   1   2   8   10.24    4.64
  -2   2  -8   18.85    5.68
   2   2   8   18.08    5.47
  -3   2  -8    0.61    3.85
   3   2   8    1.74    2.90
  -4   2  -8   50.29    8.33
   4   2   8   68.70    9.50
   8   3  -8   20.61    5.42
  -8  -3   8   30.02    5.49
  -8   3   8   22.75    5.03
   7   3  -8   63.33    9.48
  -7  -3   8   67.09    7.80
  -7   3   8   75.34    8.75
   6   3  -8    9.92    5.24
  -6  -3   8   16.10    4.36
  -6   3   8   13.55    3.99
   5   3  -8   56.32    8.90
  -5  -3   8   88.31    8.89
   4   3  -8   26.17    6.73
   3   3  -8    8.12    4.65
   2   3  -8  121.05   12.30
   1   3  -8  112.75   11.75
   0   3  -8   24.62    7.10
  -1   3  -8   67.24    9.14
   0   0   0    0.00    0.00


_computing_structure_solution     'SHELXT 2014/5 (Sheldrick, 2014)'
_computing_structure_solution     'SHELXT 2018/2 (Sheldrick, 2018)'
;
loop_
_space_group_symop_operation_xyz
'x, y, z'
'-x, y, -z+1/2'
'-x, -y, -z'
'x, -y, z-1/2'
loop_
_atom_site_label
_atom_site_type_symbol
_atom_site_fract_x
_atom_site_fract_y
_atom_site_fract_z
_atom_site_U_iso_or_equiv
_atom_site_adp_type
_atom_site_occupancy
_atom_site_site_symmetry_order
_atom_site_calc_flag
_atom_site_refinement_flags_posn
_atom_site_refinement_flags_adp
_atom_site_refinement_flags_occupancy
_atom_site_disorder_assembly
_atom_site_disorder_group
Zn1 Zn 0.500000 0.68318(6) 0.750000 0.02041(14) Uani 1 2 d S T P . .
O1 O 0.45174(9) 0.3049(3) 0.5156(2) 0.0215(4) Uani 1 1 d . . . . .
O2 O 0.39483(10) 0.5794(3) 0.6225(2) 0.0269(4) Uani 1 1 d . . . . .
O3 O 0.500000 0.9896(4) 0.750000 0.0333(7) Uani 1 2 d S T P . .
H3 H 0.484(2) 1.067(5) 0.659(4) 0.049(10) Uiso 1 1 d . . . . .
N1 N 0.000000 -0.2777(5) 0.250000 0.0277(7) Uani 1 2 d S T P . .
C1 C 0.39022(13) 0.4068(4) 0.5404(3) 0.0187(5) Uani 1 1 d . . . . .
C2 C 0.07251(13) 0.0450(4) 0.3011(3) 0.0191(5) Uani 1 1 d . . . . .
C3 C 0.000000 0.1528(5) 0.250000 0.0199(7) Uani 1 2 d S T P . .
H3A H 0.000000 0.295884 0.250000 0.024 Uiso 1 2 calc R U P . .
C4 C 0.22312(14) 0.0447(4) 0.3250(3) 0.0233(5) Uani 1 1 d . . . . .
H4 H 0.218499 -0.082224 0.263858 0.028 Uiso 1 1 calc R U . . .
C5 C 0.16155(14) 0.3390(4) 0.4429(3) 0.0209(5) Uani 1 1 d . . . . .
H5 H 0.115557 0.410662 0.461875 0.025 Uiso 1 1 calc R U . . .
C6 C 0.30729(13) 0.3198(4) 0.4741(3) 0.0188(5) Uani 1 1 d . . . . .
C7 C 0.29909(14) 0.1301(4) 0.3842(3) 0.0229(6) Uani 1 1 d . . . . .
H7 H 0.345102 0.059639 0.363490 0.027 Uiso 1 1 calc R U . . .
C8 C 0.15305(13) 0.1467(4) 0.3558(3) 0.0188(5) Uani 1 1 d . . . . .
C9 C 0.23772(13) 0.4249(4) 0.5017(3) 0.0207(5) Uani 1 1 d . . . . .
H9 H 0.242492 0.553394 0.559945 0.025 Uiso 1 1 calc R U . . .
C10 C 0.06804(14) -0.1686(4) 0.3024(3) 0.0238(5) Uani 1 1 d . . . . .
H10 H 0.116031 -0.240975 0.342866 0.029 Uiso 1 1 calc R U . . .
loop_
_atom_site_aniso_label
_atom_site_aniso_U_11
_atom_site_aniso_U_22
_atom_site_aniso_U_33
_atom_site_aniso_U_23
_atom_site_aniso_U_13
_atom_site_aniso_U_12
Zn1 0.0138(2) 0.0165(2) 0.0296(2) 0.000 0.00049(15) 0.000
O1 0.0138(8) 0.0237(9) 0.0268(9) 0.0039(8) 0.0033(7) -0.0002(7)
O2 0.0159(8) 0.0281(10) 0.0369(10) -0.0118(9) 0.0051(7) -0.0056(8)
O3 0.0517(18) 0.0141(14) 0.0296(16) 0.000 -0.0044(13) 0.000
N1 0.0178(15) 0.0186(16) 0.0454(19) 0.000 0.0024(13) 0.000
C1 0.0168(11) 0.0219(13) 0.0170(11) 0.0031(10) 0.0023(9) -0.0012(10)
C2 0.0137(11) 0.0222(13) 0.0202(11) 0.0001(10) 0.0002(9) -0.0007(10)
C3 0.0165(16) 0.0148(17) 0.0278(18) 0.000 0.0021(13) 0.000
C4 0.0187(12) 0.0224(13) 0.0277(13) -0.0073(11) 0.0013(10) -0.0011(11)
C5 0.0152(11) 0.0204(13) 0.0270(12) 0.0026(11) 0.0032(9) 0.0035(10)
C6 0.0134(11) 0.0228(13) 0.0196(11) 0.0021(10) 0.0015(9) -0.0039(10)
C7 0.0136(11) 0.0240(14) 0.0313(14) -0.0038(11) 0.0044(10) 0.0005(10)
C8 0.0129(10) 0.0201(13) 0.0225(12) 0.0027(10) 0.0003(9) -0.0011(10)
C9 0.0187(12) 0.0155(12) 0.0273(13) -0.0028(11) 0.0029(10) -0.0016(10)
C10 0.0128(11) 0.0223(13) 0.0348(14) 0.0033(11) 0.0002(10) 0.0028(10)
loop_
_atom_type_symbol
_atom_type_description
_atom_type_scat_dispersion_real
_atom_type_scat_dispersion_imag
_atom_type_scat_source
C C 0.0033 0.0016 'International Tables Vol C Tables 4.2.6.8 and 6.1.1.4'
H H 0.0000 0.0000 'International Tables Vol C Tables 4.2.6.8 and 6.1.1.4'
N N 0.0061 0.0033 'International Tables Vol C Tables 4.2.6.8 and 6.1.1.4'
O O 0.0106 0.0060 'International Tables Vol C Tables 4.2.6.8 and 6.1.1.4'
Zn Zn 0.2839 1.4301 'International Tables Vol C Tables 4.2.6.8 and 6.1.1.4'
loop_
_geom_angle_atom_site_label_1
_geom_angle_atom_site_label_2
_geom_angle_atom_site_label_3
_geom_angle
_geom_angle_site_symmetry_1
_geom_angle_site_symmetry_3
O1 Zn1 O1 175.95(9) 3_666 4_566
O2 Zn1 O1 92.92(6) 2_656 4_566
O2 Zn1 O1 92.92(6) . 3_666
O2 Zn1 O1 88.49(6) . 4_566
O2 Zn1 O1 88.49(6) 2_656 3_666
O2 Zn1 O2 139.50(11) . 2_656
O2 Zn1 O3 110.25(6) 2_656 .
O2 Zn1 O3 110.25(6) . .
O3 Zn1 O1 87.98(5) . 4_566
O3 Zn1 O1 87.98(5) . 3_666
C1 O1 Zn1 122.70(14) . 3_666
C1 O2 Zn1 119.93(15) . .
Zn1 O3 H3 127(2) . .
Zn1 O3 H3 127(2) . 2_656
H3 O3 H3 105(5) . 2_656
C10 N1 C10 115.9(3) 2 .
O1 C1 C6 119.4(2) . .
O2 C1 O1 123.3(2) . .
O2 C1 C6 117.3(2) . .
C3 C2 C8 123.4(2) . .
C10 C2 C3 117.3(2) . .
C10 C2 C8 119.3(2) . .
C2 C3 C2 119.5(3) 2 .
C2 C3 H3A 120.2 2 .
C2 C3 H3A 120.2 . .
C7 C4 H4 119.6 . .
C7 C4 C8 120.9(2) . .
C8 C4 H4 119.6 . .
C8 C5 H5 119.6 . .
C9 C5 H5 119.6 . .
C9 C5 C8 120.7(2) . .
C7 C6 C1 119.5(2) . .
C7 C6 C9 119.1(2) . .
C9 C6 C1 121.4(2) . .
C4 C7 C6 120.5(2) . .
C4 C7 H7 119.8 . .
C6 C7 H7 119.8 . .
C4 C8 C2 119.6(2) . .
C5 C8 C2 122.0(2) . .
C5 C8 C4 118.4(2) . .
C5 C9 C6 120.4(2) . .
C5 C9 H9 119.8 . .
C6 C9 H9 119.8 . .
N1 C10 C2 124.9(2) . .
N1 C10 H10 117.5 . .
C2 C10 H10 117.5 . .
loop_
_geom_bond_atom_site_label_1
_geom_bond_atom_site_label_2
_geom_bond_distance
_geom_bond_site_symmetry_2
Zn1 O1 2.1932(15) 4_566
Zn1 O1 2.1932(15) 3_666
Zn1 O2 1.9490(16) .
Zn1 O2 1.9490(16) 2_656
Zn1 O3 1.991(3) .
O1 C1 1.263(3) .
O2 C1 1.261(3) .
O3 H3 0.83(3) .
O3 H3 0.83(3) 2_656
N1 C10 1.336(3) 2
N1 C10 1.336(3) .
C1 C6 1.493(3) .
C2 C3 1.391(3) .
C2 C8 1.488(3) .
C2 C10 1.390(3) .
C3 H3A 0.9300 .
C4 H4 0.9300 .
C4 C7 1.381(3) .
C4 C8 1.398(3) .
C5 H5 0.9300 .
C5 C8 1.392(3) .
C5 C9 1.385(3) .
C6 C7 1.386(3) .
C6 C9 1.394(3) .
C7 H7 0.9300 .
C9 H9 0.9300 .
C10 H10 0.9300 .
loop_
_geom_torsion_atom_site_label_1
_geom_torsion_atom_site_label_2
_geom_torsion_atom_site_label_3
_geom_torsion_atom_site_label_4
_geom_torsion
_geom_torsion_site_symmetry_1
_geom_torsion_site_symmetry_2
_geom_torsion_site_symmetry_3
_geom_torsion_site_symmetry_4
Zn1 O1 C1 O2 -95.9(2) 3_666 . . .
Zn1 O1 C1 C6 85.3(2) 3_666 . . .
Zn1 O2 C1 O1 -8.8(3) . . . .
Zn1 O2 C1 C6 169.96(14) . . . .
O1 C1 C6 C7 -0.8(3) . . . .
O1 C1 C6 C9 178.8(2) . . . .
O2 C1 C6 C7 -179.6(2) . . . .
O2 C1 C6 C9 0.0(3) . . . .
C1 C6 C7 C4 178.7(2) . . . .
C1 C6 C9 C5 -178.5(2) . . . .
C3 C2 C8 C4 -152.1(2) . . . .
C3 C2 C8 C5 30.0(3) . . . .
C3 C2 C10 N1 3.2(3) . . . .
C7 C4 C8 C2 -176.2(2) . . . .
C7 C4 C8 C5 1.7(4) . . . .
C7 C6 C9 C5 1.1(3) . . . .
C8 C2 C3 C2 179.3(2) . . . 2
C8 C2 C10 N1 -177.49(19) . . . .
C8 C4 C7 C6 -0.5(4) . . . .
C8 C5 C9 C6 0.1(4) . . . .
C9 C5 C8 C2 176.4(2) . . . .
C9 C5 C8 C4 -1.5(3) . . . .
C9 C6 C7 C4 -0.9(4) . . . .
C10 N1 C10 C2 -1.69(18) 2 . . .
C10 C2 C3 C2 -1.47(16) . . . 2
C10 C2 C8 C4 28.7(3) . . . .
C10 C2 C8 C5 -149.2(2) . . . .
