#------------------------------------------------------------------------------
#$Date: 2022-06-15 09:43:17 +0300 (Wed, 15 Jun 2022) $
#$Revision: 276037 $
#$URL: file:///home/coder/svn-repositories/cod/cif/8/10/54/8105417.cif $
#------------------------------------------------------------------------------
#
# This file is available in the Crystallography Open Database (COD),
# http://www.crystallography.net/
#
# All data on this site have been placed in the public domain by the
# contributors.
#
data_8105417
loop_
_publ_author_name
'Ja\'cimovi\'c, \<Zeljko. K.'
'Novakovi\'c, Sladjana B.'
'Bogdanovi\'c, Goran A.'
'Kosovi\'c, Milica'
'Libowitzky, Eugen'
'Giester, Gerald'
_publ_section_title
;
 Crystal structure of ethyl 3-(trifluoromethyl)-1H-pyrazole-4-carboxylate,
 C7H7F3N2O2
;
_journal_issue                   5
_journal_name_full
'Zeitschrift f\"ur Kristallographie - New Crystal Structures'
_journal_page_first              1189
_journal_page_last               1190
_journal_paper_doi               10.1515/ncrs-2020-0242
_journal_volume                  235
_journal_year                    2020
_chemical_formula_moiety         'C7 H7 F3 N2 O2'
_chemical_formula_sum            'C7 H7 F3 N2 O2'
_chemical_formula_weight         208.15
_space_group_crystal_system      monoclinic
_space_group_IT_number           11
_space_group_name_Hall           '-P 2yb'
_space_group_name_H-M_alt        'P 1 21/m 1'
_atom_sites_solution_hydrogens   mixed
_audit_creation_method           SHELXL-2014/6
_cell_angle_alpha                90
_cell_angle_beta                 105.416(3)
_cell_angle_gamma                90
_cell_formula_units_Z            2
_cell_length_a                   6.8088(8)
_cell_length_b                   6.7699(9)
_cell_length_c                   9.9351(12)
_cell_measurement_reflns_used    1686
_cell_measurement_temperature    200(2)
_cell_measurement_theta_max      25.33
_cell_measurement_theta_min      2.12
_cell_volume                     441.48(9)
_computing_cell_refinement       'APEX2 (Bruker, 2008)'
_computing_data_collection       'SAINT (Bruker, 2008)'
_computing_data_reduction        'SAINT (Bruker, 2008)'
_computing_molecular_graphics    'Mercury (Macrae, 2020)'
_computing_publication_material  'PLATON (Spek, 2003)'
_computing_structure_refinement  'SHELXL-2014/6 (Sheldrick, 2014)'
_computing_structure_solution    'SHELXT 2014/5 (Sheldrick, 2014)'
_diffrn_ambient_temperature      200(2)
_diffrn_measured_fraction_theta_full 1.000
_diffrn_measured_fraction_theta_max 0.997
_diffrn_measurement_device_type  'Bruker ApexII CCD'
_diffrn_measurement_method       'phi and omega scans'
_diffrn_radiation_type           MoK\a
_diffrn_radiation_wavelength     0.71073
_diffrn_reflns_av_R_equivalents  0.0246
_diffrn_reflns_av_unetI/netI     0.0132
_diffrn_reflns_Laue_measured_fraction_full 1.000
_diffrn_reflns_Laue_measured_fraction_max 0.997
_diffrn_reflns_limit_h_max       10
_diffrn_reflns_limit_h_min       -10
_diffrn_reflns_limit_k_max       10
_diffrn_reflns_limit_k_min       -10
_diffrn_reflns_limit_l_max       15
_diffrn_reflns_limit_l_min       -15
_diffrn_reflns_number            17052
_diffrn_reflns_point_group_measured_fraction_full 1.000
_diffrn_reflns_point_group_measured_fraction_max 0.997
_diffrn_reflns_theta_full        25.242
_diffrn_reflns_theta_max         33.240
_diffrn_reflns_theta_min         2.126
_diffrn_source                   'Incoatec ImS'
_exptl_absorpt_coefficient_mu    0.156
_exptl_absorpt_correction_T_max  1.008
_exptl_absorpt_correction_T_min  0.977
_exptl_absorpt_correction_type   multi-scan
_exptl_absorpt_process_details   '(SADABS; Bruker, 2008)'
_exptl_crystal_colour            colorless
_exptl_crystal_density_diffrn    1.566
_exptl_crystal_description       prism
_exptl_crystal_F_000             212
_exptl_crystal_size_max          0.320
_exptl_crystal_size_mid          0.190
_exptl_crystal_size_min          0.084
_refine_diff_density_max         0.422
_refine_diff_density_min         -0.227
_refine_diff_density_rms         0.044
_refine_ls_extinction_coef       0.045(9)
_refine_ls_extinction_expression Fc^*^=kFc[1+0.001xFc^2^\l^3^/sin(2\q)]^-1/4^
_refine_ls_extinction_method     SHELXL
_refine_ls_goodness_of_fit_ref   1.095
_refine_ls_hydrogen_treatment    mixed
_refine_ls_matrix_type           full
_refine_ls_number_parameters     86
_refine_ls_number_reflns         1819
_refine_ls_number_restraints     0
_refine_ls_restrained_S_all      1.095
_refine_ls_R_factor_all          0.0499
_refine_ls_R_factor_gt           0.0398
_refine_ls_shift/su_max          0.000
_refine_ls_shift/su_mean         0.000
_refine_ls_structure_factor_coef Fsqd
_refine_ls_weighting_details
;
 w=1/[\s^2^(Fo^2^)+(0.0547P)^2^+0.0979P]
 where P=(Fo^2^+2Fc^2^)/3
;
_refine_ls_weighting_scheme      calc
_refine_ls_wR_factor_gt          0.1115
_refine_ls_wR_factor_ref         0.1192
_reflns_Friedel_coverage         0.000
_reflns_Friedel_fraction_full    .
_reflns_Friedel_fraction_max     .
_reflns_number_gt                1466
_reflns_number_total             1819
_reflns_threshold_expression     'I > 2\s(I)'
_cod_data_source_file            suppl_ncrs-2020-0242_suppl.cif
_cod_data_source_block           shelx
_cod_original_sg_symbol_H-M      'P 21/m'
_cod_database_code               8105417
_shelx_space_group_comment
;
The symmetry employed for this shelxl refinement is uniquely defined
by the following loop, which should always be used as a source of
symmetry information in preference to the above space-group names.
They are only intended as comments.
;
_shelxl_version_number           2013-2
_shelx_res_file
;
TITL zeljko2020_2_0m_a.res in P2(1)/m
CELL  0.71073   6.8088   6.7699   9.9351   90.000  105.416   90.000
ZERR     2.00   0.0008   0.0009   0.0012    0.000    0.003    0.000
LATT   1
SYMM  - X, 1/2 + Y, - Z
SFAC  C    H    N    O    F
UNIT  14   14   4    4    6
MERG   2
FMAP   2
PLAN   20
ACTA
BOND   $H
LIST   6
L.S.  10
TEMP   -73.00
WGHT    0.054700    0.097900
EXTI    0.045223
FVAR       1.10783
F1    5    0.438955    0.250000    0.086905    10.50000    0.04385    0.10821 =
         0.02488    0.00000    0.00992    0.00000
F2    5    0.677541    0.406732    0.231150    11.00000    0.05380    0.07650 =
         0.05149   -0.00065    0.03115   -0.02299
O1    4    0.859263    0.250000    0.522690    10.50000    0.02144    0.07031 =
         0.03509    0.00000    0.01092    0.00000
O2    4    0.702410    0.250000    0.693741    10.50000    0.02287    0.05308 =
         0.02389    0.00000    0.00478    0.00000
N1    3    0.167058    0.250000    0.391733    10.50000    0.01870    0.04416 =
         0.03286    0.00000    0.00931    0.00000
N2    3    0.230788    0.250000    0.274395    10.50000    0.02257    0.04443 =
         0.02839    0.00000    0.00618    0.00000
C3    1    0.432197    0.250000    0.321065    10.50000    0.02130    0.03357 =
         0.02510    0.00000    0.00814    0.00000
C4    1    0.498132    0.250000    0.467835    10.50000    0.02003    0.02716 =
         0.02456    0.00000    0.00802    0.00000
C5    1    0.319021    0.250000    0.508503    10.50000    0.02247    0.03335 =
         0.02812    0.00000    0.01077    0.00000
AFIX  43
H5    2    0.306647    0.250000    0.601519    10.50000   -1.20000
AFIX   0
C6    1    0.704912    0.250000    0.560732    10.50000    0.02149    0.03175 =
         0.02655    0.00000    0.00681    0.00000
C7    1    0.898898    0.250000    0.798046    10.50000    0.02514    0.05073 =
         0.03011    0.00000   -0.00078    0.00000
AFIX   3
H7A   2    0.978338    0.368769    0.787515    11.00000   -1.20000
AFIX   0
C8    1    0.854560    0.250000    0.937489    10.50000    0.04555    0.07832 =
         0.02650    0.00000   -0.00008    0.00000
AFIX   3
H8A   2    0.982936    0.250000    1.011240    10.50000   -1.50000
H8B   2    0.775832    0.131805    0.946341    11.00000   -1.50000
AFIX   0
C9    1    0.555111    0.250000    0.217124    10.50000    0.02982    0.05444 =
         0.02708    0.00000    0.01165    0.00000
H1N   2    0.040810    0.250000    0.386760    10.50000    0.04245
HKLF    4

REM  zeljko2020_2_0m_a.res in P2(1)/m
REM R1 =  0.0398 for    1466 Fo > 4sig(Fo)  and  0.0499 for all    1819 data
REM     86 parameters refined using      0 restraints

END

WGHT      0.0546      0.0985

REM Highest difference peak  0.422,  deepest hole -0.227,  1-sigma level  0.044
Q1    1   0.4998  0.2500  0.2736  10.50000  0.05    0.42
Q2    1   0.4273  0.2500  0.4938  10.50000  0.05    0.42
Q3    1   0.6023  0.2500  0.5124  10.50000  0.05    0.42
Q4    1   0.4754  0.2500  0.3943  10.50000  0.05    0.36
Q5    1   0.8952  0.2500  0.8784  10.50000  0.05    0.28
Q6    1   0.3439  0.2500  0.3023  10.50000  0.05    0.26
Q7    1   0.7183  0.2500  0.6357  10.50000  0.05    0.25
Q8    1   0.2482  0.2500  0.4519  10.50000  0.05    0.24
Q9    1   0.1938  0.2500  0.3390  10.50000  0.05    0.23
Q10   1   0.1825  0.2500  0.2075  10.50000  0.05    0.19
Q11   1   0.8395  0.2500  0.4577  10.50000  0.05    0.19
Q12   1   0.7844  0.2500  0.5361  10.50000  0.05    0.19
Q13   1   0.7869  0.2500  0.7327  10.50000  0.05    0.17
Q14   1   0.5835  0.4381  0.1917  11.00000  0.05    0.17
Q15   1   0.9883  0.2500  0.7599  10.50000  0.05    0.16
Q16   1   0.9387  0.2500  0.5670  10.50000  0.05    0.15
Q17   1   0.2499  0.2500  0.5660  10.50000  0.05    0.13
Q18   1   0.6301  0.2500  0.7006  10.50000  0.05    0.12
Q19   1   0.7373  0.2500  0.9463  10.50000  0.05    0.11
Q20   1   0.3155  0.2048  0.0818  11.00000  0.05    0.11
;
_shelx_hkl_file
;
  -1   0   0 1227.28   22.70
   1   0   0 1223.38   22.80
  -1   0   0 1238.88   22.90
   1   0   0 1227.28   22.80
   1   0   0 1237.98   22.90
   1   0   0 1224.68   22.90
  -1   0   0 1203.38   22.90
  -1   0   0 1221.18   22.70
   1   0   0 1224.18   22.60
  -1   0   0 1233.78   22.80
   1   0   0 1236.28   22.50
   1   0   0 1224.88   22.60
  -1   0   0 1212.28   22.60
  -1   0   0 1239.18   23.20
   1   0   0 1274.77   23.30
   1   0   0 1247.58   23.10
  -1   0   0 1249.97   22.60
   2   0   0  721.43   13.00
  -2   0   0  705.23   13.30
  -2   0   0  732.13   13.00
   2   0   0  741.53   13.30
  -2   0   0  741.03   13.10
  -2   0   0  710.83   13.10
   2   0   0  716.83   13.00
  -2   0   0  717.93   13.70
   2   0   0  715.23   13.20
  -3   0   0    5.30    0.60
  -3   0   0    6.70    0.50
   4   0   0   15.90    1.10
  -4   0   0   15.80    0.90
  -4   0   0   15.70    0.90
  -4   0   0   16.30    0.90
   4   0   0   15.10    1.00
   4   0   0   16.10    0.90
   4   0   0   17.50    1.00
   5   0   0  329.77    7.40
  -5   0   0  320.77    6.80
   5   0   0  326.77    6.90
   5   0   0  321.97    6.70
  -5   0   0  317.47    6.50
   5   0   0  330.97    7.20
  -5   0   0  326.57    7.00
   5   0   0  325.57    6.90
  -5   0   0  340.07    7.00
   6   0   0   71.19    2.60
   6   0   0   75.49    2.90
   6   0   0   81.89    2.70
   6   0   0   78.39    2.70
   6   0   0   77.99    2.40
  -6   0   0   70.39    2.10
  -6   0   0   76.59    2.60
  -6   0   0   75.59    2.50
   7   0   0  127.79    3.90
   7   0   0  123.69    3.90
   7   0   0  122.09    3.40
  -7   0   0  121.59    3.70
  -7   0   0  127.39    4.10
   7   0   0  126.99    3.80
   7   0   0  122.39    4.20
   8   0   0   45.50    2.60
   8   0   0   40.80    2.60
  -8   0   0   41.00    2.30
   8   0   0   45.20    2.40
   8   0   0   41.80    2.40
  -8   0   0   44.30    2.80
  -9   0   0    3.70    1.30
   9   0   0    4.10    1.10
  -9   0   0    1.10    1.30
  -9   0   0    0.80    1.00
   9   0   0    5.70    1.40
   9   0   0    5.10    1.30
  10   0   0    0.50    1.10
  10   0   0    1.50    1.20
 -10   0   0   -0.40    1.10
  10   0   0    1.40    0.90
 -10   0   0    1.40    1.10
   0  -1   0    0.00    0.10
   0  -1   0   -0.10    0.10
   0  -1   0    0.10    0.10
   0  -1   0   -0.10    0.10
   0   1   0   -0.10    0.10
   0   1   0    0.20    0.10
   0   1   0   -0.10    0.10
   0   1   0   -0.20    0.10
   0   1   0   -0.10    0.10
  -1  -1   0  733.43   13.70
  -1  -1   0  761.62   13.60
  -1  -1   0  731.63   14.00
  -1  -1   0  747.73   14.10
   1  -1   0  780.42   14.80
   1  -1   0  778.32   13.60
   1  -1   0  742.93   13.90
   1  -1   0  766.32   14.00
   1  -1   0  733.33   13.90
   1   1   0  740.73   13.50
   1   1   0  737.13   14.10
   1   1   0  763.62   13.50
  -1   1   0  749.03   13.80
  -1   1   0  734.23   13.50
  -1   1   0  752.72   14.00
  -1   1   0  730.23   13.80
   1   1   0  735.23   14.00
  -1   1   0  770.82   14.30
   1   1   0  743.13   13.80
  -1   1   0  775.72   13.60
  -2  -1   0  160.48    3.40
   2  -1   0  163.78    3.50
  -2  -1   0  158.88    3.40
  -2  -1   0  154.38    3.00
  -2  -1   0  161.98    3.30
   2  -1   0  161.58    3.50
  -2  -1   0  153.98    3.10
   2  -1   0  164.78    3.30
   2  -1   0  157.08    3.10
  -2   1   0  158.38    3.40
  -2   1   0  160.28    3.30
  -2   1   0  156.78    3.20
   2   1   0  158.88    3.30
   2   1   0  159.48    3.40
   2   1   0  156.88    3.00
  -2   1   0  160.78    3.50
  -2   1   0  158.98    3.40
  -2   1   0  158.08    2.90
   2   1   0  162.58    3.40
   2   1   0  160.88    3.30
  -3  -1   0    7.20    0.60
  -3  -1   0    8.30    0.60
   3  -1   0    8.60    0.80
   3  -1   0    7.90    0.80
   3  -1   0    8.80    0.50
  -3  -1   0    7.60    0.60
   3  -1   0    7.50    0.60
  -3  -1   0    7.60    0.70
   3  -1   0    7.40    0.70
  -3   1   0    8.90    0.80
   3   1   0    8.80    0.70
  -3   1   0    9.60    0.80
  -3   1   0    7.90    0.30
   3   1   0    8.20    0.40
   3   1   0    9.30    0.70
   3   1   0    7.30    0.40
   3   1   0    9.60    0.80
  -3   1   0    8.90    0.60
   3   1   0    8.60    0.60
  -3   1   0    8.50    0.80
   4  -1   0  765.82   14.70
  -4  -1   0  770.12   14.30
  -4  -1   0  765.72   14.30
  -4  -1   0  781.72   14.50
   4  -1   0  769.92   14.30
   4  -1   0  774.42   14.50
   4  -1   0  764.92   14.80
  -4   1   0  765.42   14.50
  -4   1   0  773.62   14.50
   4   1   0  766.22   14.40
   4   1   0  764.82   14.70
  -4   1   0  739.73   13.70
   4   1   0  761.02   14.40
   4   1   0  773.12   14.50
   4   1   0  756.92   14.00
  -4   1   0  773.12   14.30
  -5  -1   0  145.39    3.60
  -5  -1   0  137.79    3.50
  -5  -1   0  140.99    3.70
   5  -1   0  137.09    3.50
   5  -1   0  138.09    3.80
   5  -1   0  141.19    4.00
   5  -1   0  139.79    3.60
  -5   1   0  129.79    2.80
   5   1   0  133.79    3.10
   5   1   0  134.99    3.60
  -5   1   0  139.09    3.50
  -5   1   0  144.59    3.80
   5   1   0  136.59    3.70
   5   1   0  139.69    3.90
   5   1   0  145.19    3.70
   6  -1   0  154.38    4.00
   6  -1   0  153.08    4.10
   6  -1   0  153.38    4.40
  -6  -1   0  152.58    3.90
  -6  -1   0  159.58    4.20
   6  -1   0  151.88    4.60
  -6  -1   0  156.88    4.20
  -6  -1   0  151.38    4.20
  -6   1   0  154.48    4.30
   6   1   0  150.18    3.50
   6   1   0  151.88    4.20
   6   1   0  152.38    4.10
  -6   1   0  150.98    4.00
   6   1   0  160.68    4.30
   6   1   0  158.88    4.50
   7  -1   0    2.60    0.80
  -7  -1   0    1.80    0.60
   7  -1   0    1.70    1.00
  -7  -1   0    2.50    1.00
  -7  -1   0    1.10    0.60
   7  -1   0    1.70    0.80
   7  -1   0    3.30    1.10
   7  -1   0    1.10    0.80
   7   1   0    3.00    0.90
  -7   1   0    1.00    1.00
  -7   1   0    0.90    0.70
   7   1   0    2.20    0.80
  -7   1   0    2.30    0.80
   7   1   0    2.10    0.90
   7   1   0    2.10    0.70
  -8  -1   0   11.70    1.50
   8  -1   0   10.90    1.60
   8  -1   0   11.00    1.70
   8  -1   0   13.80    1.60
   8  -1   0   11.60    1.30
  -8  -1   0    9.40    1.60
   8  -1   0   10.60    1.30
   8   1   0   14.30    1.50
  -8   1   0   15.80    1.90
  -8   1   0   12.10    1.80
  -8   1   0   11.70    1.30
   8   1   0   10.40    1.60
   8   1   0   12.50    1.40
   8   1   0   14.50    1.70
  -9  -1   0   -1.10    0.60
  -9  -1   0    3.20    1.50
   9  -1   0    1.00    1.10
   9  -1   0   -0.50    1.00
   9  -1   0    0.60    0.90
   9   1   0    1.10    1.10
  -9   1   0    2.00    1.40
  -9   1   0    0.20    1.00
   9   1   0   -0.40    0.90
   9   1   0    1.30    1.10
 -10  -1   0    0.70    1.60
 -10  -1   0    2.00    1.20
  10  -1   0    0.70    0.90
  10  -1   0    1.10    0.90
 -10   1   0    1.70    1.60
 -10   1   0    0.90    1.70
  10   1   0    1.50    1.10
  10   1   0    1.60    1.20
   0   2   0 9999.00  178.38
  -1  -2   0  157.98    3.10
  -1  -2   0  158.38    3.20
   1  -2   0  156.18    3.40
  -1  -2   0  153.28    3.00
   1  -2   0  152.58    3.10
   1  -2   0  151.58    3.10
   1   2   0  151.28    3.10
  -1   2   0  154.28    3.30
  -1   2   0  155.38    3.10
  -1   2   0  153.48    3.40
  -1   2   0  154.88    3.40
   1   2   0  155.38    3.40
  -1   2   0  153.38    3.30
   1   2   0  156.68    3.10
   1   2   0  155.98    3.30
   2  -2   0   15.30    0.90
  -2  -2   0   13.90    0.40
   2  -2   0   15.70    0.90
  -2  -2   0   13.00    0.80
  -2  -2   0   14.30    0.60
   2  -2   0   14.40    0.70
  -2  -2   0   15.00    0.80
   2  -2   0   13.80    0.50
  -2  -2   0   15.00    0.80
   2  -2   0   14.90    0.40
   2   2   0   13.80    0.50
   2   2   0   14.60    0.70
  -2   2   0   14.70    0.50
   2   2   0   12.50    0.80
   2   2   0   14.50    0.90
  -2   2   0   14.20    0.90
  -2   2   0   13.30    0.90
  -2   2   0   15.00    0.80
   3  -2   0  631.64   12.10
  -3  -2   0  623.34   11.60
  -3  -2   0  601.74   11.80
   3  -2   0  617.94   12.00
   3  -2   0  622.34   11.60
  -3  -2   0  605.94   11.40
   3  -2   0  625.94   11.30
  -3  -2   0  624.24   12.00
  -3   2   0  627.24   12.10
  -3   2   0  629.94   11.90
   3   2   0  634.64   11.60
   3   2   0  627.24   11.90
  -3   2   0  613.74   11.60
  -3   2   0  606.44   11.90
   3   2   0  596.04   11.10
  -4  -2   0    5.60    0.80
   4  -2   0    5.90    0.80
   4  -2   0    5.70    0.70
   4  -2   0    6.10    0.50
  -4  -2   0    5.70    0.60
   4  -2   0    6.40    0.80
  -4  -2   0    5.00    0.60
   4  -2   0    6.50    0.70
  -4   2   0    5.40    0.80
   4   2   0    6.80    0.80
   4   2   0    4.90    0.60
  -4   2   0    5.60    0.70
  -4   2   0    7.80    0.90
   4   2   0    7.20    0.90
   4   2   0    6.10    0.40
  -4   2   0    4.60    0.70
  -5  -2   0   83.19    2.50
   5  -2   0   83.19    3.00
   5  -2   0   80.39    2.70
   5  -2   0   83.59    2.90
  -5  -2   0   82.09    2.40
   5  -2   0   82.09    2.40
  -5  -2   0   83.19    2.70
   5   2   0   79.09    2.80
  -5   2   0   79.49    2.50
   5   2   0   78.69    2.50
  -5   2   0   77.19    2.80
  -5   2   0   88.29    2.90
  -5   2   0   78.69    2.80
   5   2   0   83.69    2.60
  -6  -2   0    0.70    0.50
   6  -2   0    2.70    0.90
  -6  -2   0    1.10    0.60
  -6  -2   0    0.80    0.70
   6  -2   0    2.40    0.90
   6  -2   0    1.10    0.50
   6  -2   0    1.00    0.70
  -6   2   0    0.40    0.90
   6   2   0    1.10    0.60
   6   2   0    2.40    0.80
  -6   2   0    1.50    0.70
   6   2   0    1.40    0.70
  -6   2   0    1.00    0.90
   7  -2   0  108.29    3.60
   7  -2   0  102.49    3.90
  -7  -2   0  102.09    3.40
   7  -2   0  103.19    3.90
   7  -2   0  103.59    3.30
  -7  -2   0  106.39    3.40
  -7  -2   0  113.69    3.80
  -7  -2   0  107.69    3.60
   7   2   0  109.29    3.70
   7   2   0  103.89    3.50
  -7   2   0  105.09    3.80
  -7   2   0  107.89    4.00
  -8  -2   0   10.80    1.60
   8  -2   0   12.10    1.30
   8  -2   0   15.30    1.90
  -8  -2   0   12.10    1.50
   8  -2   0   15.10    1.60
   8   2   0   13.40    1.60
  -8   2   0   11.40    1.60
   8   2   0   14.10    1.50
  -8   2   0   13.90    1.80
  -9  -2   0   -0.20    1.10
   9  -2   0    0.60    1.00
   9  -2   0    0.40    1.20
  -9  -2   0   -1.20    1.20
   9  -2   0    0.60    0.70
   9   2   0    0.50    1.10
  -9   2   0    0.40    1.10
   9   2   0   -0.40    0.90
  -9   2   0   -0.30    1.30
   0   3   0    0.60    0.40
   0   3   0    0.20    0.40
   0   3   0   -0.10    0.20
   0   3   0    0.80    0.40
   0   3   0    0.40    0.40
   1  -3   0  210.68    4.70
  -1  -3   0  214.08    4.40
  -1  -3   0  214.98    4.30
   1   3   0  208.28    4.30
  -1   3   0  210.88    4.30
  -1   3   0  208.98    4.70
   1   3   0  210.88    4.60
  -1   3   0  211.58    4.50
   1   3   0  209.58    4.50
  -1   3   0  209.48    4.50
   1   3   0  204.08    4.30
   2  -3   0  623.04   11.50
   2  -3   0  630.64   11.70
   2  -3   0  633.94   12.20
  -2  -3   0  605.54   11.30
   2  -3   0  637.84   12.20
  -2  -3   0  628.04   12.20
  -2  -3   0  652.63   11.80
  -2  -3   0  630.14   11.50
   2   3   0  619.64   11.30
  -2   3   0  623.94   11.50
   2   3   0  627.74   12.10
  -2   3   0  630.44   12.30
  -2   3   0  634.34   12.00
   2   3   0  630.84   12.00
   2   3   0  616.64   11.50
  -2   3   0  607.54   12.20
  -3  -3   0    8.40    0.80
  -3  -3   0    9.70    0.60
   3  -3   0   10.90    1.00
  -3  -3   0   14.10    1.20
   3  -3   0   10.20    0.90
   3  -3   0    9.20    0.80
  -3   3   0    8.80    1.00
  -3   3   0    9.40    0.50
  -3   3   0    9.40    0.90
   3   3   0   10.40    0.90
   3   3   0    9.90    0.60
   4  -3   0   21.20    1.50
   4  -3   0   21.40    1.40
  -4  -3   0   21.60    1.20
  -4  -3   0   20.20    1.00
   4  -3   0   21.00    1.20
   4  -3   0   19.50    0.80
  -4  -3   0   20.20    1.30
   4  -3   0   21.70    1.50
   4   3   0   20.50    1.20
  -4   3   0   23.40    1.50
  -4   3   0   21.70    1.30
  -4   3   0   19.60    0.70
   4   3   0   20.70    1.40
   4   3   0   21.00    0.90
   5  -3   0    3.10    0.70
   5  -3   0    3.30    0.90
  -5  -3   0    4.60    0.60
   5  -3   0    4.00    1.00
   5  -3   0    4.00    1.00
  -5  -3   0    3.60    0.80
  -5  -3   0    4.90    1.00
   5  -3   0    4.20    0.50
   5   3   0    3.20    0.80
  -5   3   0    3.90    0.80
   5   3   0    4.10    0.80
  -5   3   0    4.10    0.90
  -5   3   0    4.00    0.80
  -6  -3   0   53.99    2.30
   6  -3   0   52.19    2.60
  -6  -3   0   57.39    2.70
   6  -3   0   48.80    2.70
   6  -3   0   53.59    2.40
  -6  -3   0   49.50    2.00
   6  -3   0   54.39    2.20
  -6   3   0   53.79    2.70
   6   3   0   57.19    2.30
   6   3   0   50.79    2.40
  -7  -3   0   28.00    2.00
   7  -3   0   27.70    1.80
   7  -3   0   25.50    2.20
   7  -3   0   26.90    2.10
  -7  -3   0   28.10    2.20
  -7  -3   0   28.10    1.60
  -7  -3   0   26.60    2.00
   7  -3   0   28.70    2.50
  -7   3   0   24.50    2.20
   7   3   0   24.30    1.80
   7   3   0   30.00    2.30
  -8  -3   0   12.70    1.50
  -8  -3   0   11.90    1.60
   8  -3   0   12.40    1.50
  -8  -3   0   12.50    1.50
  -8  -3   0   12.80    1.70
   8  -3   0   11.70    1.70
   8  -3   0   11.30    1.60
  -8   3   0   11.20    1.70
   8   3   0   12.10    1.80
   8   3   0   12.00    1.50
   9  -3   0    1.70    1.00
   9  -3   0   -0.20    0.90
   9  -3   0   -1.10    1.30
  -9  -3   0   -0.10    1.30
  -9  -3   0    0.80    0.90
   9   3   0    0.50    0.70
   9   3   0   -0.80    1.20
  -9   3   0    0.20    1.00
   0   4   0 2371.06   42.60
   0   4   0 2374.46   42.60
   0   4   0 2372.86   43.50
   0   4   0 2381.66   42.40
   0   4   0 2377.56   43.70
   1  -4   0   55.29    2.00
  -1  -4   0   54.49    1.70
  -1   4   0   51.79    1.90
  -1   4   0   54.69    1.80
  -1   4   0   56.99    2.10
   1   4   0   53.99    1.70
   1   4   0   55.69    2.00
   1   4   0   56.39    2.00
   1   4   0   52.99    1.80
  -1   4   0   56.49    2.00
   2  -4   0    0.30    0.50
   2  -4   0    0.20    0.30
  -2  -4   0    0.60    0.40
   2  -4   0    0.40    0.40
  -2  -4   0    0.50    0.30
   2  -4   0   -0.30    0.50
   2   4   0    0.10    0.30
  -2   4   0    0.30    0.30
   2   4   0    0.20    0.60
   2   4   0    0.20    0.40
   2   4   0    0.50    0.30
  -2   4   0   -0.30    0.60
  -2   4   0    0.60    0.60
  -3  -4   0  243.28    5.30
   3  -4   0  231.38    4.50
   3  -4   0  243.18    5.20
   3  -4   0  233.08    4.80
  -3  -4   0  241.08    5.90
   3  -4   0  244.98    5.90
  -3  -4   0  239.48    4.90
   3  -4   0  248.28    5.80
  -3   4   0  235.38    4.80
   3   4   0  234.48    5.00
   3   4   0  246.58    5.70
  -3   4   0  229.38    5.90
  -3   4   0  242.28    5.60
   4  -4   0    0.50    0.70
  -4  -4   0    0.30    0.40
   4  -4   0    0.30    0.30
  -4  -4   0    0.10    0.70
   4  -4   0   -0.20    0.50
   4  -4   0   -0.20    0.70
  -4  -4   0    0.60    0.40
   4  -4   0    0.00    0.50
   4   4   0    0.80    0.40
   4   4   0    0.40    0.50
  -4   4   0    0.20    0.70
  -4   4   0    0.40    0.20
  -4   4   0    0.30    0.80
  -5  -4   0   22.10    1.40
  -5  -4   0   24.10    1.80
  -5  -4   0   20.70    1.20
   5  -4   0   19.90    1.60
   5  -4   0   20.80    1.90
   5  -4   0   21.80    1.90
   5  -4   0   20.00    1.40
   5   4   0   19.40    1.10
  -5   4   0   22.30    1.70
   5   4   0   18.20    1.70
  -5   4   0   19.10    1.60
  -6  -4   0    0.00    1.00
   6  -4   0    0.90    0.70
   6  -4   0    0.40    0.70
  -6  -4   0    1.60    0.70
   6  -4   0    1.40    0.80
  -6  -4   0    1.40    0.80
   6  -4   0   -0.40    0.60
  -6   4   0    1.30    0.80
   6   4   0    0.90    0.70
  -7  -4   0   31.30    2.00
   7  -4   0   31.10    2.40
  -7  -4   0   33.10    2.30
   7  -4   0   32.30    2.40
   7  -4   0   34.10    2.00
   7  -4   0   31.10    2.20
  -7  -4   0   32.30    2.50
   7   4   0   35.40    2.70
  -7   4   0   31.20    2.30
  -8  -4   0    1.20    1.10
   8  -4   0    2.60    1.40
   8  -4   0    2.80    1.10
   8  -4   0    3.00    1.30
  -8  -4   0    2.50    1.20
  -8  -4   0    4.00    1.50
  -8   4   0    3.30    1.50
   8   4   0    6.70    1.40
   9  -4   0   -0.10    0.90
   9  -4   0   -1.50    1.20
  -9  -4   0   -1.00    0.80
   9  -4   0    0.00    0.80
  -9  -4   0    0.00    1.30
  -9   4   0    1.80    1.30
   9   4   0    2.00    1.10
  -1  -5   0    5.40    0.70
  -1  -5   0    5.90    0.80
   1  -5   0    5.30    0.90
   1   5   0    6.90    0.70
  -1   5   0    4.60    0.80
  -1   5   0    5.40    0.80
   1   5   0    5.20    0.90
   1   5   0    6.80    1.00
  -1   5   0    4.70    0.70
   1   5   0    6.40    0.80
  -1   5   0    6.40    0.90
   2  -5   0    6.30    0.80
   2  -5   0    8.20    0.80
  -2  -5   0    7.60    1.10
   2  -5   0    6.60    1.00
  -2  -5   0    7.60    0.90
   2  -5   0    6.80    1.00
  -2  -5   0    7.80    0.70
  -2   5   0    5.50    0.70
  -2   5   0    7.50    1.00
   2   5   0    5.60    0.70
   2   5   0    7.30    1.00
  -2   5   0    7.50    1.10
   2   5   0    5.80    1.00
   3  -5   0    4.80    1.10
  -3  -5   0    5.10    0.60
   3  -5   0    3.60    0.60
   3  -5   0    3.70    0.70
   3  -5   0    3.80    0.90
   3  -5   0    3.40    0.40
  -3  -5   0    3.50    0.60
  -3  -5   0    3.40    1.00
  -3   5   0    4.90    0.90
  -3   5   0    3.30    0.90
  -3   5   0    5.00    0.60
   3   5   0    4.30    0.90
   3   5   0    5.30    0.70
   4  -5   0   57.09    2.10
  -4  -5   0   59.19    1.90
   4  -5   0   57.69    2.50
  -4  -5   0   58.39    2.60
   4  -5   0   59.79    2.80
   4  -5   0   55.29    2.60
  -4  -5   0   58.99    2.30
   4   5   0   59.79    2.70
   4   5   0   55.79    1.90
  -4   5   0   55.29    2.60
  -4   5   0   59.39    2.70
  -5  -5   0   17.90    1.50
   5  -5   0   16.40    1.80
   5  -5   0   15.40    1.60
   5  -5   0   17.40    1.90
  -5  -5   0   14.40    1.50
   5  -5   0   15.90    1.40
  -5  -5   0   16.50    1.10
  -5   5   0   19.60    2.00
  -5   5   0   14.10    1.60
   5   5   0   17.90    1.80
   6  -5   0   20.00    2.00
  -6  -5   0   20.80    1.60
   6  -5   0   25.50    1.70
   6  -5   0   22.10    2.20
   6  -5   0   23.80    2.20
  -6  -5   0   23.20    2.20
   6   5   0   24.70    2.10
  -6   5   0   26.20    2.20
   7  -5   0    0.60    1.30
   7  -5   0    1.00    0.80
   7  -5   0    3.40    1.00
  -7  -5   0    2.20    0.90
  -7  -5   0    3.40    1.40
   7   5   0    1.90    1.00
  -7   5   0    0.70    1.40
   8  -5   0    2.00    1.30
  -8  -5   0    0.60    0.90
  -8  -5   0    2.10    1.50
  -8  -5   0    1.40    1.20
   8  -5   0    1.20    1.00
   8  -5   0    0.90    1.50
  -8   5   0    0.60    1.40
   8   5   0    1.90    1.50
   0  -6   0  955.70   18.90
   0   6   0  962.90   18.40
   0   6   0  993.40   18.70
   0   6   0  930.61   18.50
   0   6   0  973.70   18.50
   0   6   0  955.70   18.30
  -1  -6   0   53.19    2.00
  -1  -6   0   50.49    2.10
   1  -6   0   52.59    2.50
   1   6   0   51.39    2.40
   1   6   0   46.00    1.90
   1   6   0   53.69    2.20
  -1   6   0   57.09    2.20
   1   6   0   58.09    2.50
  -1   6   0   48.50    2.50
  -1   6   0   49.70    2.30
  -1   6   0   55.09    2.40
  -2  -6   0   25.10    1.30
   2  -6   0   20.90    1.40
   2  -6   0   23.90    1.40
   2  -6   0   25.40    1.90
  -2  -6   0   23.40    1.70
  -2  -6   0   25.50    1.60
   2  -6   0   25.00    1.90
   2   6   0   22.60    1.70
  -2   6   0   22.30    1.40
  -2   6   0   21.50    1.90
   2   6   0   20.80    1.30
  -2   6   0   21.20    1.50
   2   6   0   21.30    1.80
  -3  -6   0    1.00    0.70
  -3  -6   0    0.70    0.50
   3  -6   0    1.50    0.90
   3  -6   0    1.40    0.50
  -3  -6   0    1.30    0.70
   3  -6   0    0.90    0.60
   3  -6   0    2.40    1.00
  -3   6   0    1.80    0.70
   3   6   0    1.20    0.90
   3   6   0    2.20    0.60
  -3   6   0    1.50    0.50
  -3   6   0    1.10    1.00
   4  -6   0    0.70    0.70
  -4  -6   0    0.60    0.80
   4  -6   0   -1.70    0.80
   4  -6   0    0.10    0.80
  -4  -6   0   -0.90    0.90
  -4  -6   0    0.80    0.50
   4  -6   0    0.30    0.70
  -4   6   0    0.30    0.90
  -4   6   0    1.00    1.00
   4   6   0    0.10    0.90
   5  -6   0   37.00    1.80
   5  -6   0   41.10    2.80
   5  -6   0   32.80    2.20
  -5  -6   0   40.70    2.20
   5  -6   0   41.90    2.90
  -5  -6   0   42.20    2.70
  -5   6   0   42.30    2.90
  -5   6   0   41.90    2.70
   5   6   0   44.30    2.80
   6  -6   0    8.80    1.80
  -6  -6   0    8.90    1.20
   6  -6   0    8.30    1.60
   6  -6   0   10.90    1.30
   6  -6   0    9.70    1.80
  -6  -6   0   11.60    1.80
   6   6   0   13.70    1.80
  -6   6   0   11.50    1.90
   7  -6   0    9.20    1.60
   7  -6   0   10.00    1.70
  -7  -6   0   15.20    2.20
   7  -6   0   12.00    1.40
  -7  -6   0   10.70    1.70
  -7  -6   0   12.60    1.70
  -7   6   0   10.50    2.00
   7   6   0   10.00    1.90
  -8  -6   0    7.90    2.00
  -8  -6   0    4.20    1.60
   8  -6   0    5.50    1.70
   8  -6   0    5.10    1.70
  -8  -6   0    5.00    1.60
  -8   6   0    2.90    1.70
   8   6   0    8.90    1.70
   0   7   0    3.60    0.90
   0   7   0    3.90    1.00
   0   7   0    6.00    1.10
   1  -7   0    3.80    1.00
   1  -7   0    3.60    0.90
   1  -7   0    2.50    1.00
  -1  -7   0    3.40    0.80
  -1  -7   0    3.50    0.90
  -1   7   0    2.30    0.90
   1   7   0    4.90    1.20
   1   7   0    2.60    1.00
   1   7   0    4.70    0.90
  -1   7   0    4.80    1.10
  -1   7   0    5.50    1.30
  -2  -7   0    1.10    0.60
  -2  -7   0    0.30    0.50
   2  -7   0    0.40    0.90
   2  -7   0   -0.30    0.40
   2  -7   0    0.20    0.70
  -2  -7   0   -0.60    0.50
   2  -7   0    0.50    0.80
   2   7   0    0.80    0.60
   2   7   0   -0.30    0.70
  -2   7   0   -0.40    0.60
  -2   7   0    0.50    1.00
  -2   7   0    0.10    0.60
  -3  -7   0   -0.30    0.70
   3  -7   0    0.80    0.70
   3  -7   0   -0.50    0.50
  -3  -7   0   -0.30    1.00
   3  -7   0    0.60    0.70
  -3  -7   0   -0.10    0.50
   3  -7   0    2.30    1.10
   3   7   0    1.30    1.10
  -3   7   0   -0.20    0.90
  -3   7   0    0.40    0.80
   4  -7   0   27.50    1.80
  -4  -7   0   28.20    2.20
   4  -7   0   24.10    1.90
   4  -7   0   24.20    2.20
   4  -7   0   30.20    2.60
  -4  -7   0   32.50    2.10
  -4   7   0   26.30    2.00
   4   7   0   30.30    2.50
  -4   7   0   29.00    2.60
  -5  -7   0   -0.80    1.10
   5  -7   0    2.60    1.20
   5  -7   0   -1.10    1.10
  -5  -7   0    1.40    0.70
   5  -7   0    1.30    1.00
   5  -7   0   -0.50    0.70
   5   7   0    1.40    1.30
  -5   7   0    2.20    1.00
  -6  -7   0   14.80    2.10
  -6  -7   0   13.10    1.60
   6  -7   0   11.10    1.80
   6  -7   0   15.00    2.20
   6   7   0    9.50    1.90
  -6   7   0   12.50    1.90
  -7  -7   0   -0.80    1.30
  -7  -7   0   -0.50    1.40
   7  -7   0    0.60    1.50
   7  -7   0   -2.90    1.20
  -7  -7   0   -1.60    1.00
  -7   7   0   -0.30    0.90
   7   7   0    3.00    1.70
   0  -8   0  140.49    4.90
   0   8   0  143.19    4.40
   1  -8   0    7.20    1.10
   1  -8   0    6.30    1.10
  -1  -8   0    8.60    1.10
  -1  -8   0    7.60    1.30
  -1  -8   0    8.00    1.40
   1  -8   0    8.30    1.20
   1  -8   0    6.80    1.20
  -1  -8   0    7.50    1.30
  -1   8   0    6.80    1.10
   1   8   0    8.40    1.40
   1   8   0    9.40    1.30
   2  -8   0    0.40    0.90
   2  -8   0    1.10    0.80
  -2  -8   0    1.60    0.70
  -2  -8   0    2.30    1.00
   2  -8   0    2.50    1.20
  -2  -8   0    1.00    0.60
   2  -8   0    1.00    0.80
   2   8   0    2.10    0.90
  -2   8   0    2.10    0.80
  -3  -8   0    7.20    1.60
   3  -8   0    2.50    1.30
   3  -8   0    3.00    1.10
   3  -8   0    3.80    1.20
   3  -8   0    3.50    1.00
  -3  -8   0    3.30    0.90
  -3   8   0    4.10    1.10
   3   8   0    4.00    1.40
   4  -8   0    1.80    1.30
  -4  -8   0    5.50    1.60
   4  -8   0    5.10    1.60
  -4  -8   0    3.50    1.10
   4  -8   0    2.30    1.20
  -4   8   0    2.90    1.20
   4   8   0    2.70    1.30
  -5  -8   0   10.80    1.80
   5  -8   0   12.90    2.10
  -5  -8   0    9.70    1.50
   5  -8   0   11.40    2.00
   5   8   0    9.70    1.70
  -5   8   0    7.70    1.70
  -6  -8   0    0.00    1.40
   6  -8   0    1.80    1.20
   6  -8   0    1.80    1.30
  -6  -8   0    1.20    1.50
  -6  -8   0    1.40    1.20
  -6   8   0    0.20    0.80
   6   8   0   -0.20    1.50
   0  -9   0    0.30    1.00
   0  -9   0    1.30    0.90
   0  -9   0    0.40    0.90
   0  -9   0    1.20    0.90
   0  -9   0    1.20    1.10
   1  -9   0    2.10    0.90
  -1  -9   0   -0.40    0.80
   1  -9   0    0.40    1.50
  -1  -9   0    1.10    1.10
   1  -9   0   -0.20    1.00
  -1   9   0   -0.30    0.90
   1   9   0    1.20    1.10
   2  -9   0    0.40    1.20
  -2  -9   0    1.60    1.00
  -2  -9   0    0.60    1.20
   2  -9   0    1.20    1.30
   2   9   0    0.20    1.20
  -2   9   0    1.30    0.80
  -3  -9   0    1.40    1.30
  -3  -9   0   -0.80    0.90
   3  -9   0    4.00    1.50
   3  -9   0    0.90    1.30
   3   9   0    0.80    0.90
  -3   9   0    0.80    0.80
  -4  -9   0    1.70    1.40
  -4  -9   0    1.40    1.10
   4  -9   0    2.60    1.30
   4  -9   0    2.10    1.40
   4   9   0    4.70    1.60
  -4   9   0    4.40    1.50
  -5  -9   0   -0.50    1.00
   5  -9   0   -0.90    0.80
  -5  -9   0    0.00    1.00
   5  -9   0    1.50    1.50
  -5  -9   0    1.30    1.60
   5   9   0   -1.90    1.00
  -5   9   0    0.80    1.20
  -1 -10   0    3.00    1.40
  -1 -10   0    4.00    1.50
   2 -10   0   -0.70    1.10
  -2 -10   0   -0.70    0.70
  -2 -10   0   -0.30    1.20
   2  10   0    0.70    1.30
  -2  10   0    0.40    0.70
 -10   0   1    3.50    1.60
  10   0  -1    1.70    1.20
 -10   0   1    0.90    1.60
  10   0  -1    3.70    1.40
  10   0  -1    2.00    1.20
   9   0  -1    7.30    1.20
  -9   0   1    6.60    1.70
   9   0  -1    7.60    1.40
   9   0  -1    6.60    1.40
   8   0  -1    6.00    1.20
   8   0  -1    8.00    1.30
  -8   0   1    6.40    1.10
   8   0  -1    9.00    1.30
   8   0  -1    6.10    1.20
  -8   0   1    9.50    1.30
   7   0  -1   44.40    1.80
   7   0  -1   46.90    2.20
   7   0  -1   49.99    2.20
  -7   0   1   47.40    2.20
   7   0  -1   46.20    2.30
  -7   0   1   50.19    2.10
   7   0  -1   44.20    2.30
   6   0  -1  161.98    4.30
   6   0  -1  163.08    4.20
   6   0  -1  160.28    4.60
  -6   0   1  161.78    4.20
   6   0  -1  156.58    3.90
  -6   0   1  170.08    4.10
  -6   0   1  162.78    4.40
  -5   0   1  399.56    8.00
   5   0  -1  389.06    8.10
   5   0  -1  401.46    8.40
  -5   0   1  399.36    8.10
   5   0  -1  395.86    8.60
   5   0  -1  401.46    8.00
  -5   0   1  406.46    8.30
  -5   0   1  403.26    8.00
  -4   0   1  326.97    6.60
  -4   0   1  331.37    6.60
   4   0  -1  336.77    6.70
   4   0  -1  326.47    6.60
  -4   0   1  336.97    6.60
  -4   0   1  321.97    6.70
   4   0  -1  327.87    7.00
   4   0  -1  326.27    6.80
  -3   0   1   33.50    1.30
   3   0  -1   33.70    1.20
  -3   0   1   36.20    1.20
   3   0  -1   34.20    1.20
   3   0  -1   34.20    1.30
  -3   0   1   38.30    1.20
  -3   0   1   37.60    1.20
   3   0  -1   36.80    1.40
  -3   0   1   34.20    1.20
  -2   0   1 2812.52   51.39
   2   0  -1 2783.12   51.49
   2   0  -1 2781.92   52.29
  -2   0   1 2827.32   51.29
  -2   0   1 2830.52   51.29
   2   0  -1 2794.52   50.89
   2   0  -1 2810.42   52.09
   2   0  -1 2808.12   52.29
  -2   0   1 2770.82   52.49
  -2   0   1 2757.62   50.79
  -1   0   1  668.53   12.70
   1   0  -1  677.83   12.30
  -1   0   1  681.03   12.70
   1   0  -1  665.33   12.50
  -1   0   1  651.53   12.10
   1   0  -1  686.33   12.40
   1   0  -1  689.23   13.50
   1   0  -1  676.43   12.80
  -1   0   1  677.73   12.30
  -1   0   1  680.53   12.90
  -1   0   1  686.03   12.40
  -1   0   1  679.33   12.50
  -1   0   1  671.53   12.50
  -1   0   1  665.43   12.40
   1   0  -1  652.93   12.80
   1   0  -1  672.83   12.70
   0   0   1 1119.69   20.80
   0   0   1 1157.28   21.10
   0   0   1 1154.28   21.20
   0   0   1 1140.09   21.10
   0   0   1 1123.19   21.10
   0   0  -1 1128.69   21.10
   0   0   1 1159.78   21.20
   0   0  -1 1155.38   21.40
   0   0  -1 1178.78   21.00
   0   0  -1 1163.38   21.20
   0   0  -1 1168.18   21.10
   0   0  -1 1161.78   20.90
   1   0   1  454.45    8.20
   1   0   1  439.36    8.00
  -1   0  -1  439.76    8.00
  -1   0  -1  447.66    8.10
  -1   0  -1  452.95    8.20
   1   0   1  445.76    8.20
   1   0   1  456.65    8.00
  -1   0  -1  439.06    8.10
   1   0   1  440.36    8.10
   1   0   1  446.76    8.10
  -1   0  -1  444.86    8.10
  -2   0  -1  111.29    2.40
   2   0   1  116.89    2.40
   2   0   1  114.49    2.60
  -2   0  -1  110.39    2.60
   2   0   1  113.69    2.40
  -2   0  -1  110.19    2.50
   2   0   1  110.39    2.50
   2   0   1  110.59    2.40
  -2   0  -1  108.49    2.40
  -3   0  -1    2.10    0.40
  -3   0  -1    2.90    0.40
   3   0   1    3.10    0.50
  -3   0  -1    2.50    0.50
   3   0   1    3.00    0.50
   3   0   1    3.50    0.50
   3   0   1    2.10    0.40
   3   0   1    2.40    0.40
  -3   0  -1    2.60    0.40
   4   0   1  123.89    3.00
  -4   0  -1  123.49    2.90
  -4   0  -1  123.49    3.20
  -4   0  -1  123.79    3.20
   4   0   1  127.59    3.10
   4   0   1  122.39    3.00
   4   0   1  125.99    3.40
   4   0   1  125.99    3.30
  -5   0  -1    1.50    0.70
   5   0   1    1.40    0.50
   5   0   1    1.60    0.50
   5   0   1    0.90    0.50
   5   0   1    0.90    0.60
  -5   0  -1    1.00    0.50
  -5   0  -1    1.40    0.40
   5   0   1    0.50    0.50
  -6   0  -1   42.70    1.60
   6   0   1   43.40    2.30
   6   0   1   43.80    1.80
   6   0   1   45.10    2.20
  -6   0  -1   47.20    2.10
   6   0   1   48.80    2.10
  -6   0  -1   47.50    2.10
   6   0   1   41.40    1.90
   7   0   1    1.80    0.70
   7   0   1    1.30    0.80
  -7   0  -1    2.50    1.10
   7   0   1    0.50    0.90
   7   0   1   -0.10    0.80
   7   0   1    1.60    0.80
  -7   0  -1    2.30    0.70
   8   0   1    1.70    1.00
  -8   0  -1    2.40    1.30
  -8   0  -1    2.80    0.90
  -8   0  -1    2.30    1.00
   8   0   1    0.10    0.90
   8   0   1    2.50    1.10
   9   0   1   21.40    2.00
  -9   0  -1   19.80    2.50
  -9   0  -1   21.90    2.20
  -9   0  -1   20.50    1.90
   9   0   1   20.60    2.00
   9   0   1   24.30    2.20
  10  -1  -1   14.00    1.80
  10  -1  -1   11.90    1.80
 -10  -1   1   13.30    2.20
  10  -1  -1   13.90    2.00
  10   1  -1   14.50    1.80
  10   1  -1   13.50    2.00
  10   1  -1   13.60    1.90
 -10   1   1   13.20    1.90
 -10   1   1   16.20    2.40
   9  -1  -1    5.10    1.40
   9  -1  -1    4.50    1.00
  -9  -1   1    4.30    1.20
  -9  -1   1    3.00    1.10
   9  -1  -1    5.00    1.10
  -9   1   1    4.10    1.20
   9   1  -1    5.10    1.40
  -9   1   1    7.20    1.70
   9   1  -1    4.20    1.20
   9   1  -1    3.90    1.30
   8  -1  -1   31.80    1.80
  -8  -1   1   33.80    2.10
   8  -1  -1   34.60    2.10
   8  -1  -1   35.00    2.20
   8  -1  -1   34.00    2.10
  -8  -1   1   34.80    2.10
   8  -1  -1   31.20    2.20
   8   1  -1   34.30    2.30
   8   1  -1   35.80    2.20
  -8   1   1   35.50    2.50
   8   1  -1   29.10    2.10
  -8   1   1   38.10    2.30
   8   1  -1   34.10    2.00
  -8   1   1   33.60    1.90
   7  -1  -1    4.50    1.10
  -7  -1   1    7.20    1.00
   7  -1  -1    6.30    1.20
  -7  -1   1    4.10    1.00
   7  -1  -1    5.80    1.00
   7  -1  -1    4.50    0.90
  -7  -1   1    6.00    1.00
   7   1  -1    4.20    1.00
   7   1  -1    5.80    1.20
   7   1  -1    4.90    1.00
  -7   1   1    5.10    0.90
  -7   1   1    3.80    1.10
   7   1  -1    4.70    1.10
  -6  -1   1   20.80    1.50
  -6  -1   1   22.50    1.50
   6  -1  -1   18.40    1.60
   6  -1  -1   17.80    1.40
   6  -1  -1   18.10    1.20
   6  -1  -1   18.70    1.40
  -6  -1   1   20.60    1.30
   6   1  -1   21.90    1.30
   6   1  -1   19.70    1.30
   6   1  -1   20.10    1.40
   6   1  -1   19.60    1.40
  -6   1   1   19.50    1.10
  -6   1   1   22.60    1.60
  -6   1   1   17.80    1.30
   6   1  -1   18.20    0.90
   5  -1  -1   54.09    2.10
  -5  -1   1   58.79    1.90
   5  -1  -1   57.39    2.00
  -5  -1   1   55.39    2.00
   5  -1  -1   57.89    1.90
   5  -1  -1   52.59    2.30
  -5  -1   1   58.29    2.00
   5  -1  -1   56.89    1.90
   5   1  -1   61.89    2.10
   5   1  -1   52.99    1.60
   5   1  -1   58.39    2.10
   5   1  -1   53.29    1.90
  -5   1   1   57.69    1.80
  -5   1   1   55.99    2.10
   5   1  -1   55.99    2.10
  -5   1   1   55.89    2.10
   4  -1  -1   42.70    1.70
  -4  -1   1   38.30    1.40
  -4  -1   1   40.30    1.10
   4  -1  -1   42.40    1.80
   4  -1  -1   38.90    1.60
   4  -1  -1   41.00    1.50
  -4  -1   1   39.90    1.40
   4  -1  -1   39.10    1.40
  -4  -1   1   43.40    1.60
  -4   1   1   40.80    1.60
   4   1  -1   42.30    1.50
   4   1  -1   37.60    1.10
   4   1  -1   42.50    1.50
   4   1  -1   39.60    1.60
  -4   1   1   42.10    1.50
  -4   1   1   41.20    1.30
  -4   1   1   41.50    1.70
   3  -1  -1  194.08    4.30
  -3  -1   1  190.58    3.70
   3  -1  -1  195.08    4.40
  -3  -1   1  194.68    4.00
  -3  -1   1  195.98    4.20
   3  -1  -1  191.88    4.10
  -3  -1   1  188.58    4.00
   3  -1  -1  192.88    4.00
  -3  -1   1  187.28    4.20
   3   1  -1  191.88    4.00
   3   1  -1  189.48    3.70
   3   1  -1  194.48    4.10
  -3   1   1  191.38    4.20
   3   1  -1  202.38    4.30
  -3   1   1  193.78    3.80
  -3   1   1  190.38    4.20
  -3   1   1  186.88    3.60
  -3   1   1  190.08    4.00
  -3   1   1  190.58    3.60
   3   1  -1  197.58    4.10
  -3   1   1  195.18    4.50
  -2  -1   1  205.78    4.00
   2  -1  -1  211.38    4.40
  -2  -1   1  200.08    4.00
  -2  -1   1  202.68    4.10
   2  -1  -1  208.88    4.30
   2  -1  -1  203.08    4.00
   2  -1  -1  201.48    4.00
   2  -1  -1  199.58    3.80
  -2  -1   1  205.98    3.70
  -2   1   1  201.78    4.10
   2   1  -1  196.58    3.70
  -2   1   1  206.58    4.40
  -2   1   1  214.78    3.70
   2   1  -1  201.78    4.00
   2   1  -1  200.48    4.10
  -2   1   1  202.48    3.80
   2   1  -1  201.68    3.90
  -2   1   1  203.58    4.00
  -2   1   1  205.78    4.20
   2   1  -1  208.08    4.10
  -1  -1   1  975.50   17.70
   1  -1  -1  949.71   16.90
  -1  -1   1  951.10   17.30
   1  -1  -1  970.90   17.00
  -1  -1   1  924.21   17.70
   1  -1  -1  917.61   17.50
   1  -1  -1  927.31   17.20
  -1  -1   1  928.61   16.80
  -1  -1   1  927.51   17.20
   1  -1  -1  952.60   17.60
   1  -1  -1  959.20   18.30
   1  -1  -1  933.81   17.30
  -1   1   1  917.71   17.50
   1   1  -1  933.61   17.50
   1   1  -1  911.41   17.00
   1   1  -1  933.61   17.40
  -1   1   1  918.21   17.30
  -1   1   1  929.41   17.40
  -1   1   1  942.21   17.60
   1   1  -1  913.21   17.60
  -1   1   1  941.81   17.50
  -1   1   1  965.20   17.30
   0  -1   1 1076.49   20.00
   0  -1  -1 1076.19   20.40
   0  -1   1 1115.69   20.00
   0  -1   1  997.10   20.70
   0  -1   1 1087.29   20.30
   0  -1   1 1091.09   19.70
   0  -1  -1 1089.19   19.70
   0  -1  -1 1047.30   19.90
   0  -1  -1 1090.39   20.00
   0  -1  -1 1103.39   19.60
   0  -1   1 1091.69   19.80
   0   1  -1 1081.49   20.20
   0   1  -1 1087.39   20.00
   0   1  -1 1090.49   20.20
   0   1   1 1069.29   19.90
   0   1   1 1059.59   19.60
   0   1  -1 1094.29   19.90
   0   1   1 1073.49   19.90
   0   1  -1 1086.89   19.70
   0   1   1 1083.39   20.30
   0   1   1 1047.50   20.10
   1  -1   1 1662.33   30.30
   1  -1   1 1665.73   29.70
   1  -1   1 1584.94   29.60
  -1  -1  -1 1622.64   29.00
  -1  -1  -1 1697.13   30.90
  -1  -1  -1 1610.44   29.40
   1  -1   1 1679.83   30.80
   1  -1   1 1759.62   31.30
  -1   1  -1 1548.74   29.80
  -1   1  -1 1565.84   30.40
   1   1   1 1627.74   29.80
  -1   1  -1 1635.34   30.60
   1   1   1 1609.74   30.40
   1   1   1 1558.64   29.30
  -1   1  -1 1547.05   29.40
  -1   1  -1 1621.64   30.60
   1   1   1 1567.64   29.00
  -2  -1  -1    3.60    0.40
   2  -1   1    3.30    0.40
   2  -1   1    3.70    0.50
  -2  -1  -1    3.40    0.40
   2  -1   1    3.40    0.20
   2  -1   1    2.80    0.50
  -2  -1  -1    3.00    0.40
   2  -1   1    3.60    0.40
  -2  -1  -1    3.70    0.30
   2   1   1    3.50    0.30
  -2   1  -1    2.90    0.20
   2   1   1    3.60    0.40
  -2   1  -1    4.00    0.50
  -2   1  -1    2.90    0.50
   2   1   1    2.80    0.40
  -2   1  -1    3.50    0.30
  -2   1  -1    3.60    0.50
  -2   1  -1    3.10    0.50
  -3  -1  -1   54.79    1.90
   3  -1   1   58.89    1.60
  -3  -1  -1   57.39    1.60
  -3  -1  -1   60.09    1.90
  -3  -1  -1   58.49    1.60
   3  -1   1   57.09    1.80
   3  -1   1   56.99    1.90
   3  -1   1   60.09    2.00
  -3   1  -1   55.19    1.80
   3   1   1   56.29    1.80
  -3   1  -1   55.59    1.30
   3   1   1   57.79    1.90
   3   1   1   56.49    1.80
   3   1   1   56.89    1.50
  -3   1  -1   58.39    1.80
  -3   1  -1   56.59    1.80
   3   1   1   59.39    1.70
  -3   1  -1   55.49    1.90
  -4  -1  -1   22.20    1.30
  -4  -1  -1   24.30    1.20
   4  -1   1   22.70    1.20
   4  -1   1   22.10    1.00
  -4  -1  -1   24.10    1.10
   4  -1   1   22.70    1.30
   4  -1   1   22.60    1.40
  -4  -1  -1   21.60    1.10
   4   1   1   22.40    0.90
  -4   1  -1   22.90    1.20
   4   1   1   22.00    1.20
  -4   1  -1   24.30    1.30
   4   1   1   23.50    1.10
  -4   1  -1   22.60    0.80
  -4   1  -1   24.10    1.40
   4   1   1   22.00    1.20
   4   1   1   23.20    1.30
  -5  -1  -1  202.58    4.70
  -5  -1  -1  200.18    4.70
   5  -1   1  204.48    5.10
  -5  -1  -1  204.08    4.80
   5  -1   1  207.48    4.90
   5  -1   1  203.08    4.60
   5  -1   1  207.28    4.70
  -5  -1  -1  204.68    5.00
   5  -1   1  203.28    5.20
  -5   1  -1  209.78    5.10
   5   1   1  206.38    4.90
  -5   1  -1  209.78    5.10
  -5   1  -1  193.58    4.10
  -5   1  -1  203.98    4.90
   5   1   1  205.08    4.80
   5   1   1  199.68    4.40
   5   1   1  201.28    5.20
   5   1   1  203.88    4.90
   6  -1   1   30.50    1.60
  -6  -1  -1   29.20    1.80
   6  -1   1   29.40    1.60
   6  -1   1   30.50    1.60
   6  -1   1   31.10    1.90
  -6  -1  -1   29.50    1.40
   6  -1   1   32.70    2.00
  -6  -1  -1   35.10    1.80
  -6   1  -1   32.10    1.80
   6   1   1   31.60    1.80
  -6   1  -1   30.90    1.80
   6   1   1   28.00    1.70
   6   1   1   32.90    1.90
   6   1   1   32.60    1.40
  -6   1  -1   28.00    1.70
   6   1   1   33.40    1.90
  -7  -1  -1    7.20    1.30
   7  -1   1    6.60    1.00
  -7  -1  -1    5.40    1.00
  -7  -1  -1    5.80    0.90
   7  -1   1    6.20    1.30
   7  -1   1    5.40    0.90
   7  -1   1    6.50    1.30
   7  -1   1    5.70    0.90
  -7   1  -1    6.00    1.20
  -7   1  -1    5.40    1.10
   7   1   1    6.10    1.20
  -7   1  -1    7.20    1.20
   7   1   1    8.80    1.30
   7   1   1    5.40    0.70
   7   1   1    6.70    1.00
   8  -1   1    0.20    0.80
   8  -1   1    0.20    0.50
   8  -1   1    0.30    0.70
   8  -1   1   -0.50    0.90
  -8  -1  -1   -0.30    1.10
  -8  -1  -1    0.30    1.00
   8   1   1    0.20    0.90
  -8   1  -1    0.20    0.80
  -8   1  -1   -0.50    0.80
  -8   1  -1   -0.80    0.90
   8   1   1   -0.90    0.80
  -9  -1  -1    8.80    1.90
  -9  -1  -1   10.10    1.60
   9  -1   1   10.40    1.40
   9  -1   1    8.80    1.70
  -9  -1  -1    9.40    1.70
  -9   1  -1   10.40    1.90
   9   1   1   11.50    1.50
   9   1   1    9.40    1.40
  -9   1  -1    9.10    2.10
  10  -2  -1    1.10    1.20
  10  -2  -1    2.50    1.40
 -10  -2   1    0.20    1.50
 -10   2   1    1.10    1.60
  10   2  -1   -1.80    0.80
 -10   2   1    1.00    1.50
  10   2  -1    2.10    1.10
   9  -2  -1    1.20    0.80
  -9  -2   1    2.00    1.10
   9  -2  -1    2.40    0.90
   9  -2  -1    0.70    0.90
   9  -2  -1    3.00    1.10
  -9  -2   1    0.80    1.00
  -9   2   1    0.10    1.00
  -9   2   1    3.00    1.10
   9   2  -1    1.90    1.30
   9   2  -1   -0.10    0.80
  -8  -2   1    1.50    1.10
  -8  -2   1    1.90    1.00
   8  -2  -1    2.00    1.10
   8  -2  -1    1.20    0.80
   8  -2  -1    1.40    1.10
  -8  -2   1    1.90    0.80
   8  -2  -1    1.00    0.90
  -8  -2   1    1.60    1.00
  -8   2   1    1.00    1.20
   8   2  -1    2.70    0.90
  -8   2   1    0.70    1.20
   8   2  -1    0.20    0.70
   8   2  -1    0.30    0.60
  -7  -2   1    2.50    0.90
  -7  -2   1    1.80    0.70
   7  -2  -1    4.40    1.20
   7  -2  -1    1.30    0.80
  -7  -2   1    4.00    1.00
   7  -2  -1    2.60    0.90
   7  -2  -1    1.80    0.80
   7   2  -1    5.10    1.10
   7   2  -1    3.40    0.80
  -7   2   1    3.70    0.80
  -7   2   1    2.90    1.20
   7   2  -1    2.90    0.90
  -7   2   1    0.60    1.00
  -6  -2   1  207.68    5.00
   6  -2  -1  214.18    5.60
   6  -2  -1  211.38    5.70
  -6  -2   1  207.38    5.00
  -6  -2   1  211.98    5.30
   6  -2  -1  202.88    5.30
   6  -2  -1  204.98    5.10
  -6   2   1  207.58    4.90
   6   2  -1  204.38    5.40
  -6   2   1  214.58    5.50
   6   2  -1  205.68    5.40
   6   2  -1  212.28    5.20
   6   2  -1  214.98    5.10
  -6   2   1  209.58    5.50
  -6   2   1  203.58    5.30
  -5  -2   1   62.79    2.40
   5  -2  -1   63.99    2.00
  -5  -2   1   62.59    2.00
   5  -2  -1   64.99    2.40
   5  -2  -1   60.49    2.50
  -5  -2   1   65.29    2.20
   5  -2  -1   65.39    2.50
   5  -2  -1   65.89    2.10
   5   2  -1   64.69    2.40
   5   2  -1   64.09    1.50
  -5   2   1   66.49    2.30
  -5   2   1   62.99    2.50
  -5   2   1   64.69    2.00
   5   2  -1   68.69    2.30
   5   2  -1   63.09    2.40
  -5   2   1   65.69    2.50
   5   2  -1   63.69    2.10
  -4  -2   1    4.00    0.60
   4  -2  -1    3.10    0.80
   4  -2  -1    3.50    0.50
  -4  -2   1    4.10    0.70
   4  -2  -1    3.70    0.70
  -4  -2   1    3.60    0.60
   4  -2  -1    4.10    0.60
  -4   2   1    4.00    0.80
  -4   2   1    4.30    0.80
  -4   2   1    3.60    0.20
   4   2  -1    3.80    0.70
  -4   2   1    3.90    0.70
   4   2  -1    3.60    0.20
   4   2  -1    4.80    0.50
   4   2  -1    3.80    0.70
  -4   2   1    4.40    0.50
  -3  -2   1    3.10    0.60
   3  -2  -1    3.30    0.70
  -3  -2   1    2.60    0.50
   3  -2  -1    3.60    0.60
   3  -2  -1    2.20    0.50
   3  -2  -1    3.20    0.40
  -3  -2   1    3.10    0.50
  -3  -2   1    2.00    0.30
  -3   2   1    3.30    0.70
   3   2  -1    1.60    0.50
  -3   2   1    2.60    0.60
   3   2  -1    3.20    0.40
   3   2  -1    2.40    0.50
  -3   2   1    2.20    0.30
  -3   2   1    2.30    0.60
   3   2  -1    1.50    0.50
  -2  -2   1  257.37    5.10
   2  -2  -1  264.07    5.50
  -2  -2   1  257.97    5.00
   2  -2  -1  250.57    4.90
   2  -2  -1  255.27    5.00
  -2  -2   1  257.37    5.20
   2  -2  -1  263.57    5.20
  -2  -2   1  259.87    4.70
   2  -2  -1  264.17    5.50
   2  -2  -1  254.47    4.70
  -2   2   1  259.27    5.60
   2   2  -1  258.67    4.80
  -2   2   1  258.77    4.70
  -2   2   1  263.67    5.50
   2   2  -1  256.97    5.00
   2   2  -1  263.47    5.30
  -2   2   1  259.57    5.20
   2   2  -1  261.87    5.40
  -2   2   1  263.27    5.30
   1  -2  -1 2644.64   47.60
   1  -2  -1 2516.35   49.30
  -1  -2   1 2635.04   48.20
   1  -2  -1 2538.25   48.40
  -1  -2   1 2617.74   46.80
   1   2  -1 2617.84   47.00
  -1   2   1 2591.54   48.20
   1   2  -1 2544.65   48.00
  -1   2   1 2600.94   48.30
  -1   2   1 2537.05   47.20
  -1   2   1 2575.54   48.30
   1   2  -1 2648.83   48.10
   0  -2   1 1211.98   23.30
   0   2  -1 1213.68   22.30
   0   2   1 1184.98   22.40
   0   2   1 1191.78   22.30
   0   2   1 1174.08   22.20
   0   2  -1 1218.18   22.30
   0   2  -1 1221.18   22.30
   0   2   1 1174.08   22.20
  -1  -2  -1 1879.51   34.70
   1  -2   1 1922.51   35.50
  -1  -2  -1 1940.81   36.30
   1  -2   1 1922.61   35.00
  -1  -2  -1 1857.31   35.50
   1  -2   1 1884.91   35.10
   1  -2   1 1872.21   36.20
  -1   2  -1 1923.01   35.80
  -1   2  -1 1972.10   35.20
   1   2   1 1910.41   35.50
  -1   2  -1 1855.51   36.20
   1   2   1 1944.11   35.70
   1   2   1 1863.51   35.30
  -1   2  -1 1900.11   35.60
   2  -2   1  404.66    7.90
   2  -2   1  377.26    7.20
   2  -2   1  407.86    8.00
   2  -2   1  395.76    7.40
  -2  -2  -1  407.26    7.90
   2  -2   1  407.46    7.90
   2  -2   1  390.36    7.10
  -2  -2  -1  397.46    7.50
  -2  -2  -1  396.46    7.30
   2   2   1  394.26    7.20
   2   2   1  404.16    7.70
  -2   2  -1  399.36    7.40
  -2   2  -1  390.86    7.80
  -2   2  -1  400.46    8.00
  -2   2  -1  384.36    7.90
   2   2   1  409.46    7.90
   2   2   1  399.36    7.40
  -2   2  -1  389.66    7.80
   3  -2   1    0.00    0.50
   3  -2   1    0.70    0.50
  -3  -2  -1   -0.10    0.50
  -3  -2  -1    0.20    0.20
   3  -2   1    0.20    0.50
   3  -2   1    0.00    0.20
  -3  -2  -1    0.40    0.40
  -3   2  -1    0.30    0.40
   3   2   1    0.10    0.30
   3   2   1    0.40    0.10
   3   2   1    0.10    0.30
  -3   2  -1    0.70    0.40
   3   2   1    0.30    0.20
  -3   2  -1    0.60    0.50
   4  -2   1   20.80    1.30
   4  -2   1   18.60    1.40
  -4  -2  -1   18.40    1.00
   4  -2   1   21.50    1.40
   4  -2   1   17.90    1.00
  -4  -2  -1   19.60    1.30
  -4  -2  -1   18.20    0.90
   4   2   1   19.40    0.80
   4   2   1   19.20    1.30
  -4   2  -1   19.80    1.20
  -4   2  -1   17.70    0.50
  -4   2  -1   22.80    1.30
   4   2   1   17.60    0.60
   4   2   1   18.90    1.20
   5  -2   1   84.89    3.10
   5  -2   1   81.59    2.90
  -5  -2  -1   85.49    2.60
  -5  -2  -1   83.19    2.40
   5  -2   1   86.59    2.60
  -5  -2  -1   83.09    2.80
   5  -2   1   84.49    3.10
  -5  -2  -1   85.69    2.70
  -5   2  -1   84.19    3.00
   5   2   1   85.89    2.90
  -5   2  -1   86.29    2.80
   5   2   1   83.09    2.10
   5   2   1   84.49    2.70
  -5   2  -1   83.59    3.00
   6  -2   1   22.00    1.70
  -6  -2  -1   20.60    1.30
  -6  -2  -1   19.80    1.60
   6  -2   1   23.60    2.00
  -6  -2  -1   22.90    1.80
   6  -2   1   22.50    1.50
  -6  -2  -1   23.00    1.70
   6  -2   1   20.50    1.30
   6   2   1   21.10    1.00
  -6   2  -1   20.60    1.60
  -6   2  -1   23.80    1.80
   6   2   1   21.80    1.50
  -6   2  -1   20.50    1.90
   6   2   1   23.70    1.80
  -7  -2  -1    4.60    0.90
   7  -2   1    7.50    1.30
  -7  -2  -1    6.60    1.00
   7  -2   1    6.80    1.20
   7  -2   1    3.50    1.00
   7  -2   1    6.00    1.20
  -7  -2  -1    7.00    1.10
   7  -2   1    6.10    0.90
  -7   2  -1    4.80    1.40
   7   2   1    7.10    1.20
   7   2   1    3.70    1.20
  -7   2  -1    7.50    1.20
  -7   2  -1    7.30    1.10
   8  -2   1    0.20    0.80
   8  -2   1   -0.30    0.70
  -8  -2  -1   -1.30    0.90
  -8  -2  -1    0.40    0.80
   8  -2   1   -0.10    0.60
  -8   2  -1    1.00    1.00
   8   2   1    0.50    0.90
  -8   2  -1   -0.10    0.80
   8   2   1   -0.70    0.90
  -9  -2  -1   24.60    2.40
   9  -2   1   22.90    2.50
   9  -2   1   24.10    1.90
  -9  -2  -1   22.30    2.20
   9  -2   1   21.80    1.90
  -9   2  -1   23.30    2.50
   9   2   1   14.90    2.00
   9   2   1   24.00    2.20
  -9   2  -1   21.50    2.30
   9  -3  -1   -0.10    0.90
  -9  -3   1    0.40    0.80
  -9  -3   1    0.90    1.00
   9  -3  -1   -1.00    0.50
   9  -3  -1    1.30    0.80
  -9  -3   1    1.40    1.90
   9   3  -1   -0.70    1.20
   9   3  -1    0.80    0.90
  -9   3   1    2.00    1.50
   8  -3  -1    3.00    0.90
   8  -3  -1    4.80    1.50
  -8  -3   1    3.40    1.20
  -8  -3   1    4.00    1.00
  -8  -3   1    4.00    1.10
   8  -3  -1    1.50    1.00
  -8   3   1    4.00    1.20
   8   3  -1    3.00    1.30
   8   3  -1    3.00    0.90
  -8   3   1    3.60    1.50
  -7  -3   1    2.80    1.00
   7  -3  -1    1.50    1.00
   7  -3  -1    2.30    0.80
  -7  -3   1    1.10    0.60
   7  -3  -1    1.40    1.10
  -7  -3   1    1.70    0.80
   7  -3  -1    2.70    0.90
   7   3  -1    1.30    0.60
  -7   3   1   -0.20    0.80
   7   3  -1    1.10    1.00
  -7   3   1    1.20    1.00
  -7   3   1    0.70    0.80
   6  -3  -1   11.90    1.30
  -6  -3   1   11.40    1.40
  -6  -3   1   11.40    1.20
   6  -3  -1   12.40    1.30
  -6  -3   1   10.70    1.00
   6  -3  -1    9.80    1.40
   6  -3  -1   13.50    1.60
   6  -3  -1   12.00    0.90
   6   3  -1   12.80    1.20
   6   3  -1    9.40    1.20
  -6   3   1   12.20    1.40
  -6   3   1   12.00    1.50
  -6   3   1    9.50    1.20
  -5  -3   1  229.38    5.30
   5  -3  -1  220.78    5.10
  -5  -3   1  224.98    5.00
   5  -3  -1  217.48    5.70
   5  -3  -1  229.08    5.80
   5  -3  -1  213.48    4.80
  -5  -3   1  221.98    5.60
   5  -3  -1  226.98    5.80
  -5   3   1  220.88    5.70
   5   3  -1  230.88    5.10
   5   3  -1  222.58    5.60
  -5   3   1  231.28    5.70
  -5   3   1  225.38    5.60
  -4  -3   1   41.70    1.50
   4  -3  -1   39.00    1.90
   4  -3  -1   40.60    2.00
  -4  -3   1   42.30    1.70
   4  -3  -1   43.50    1.70
   4  -3  -1   39.20    1.40
  -4  -3   1   38.90    1.90
   4   3  -1   43.00    1.80
   4   3  -1   43.10    1.50
  -4   3   1   40.60    1.80
  -4   3   1   44.00    2.10
   4   3  -1   39.50    1.20
  -3  -3   1  712.03   13.80
  -3  -3   1  702.83   13.10
   3  -3  -1  707.53   13.10
  -3  -3   1  683.33   13.40
   3  -3  -1  705.23   13.90
   3  -3  -1  719.13   13.30
  -3  -3   1  727.73   13.40
   3  -3  -1  705.03   13.90
  -3   3   1  709.23   13.50
   3   3  -1  717.13   13.70
  -3   3   1  710.43   13.90
  -3   3   1  708.83   12.60
   3   3  -1  701.33   13.60
   3   3  -1  697.33   12.80
   2  -3  -1  739.53   14.30
   2  -3  -1  745.73   13.70
   2  -3  -1  727.73   13.30
  -2  -3   1  728.23   13.60
   2  -3  -1  754.02   13.80
  -2  -3   1  739.03   13.80
  -2   3   1  752.62   14.20
   2   3  -1  736.43   13.40
   2   3  -1  740.33   13.90
   2   3  -1  743.03   14.10
  -2   3   1  728.73   13.30
  -2   3   1  743.83   14.00
  -2   3   1  745.33   13.90
   1  -3  -1   48.20    1.60
   1  -3  -1   50.39    1.80
  -1  -3   1   46.60    1.50
   1   3  -1   48.00    1.70
  -1   3   1   49.10    1.60
   1   3  -1   44.60    1.30
   1   3  -1   47.40    1.50
  -1   3   1   48.50    1.50
  -1   3   1   46.90    1.40
  -1   3   1   49.99    1.70
   0   3  -1   82.09    2.00
   0   3  -1   79.59    2.20
   0   3   1   83.89    2.10
   0   3  -1   82.69    2.20
   0   3  -1   80.99    2.20
   0   3   1   80.49    2.20
   0   3   1   81.89    2.20
   0   3   1   80.19    2.00
   0   3  -1   80.09    2.00
   0   3   1   82.09    2.20
  -1  -3  -1    9.90    0.60
   1  -3   1   11.10    0.90
   1  -3   1   10.70    0.50
  -1  -3  -1   10.30    0.90
  -1  -3  -1    9.80    0.50
   1  -3   1   10.80    0.80
   1   3   1    9.50    0.80
  -1   3  -1   10.70    0.70
   1   3   1   10.20    0.70
   1   3   1   10.60    0.70
  -1   3  -1   10.80    0.90
  -1   3  -1   10.70    0.80
  -2  -3  -1  183.38    4.30
   2  -3   1  185.08    4.40
   2  -3   1  184.78    3.80
  -2  -3  -1  181.68    3.90
   2  -3   1  178.88    3.50
   2  -3   1  184.18    4.30
   2  -3   1  179.48    4.30
  -2  -3  -1  178.18    3.60
   2   3   1  185.78    3.90
  -2   3  -1  185.28    4.30
  -2   3  -1  181.78    4.30
  -2   3  -1  176.28    4.40
  -2   3  -1  180.48    3.80
   2   3   1  178.08    4.20
   3  -3   1  577.44   11.30
   3  -3   1  528.45    9.80
   3  -3   1  539.95   10.00
   3  -3   1  560.64   11.10
  -3  -3  -1  552.94   10.20
   3  -3   1  568.14   11.20
  -3  -3  -1  555.84   10.60
   3  -3   1  551.94   10.50
  -3  -3  -1  564.04   11.10
   3   3   1  549.54   11.00
  -3   3  -1  567.84   11.10
  -3   3  -1  549.15   11.20
  -3   3  -1  540.15   10.30
   3   3   1  558.24   10.40
  -4  -3  -1   85.99    2.50
  -4  -3  -1   84.49    2.20
   4  -3   1   84.49    2.90
   4  -3   1   86.19    2.40
  -4  -3  -1   85.99    2.90
   4  -3   1   86.19    3.00
   4  -3   1   90.49    3.00
   4   3   1   83.29    2.60
   4   3   1   87.69    2.10
   4   3   1   85.89    2.90
  -4   3  -1   85.29    2.90
  -4   3  -1   84.49    2.10
  -4   3  -1   84.99    2.70
  -5  -3  -1  285.47    6.30
  -5  -3  -1  282.07    6.00
  -5  -3  -1  297.77    6.90
   5  -3   1  291.47    7.10
   5  -3   1  287.97    7.10
   5  -3   1  283.37    6.90
   5  -3   1  281.17    6.20
   5   3   1  293.27    6.90
  -5   3  -1  276.67    5.70
  -5   3  -1  290.17    7.00
  -5   3  -1  296.67    6.70
   5   3   1  300.27    6.70
   6  -3   1   79.89    3.30
  -6  -3  -1   73.79    2.50
  -6  -3  -1   78.69    3.10
  -6  -3  -1   74.69    3.00
  -6  -3  -1   78.99    2.70
   6  -3   1   69.39    2.90
   6  -3   1   78.49    3.30
   6  -3   1   75.59    2.60
  -6   3  -1   75.59    2.80
   6   3   1   77.09    2.90
   6   3   1   74.29    3.10
  -6   3  -1   70.19    3.00
   7  -3   1    7.90    1.50
   7  -3   1    5.10    1.10
  -7  -3  -1    3.30    0.90
  -7  -3  -1    2.20    1.10
  -7  -3  -1    6.80    1.30
   7  -3   1    4.50    1.20
  -7  -3  -1    4.30    0.90
   7  -3   1    5.00    1.00
  -7   3  -1    4.60    0.90
   7   3   1    4.90    1.10
  -7   3  -1    4.10    1.30
   7   3   1    5.30    1.10
   8  -3   1    3.90    1.10
  -8  -3  -1    3.90    1.30
   8  -3   1    4.20    1.00
  -8  -3  -1    3.40    1.00
  -8  -3  -1    4.40    1.10
   8  -3   1    4.90    1.20
   8   3   1    1.60    1.30
  -8   3  -1    5.00    1.60
   8   3   1    3.20    0.90
   9  -3   1    3.00    1.20
   9  -3   1    2.80    1.10
  -9  -3  -1    2.80    1.50
   9  -3   1    2.50    1.50
  -9  -3  -1    2.00    1.60
   9   3   1    2.90    1.20
  -9   3  -1    2.00    1.60
   9   3   1    2.30    1.30
   9  -4  -1   -0.90    0.90
   9  -4  -1    0.90    1.40
   9  -4  -1    0.00    1.00
  -9  -4   1    0.60    1.30
  -9  -4   1   -0.90    1.20
   9   4  -1   -0.60    0.90
  -9   4   1   -1.60    1.40
  -8  -4   1    6.20    1.50
  -8  -4   1    5.30    1.30
   8  -4  -1    4.70    1.60
   8  -4  -1    4.40    1.10
  -8  -4   1    5.40    1.40
   8  -4  -1    3.40    1.30
   8   4  -1    3.70    1.00
  -8   4   1    4.60    1.30
   8   4  -1    4.10    1.20
  -7  -4   1    0.20    1.00
   7  -4  -1    1.50    0.70
  -7  -4   1    2.80    1.00
   7  -4  -1   -1.90    0.90
   7  -4  -1    0.20    0.70
  -7  -4   1   -0.10    0.70
   7  -4  -1    0.40    0.80
   7   4  -1    1.30    1.10
  -7   4   1   -0.30    1.00
   7   4  -1    0.30    0.70
  -7   4   1    2.90    1.30
   6  -4  -1  156.68    4.30
  -6  -4   1  160.68    4.90
   6  -4  -1  154.78    4.80
  -6  -4   1  167.78    4.50
  -6  -4   1  159.38    4.10
   6  -4  -1  154.48    5.10
   6  -4  -1  153.08    5.00
  -6   4   1  151.98    4.90
  -6   4   1  161.98    4.90
   6   4  -1  151.88    4.70
   5  -4  -1   41.70    1.50
   5  -4  -1   48.70    2.50
   5  -4  -1   43.70    1.90
  -5  -4   1   44.70    1.70
   5  -4  -1   42.10    2.40
   5  -4  -1   43.30    2.20
  -5  -4   1   41.80    2.20
  -5  -4   1   45.10    2.00
   5   4  -1   41.50    1.40
  -5   4   1   42.90    2.30
   5   4  -1   44.70    2.30
  -5   4   1   47.00    2.50
   4  -4  -1    7.30    1.10
  -4  -4   1    6.20    0.90
  -4  -4   1    5.90    0.70
   4  -4  -1    6.80    0.70
  -4  -4   1    7.00    1.10
   4  -4  -1    5.10    1.10
   4  -4  -1    6.30    0.90
  -4   4   1    7.50    1.20
  -4   4   1    5.40    0.90
   4   4  -1    7.40    0.90
   4   4  -1    6.20    0.60
   4   4  -1    6.60    1.10
  -3  -4   1   21.90    0.60
   3  -4  -1   24.50    1.10
   3  -4  -1   23.60    1.60
  -3  -4   1   22.50    1.10
   3  -4  -1   21.40    0.70
   3  -4  -1   25.20    1.50
   3  -4  -1   24.10    1.30
  -3  -4   1   25.80    1.60
  -3  -4   1   24.70    1.30
  -3  -4   1   21.80    0.60
  -3   4   1   24.00    1.30
  -3   4   1   22.90    1.50
   3   4  -1   23.30    0.90
   3   4  -1   24.50    1.50
   3   4  -1   24.10    1.60
  -3   4   1   23.10    0.80
   2  -4  -1   47.30    1.70
   2  -4  -1   46.40    2.00
   2  -4  -1   45.00    1.60
   2  -4  -1   45.90    1.40
  -2  -4   1   45.50    1.70
  -2  -4   1   48.50    1.60
  -2   4   1   45.50    1.80
   2   4  -1   46.30    1.90
   2   4  -1   46.80    1.40
  -2   4   1   46.10    1.40
  -2   4   1   44.60    1.80
   2   4  -1   45.30    1.80
  -2   4   1   45.30    1.90
   1  -4  -1  922.11   17.50
  -1  -4   1  907.91   16.90
   1   4  -1  920.91   17.30
   1   4  -1  926.51   17.00
   1   4  -1  907.01   16.70
  -1   4   1  909.21   17.20
  -1   4   1  929.21   17.00
  -1   4   1  922.11   17.40
  -1   4   1  884.11   16.80
   0  -4   1  431.06    8.70
   0   4  -1  424.06    8.70
   0   4  -1  442.86    8.80
   0   4  -1  426.96    8.40
   0   4  -1  426.46    8.50
   0   4   1  428.16    8.50
   0   4   1  438.96    8.70
   0   4   1  442.46    8.70
   0   4   1  437.36    8.80
   0   4   1  436.96    8.60
   0   4  -1  442.06    8.80
  -1  -4  -1  583.74   11.00
   1  -4   1  570.64   10.80
  -1  -4  -1  579.24   11.40
   1  -4   1  586.34   11.40
   1  -4   1  579.04   11.30
  -1  -4  -1  577.84   10.80
   1   4   1  583.64   11.40
   1   4   1  580.34   11.10
  -1   4  -1  586.04   11.20
   1   4   1  578.54   11.10
  -1   4  -1  572.54   11.40
  -1   4  -1  578.44   11.50
   2  -4   1  139.89    3.80
   2  -4   1  138.39    3.60
  -2  -4  -1  136.39    3.00
   2  -4   1  136.99    3.10
   2  -4   1  138.49    3.70
  -2  -4  -1  143.39    3.80
   2  -4   1  135.39    3.00
  -2  -4  -1  141.59    3.30
  -2   4  -1  134.19    3.60
   2   4   1  132.79    3.00
  -2   4  -1  137.99    3.80
  -2   4  -1  136.29    3.30
   2   4   1  141.59    3.70
   2   4   1  135.19    3.30
   3  -4   1    8.10    1.00
  -3  -4  -1    7.70    1.00
   3  -4   1   10.10    1.20
   3  -4   1    8.70    1.00
  -3  -4  -1    9.10    0.90
  -3  -4  -1    9.50    0.60
   3  -4   1    9.20    0.50
   3  -4   1   10.50    0.80
   3   4   1   10.10    1.20
   3   4   1    9.10    0.80
  -3   4  -1   10.20    0.70
  -3   4  -1    9.70    1.10
   3   4   1    8.30    0.40
  -3   4  -1    7.70    1.10
  -4  -4  -1   36.70    1.90
   4  -4   1   39.60    2.10
  -4  -4  -1   36.60    1.60
   4  -4   1   36.70    2.10
   4  -4   1   39.60    2.10
   4  -4   1   36.50    1.50
  -4  -4  -1   35.90    1.30
   4   4   1   37.30    1.50
  -4   4  -1   39.20    2.00
  -4   4  -1   36.50    1.30
   4   4   1   39.10    2.00
  -5  -4  -1   40.10    1.50
   5  -4   1   44.90    2.50
   5  -4   1   39.60    2.30
  -5  -4  -1   42.80    2.00
   5  -4   1   40.90    1.80
   5  -4   1   38.80    2.30
  -5  -4  -1   39.10    2.30
  -5   4  -1   37.30    2.30
   5   4   1   40.90    1.70
   5   4   1   41.90    2.30
   6  -4   1    3.20    0.90
   6  -4   1    2.30    0.70
  -6  -4  -1    2.80    0.80
   6  -4   1    4.20    1.30
   6  -4   1    6.00    1.30
  -6  -4  -1    4.40    1.30
  -6  -4  -1    3.80    0.80
  -6  -4  -1    3.90    0.90
   6   4   1    3.90    0.70
  -6   4  -1    2.70    1.20
   6   4   1    4.00    1.20
  -7  -4  -1    5.70    1.20
  -7  -4  -1    5.80    1.10
   7  -4   1    5.10    1.00
   7  -4   1    4.60    1.30
   7  -4   1    6.50    1.30
   7  -4   1    5.00    1.30
  -7  -4  -1    7.30    1.30
   7   4   1    6.30    1.50
  -7   4  -1    8.20    1.70
   8  -4   1    2.80    1.40
   8  -4   1   -0.70    1.00
  -8  -4  -1    0.90    1.20
  -8  -4  -1    0.00    1.00
   8  -4   1    0.70    0.90
  -8  -4  -1   -0.90    1.00
   8   4   1   -0.40    0.80
  -8   4  -1    1.00    1.40
  -9  -4  -1   18.50    2.10
   9  -4   1   13.50    1.70
  -9  -4  -1   17.50    2.00
   9  -4   1   20.90    2.30
   9  -4   1   19.40    2.20
   9   4   1   16.80    2.10
  -9   4  -1   15.60    2.20
   9  -5  -1    3.30    1.20
  -9  -5   1    3.00    1.30
  -9  -5   1    3.40    1.50
   9  -5  -1    2.60    1.60
   9  -5  -1    1.00    1.10
  -9  -5   1    0.30    1.40
  -9   5   1    1.10    1.60
   9   5  -1    2.50    1.60
   8  -5  -1    5.70    1.30
   8  -5  -1    6.40    1.80
  -8  -5   1    4.20    1.50
  -8  -5   1    4.40    1.40
   8  -5  -1    5.40    1.50
   8   5  -1    3.60    1.50
  -8   5   1    3.40    1.60
   7  -5  -1    1.10    1.30
  -7  -5   1    0.40    1.00
  -7  -5   1    1.40    1.30
   7  -5  -1   -1.10    0.70
   7  -5  -1   -0.30    1.00
  -7   5   1   -2.30    1.10
  -7   5   1   -1.10    1.10
   7   5  -1    0.40    1.10
  -6  -5   1    2.00    0.80
   6  -5  -1    0.90    0.80
   6  -5  -1    1.00    1.20
  -6  -5   1    0.30    1.00
   6  -5  -1    1.50    0.70
   6  -5  -1    3.40    1.20
  -6  -5   1    1.40    0.70
  -6   5   1    0.10    1.10
   6   5  -1    1.60    1.10
  -6   5   1    3.30    1.30
  -5  -5   1   39.20    2.50
   5  -5  -1   37.00    1.90
  -5  -5   1   35.60    1.80
   5  -5  -1   37.20    2.50
   5  -5  -1   42.60    2.60
  -5  -5   1   37.10    1.70
   5  -5  -1   39.70    2.50
  -5   5   1   40.70    2.60
   5   5  -1   35.30    2.30
  -5   5   1   38.20    2.20
   4  -5  -1    0.10    0.80
   4  -5  -1    0.20    0.40
   4  -5  -1   -0.60    0.70
   4  -5  -1    0.30    0.60
  -4  -5   1   -0.20    0.40
  -4  -5   1    0.80    0.50
  -4  -5   1    0.40    0.60
   4   5  -1    0.70    0.40
   4   5  -1    0.70    0.70
  -4   5   1   -0.90    0.70
  -4   5   1    0.60    0.60
  -3  -5   1   19.40    1.10
  -3  -5   1   17.00    1.30
  -3  -5   1   16.90    1.60
   3  -5  -1   18.00    1.10
   3  -5  -1   17.00    1.10
   3  -5  -1   18.70    1.60
   3  -5  -1   20.00    1.80
   3  -5  -1   15.60    0.80
   3   5  -1   17.30    1.50
   3   5  -1   18.90    1.40
  -3   5   1   18.40    1.70
   3   5  -1   16.30    0.90
  -3   5   1   16.70    1.50
  -3   5   1   17.30    0.90
   2  -5  -1   43.70    1.60
   2  -5  -1   44.60    1.80
   2  -5  -1   41.60    2.00
  -2  -5   1   41.40    1.60
  -2  -5   1   43.20    1.90
   2  -5  -1   42.20    1.80
  -2   5   1   44.50    1.80
   2   5  -1   42.20    1.90
  -2   5   1   44.00    1.50
  -2   5   1   43.80    2.20
   2   5  -1   41.60    2.10
  -2   5   1   41.60    2.00
   2   5  -1   42.40    1.50
   1  -5  -1   42.30    2.10
  -1  -5   1   45.70    1.70
   1   5  -1   43.00    1.90
  -1   5   1   46.90    2.10
   1   5  -1   44.60    1.80
   1   5  -1   44.70    1.60
  -1   5   1   42.00    1.90
  -1   5   1   45.00    1.80
  -1   5   1   42.90    1.70
   0  -5   1   41.80    1.80
   0   5   1   47.40    1.90
   0   5  -1   41.20    1.70
   0   5  -1   44.80    1.80
   0   5  -1   42.50    1.90
   0   5   1   44.00    1.90
   0   5   1   43.10    1.80
   0   5   1   40.80    1.60
   0   5   1   43.10    1.90
   0   5  -1   43.10    1.70
   1  -5   1   69.09    2.50
   1  -5   1   68.29    2.00
  -1  -5  -1   67.59    2.40
  -1  -5  -1   67.29    2.10
   1  -5   1   65.59    2.30
  -1  -5  -1   68.49    2.00
   1   5   1   68.99    2.30
  -1   5  -1   68.49    2.30
  -1   5  -1   66.99    2.40
   1   5   1   71.89    2.50
   1   5   1   70.79    2.30
  -1   5  -1   70.39    2.50
   2  -5   1   12.80    0.90
   2  -5   1   11.40    1.20
  -2  -5  -1   11.30    0.90
   2  -5   1   12.50    1.20
   2  -5   1   12.00    1.20
  -2  -5  -1   12.00    0.80
  -2  -5  -1   11.60    1.30
   2  -5   1   10.70    0.80
   2   5   1   12.20    1.20
  -2   5  -1   13.70    1.00
   2   5   1   12.30    0.80
  -2   5  -1   14.50    1.40
   2   5   1   14.50    1.10
  -2   5  -1   11.70    1.20
   3  -5   1   47.10    2.30
   3  -5   1   40.70    1.30
   3  -5   1   45.30    2.10
   3  -5   1   43.90    2.10
  -3  -5  -1   42.60    2.10
  -3  -5  -1   46.20    1.70
  -3  -5  -1   40.90    1.40
   3  -5   1   45.10    1.70
  -3   5  -1   43.00    2.10
  -3   5  -1   40.00    1.60
   3   5   1   44.30    1.70
   3   5   1   44.00    2.20
  -3   5  -1   45.20    2.40
   4  -5   1    9.60    1.30
   4  -5   1   10.30    1.00
   4  -5   1    8.30    1.10
   4  -5   1    9.80    1.40
  -4  -5  -1    9.60    1.10
  -4  -5  -1    9.80    1.20
  -4  -5  -1    9.80    0.80
   4   5   1    9.50    1.00
  -4   5  -1   10.30    1.50
   4   5   1    9.00    1.40
   5  -5   1   82.99    3.50
   5  -5   1   80.49    3.50
   5  -5   1   77.99    2.60
  -5  -5  -1   82.49    3.50
  -5  -5  -1   83.09    2.80
   5  -5   1   77.29    3.30
   5   5   1   82.29    2.60
   5   5   1   83.09    3.50
  -5   5  -1   79.29    3.30
   6  -5   1    8.20    1.60
   6  -5   1    6.30    1.00
   6  -5   1    5.90    1.10
   6  -5   1    7.30    1.60
  -6  -5  -1    5.00    1.10
  -6  -5  -1    5.00    1.40
  -6  -5  -1    5.80    1.20
  -6   5  -1    3.90    1.10
   6   5   1    7.50    1.30
  -7  -5  -1    7.90    1.40
   7  -5   1    5.30    1.50
  -7  -5  -1    8.90    1.50
   7  -5   1    6.40    1.10
   7  -5   1    5.40    1.30
  -7  -5  -1   10.40    1.90
   7   5   1    7.90    1.40
  -7   5  -1    8.80    1.80
   8  -5   1    0.20    0.90
  -8  -5  -1   -0.10    0.80
  -8  -5  -1   -0.80    1.40
   8  -5   1   -1.10    1.20
  -8  -5  -1    0.10    0.90
   8   5   1    0.90    1.40
  -8   5  -1   -0.70    1.40
   8  -6  -1    2.70    1.30
   8  -6  -1    5.00    1.30
   8  -6  -1    1.60    1.40
  -8  -6   1    4.60    1.40
  -8  -6   1    3.10    1.60
  -8   6   1    3.60    1.80
   8   6  -1    1.60    1.50
   7  -6  -1   10.10    1.90
   7  -6  -1    7.90    1.30
  -7  -6   1    6.40    1.40
   7  -6  -1    7.90    1.50
  -7  -6   1   10.20    1.60
   7   6  -1   10.00    1.60
  -7   6   1    5.20    1.70
   6  -6  -1   29.00    2.50
   6  -6  -1   36.10    2.80
  -6  -6   1   27.70    1.90
  -6  -6   1   30.30    2.30
   6  -6  -1   27.60    1.80
   6  -6  -1   32.40    2.50
   6   6  -1   35.30    2.80
  -6   6   1   32.10    2.70
  -6   6   1   34.70    3.00
   5  -6  -1   42.60    2.60
  -5  -6   1   45.70    2.40
  -5  -6   1   39.90    1.80
   5  -6  -1   42.40    2.20
   5  -6  -1   45.50    2.80
   5  -6  -1   36.20    2.70
  -5  -6   1   41.60    2.60
  -5   6   1   38.90    2.60
   5   6  -1   41.20    2.40
  -5   6   1   42.60    2.70
   4  -6  -1   21.50    2.10
   4  -6  -1   21.40    1.60
  -4  -6   1   21.50    1.70
   4  -6  -1   22.10    2.00
  -4  -6   1   24.60    1.90
  -4  -6   1   19.60    1.20
  -4   6   1   20.10    1.60
  -4   6   1   20.60    2.10
   4   6  -1   21.90    1.70
  -3  -6   1    0.40    0.70
   3  -6  -1    1.10    0.90
   3  -6  -1    1.00    0.70
   3  -6  -1   -0.40    0.80
   3  -6  -1   -0.50    0.50
  -3  -6   1   -0.30    0.50
  -3  -6   1    0.50    0.50
  -3   6   1    0.00    0.50
   3   6  -1    0.20    0.80
   3   6  -1    1.10    0.50
   3   6  -1    0.60    0.60
  -3   6   1    1.80    1.00
   2  -6  -1   63.69    2.80
  -2  -6   1   60.59    2.20
   2  -6  -1   60.39    2.30
   2  -6  -1   63.29    2.80
  -2  -6   1   60.59    2.30
   2  -6  -1   56.79    2.30
   2   6  -1   62.79    2.60
  -2   6   1   62.89    2.60
  -2   6   1   59.29    2.80
   2   6  -1   59.69    2.00
  -2   6   1   61.29    2.40
   2   6  -1   60.19    2.40
  -1  -6   1   60.89    2.20
   1  -6  -1   68.09    2.90
   1   6  -1   63.89    2.60
  -1   6   1   61.19    2.40
   1   6  -1   58.39    2.10
   1   6  -1   65.19    2.50
  -1   6   1   58.19    2.40
  -1   6   1   60.69    2.60
   0  -6   1   95.59    3.20
   0   6  -1   96.09    3.20
   0   6   1   97.99    3.10
   0   6   1  103.79    3.30
   0   6   1  103.39    3.10
   0   6   1   99.49    3.40
   0   6  -1  104.09    3.40
   0   6  -1  102.89    3.10
   1  -6   1    6.70    0.80
  -1  -6  -1    4.90    1.00
  -1  -6  -1    6.20    0.70
   1  -6   1    5.40    1.00
   1  -6   1    6.90    1.10
   1  -6   1    5.40    1.00
  -1  -6  -1    7.30    0.80
  -1   6  -1    7.00    1.00
  -1   6  -1    7.40    1.20
   1   6   1    6.90    1.10
   1   6   1    7.50    1.00
   1   6   1    7.70    1.10
   2  -6   1    2.10    0.90
  -2  -6  -1    1.40    0.90
   2  -6   1    0.90    0.50
  -2  -6  -1    1.40    0.60
   2  -6   1    1.60    0.80
   2  -6   1    2.20    0.70
   2  -6   1    1.50    0.60
  -2  -6  -1    0.70    0.50
  -2   6  -1    1.20    0.60
   2   6   1    2.00    0.70
   2   6   1    2.00    0.90
   2   6   1    1.50    0.50
  -2   6  -1    2.30    0.70
   3  -6   1    1.30    0.80
  -3  -6  -1    0.90    0.70
  -3  -6  -1    0.40    0.40
   3  -6   1    0.70    0.80
  -3  -6  -1    0.20    0.60
   3  -6   1    0.60    0.60
   3  -6   1    0.80    0.70
  -3   6  -1   -0.70    0.80
   3   6   1    0.00    0.50
  -3   6  -1    0.50    0.50
   3   6   1    1.70    0.80
   4  -6   1   -1.00    0.90
   4  -6   1    0.40    0.60
  -4  -6  -1    1.00    0.80
   4  -6   1   -0.70    0.80
  -4  -6  -1    0.70    0.90
   4  -6   1   -0.90    0.50
   4   6   1    0.50    0.50
   4   6   1    0.60    1.00
  -4   6  -1    0.10    0.70
   5  -6   1    5.20    1.40
   5  -6   1    3.70    1.10
   5  -6   1    3.40    0.70
  -5  -6  -1    5.70    1.00
  -5  -6  -1    3.20    1.00
   5  -6   1    1.90    1.20
   5   6   1    5.70    1.20
  -5   6  -1    2.80    1.30
   6  -6   1    3.50    1.00
   6  -6   1    5.30    1.10
   6  -6   1    9.10    1.70
  -6  -6  -1    6.50    1.70
  -6  -6  -1    8.60    1.70
  -6  -6  -1    7.20    1.30
   6  -6   1    4.10    1.50
   6   6   1    5.90    1.60
  -6   6  -1    4.50    1.50
  -7  -6  -1   -0.80    0.80
  -7  -6  -1    0.90    1.10
   7  -6   1   -1.10    1.20
  -7  -6  -1    1.20    1.00
   7  -6   1   -1.10    0.90
   7   6   1    0.30    1.30
  -7   6  -1   -0.80    1.40
   8  -6   1    0.30    1.40
  -8  -6  -1    2.30    1.10
  -8  -6  -1    0.90    0.90
  -8  -6  -1   -0.60    1.50
   8  -6   1    0.50    1.40
  -8   6  -1    0.50    1.70
   8   6   1    0.10    1.50
   7  -7  -1    1.90    1.60
   7  -7  -1    2.20    1.10
   7  -7  -1    5.50    1.50
  -7  -7   1    2.30    0.90
  -7  -7   1    1.50    1.50
  -7   7   1    1.80    1.10
   7   7  -1    1.60    1.20
  -6  -7   1   -0.70    1.00
   6  -7  -1   -0.30    0.90
  -6  -7   1    1.30    1.00
   6  -7  -1    0.10    0.90
   6  -7  -1    0.50    0.90
  -6   7   1   -0.20    0.90
  -6   7   1   -0.60    1.40
   6   7  -1   -2.20    1.20
   5  -7  -1    2.90    1.30
   5  -7  -1    4.20    1.30
   5  -7  -1    3.50    1.00
  -5  -7   1    1.90    0.80
  -5  -7   1    4.50    1.50
   5  -7  -1    4.00    1.30
  -5   7   1    2.70    1.50
  -5   7   1    1.70    1.20
   5   7  -1    4.00    1.20
   4  -7  -1   -0.20    0.70
   4  -7  -1    1.50    1.10
  -4  -7   1   -0.20    1.10
  -4  -7   1   -0.10    0.80
   4  -7  -1   -0.20    0.90
  -4  -7   1   -0.30    0.60
   4   7  -1   -0.20    1.10
  -4   7   1    0.00    0.80
  -4   7   1    0.50    0.90
   3  -7  -1    1.70    1.00
   3  -7  -1    1.30    0.80
  -3  -7   1    2.60    0.90
   3  -7  -1    1.00    0.80
  -3  -7   1    1.20    0.70
   3  -7  -1    1.80    0.90
  -3  -7   1    1.00    0.80
  -3   7   1    1.50    0.90
   3   7  -1   -0.70    1.00
   3   7  -1    2.30    1.00
  -3   7   1    1.50    0.90
   2  -7  -1    0.60    0.80
   2  -7  -1    1.40    0.80
   2  -7  -1    0.60    1.00
  -2  -7   1    1.60    0.70
  -2  -7   1    1.00    0.70
   2  -7  -1    0.30    0.70
   2  -7  -1    1.20    0.70
   2   7  -1    0.70    0.90
   2   7  -1    1.50    1.00
  -2   7   1    2.70    1.10
   2   7  -1    0.60    0.60
  -2   7   1    1.50    0.90
   1  -7  -1    6.60    1.20
  -1  -7   1    5.30    1.10
  -1  -7   1    5.80    1.00
  -1  -7   1    6.60    1.00
   1  -7  -1    6.40    1.30
   1  -7  -1    6.10    1.00
  -1   7   1    5.20    1.20
  -1   7   1    4.80    1.10
   1   7  -1    5.10    0.90
   1   7  -1    6.90    1.10
  -1   7   1    5.40    1.00
   0  -7  -1   15.90    1.80
   0  -7   1   19.80    1.70
   0  -7   1   15.70    1.50
   0   7  -1   19.90    1.80
   0   7  -1   17.00    1.60
   0   7   1   17.70    1.60
   0   7   1   15.20    1.40
   0   7   1   16.10    1.60
   0   7  -1   17.00    1.30
   1  -7   1   23.70    1.40
  -1  -7  -1   23.60    1.40
   1  -7   1   22.40    1.80
  -1  -7  -1   23.80    1.40
   1  -7   1   25.70    1.90
  -1  -7  -1   24.30    2.00
   1  -7   1   22.10    1.80
  -1   7  -1   20.80    1.70
  -1   7  -1   23.30    1.70
   1   7   1   23.50    1.70
   1   7   1   22.30    1.90
   1   7   1   22.80    1.70
   2  -7   1   -0.10    0.50
   2  -7   1    0.90    0.90
  -2  -7  -1   -0.50    0.60
  -2  -7  -1   -0.20    0.40
  -2  -7  -1    0.70    0.70
   2  -7   1    0.70    0.80
   2  -7   1   -0.90    0.80
  -2   7  -1    0.30    0.60
   2   7   1   -0.40    0.60
  -2   7  -1    0.50    0.70
   2   7   1    0.20    1.00
  -3  -7  -1   10.90    1.70
   3  -7   1    9.40    1.10
   3  -7   1    9.80    1.40
   3  -7   1   12.40    1.70
   3  -7   1   12.70    1.70
  -3  -7  -1   11.70    1.20
   3   7   1   11.10    1.60
  -3   7  -1   13.40    1.60
   3   7   1   11.70    1.30
   4  -7   1   10.20    1.60
  -4  -7  -1    8.60    1.60
   4  -7   1    7.70    1.10
   4  -7   1    7.70    1.30
  -4  -7  -1    8.30    1.10
   4  -7   1    6.40    1.50
  -4   7  -1    5.90    1.50
   4   7   1    7.20    1.30
   5  -7   1   10.60    1.70
   5  -7   1   13.70    2.00
  -5  -7  -1   15.50    1.90
   5  -7   1   12.30    1.90
  -5  -7  -1   12.70    1.50
  -5  -7  -1   14.60    2.10
   5   7   1   15.60    2.10
  -5   7  -1   13.50    2.00
   6  -7   1    1.20    1.30
   6  -7   1    0.20    1.00
  -6  -7  -1   -0.80    1.20
  -6  -7  -1    1.90    1.10
  -6  -7  -1    0.80    1.20
  -6   7  -1   -0.60    1.30
   6   7   1    0.00    0.90
   7  -7   1    0.00    1.40
   7  -7   1    0.60    1.50
  -7  -7  -1   -0.50    1.00
  -7  -7  -1    2.70    1.60
  -7  -7  -1    2.90    1.60
   7   7   1    0.80    1.50
  -7   7  -1    1.60    1.60
  -6  -8   1    6.50    1.50
   6  -8  -1    9.20    1.80
   6  -8  -1    7.00    1.60
  -6  -8   1    8.40    2.00
  -6   8   1    8.80    1.90
   6   8  -1    7.90    1.60
  -5  -8   1    9.40    1.50
   5  -8  -1    6.10    1.50
   5  -8  -1    7.50    1.30
   5  -8  -1    7.40    1.80
  -5  -8   1    6.40    1.50
   5   8  -1    5.10    1.30
  -5   8   1    6.90    1.40
   4  -8  -1    2.10    1.00
   4  -8  -1    1.00    0.90
   4  -8  -1    0.40    1.30
  -4  -8   1    0.90    1.00
  -4  -8   1    2.40    1.40
   4  -8  -1    3.40    1.40
  -4   8   1    0.30    1.40
   4   8  -1    4.00    1.40
  -4   8   1    1.70    1.10
   3  -8  -1    0.20    1.00
  -3  -8   1    0.30    0.80
   3  -8  -1    0.50    0.60
  -3  -8   1   -0.30    0.40
  -3  -8   1    0.00    0.80
   3  -8  -1    0.40    0.90
  -3   8   1   -0.50    0.50
   3   8  -1   -0.50    1.00
  -3   8   1    0.60    0.90
   2  -8  -1    2.40    1.00
  -2  -8   1    2.80    0.90
   2  -8  -1    2.40    1.00
   2  -8  -1    2.50    1.00
  -2  -8   1    0.70    0.70
  -2  -8   1    0.30    1.10
   2  -8  -1    0.90    1.20
  -2   8   1    2.50    1.00
   2   8  -1    1.40    1.20
   2   8  -1    3.70    1.20
  -2   8   1    2.30    1.20
  -1  -8   1   41.60    2.50
   1  -8  -1   45.50    2.40
  -1  -8   1   44.90    2.30
  -1  -8   1   40.80    3.10
   1  -8  -1   38.90    2.50
   1  -8  -1   40.20    2.80
  -1   8   1   43.40    2.80
  -1   8   1   41.10    2.20
   1   8  -1   41.00    2.40
   1   8  -1   45.20    2.50
   0  -8  -1   33.00    2.10
   0  -8  -1   38.60    2.40
   0  -8   1   35.80    2.20
   0  -8  -1   31.00    2.10
   0  -8  -1   36.00    2.70
   0  -8   1   40.70    2.40
   0  -8   1   33.60    2.30
   0   8   1   36.20    2.40
   0   8  -1   34.90    2.10
   0   8  -1   37.00    2.20
   0   8   1   35.10    2.30
   0   8   1   31.80    2.30
   1  -8   1    2.00    1.00
  -1  -8  -1    2.00    0.80
  -1  -8  -1    4.00    1.00
   1  -8   1    2.20    0.80
   1  -8   1    1.40    0.70
   1  -8   1    2.40    0.90
  -1  -8  -1    1.70    0.80
  -1   8  -1    2.80    1.10
   1   8   1    3.00    0.90
  -1   8  -1    3.60    1.00
   1   8   1    1.20    1.10
   2  -8   1   -0.20    0.50
   2  -8   1    0.10    1.00
   2  -8   1   -1.00    0.90
  -2  -8  -1    0.30    0.70
  -2  -8  -1   -0.80    0.60
  -2   8  -1    0.50    0.70
   2   8   1   -0.60    0.60
   2   8   1   -0.40    1.10
  -3  -8  -1    0.50    0.70
  -3  -8  -1    0.00    0.70
   3  -8   1   -0.70    0.60
   3  -8   1    0.70    1.00
   3  -8   1   -0.80    1.10
   3   8   1   -1.20    1.10
  -3   8  -1   -0.80    0.70
  -4  -8  -1    1.30    0.90
   4  -8   1    1.90    1.00
   4  -8   1   -1.30    0.70
  -4  -8  -1    1.50    0.70
  -4  -8  -1    2.20    1.50
   4   8   1    3.90    1.50
  -4   8  -1    0.90    1.10
  -5  -8  -1    7.10    1.90
   5  -8   1    8.00    1.90
   5  -8   1    3.30    1.50
  -5  -8  -1    2.40    1.50
  -5  -8  -1    4.80    1.20
   5   8   1    4.50    1.70
  -5   8  -1    4.20    1.20
  -6  -8  -1    2.80    1.20
   6  -8   1    2.40    1.60
  -6  -8  -1    3.60    1.70
  -6  -8  -1    2.70    1.70
   6  -8   1    1.90    1.30
   6   8   1    2.80    1.70
  -6   8  -1   -2.40    1.30
  -5  -9   1    2.40    1.30
   5  -9  -1    3.30    1.70
  -5  -9   1    3.30    1.30
   5  -9  -1    4.10    1.40
   5   9  -1    2.60    1.20
  -5   9   1    1.20    1.20
  -4  -9   1    0.80    1.00
  -4  -9   1    0.40    1.40
   4  -9  -1    2.70    1.50
   4  -9  -1    0.20    0.90
   4   9  -1    0.60    1.50
  -4   9   1    1.10    1.10
  -3  -9   1    1.60    0.90
  -3  -9   1    5.90    1.70
   3  -9  -1    1.90    0.80
   3  -9  -1    1.20    1.50
   3  -9  -1   -0.30    1.30
  -3   9   1    3.70    1.20
   3   9  -1    1.30    1.30
  -2  -9   1    4.40    1.20
   2  -9  -1   -1.50    1.10
  -2  -9   1    2.00    1.30
   2  -9  -1    1.50    1.00
   2   9  -1    1.80    1.00
  -2   9   1    2.40    1.10
   1  -9  -1   -0.70    0.90
  -1  -9   1    0.20    0.90
   1  -9  -1    0.00    1.10
   1  -9  -1    0.60    1.10
  -1  -9   1    1.40    0.90
   1  -9  -1   -1.50    0.90
   1   9  -1    3.00    1.10
   0  -9  -1    1.30    1.00
   0  -9  -1    2.80    1.40
   0  -9  -1    1.00    1.10
   0  -9  -1    0.00    0.80
   0  -9   1    1.00    0.90
   0   9  -1    0.60    1.10
  -1  -9  -1    2.40    1.00
   1  -9   1    2.90    1.20
  -1  -9  -1    3.50    1.30
  -1  -9  -1    2.80    1.20
  -1  -9  -1    2.80    1.30
  -1   9  -1    3.60    1.00
   1   9   1    4.70    1.10
  -1   9  -1    2.30    0.80
   2  -9   1    2.20    1.30
  -2  -9  -1    0.80    0.90
  -2  -9  -1    1.60    1.30
   2  -9   1    1.10    1.10
  -2  -9  -1    2.10    1.20
  -2   9  -1    3.10    1.20
   2   9   1   -0.50    1.20
   3  -9   1    9.60    1.60
  -3  -9  -1    7.70    1.90
  -3  -9  -1    6.80    1.40
  -3  -9  -1    8.60    1.50
   3  -9   1    9.30    1.50
  -3   9  -1    8.50    1.50
   3   9   1   11.50    1.70
   4  -9   1    2.90    1.40
  -4  -9  -1    2.50    1.30
   4  -9   1    3.80    1.60
  -4  -9  -1    0.50    1.10
  -4  -9  -1    2.40    1.10
  -4   9  -1    3.20    1.40
   4   9   1    3.00    1.60
  -2 -10   1    0.60    1.00
  -2 -10   1   -1.80    0.90
   2 -10  -1    0.50    0.90
   2 -10  -1    0.10    1.30
   2  10  -1   -0.60    1.10
   1 -10  -1   13.20    2.10
  -1 -10   1   11.80    1.70
  -1 -10   1   10.00    1.80
   0 -10  -1    6.00    1.40
   0 -10   1    7.90    1.70
   0 -10   1   10.10    1.70
  -1 -10  -1    2.20    1.30
  -1 -10  -1    0.40    1.30
   1 -10   1   -0.10    0.80
   2 -10   1   -0.40    0.80
  -2 -10  -1    2.30    1.40
  -2 -10  -1    2.10    1.20
   2  10   1   -1.50    1.20
  -2  10  -1   -0.80    1.00
  10   0  -2   -0.80    0.60
  10   0  -2   -1.00    1.00
  10   0  -2   -0.40    1.10
 -10   0   2    0.60    1.50
   9   0  -2   18.90    1.90
   9   0  -2   17.00    1.90
   9   0  -2   21.40    2.10
  -9   0   2   20.40    2.20
   8   0  -2   -0.30    0.80
   8   0  -2    1.20    1.00
   8   0  -2    0.60    0.90
   8   0  -2   -0.30    0.70
  -8   0   2    0.50    1.00
  -8   0   2    0.30    0.50
  -7   0   2    9.60    1.00
   7   0  -2    9.70    1.20
  -7   0   2   10.70    1.40
   7   0  -2   10.10    1.00
  -7   0   2    9.20    1.00
  -7   0   2   10.30    1.30
   7   0  -2    8.90    1.20
   7   0  -2   10.00    1.20
   6   0  -2  100.69    2.80
  -6   0   2  105.39    3.20
   6   0  -2  106.69    3.30
   6   0  -2  103.89    3.40
  -6   0   2  106.29    3.00
  -6   0   2  103.59    2.90
   6   0  -2  103.49    3.00
  -6   0   2  101.39    2.90
  -5   0   2   38.60    1.50
   5   0  -2   39.10    1.80
   5   0  -2   39.30    1.60
   5   0  -2   38.00    1.40
  -5   0   2   39.80    1.50
  -5   0   2   38.50    1.50
   5   0  -2   37.40    1.60
  -5   0   2   38.60    1.70
   5   0  -2   38.30    1.60
  -4   0   2  107.69    2.60
   4   0  -2  108.49    3.00
   4   0  -2  113.89    2.80
  -4   0   2  105.89    2.70
  -4   0   2  106.89    2.60
  -4   0   2  107.39    2.80
   4   0  -2  108.19    2.80
   4   0  -2  109.99    2.90
   3   0  -2  403.56    7.90
  -3   0   2  398.56    7.60
  -3   0   2  407.66    7.80
  -3   0   2  398.46    8.00
   3   0  -2  416.36    8.00
  -3   0   2  399.96    7.70
   3   0  -2  414.46    8.00
  -3   0   2  402.36    7.80
   3   0  -2  406.36    7.80
   3   0  -2  408.06    7.60
   2   0  -2  716.33   13.20
  -2   0   2  708.43   13.00
   2   0  -2  719.03   12.90
  -2   0   2  711.83   12.90
  -2   0   2  738.63   13.20
   2   0  -2  719.73   13.00
   2   0  -2  704.93   13.00
  -2   0   2  724.43   12.90
  -2   0   2  723.43   13.00
   2   0  -2  719.43   13.20
  -1   0   2  134.79    2.80
   1   0  -2  135.09    2.80
  -1   0   2  137.59    2.60
  -1   0   2  136.89    2.70
   1   0  -2  137.39    2.70
   1   0  -2  135.49    2.70
   1   0  -2  137.89    2.80
  -1   0   2  135.89    2.60
   1   0  -2  138.19    2.80
   1   0  -2  134.59    2.60
  -1   0   2  135.59    2.70
   0   0  -2  375.66    6.80
   0   0  -2  374.56    6.90
   0   0  -2  372.76    6.90
   0   0  -2  373.16    6.80
   0   0   2  369.86    6.80
   0   0   2  376.26    6.90
   0   0   2  369.56    6.80
   0   0  -2  379.36    6.90
   0   0   2  377.96    6.80
   1   0   2 1301.17   24.80
  -1   0  -2 1375.06   24.30
   1   0   2 1332.77   25.80
  -1   0  -2 1359.96   25.10
  -1   0  -2 1312.07   25.60
   1   0   2 1344.17   24.90
  -1   0  -2 1314.77   25.30
  -1   0  -2 1346.97   24.80
  -2   0  -2   84.09    2.00
  -2   0  -2   86.89    2.20
  -2   0  -2   82.99    2.20
  -2   0  -2   82.49    2.10
   2   0   2   87.79    2.20
   2   0   2   83.99    2.20
   2   0   2   80.79    2.10
  -2   0  -2   84.49    2.10
   2   0   2   85.99    2.00
   2   0   2   84.59    2.00
  -3   0  -2 1437.16   25.50
   3   0   2 1393.66   25.30
  -3   0  -2 1431.36   25.50
   3   0   2 1399.16   25.30
   3   0   2 1376.36   25.20
   3   0   2 1436.66   25.60
  -3   0  -2 1367.86   25.90
   3   0   2 1391.66   25.60
   4   0   2    1.30    0.50
  -4   0  -2    0.50    0.40
  -4   0  -2    1.00    0.60
   4   0   2    1.60    0.60
   4   0   2    1.60    0.50
   4   0   2   -0.10    0.40
  -4   0  -2    0.80    0.40
   4   0   2    0.90    0.40
   5   0   2    4.90    0.90
   5   0   2    3.40    0.60
   5   0   2    3.40    0.90
  -5   0  -2    4.90    0.80
   5   0   2    2.90    0.70
  -5   0  -2    3.50    0.70
   5   0   2    3.40    0.60
  -5   0  -2    4.90    0.60
   6   0   2   30.40    2.00
   6   0   2   33.20    1.60
   6   0   2   32.30    1.70
  -6   0  -2   28.80    1.80
   6   0   2   33.50    2.00
  -6   0  -2   28.00    1.30
   6   0   2   29.80    1.60
  -6   0  -2   32.10    2.00
  -6   0  -2   28.50    1.70
  -7   0  -2   41.30    2.60
   7   0   2   38.10    2.10
   7   0   2   32.40    2.30
   7   0   2   37.00    2.30
   7   0   2   37.10    1.80
  -7   0  -2   34.30    2.30
   7   0   2   33.40    2.00
  -7   0  -2   39.40    2.50
   8   0   2   48.20    2.70
  -8   0  -2   47.60    3.00
   8   0   2   46.00    2.50
   8   0   2   53.39    2.70
  -8   0  -2   50.99    3.00
  -8   0  -2   47.70    3.20
  -9   0  -2   38.90    3.00
   9   0   2   40.10    2.90
  -9   0  -2   38.50    2.70
  -9   0  -2   38.60    3.00
 -10  -1   2    3.70    1.30
  10  -1  -2    4.20    1.30
  10  -1  -2    4.20    1.40
  10  -1  -2    3.20    1.20
  10   1  -2    2.50    1.20
  10   1  -2    5.70    1.30
  10   1  -2    1.70    1.30
 -10   1   2    2.40    1.50
 -10   1   2    4.20    1.70
   9  -1  -2   37.40    2.50
   9  -1  -2   35.50    2.50
  -9  -1   2   34.30    2.30
   9  -1  -2   36.50    2.50
  -9  -1   2   35.40    2.30
   9   1  -2   32.40    2.30
  -9   1   2   36.00    2.90
   9   1  -2   35.80    2.30
   9   1  -2   36.90    2.30
  -9   1   2   35.10    2.70
   8  -1  -2   -0.90    0.90
   8  -1  -2   -0.50    0.80
  -8  -1   2    0.20    1.00
  -8  -1   2   -0.40    0.70
   8  -1  -2   -0.50    0.50
   8  -1  -2    0.00    0.90
  -8  -1   2   -0.40    0.90
   8   1  -2   -0.20    0.70
   8   1  -2    0.60    0.60
  -8   1   2    1.20    0.80
   8   1  -2   -0.20    0.90
   8   1  -2   -0.50    0.80
  -7  -1   2    8.00    1.00
  -7  -1   2   10.80    1.30
  -7  -1   2    9.30    1.10
   7  -1  -2    9.30    1.40
   7  -1  -2    8.40    1.20
   7  -1  -2    8.20    1.20
   7  -1  -2    9.20    1.10
   7   1  -2    9.00    1.20
  -7   1   2    7.80    1.20
  -7   1   2    8.00    1.00
  -7   1   2    6.30    0.90
   7   1  -2    8.60    1.10
   7   1  -2    8.00    1.10
   7   1  -2    8.20    1.10
  -6  -1   2   19.70    1.40
   6  -1  -2   21.40    1.30
   6  -1  -2   19.80    1.60
  -6  -1   2   20.70    1.40
  -6  -1   2   18.30    1.00
  -6  -1   2   19.90    1.20
   6  -1  -2   19.80    1.50
   6  -1  -2   20.80    1.30
   6  -1  -2   20.50    1.40
   6   1  -2   17.20    1.50
   6   1  -2   20.00    1.50
   6   1  -2   17.80    1.20
   6   1  -2   18.20    0.90
  -6   1   2   18.60    1.10
   6   1  -2   17.70    1.20
  -6   1   2   18.20    1.20
  -6   1   2   17.60    1.30
  -6   1   2   19.80    1.40
   5  -1  -2   85.49    2.50
  -5  -1   2   79.09    2.40
  -5  -1   2   82.89    2.50
   5  -1  -2   84.59    2.80
  -5  -1   2   81.69    2.40
  -5  -1   2   78.59    2.10
   5  -1  -2   83.49    2.80
   5  -1  -2   79.39    2.50
   5   1  -2   85.39    2.70
   5   1  -2   83.79    2.50
  -5   1   2   89.19    2.50
   5   1  -2   84.89    2.50
   5   1  -2   78.99    2.00
  -5   1   2   80.89    2.10
  -5   1   2   79.89    2.60
  -5   1   2   81.49    2.60
   4  -1  -2  201.38    4.50
  -4  -1   2  200.18    4.50
  -4  -1   2  203.58    4.30
   4  -1  -2  200.78    4.50
  -4  -1   2  200.88    4.30
  -4  -1   2  196.18    4.00
   4  -1  -2  200.28    4.70
   4  -1  -2  197.78    4.80
   4   1  -2  200.38    4.30
  -4   1   2  201.68    4.60
  -4   1   2  200.78    4.30
  -4   1   2  193.78    4.00
   4   1  -2  205.58    4.40
   4   1  -2  188.58    3.90
  -4   1   2  207.48    4.60
   4   1  -2  198.08    4.40
   4   1  -2  204.48    4.60
  -3  -1   2  276.97    5.30
  -3  -1   2  273.77    5.70
  -3  -1   2  271.27    5.50
   3  -1  -2  281.77    5.60
   3  -1  -2  276.97    5.90
   3  -1  -2  278.37    5.80
  -3  -1   2  279.37    5.50
   3  -1  -2  282.07    5.60
  -3   1   2  278.47    5.80
   3   1  -2  278.37    5.70
  -3   1   2  276.17    5.70
   3   1  -2  278.07    5.50
   3   1  -2  274.97    5.40
   3   1  -2  274.07    5.80
   3   1  -2  274.27    5.60
  -3   1   2  275.57    5.10
  -3   1   2  273.47    5.40
  -3   1   2  273.27    5.90
   2  -1  -2 1048.60   18.90
  -2  -1   2 1050.89   19.40
  -2  -1   2  980.70   19.00
   2  -1  -2 1006.50   19.70
   2  -1  -2 1071.19   19.00
  -2  -1   2 1031.40   18.60
   2  -1  -2 1014.10   19.40
   2  -1  -2 1058.39   18.70
  -2  -1   2 1039.00   19.70
   2   1  -2 1069.69   19.10
   2   1  -2 1040.70   19.40
   2   1  -2 1009.80   19.20
   2   1  -2  998.20   19.60
  -2   1   2 1045.90   18.70
   2   1  -2 1057.79   18.70
  -2   1   2 1066.39   18.70
  -2   1   2 1051.89   18.80
   2   1  -2 1012.40   18.80
   2   1  -2 1061.49   18.90
  -2   1   2 1056.79   19.00
  -2   1   2 1026.50   18.60
  -2   1   2  995.60   19.10
   1  -1  -2 1292.67   23.60
  -1  -1   2 1337.17   24.40
   1  -1  -2 1346.07   24.70
  -1  -1   2 1335.77   24.00
  -1  -1   2 1310.87   23.70
   1  -1  -2 1330.57   24.40
  -1  -1   2 1301.17   24.20
   1  -1  -2 1296.67   23.80
   1  -1  -2 1276.07   24.40
   1  -1  -2 1337.07   25.20
  -1   1   2 1304.17   24.40
   1   1  -2 1317.27   24.00
   1   1  -2 1300.07   24.00
   1   1  -2 1325.17   24.10
   1   1  -2 1325.97   24.70
  -1   1   2 1305.77   24.40
   1   1  -2 1304.67   24.00
  -1   1   2 1300.77   24.60
  -1   1   2 1283.77   23.50
  -1   1   2 1277.57   23.60
   0  -1  -2    5.50    0.50
   0  -1  -2    5.50    0.20
   0  -1   2    5.30    0.40
   0  -1   2    5.10    0.20
   0  -1  -2    5.40    0.40
   0  -1   2    5.50    0.30
   0  -1  -2    5.20    0.20
   0  -1  -2    5.20    0.30
   0  -1   2    5.30    0.30
   0   1  -2    6.20    0.50
   0   1   2    4.60    0.40
   0   1  -2    4.90    0.30
   0   1  -2    5.30    0.30
   0   1  -2    6.30    0.30
   0   1   2    5.50    0.20
   0   1  -2    4.80    0.40
   0   1   2    5.20    0.40
   0   1   2    5.20    0.20
   0   1   2    5.40    0.40
   0   1  -2    5.10    0.50
   1  -1   2  264.97    5.20
   1  -1   2  260.17    4.80
   1  -1   2  266.97    4.90
  -1  -1  -2  259.77    5.20
   1  -1   2  272.27    5.10
  -1  -1  -2  263.17    5.20
  -1  -1  -2  259.17    4.90
   1  -1   2  262.77    5.10
  -1   1  -2  257.07    5.00
   1   1   2  277.37    4.70
  -1   1  -2  263.87    5.30
  -1   1  -2  255.57    4.80
   1   1   2  265.37    5.20
  -1   1  -2  267.87    5.10
  -1   1  -2  263.67    5.20
   1   1   2  262.77    5.20
  -1   1  -2  268.77    4.80
   1   1   2  260.67    5.00
  -2  -1  -2 1152.28   21.20
   2  -1   2 1174.98   20.60
  -2  -1  -2 1164.28   21.10
   2  -1   2 1191.58   21.10
   2  -1   2 1164.78   21.10
   2  -1   2 1184.78   21.10
  -2  -1  -2 1183.48   21.10
  -2  -1  -2 1139.39   21.50
   2  -1   2 1150.88   21.70
   2   1   2 1181.68   21.10
  -2   1  -2 1154.18   22.00
   2   1   2 1167.98   22.10
   2   1   2 1168.48   21.00
  -2   1  -2 1090.09   21.20
  -2   1  -2 1175.78   21.20
  -2   1  -2 1128.79   21.10
  -2   1  -2 1178.78   21.20
  -2   1  -2 1172.78   21.10
   3  -1   2  508.95    9.50
   3  -1   2  504.85    9.60
  -3  -1  -2  516.65    9.80
   3  -1   2  504.25    9.90
  -3  -1  -2  509.65    9.90
   3  -1   2  514.75   10.10
   3  -1   2  522.15   10.10
  -3  -1  -2  516.05   10.00
   3   1   2  504.05    9.60
  -3   1  -2  517.55   10.00
  -3   1  -2  518.25   10.10
  -3   1  -2  501.25    9.40
  -3   1  -2  515.65   10.00
   3   1   2  506.85    9.90
   3   1   2  515.35    9.90
   4  -1   2  351.16    7.30
  -4  -1  -2  358.56    7.20
  -4  -1  -2  347.37    7.40
  -4  -1  -2  339.97    7.20
   4  -1   2  354.16    7.60
   4  -1   2  340.37    7.50
   4  -1   2  349.17    7.00
   4  -1   2  347.37    7.00
  -4   1  -2  346.47    7.50
   4   1   2  352.06    7.30
  -4   1  -2  342.97    6.70
   4   1   2  351.16    7.40
  -4   1  -2  353.96    7.40
  -4   1  -2  353.56    7.40
   4   1   2  343.27    6.90
   5  -1   2   17.70    1.30
   5  -1   2   17.10    1.10
  -5  -1  -2   15.30    1.30
  -5  -1  -2   18.10    1.40
  -5  -1  -2   16.50    1.20
   5  -1   2   17.10    1.20
   5  -1   2   18.80    1.50
   5  -1   2   19.00    1.60
  -5   1  -2   17.60    1.30
   5   1   2   17.20    1.40
   5   1   2   16.10    1.30
  -5   1  -2   17.90    0.80
  -5   1  -2   17.80    1.50
   5   1   2   16.00    1.00
  -5   1  -2   18.50    1.60
  -6  -1  -2   36.60    1.80
   6  -1   2   39.20    1.90
   6  -1   2   41.80    2.10
  -6  -1  -2   41.40    2.00
  -6  -1  -2   37.30    2.10
   6  -1   2   39.00    1.70
   6  -1   2   40.40    2.20
   6  -1   2   41.00    1.80
   6   1   2   36.30    1.50
   6   1   2   38.40    1.90
  -6   1  -2   39.30    2.20
  -6   1  -2   37.40    2.30
  -6   1  -2   37.10    2.00
   6   1   2   35.80    1.80
  -7  -1  -2   71.09    3.00
   7  -1   2   74.19    2.90
   7  -1   2   79.59    3.30
   7  -1   2   75.29    3.20
  -7  -1  -2   75.49    2.60
   7  -1   2   77.39    2.90
  -7  -1  -2   80.09    3.30
  -7   1  -2   79.99    3.60
   7   1   2   74.99    3.00
  -7   1  -2   77.39    3.10
  -7   1  -2   77.09    3.20
   7   1   2   76.69    3.00
   8  -1   2   27.50    2.10
  -8  -1  -2   27.20    2.40
  -8  -1  -2   22.20    2.00
   8  -1   2   26.10    2.40
  -8  -1  -2   24.80    2.20
  -8   1  -2   24.60    2.20
  -8   1  -2   23.20    2.20
  -8   1  -2   31.40    2.70
   8   1   2   21.70    1.90
   8   1   2   25.50    2.20
   9  -1   2   12.30    1.60
  -9  -1  -2    8.70    1.80
  -9  -1  -2   11.80    1.70
   9  -1   2    8.90    1.40
  -9  -1  -2   12.30    1.80
  -9   1  -2    9.40    2.20
   9   1   2   11.80    1.80
   9   1   2    9.90    1.60
  -9   1  -2   10.30    2.00
 -10  -2   2   -1.10    0.90
  10  -2  -2    1.10    1.00
  10  -2  -2    1.60    1.10
  10  -2  -2    1.30    1.10
 -10   2   2   -0.30    1.50
  10   2  -2    3.30    1.50
 -10   2   2    0.30    1.00
  -9  -2   2    4.70    1.50
  -9  -2   2    5.70    1.20
   9  -2  -2    6.80    1.50
   9  -2  -2    6.70    1.20
  -9  -2   2    6.80    1.40
   9   2  -2    4.50    1.10
  -9   2   2    6.50    1.70
   9   2  -2    5.60    1.20
   9   2  -2    8.10    1.70
  -9   2   2    4.70    1.30
  -8  -2   2    7.30    1.10
  -8  -2   2    7.30    1.30
  -8  -2   2    9.50    1.30
   8  -2  -2    7.20    1.30
   8  -2  -2    7.30    1.50
   8  -2  -2    6.70    1.00
   8  -2  -2    6.00    1.30
   8   2  -2    5.20    0.90
   8   2  -2    8.80    1.40
  -8   2   2    7.10    1.30
  -8   2   2    7.10    1.30
   8   2  -2    9.40    1.40
  -8   2   2    7.20    1.50
  -7  -2   2    9.50    1.10
   7  -2  -2    9.80    1.50
   7  -2  -2    6.30    1.10
  -7  -2   2    7.90    1.10
  -7  -2   2    8.50    1.20
   7  -2  -2    8.40    1.20
   7  -2  -2    8.80    1.20
   7   2  -2    6.40    1.10
  -7   2   2    6.20    1.00
  -7   2   2    7.90    1.30
   7   2  -2    7.30    1.00
   7   2  -2    5.90    1.20
   7   2  -2    8.40    1.20
  -7   2   2    8.30    1.20
   6  -2  -2  290.37    6.90
   6  -2  -2  311.37    6.80
  -6  -2   2  304.97    7.00
  -6  -2   2  296.67    6.60
  -6  -2   2  298.47    6.70
   6  -2  -2  299.97    7.20
   6  -2  -2  287.77    7.30
   6   2  -2  298.57    6.50
   6   2  -2  293.97    7.00
  -6   2   2  309.87    6.90
  -6   2   2  293.97    6.20
   6   2  -2  301.97    7.00
  -6   2   2  298.57    7.10
   6   2  -2  306.37    6.80
  -5  -2   2   47.90    1.70
  -5  -2   2   51.09    1.90
   5  -2  -2   50.39    2.30
   5  -2  -2   50.59    1.80
   5  -2  -2   49.70    2.30
   5  -2  -2   48.80    1.90
  -5  -2   2   51.69    2.10
  -5   2   2   50.29    2.00
  -5   2   2   46.40    2.00
   5   2  -2   49.50    1.90
   5   2  -2   49.60    1.70
   5   2  -2   48.30    1.00
   5   2  -2   49.20    2.00
   5   2  -2   51.59    2.10
  -4  -2   2  100.29    3.00
  -4  -2   2  100.09    2.60
   4  -2  -2   95.19    3.00
   4  -2  -2   97.19    2.60
  -4  -2   2   96.29    2.00
   4  -2  -2  100.09    3.00
   4  -2  -2  100.69    2.70
  -4  -2   2  101.59    2.70
   4   2  -2   98.49    2.80
   4   2  -2  103.09    2.70
  -4   2   2   96.49    2.20
  -4   2   2  103.79    3.10
   4   2  -2  103.29    2.90
   4   2  -2  101.29    2.50
   4   2  -2  100.29    2.70
  -4   2   2  100.79    2.60
  -3  -2   2  124.49    3.00
   3  -2  -2  125.49    3.00
  -3  -2   2  121.09    2.40
  -3  -2   2  127.19    3.00
   3  -2  -2  128.19    2.90
   3  -2  -2  126.69    3.40
   3  -2  -2  129.69    3.40
   3  -2  -2  122.59    2.40
   3  -2  -2  124.39    2.50
  -3  -2   2  126.49    2.90
  -3   2   2  128.89    3.30
  -3   2   2  120.49    2.40
   3   2  -2  127.49    2.90
   3   2  -2  125.39    3.10
   3   2  -2  127.69    3.20
  -3   2   2  126.59    3.10
   3   2  -2  128.39    2.70
  -3   2   2  125.09    2.90
   3   2  -2  129.69    3.00
   2  -2  -2    4.10    0.50
   2  -2  -2    3.30    0.60
  -2  -2   2    3.10    0.50
   2  -2  -2    2.80    0.20
  -2  -2   2    3.80    0.50
  -2  -2   2    3.00    0.40
  -2  -2   2    3.50    0.10
   2  -2  -2    3.40    0.30
   2  -2  -2    3.30    0.10
  -2  -2   2    3.50    0.30
   2  -2  -2    3.20    0.50
   2   2  -2    3.80    0.60
  -2   2   2    3.60    0.50
  -2   2   2    3.30    0.60
   2   2  -2    3.10    0.40
  -2   2   2    3.30    0.50
   2   2  -2    3.00    0.40
  -2   2   2    3.20    0.50
   1  -2  -2  349.47    6.40
   1  -2  -2  348.77    6.60
  -1  -2   2  340.27    6.30
  -1  -2   2  348.57    6.40
   1  -2  -2  356.26    6.80
  -1  -2   2  350.26    6.70
   1  -2  -2  340.67    6.40
  -1   2   2  347.77    6.80
  -1   2   2  342.97    6.50
   1   2  -2  347.37    6.90
   1   2  -2  348.97    6.60
  -1   2   2  352.46    6.90
   0  -2   2  427.26    7.80
   0  -2  -2  416.76    7.60
   0  -2   2  410.46    7.60
   0  -2  -2  419.56    7.60
   0  -2   2  432.36    7.70
   0  -2  -2  427.16    8.10
   0  -2  -2  415.26    7.90
   0  -2   2  422.36    8.00
   0   2   2  416.16    8.00
   0   2  -2  421.16    8.10
   0   2   2  430.26    7.60
   0   2   2  426.76    8.00
   0   2   2  419.36    8.00
   0   2  -2  421.16    7.70
   0   2  -2  420.56    8.10
   1  -2   2  110.99    2.60
   1  -2   2  109.09    2.20
   1  -2   2  111.09    2.10
  -1  -2  -2  109.49    2.10
  -1  -2  -2  112.49    2.30
  -1  -2  -2  114.69    2.80
   1  -2   2  110.49    2.10
   1  -2   2  113.09    2.50
   1  -2   2  115.59    2.70
  -1  -2  -2  112.89    2.70
  -1   2  -2  110.79    2.50
  -1   2  -2  110.89    2.80
   1   2   2  110.89    2.50
   1   2   2  112.59    2.40
   1   2   2  109.69    2.70
  -1   2  -2  109.59    2.50
   2  -2   2    0.90    0.40
  -2  -2  -2    0.90    0.30
  -2  -2  -2    0.70    0.50
   2  -2   2    0.80    0.50
   2  -2   2    0.80    0.40
   2  -2   2    0.90    0.30
  -2  -2  -2    0.80    0.20
  -2  -2  -2    0.60    0.30
  -2   2  -2    0.50    0.40
   2   2   2    0.90    0.30
  -2   2  -2    1.80    0.50
   2   2   2    0.70    0.30
  -2   2  -2    0.50    0.40
  -2   2  -2    0.70    0.30
   2   2   2    0.60    0.50
  -3  -2  -2  102.79    2.30
   3  -2   2  103.59    2.50
  -3  -2  -2  107.99    2.60
   3  -2   2  106.59    3.00
   3  -2   2  109.29    3.00
   3  -2   2  109.99    3.00
  -3  -2  -2  103.79    2.90
  -3  -2  -2  102.39    2.90
   3   2   2  102.39    2.80
   3   2   2  103.69    2.80
  -3   2  -2  106.89    3.00
   3   2   2  105.99    2.50
  -3   2  -2  103.19    2.30
  -3   2  -2  109.69    3.00
  -4  -2  -2   58.99    2.00
   4  -2   2   58.59    1.80
   4  -2   2   57.69    2.20
  -4  -2  -2   58.19    2.20
  -4  -2  -2   60.89    2.20
   4  -2   2   59.09    2.20
  -4  -2  -2   59.49    1.70
   4  -2   2   57.09    2.20
   4   2   2   59.99    2.10
   4   2   2   58.59    1.70
  -4   2  -2   55.09    1.40
  -4   2  -2   61.69    2.30
  -4   2  -2   53.69    2.40
  -4   2  -2   56.09    2.30
   4   2   2   60.49    2.20
   5  -2   2   33.00    1.90
  -5  -2  -2   29.70    1.50
   5  -2   2   32.80    1.80
   5  -2   2   31.80    1.80
   5  -2   2   31.10    1.40
  -5  -2  -2   29.00    1.70
  -5  -2  -2   33.00    1.80
   5  -2   2   32.30    1.40
   5   2   2   33.80    1.90
  -5   2  -2   31.90    2.10
  -5   2  -2   30.10    1.80
   5   2   2   31.80    1.30
   5   2   2   34.00    1.80
  -5   2  -2   33.50    1.90
  -6  -2  -2  100.39    3.20
  -6  -2  -2   99.39    3.20
   6  -2   2   99.89    3.40
   6  -2   2  100.49    3.00
   6  -2   2   98.49    3.60
   6  -2   2   98.19    3.50
   6  -2   2  100.29    2.90
  -6  -2  -2  101.09    3.40
   6   2   2   99.79    3.50
  -6   2  -2  102.39    3.90
  -6   2  -2   96.99    3.70
   6   2   2   95.59    3.30
  -6   2  -2   98.29    3.50
   6   2   2   96.49    2.60
   7  -2   2   17.30    1.80
   7  -2   2   17.00    1.50
  -7  -2  -2   15.30    1.60
   7  -2   2   19.60    2.00
  -7  -2  -2   17.60    1.60
   7  -2   2   17.10    1.70
  -7  -2  -2   22.60    2.00
  -7   2  -2   17.70    1.90
  -7   2  -2   19.40    1.90
   7   2   2   20.60    1.90
   7   2   2   20.00    1.80
  -7   2  -2   15.90    1.70
  -8  -2  -2   24.60    2.30
   8  -2   2   26.00    2.10
  -8  -2  -2   23.00    2.10
   8  -2   2   27.10    2.00
   8  -2   2   24.60    2.30
  -8   2  -2   24.50    2.20
  -8   2  -2   24.20    2.40
   8   2   2   26.40    2.30
   8   2   2   26.30    2.00
  -8   2  -2   30.10    3.00
  -9  -2  -2   23.40    2.50
  -9  -2  -2   24.10    2.40
   9  -2   2   22.60    2.40
   9  -2   2   17.10    1.60
   9  -2   2   19.00    2.00
  -9  -2  -2   24.70    2.40
  -9   2  -2   29.50    2.90
   9   2   2   23.30    2.30
   9   2   2   24.60    2.40
  -9  -3   2   10.60    1.70
   9  -3  -2    7.10    1.40
   9  -3  -2    7.70    1.40
  -9  -3   2    5.50    1.40
  -9  -3   2   10.40    1.60
   9  -3  -2    6.00    1.70
   9   3  -2    8.40    1.50
  -9   3   2    8.20    1.90
  -9   3   2    9.20    1.90
  -8  -3   2   -1.10    0.90
   8  -3  -2    0.90    1.10
   8  -3  -2    0.00    0.90
  -8  -3   2   -0.40    0.60
  -8  -3   2    1.00    0.70
   8  -3  -2   -0.40    0.80
  -8   3   2    0.60    1.20
  -8   3   2    1.70    1.30
   8   3  -2    0.40    0.70
  -8   3   2    0.00    0.70
   8   3  -2    0.60    1.10
   7  -3  -2    5.90    1.30
   7  -3  -2    7.10    1.00
  -7  -3   2    6.90    1.10
  -7  -3   2    6.70    1.20
   7  -3  -2    4.40    0.90
   7  -3  -2   10.10    1.50
  -7  -3   2    8.00    1.30
  -7   3   2    7.50    1.20
  -7   3   2    4.10    1.00
   7   3  -2    8.20    1.00
   7   3  -2    6.10    1.30
  -7   3   2    7.20    1.20
  -6  -3   2    1.70    0.70
  -6  -3   2    2.70    0.80
   6  -3  -2    3.20    1.10
   6  -3  -2    2.80    0.90
  -6  -3   2    1.70    0.80
   6  -3  -2    1.00    0.60
   6  -3  -2    1.90    0.80
   6  -3  -2    1.20    0.90
   6   3  -2    1.00    0.90
   6   3  -2    3.20    0.70
   6   3  -2    1.80    0.80
  -6   3   2    2.50    0.80
  -6   3   2    0.60    0.60
  -6   3   2    1.90    1.00
   5  -3  -2  110.29    3.00
  -5  -3   2  108.89    3.40
  -5  -3   2  106.39    3.00
   5  -3  -2  109.79    3.60
   5  -3  -2  113.19    3.70
   5  -3  -2  109.49    3.20
  -5  -3   2  111.29    3.20
  -5   3   2  110.19    3.60
  -5   3   2  111.89    3.40
   5   3  -2  106.99    3.10
  -5   3   2  110.39    3.40
   5   3  -2  112.29    3.40
   5   3  -2  110.39    2.90
   5   3  -2  108.69    3.40
   4  -3  -2   65.79    2.10
  -4  -3   2   64.59    2.10
  -4  -3   2   66.59    2.00
   4  -3  -2   63.99    2.50
   4  -3  -2   63.29    2.00
   4  -3  -2   61.29    2.40
  -4  -3   2   62.79    2.50
   4   3  -2   63.39    1.80
  -4   3   2   62.19    2.30
  -4   3   2   62.29    2.50
   4   3  -2   67.09    2.30
   4   3  -2   62.19    2.30
   4   3  -2   61.19    1.40
   3  -3  -2   14.90    0.90
  -3  -3   2   14.50    0.90
  -3  -3   2   14.40    0.90
   3  -3  -2   18.00    1.30
   3  -3  -2   14.40    0.50
   3  -3  -2   13.70    1.00
   3  -3  -2   13.70    1.20
  -3  -3   2   14.10    0.90
   3  -3  -2   14.60    0.50
  -3   3   2   15.10    1.00
  -3   3   2   15.20    1.00
   3   3  -2   13.90    0.90
   3   3  -2   13.70    0.50
   3   3  -2   15.40    1.20
  -3   3   2   14.20    1.30
   2  -3  -2    0.70    0.50
   2  -3  -2    0.50    0.40
  -2  -3   2    0.20    0.30
   2  -3  -2    0.20    0.50
  -2  -3   2    0.60    0.20
   2  -3  -2    0.40    0.30
  -2  -3   2    0.60    0.40
  -2  -3   2    0.70    0.30
  -2   3   2    1.00    0.60
   2   3  -2    0.60    0.20
   2   3  -2    1.00    0.40
   2   3  -2    0.40    0.50
  -2   3   2    0.90    0.40
   1  -3  -2   60.99    1.60
   1  -3  -2   62.19    1.90
  -1  -3   2   62.09    1.60
  -1  -3   2   63.99    1.80
   1  -3  -2   62.89    1.80
  -1   3   2   65.49    2.00
   1   3  -2   64.49    1.80
   1   3  -2   62.59    2.00
  -1   3   2   65.09    2.00
  -1   3   2   61.69    1.70
   0  -3  -2   14.90    0.80
   0  -3   2   15.00    0.80
   0  -3   2   15.80    0.70
   0  -3   2   15.50    0.90
   0  -3  -2   15.00    1.00
   0  -3  -2   16.20    0.70
   0   3   2   16.60    0.90
   0   3  -2   15.30    0.70
   0   3   2   14.60    0.90
   0   3   2   13.90    1.00
   0   3  -2   15.10    1.00
   0   3  -2   16.00    0.90
   0   3   2   16.10    0.70
   1  -3   2  671.43   12.50
  -1  -3  -2  651.53   12.60
   1  -3   2  630.74   11.80
   1  -3   2  650.83   12.20
  -1  -3  -2  642.24   11.70
  -1  -3  -2  665.43   12.40
  -1  -3  -2  658.43   12.00
   1  -3   2  648.84   12.30
   1   3   2  657.03   12.50
   1   3   2  665.63   12.20
   1   3   2  639.64   12.30
  -1   3  -2  647.84   12.30
  -1   3  -2  672.43   12.60
   2  -3   2    7.60    0.50
   2  -3   2    7.00    0.20
   2  -3   2    6.50    0.80
  -2  -3  -2    6.90    0.40
  -2  -3  -2    8.20    0.90
   2  -3   2    7.70    0.90
   2  -3   2    7.50    0.70
  -2  -3  -2    7.90    0.60
  -2  -3  -2    7.80    0.90
   2  -3   2    7.00    0.20
   2   3   2    8.20    0.80
   2   3   2    8.30    0.50
   2   3   2    7.20    0.70
  -2   3  -2    7.20    0.70
  -2   3  -2    7.90    0.90
  -2   3  -2    7.70    0.80
   3  -3   2  207.98    4.90
  -3  -3  -2  198.78    4.00
  -3  -3  -2  202.18    5.00
   3  -3   2  208.88    5.00
   3  -3   2  202.68    4.30
   3  -3   2  203.38    5.00
  -3  -3  -2  209.68    4.50
  -3  -3  -2  213.58    5.00
   3   3   2  202.18    4.50
   3   3   2  206.48    4.30
  -3   3  -2  200.18    4.40
  -3   3  -2  205.28    5.00
   3   3   2  199.68    4.00
   3   3   2  206.78    4.90
   4  -3   2   14.10    1.40
  -4  -3  -2   14.60    1.00
  -4  -3  -2   15.80    1.20
   4  -3   2   14.00    0.90
  -4  -3  -2   14.00    1.30
   4  -3   2   14.10    1.30
   4  -3   2   16.90    1.40
   4   3   2   16.40    1.30
  -4   3  -2   15.00    1.50
   4   3   2   16.30    1.20
  -4   3  -2   16.20    1.40
   4   3   2   12.30    0.50
  -4   3  -2   12.60    0.90
   4   3   2   14.50    0.80
  -5  -3  -2    0.60    0.40
   5  -3   2    1.60    0.80
  -5  -3  -2    1.40    0.90
   5  -3   2    1.70    0.60
  -5  -3  -2    2.70    0.90
  -5  -3  -2    1.20    0.60
   5  -3   2    1.70    0.90
   5  -3   2    1.80    0.90
   5   3   2    1.80    0.40
  -5   3  -2    2.10    1.00
   5   3   2    2.00    0.90
   5   3   2    1.80    0.70
  -5   3  -2    1.20    0.90
   6  -3   2   12.70    1.20
   6  -3   2   14.00    1.70
  -6  -3  -2   15.00    1.50
  -6  -3  -2   12.70    1.50
  -6  -3  -2   13.30    1.60
   6  -3   2   11.50    1.40
   6  -3   2   12.20    1.40
   6   3   2   12.60    1.40
  -6   3  -2   12.00    1.50
  -6   3  -2   13.40    1.40
   6   3   2   14.30    1.60
  -7  -3  -2   17.40    1.70
  -7  -3  -2   14.80    1.70
   7  -3   2   13.80    1.80
   7  -3   2   13.40    1.70
   7  -3   2   14.70    1.50
  -7  -3  -2   17.30    1.70
   7  -3   2   19.00    1.90
  -7   3  -2   17.70    1.80
   7   3   2   15.40    1.70
  -7   3  -2   12.50    1.70
   7   3   2   17.70    1.90
   8  -3   2    7.70    1.30
  -8  -3  -2   10.50    1.80
   8  -3   2    9.00    1.50
   8  -3   2    9.70    1.50
  -8  -3  -2    8.10    1.40
  -8  -3  -2   11.80    1.60
   8   3   2    9.20    1.40
  -8   3  -2    9.60    1.90
   8   3   2    7.80    1.30
   9  -3   2    4.50    1.20
   9  -3   2    5.30    1.30
  -9  -3  -2    2.20    1.20
   9  -3   2    2.90    1.00
  -9  -3  -2    5.50    1.70
   9   3   2    2.80    1.10
  -9   3  -2    3.20    1.30
   9   3   2    3.60    1.30
  -9  -4   2    5.20    1.60
   9  -4  -2    6.90    1.40
  -9  -4   2    4.80    1.20
   9  -4  -2    4.70    1.40
   9   4  -2    6.60    1.80
  -9   4   2    7.20    1.90
   8  -4  -2   10.30    1.50
   8  -4  -2    7.20    1.50
  -8  -4   2   11.00    1.40
  -8  -4   2    7.50    1.50
   8  -4  -2    8.50    1.50
  -8  -4   2    8.80    1.30
  -8   4   2    7.20    1.40
  -8   4   2    9.20    1.50
   8   4  -2    9.90    1.80
  -7  -4   2    0.80    0.80
   7  -4  -2    1.00    0.70
  -7  -4   2    0.20    0.60
   7  -4  -2    0.20    0.90
   7  -4  -2    1.60    0.90
   7  -4  -2    0.00    1.00
  -7  -4   2    1.00    0.80
   7   4  -2    1.40    1.20
  -7   4   2    1.90    1.20
  -7   4   2    1.40    1.20
   7   4  -2    1.50    0.60
   6  -4  -2  173.78    4.70
   6  -4  -2  166.28    5.40
  -6  -4   2  160.68    4.30
  -6  -4   2  179.88    5.30
  -6  -4   2  175.08    4.70
   6  -4  -2  167.68    5.30
   6  -4  -2  176.98    4.60
   6   4  -2  173.38    5.20
  -6   4   2  179.28    5.40
  -6   4   2  173.78    5.10
  -5  -4   2   82.49    2.50
  -5  -4   2   85.39    3.20
   5  -4  -2   82.29    2.50
   5  -4  -2   85.89    2.80
   5  -4  -2   85.69    3.40
   5  -4  -2   91.19    3.50
  -5  -4   2   92.59    2.90
   5   4  -2   86.39    3.20
  -5   4   2   86.29    3.10
  -5   4   2   85.49    3.40
   5   4  -2   85.69    3.10
   4  -4  -2    0.80    0.50
  -4  -4   2    1.40    0.50
   4  -4  -2    0.50    0.70
   4  -4  -2    1.60    0.70
  -4  -4   2    1.40    0.50
   4  -4  -2    3.30    0.70
  -4  -4   2    1.30    0.60
  -4   4   2    1.50    0.60
   4   4  -2    0.90    0.60
   4   4  -2    2.00    0.70
  -4   4   2    1.60    0.70
   4   4  -2    1.70    0.30
   3  -4  -2   76.29    2.80
   3  -4  -2   70.89    2.20
   3  -4  -2   72.39    2.70
  -3  -4   2   73.99    2.20
   3  -4  -2   68.69    1.70
  -3  -4   2   74.09    2.40
   3  -4  -2   74.39    2.30
   3   4  -2   71.49    2.50
  -3   4   2   68.79    2.60
   3   4  -2   69.89    1.60
   3   4  -2   74.69    2.70
  -3   4   2   76.39    2.40
  -3   4   2   71.29    2.50
   2  -4  -2   12.80    1.00
  -2  -4   2   12.00    0.90
  -2  -4   2   14.20    1.10
  -2  -4   2   12.40    0.60
   2  -4  -2   12.70    1.30
   2  -4  -2   11.80    1.00
   2  -4  -2   11.20    0.70
   2   4  -2   12.50    1.00
  -2   4   2   11.90    0.80
  -2   4   2   10.90    1.10
  -2   4   2   10.40    1.10
   2   4  -2   11.20    0.60
   2   4  -2   11.30    1.10
   1  -4  -2  109.89    3.40
  -1  -4   2  115.49    2.90
  -1  -4   2  112.69    2.70
   1  -4  -2  107.99    2.80
   1  -4  -2  114.59    3.10
  -1   4   2  108.69    3.10
  -1   4   2  110.69    2.70
   1   4  -2  103.79    2.80
  -1   4   2  112.59    3.20
   1   4  -2  109.49    3.10
   0  -4  -2  166.68    4.10
   0  -4   2  173.38    3.90
   0  -4   2  162.98    3.90
   0  -4   2  172.28    3.90
   0  -4  -2  170.78    4.00
   0  -4  -2  167.88    3.60
   0   4  -2  166.98    3.70
   0   4  -2  166.78    4.10
   0   4   2  164.18    4.00
   0   4   2  162.88    3.60
   0   4   2  173.18    4.10
   0   4   2  171.38    4.10
   0   4  -2  168.68    4.10
  -1  -4  -2   35.10    1.20
   1  -4   2   36.70    1.50
  -1  -4  -2   37.40    1.60
   1  -4   2   35.30    1.60
   1  -4   2   36.20    1.40
  -1  -4  -2   35.60    1.10
   1  -4   2   35.70    1.10
  -1   4  -2   36.70    1.70
   1   4   2   35.40    1.50
   1   4   2   35.80    1.40
  -1   4  -2   33.90    1.40
   1   4   2   35.10    1.70
  -2  -4  -2    7.10    0.80
   2  -4   2    9.10    0.60
  -2  -4  -2    7.50    0.50
   2  -4   2    7.90    0.50
   2  -4   2    8.00    1.00
   2  -4   2    9.80    0.90
   2  -4   2    8.20    1.00
  -2  -4  -2    6.90    0.70
   2   4   2    8.30    0.80
   2   4   2    7.80    0.60
  -2   4  -2    9.30    0.80
   2   4   2    6.70    0.90
  -2   4  -2    8.70    1.10
   3  -4   2    3.40    0.80
   3  -4   2    2.30    0.70
   3  -4   2    2.30    0.80
  -3  -4  -2    2.40    0.80
  -3  -4  -2    2.50    0.30
  -3  -4  -2    3.10    0.60
   3  -4   2    2.50    0.50
  -3   4  -2    2.20    0.70
   3   4   2    3.30    0.70
   3   4   2    3.00    0.40
  -3   4  -2    3.20    0.60
   3   4   2    2.70    0.80
  -4  -4  -2   16.00    1.40
  -4  -4  -2   15.60    1.50
   4  -4   2   16.80    1.50
   4  -4   2   15.90    1.50
   4  -4   2   14.50    1.50
  -4  -4  -2   14.40    0.80
  -4  -4  -2   17.70    1.30
   4  -4   2   16.10    1.00
  -4   4  -2   17.00    1.70
   4   4   2   17.70    1.30
   4   4   2   16.20    1.40
  -4   4  -2   15.00    1.00
   5  -4   2   35.50    2.40
  -5  -4  -2   38.10    2.30
   5  -4   2   32.30    1.50
   5  -4   2   36.50    2.20
  -5  -4  -2   33.00    2.20
  -5  -4  -2   35.90    1.90
   5  -4   2   35.30    2.10
   5   4   2   32.90    2.00
  -5   4  -2   31.60    2.10
   5   4   2   36.40    1.70
   6  -4   2   60.39    3.00
  -6  -4  -2   58.59    2.80
   6  -4   2   57.49    2.80
   6  -4   2   60.79    2.30
  -6  -4  -2   58.39    2.90
  -6  -4  -2   59.19    2.60
   6  -4   2   59.09    2.80
   6   4   2   59.19    3.00
  -6   4  -2   59.79    3.00
   6   4   2   59.49    2.30
   7  -4   2   11.20    1.70
  -7  -4  -2   13.50    1.70
   7  -4   2   17.30    2.20
   7  -4   2   14.00    1.40
  -7  -4  -2   14.20    1.60
  -7  -4  -2   12.80    1.50
   7  -4   2   13.00    1.60
   7   4   2   16.10    2.00
  -7   4  -2   13.40    1.80
  -8  -4  -2    9.70    2.00
   8  -4   2   10.50    1.50
  -8  -4  -2    9.50    1.70
  -8  -4  -2    9.20    1.60
   8  -4   2   12.70    2.10
  -8   4  -2   10.80    1.80
   8   4   2    9.60    1.60
   9  -5  -2    3.30    1.10
   9  -5  -2    3.10    1.70
  -9  -5   2    2.00    1.60
  -9  -5   2    3.50    1.50
   9  -5  -2    3.50    1.30
  -9   5   2    7.10    1.90
   9   5  -2    3.70    1.30
   8  -5  -2    0.80    1.00
   8  -5  -2    1.30    0.90
  -8  -5   2    1.80    1.20
   8  -5  -2    1.30    1.50
  -8  -5   2    1.30    1.30
  -8   5   2    3.80    1.50
   8   5  -2    1.70    1.40
  -8   5   2    6.20    1.70
  -7  -5   2    2.50    1.20
   7  -5  -2    1.70    1.30
  -7  -5   2    1.30    1.10
   7  -5  -2    0.70    0.80
   7  -5  -2    3.10    1.10
  -7  -5   2    3.10    0.90
  -7   5   2    2.00    1.00
   7   5  -2    2.10    1.30
  -7   5   2    2.30    1.30
   6  -5  -2    1.20    1.10
  -6  -5   2    1.10    0.70
   6  -5  -2    1.10    1.10
  -6  -5   2   -0.70    0.70
   6  -5  -2    1.30    1.00
  -6  -5   2    0.70    0.50
   6  -5  -2    0.40    0.60
  -6   5   2    0.40    0.80
  -6   5   2    0.60    0.80
   6   5  -2    0.90    1.00
   5  -5  -2    2.60    0.90
  -5  -5   2    1.30    0.60
   5  -5  -2    1.30    0.50
   5  -5  -2    2.50    1.10
  -5  -5   2    1.20    0.50
  -5  -5   2    2.00    1.00
   5  -5  -2    2.10    0.90
  -5   5   2    1.40    0.80
  -5   5   2    2.90    1.20
   5   5  -2    1.70    0.80
   4  -5  -2    7.40    1.20
  -4  -5   2    7.20    0.90
  -4  -5   2    7.90    0.90
  -4  -5   2    7.80    1.20
   4  -5  -2    7.80    0.90
   4  -5  -2    8.60    1.10
   4  -5  -2    6.80    1.10
  -4   5   2    7.10    1.00
   4   5  -2   10.00    1.20
  -4   5   2    6.90    1.20
   4   5  -2    8.70    1.30
   3  -5  -2   20.70    1.80
   3  -5  -2   21.60    1.00
  -3  -5   2   22.90    1.40
  -3  -5   2   21.20    1.30
   3  -5  -2   23.40    1.40
   3  -5  -2   20.20    1.40
   3  -5  -2   22.30    1.60
   3   5  -2   19.70    1.70
  -3   5   2   23.30    1.70
   3   5  -2   20.90    0.80
  -3   5   2   22.50    1.60
  -3   5   2   21.30    1.50
   3   5  -2   19.20    1.50
   2  -5  -2   30.30    1.90
   2  -5  -2   27.00    1.50
  -2  -5   2   27.60    1.10
   2  -5  -2   25.80    1.20
   2  -5  -2   27.50    1.60
  -2  -5   2   29.80    1.50
  -2  -5   2   27.50    1.60
  -2   5   2   26.10    1.40
  -2   5   2   24.40    1.60
   2   5  -2   31.10    1.70
   2   5  -2   30.30    1.50
  -2   5   2   30.90    1.90
  -1  -5   2   27.10    1.30
  -1  -5   2   29.20    1.50
   1  -5  -2   27.30    1.30
   1  -5  -2   27.40    1.60
   1  -5  -2   29.90    1.90
  -1   5   2   26.50    1.70
  -1   5   2   26.90    1.30
   1   5  -2   25.90    1.40
  -1   5   2   25.90    1.60
   1   5  -2   26.30    1.50
   0  -5  -2    1.10    0.40
   0  -5   2    0.40    0.50
   0  -5   2    0.20    0.40
   0  -5  -2    0.70    0.50
   0  -5  -2    0.00    0.40
   0  -5   2    0.80    0.50
   0   5  -2    0.50    0.60
   0   5  -2    2.20    0.70
   0   5   2    0.30    0.40
   0   5   2    0.70    0.50
   0   5   2    0.40    0.70
   0   5   2    1.30    0.50
   0   5  -2    1.40    0.50
  -1  -5  -2   16.10    1.30
  -1  -5  -2   15.70    0.80
   1  -5   2   16.70    1.20
   1  -5   2   15.90    1.10
   1  -5   2   16.40    0.90
  -1  -5  -2   18.10    0.90
   1  -5   2   14.60    1.20
  -1   5  -2   16.60    1.20
   1   5   2   17.80    1.30
   1   5   2   18.80    1.50
  -1   5  -2   15.00    1.20
   1   5   2   15.70    1.00
   2  -5   2   76.49    2.60
  -2  -5  -2   75.59    1.90
   2  -5   2   78.49    2.80
   2  -5   2   78.19    2.80
   2  -5   2   75.59    2.10
  -2  -5  -2   79.99    2.80
  -2  -5  -2   79.19    2.30
   2  -5   2   77.39    2.00
   2   5   2   78.99    2.30
  -2   5  -2   79.59    2.50
  -2   5  -2   77.39    2.90
   2   5   2   81.19    2.80
   2   5   2   76.99    2.50
  -3  -5  -2  101.39    2.40
   3  -5   2  106.99    2.80
   3  -5   2  112.09    3.50
  -3  -5  -2  113.49    3.70
   3  -5   2  109.39    3.60
  -3  -5  -2  105.89    3.00
   3  -5   2  110.79    3.60
  -3   5  -2  103.69    3.00
   3   5   2  108.19    3.70
   3   5   2  110.89    3.20
  -3   5  -2  112.79    3.60
   4  -5   2   36.10    2.20
   4  -5   2   35.30    2.10
  -4  -5  -2   35.10    2.10
  -4  -5  -2   32.70    2.00
  -4  -5  -2   37.00    1.80
   4  -5   2   33.80    2.20
   4  -5   2   31.50    1.50
  -4   5  -2   34.00    2.10
   4   5   2   33.40    1.70
   4   5   2   30.60    2.20
  -4   5  -2   32.70    1.50
   5  -5   2   14.60    1.60
   5  -5   2   14.20    1.20
  -5  -5  -2   15.10    1.30
  -5  -5  -2   12.90    1.70
   5  -5   2   13.00    1.50
  -5  -5  -2   14.30    1.80
   5  -5   2   16.70    1.80
  -5   5  -2   16.30    1.80
   5   5   2   16.70    1.40
   5   5   2   14.20    1.80
   6  -5   2    1.00    1.00
  -6  -5  -2    3.20    1.30
  -6  -5  -2    3.40    1.10
   6  -5   2    3.50    1.30
   6  -5   2    3.00    0.80
  -6  -5  -2    1.90    1.30
   6  -5   2    3.30    1.00
  -6   5  -2    2.70    1.30
   6   5   2    2.30    1.00
  -7  -5  -2   14.70    1.90
  -7  -5  -2   11.30    1.80
  -7  -5  -2   12.40    1.60
   7  -5   2   10.00    1.70
   7  -5   2   13.50    1.80
   7   5   2   16.00    2.10
  -7   5  -2   13.80    1.90
  -8  -5  -2   11.40    2.10
   8  -5   2    8.10    1.50
   8  -5   2   11.40    2.10
  -8  -5  -2    5.40    1.60
  -8  -5  -2    7.30    1.40
  -8   5  -2    9.50    1.70
   8   5   2    6.90    1.50
   8  -6  -2    0.50    1.00
   8  -6  -2   -0.30    1.30
   8  -6  -2   -1.40    0.70
  -8  -6   2    0.60    0.90
  -8  -6   2    0.30    1.00
   8   6  -2   -1.30    0.90
  -8   6   2   -1.30    1.30
   7  -6  -2    5.00    1.30
  -7  -6   2    3.00    1.20
  -7  -6   2    3.40    1.20
   7  -6  -2    3.20    1.20
   7  -6  -2    5.10    1.50
   7   6  -2    4.60    1.60
  -7   6   2    3.70    1.30
  -7   6   2    3.20    1.20
  -6  -6   2   43.50    2.10
   6  -6  -2   43.30    2.70
  -6  -6   2   37.70    2.20
   6  -6  -2   39.20    2.90
  -6  -6   2   41.60    2.70
   6  -6  -2   40.50    2.70
   6  -6  -2   37.60    2.10
   6   6  -2   45.40    2.70
  -6   6   2   37.70    2.80
  -6   6   2   41.20    2.80
  -5  -6   2    5.60    1.20
  -5  -6   2    5.70    0.90
   5  -6  -2    7.20    1.60
  -5  -6   2    6.70    1.50
   5  -6  -2    5.20    1.30
   5  -6  -2    4.90    1.10
  -5   6   2    6.30    1.20
   5   6  -2    5.50    1.30
  -5   6   2    6.60    1.30
   4  -6  -2    1.10    0.60
   4  -6  -2    1.10    0.60
  -4  -6   2   -0.10    0.90
  -4  -6   2    0.50    0.60
  -4  -6   2    1.90    0.90
   4  -6  -2    0.70    1.00
   4  -6  -2    1.10    0.80
   4   6  -2   -0.10    0.80
  -4   6   2    1.10    1.00
  -4   6   2    0.40    0.80
   4   6  -2    1.10    0.90
   3  -6  -2    2.20    0.90
   3  -6  -2    3.80    1.00
   3  -6  -2    3.60    0.90
   3  -6  -2    3.10    0.80
  -3  -6   2    3.30    0.80
  -3  -6   2    2.60    0.80
  -3   6   2    1.50    1.00
   3   6  -2    4.30    1.10
  -3   6   2    3.50    0.90
   3   6  -2    1.90    0.90
  -2  -6   2   21.60    1.50
   2  -6  -2   22.10    1.50
  -2  -6   2   21.70    1.20
   2  -6  -2   21.10    1.50
   2  -6  -2   21.70    1.80
   2  -6  -2   20.60    1.30
  -2  -6   2   20.10    1.50
  -2   6   2   22.40    2.00
   2   6  -2   24.30    2.00
  -2   6   2   22.00    1.50
  -2   6   2   20.30    1.70
   2   6  -2   23.20    1.70
  -1  -6   2   21.70    1.40
   1  -6  -2   22.10    1.50
  -1  -6   2   21.70    1.30
  -1  -6   2   19.50    1.30
   1  -6  -2   20.40    1.40
   1  -6  -2   22.00    1.80
   1  -6  -2   23.20    1.80
   1   6  -2   23.70    1.80
  -1   6   2   21.00    1.80
  -1   6   2   22.50    1.70
  -1   6   2   19.10    1.30
   1   6  -2   21.40    1.50
   0  -6   2    5.60    0.80
   0  -6  -2    5.20    1.00
   0  -6   2    4.40    0.80
   0  -6  -2    4.00    0.90
   0  -6  -2    5.30    0.80
   0  -6   2    4.30    0.80
   0   6   2    6.40    1.10
   0   6   2   10.20    1.30
   0   6  -2    5.20    1.10
   0   6  -2    5.40    0.80
   0   6   2    3.60    1.00
   0   6  -2    5.10    1.00
  -1  -6  -2   47.50    1.80
   1  -6   2   44.90    2.30
  -1  -6  -2   49.10    2.40
   1  -6   2   48.60    2.10
  -1  -6  -2   46.50    1.60
   1  -6   2   44.80    2.00
   1  -6   2   44.30    1.60
  -1  -6  -2   51.69    2.30
   1   6   2   51.79    2.20
  -1   6  -2   47.30    2.20
  -1   6  -2   52.79    2.50
   1   6   2   50.29    2.40
   1   6   2   46.60    2.00
  -2  -6  -2   -0.80    0.80
   2  -6   2    1.10    0.80
  -2  -6  -2   -0.10    0.40
   2  -6   2   -0.40    0.60
  -2  -6  -2    0.50    0.40
  -2  -6  -2   -0.50    0.50
   2  -6   2   -0.50    0.50
   2  -6   2    0.30    0.40
   2   6   2   -0.20    0.60
   2   6   2    0.30    0.40
  -2   6  -2    0.30    0.60
  -2   6  -2    0.40    0.80
   2   6   2    0.40    1.00
  -3  -6  -2   21.80    1.70
   3  -6   2   21.60    1.80
   3  -6   2   21.80    1.70
  -3  -6  -2   23.90    1.50
   3  -6   2   22.90    1.90
   3  -6   2   21.50    1.20
  -3  -6  -2   20.00    1.90
   3   6   2   24.30    2.00
  -3   6  -2   18.70    1.80
   3   6   2   22.60    1.60
  -3   6  -2   22.50    1.40
   4  -6   2    0.40    0.70
   4  -6   2   -0.20    1.00
  -4  -6  -2   -0.20    0.70
   4  -6   2    0.80    0.60
  -4  -6  -2    1.70    1.10
   4  -6   2    0.00    1.00
  -4  -6  -2    0.70    1.00
   4   6   2    0.00    0.80
  -4   6  -2    1.10    0.80
   4   6   2    0.80    0.70
  -5  -6  -2    2.90    1.30
  -5  -6  -2    4.90    1.50
   5  -6   2    2.70    1.20
  -5  -6  -2    6.00    1.10
   5  -6   2    3.20    1.10
   5  -6   2    3.90    1.10
  -5   6  -2    2.70    1.30
   5   6   2    3.00    1.00
  -6  -6  -2    5.70    1.40
   6  -6   2    4.80    1.30
   6  -6   2    6.90    1.70
  -6  -6  -2    6.70    1.40
  -6  -6  -2    7.40    1.30
   6  -6   2    8.00    1.70
  -6   6  -2    5.30    1.70
   6   6   2    8.80    1.70
  -7  -6  -2    3.70    1.60
  -7  -6  -2    4.60    1.40
   7  -6   2    2.70    1.60
  -7  -6  -2    4.80    1.80
   7  -6   2    7.30    1.80
  -7   6  -2    2.80    1.70
   7   6   2    5.10    1.40
   7  -7  -2    3.30    1.20
  -7  -7   2    0.30    1.00
   7  -7  -2    2.90    1.40
  -7  -7   2    0.80    0.90
   7  -7  -2    5.00    1.40
   7   7  -2    4.30    1.70
  -7   7   2    2.70    1.30
  -7   7   2   -0.40    1.30
   6  -7  -2    4.10    1.20
   6  -7  -2    3.30    1.50
   6  -7  -2    4.00    1.30
  -6  -7   2    1.60    1.10
  -6  -7   2    1.60    0.90
  -6   7   2    1.00    1.20
  -6   7   2    4.90    1.70
   6   7  -2    4.00    1.20
   5  -7  -2    0.80    0.90
   5  -7  -2    1.90    1.10
   5  -7  -2    1.30    1.40
  -5  -7   2    0.70    0.90
  -5  -7   2    0.80    1.00
  -5  -7   2    0.60    0.70
   5   7  -2    0.80    1.10
  -5   7   2    0.30    0.80
  -5   7   2    3.30    1.20
  -4  -7   2    6.90    1.10
   4  -7  -2    5.60    1.50
  -4  -7   2    9.90    1.40
  -4  -7   2    6.60    1.60
   4  -7  -2    5.70    1.40
   4  -7  -2    6.30    1.20
   4   7  -2    8.00    1.50
  -4   7   2    9.90    1.80
   4   7  -2    5.60    1.20
  -4   7   2    6.30    1.30
   3  -7  -2   14.50    1.30
   3  -7  -2   19.00    2.10
  -3  -7   2   20.20    1.50
  -3  -7   2   17.20    1.70
   3  -7  -2   19.70    2.10
   3  -7  -2   18.00    1.50
   3   7  -2   16.70    1.80
   3   7  -2   19.30    1.80
  -3   7   2   18.50    2.10
  -3   7   2   19.60    1.70
   2  -7  -2   -0.20    0.60
  -2  -7   2    1.00    0.80
   2  -7  -2    1.40    0.70
   2  -7  -2    0.00    0.90
  -2  -7   2    1.20    0.70
   2  -7  -2    0.70    0.60
   2  -7  -2    0.20    0.60
   2   7  -2    1.00    0.80
  -2   7   2    0.30    1.00
   2   7  -2    0.40    1.00
  -2   7   2    1.00    0.60
  -2   7   2    1.00    0.70
  -1  -7   2    9.00    1.20
   1  -7  -2    7.60    1.00
   1  -7  -2    8.30    1.10
   1  -7  -2    6.20    1.20
  -1  -7   2    6.20    1.00
  -1  -7   2    7.70    1.00
   1  -7  -2    8.80    1.60
   1   7  -2    9.40    1.20
  -1   7   2    8.30    1.10
  -1   7   2    7.20    1.10
   1   7  -2    9.10    1.30
  -1   7   2    9.40    1.40
   0  -7  -2    3.10    1.00
   0  -7   2    0.90    0.60
   0  -7  -2    1.70    0.70
   0  -7   2    1.90    0.80
   0  -7   2    1.70    0.80
   0  -7  -2    1.10    0.70
   0   7  -2    1.20    0.70
   0   7   2    1.20    0.90
   0   7  -2    0.30    0.40
   0   7  -2    0.60    0.80
   0   7   2    2.10    0.90
   0   7   2    1.30    0.70
   1  -7   2    0.70    0.70
   1  -7   2    0.60    0.60
  -1  -7  -2    2.20    1.00
  -1  -7  -2   -0.30    0.50
  -1  -7  -2    0.90    0.80
   1  -7   2    0.10    0.60
   1  -7   2   -0.10    0.50
  -1  -7  -2    0.10    0.60
   1   7   2    1.00    1.00
  -1   7  -2    0.20    0.60
  -1   7  -2   -0.30    0.70
   1   7   2    0.10    0.70
   1   7   2   -0.20    0.70
   2  -7   2   25.10    2.10
  -2  -7  -2   20.00    1.30
   2  -7   2   22.50    1.90
  -2  -7  -2   19.80    1.90
  -2  -7  -2   23.60    1.80
   2  -7   2   22.80    1.80
   2   7   2   24.80    1.80
  -2   7  -2   22.80    1.60
  -2   7  -2   22.80    2.10
   2   7   2   29.00    2.30
  -3  -7  -2   21.80    1.40
  -3  -7  -2   21.60    2.10
   3  -7   2   24.60    2.30
   3  -7   2   23.40    1.90
  -3  -7  -2   29.80    2.50
   3  -7   2   22.70    2.10
   3   7   2   25.50    1.80
   3   7   2   25.90    2.20
  -3   7  -2   21.30    2.10
   4  -7   2   13.90    1.60
  -4  -7  -2   18.70    1.60
  -4  -7  -2   18.40    2.00
  -4  -7  -2   20.30    2.20
   4  -7   2   19.00    2.10
   4  -7   2   18.20    2.10
   4   7   2   24.00    2.40
  -4   7  -2   19.80    2.00
   5  -7   2    5.60    1.20
   5  -7   2    8.60    1.70
  -5  -7  -2    8.90    1.80
  -5  -7  -2    6.80    1.50
  -5  -7  -2    8.60    1.10
   5  -7   2    6.80    1.40
   5   7   2    8.00    1.70
  -5   7  -2    8.30    1.80
   6  -7   2    4.50    1.60
  -6  -7  -2    3.00    1.60
   6  -7   2    1.70    1.20
  -6  -7  -2    1.10    0.70
  -6  -7  -2    2.50    1.50
   6   7   2    1.20    1.50
  -6   7  -2    2.60    1.60
   7  -7   2    6.10    1.50
  -7  -7  -2    8.10    1.30
  -7  -7  -2    7.30    1.90
  -6  -8   2   29.30    3.00
   6  -8  -2   21.30    2.10
  -6  -8   2   22.30    2.10
   6  -8  -2   31.90    3.10
   6  -8  -2   24.00    2.80
   6   8  -2   22.00    2.40
  -6   8   2   23.20    2.60
  -6   8   2   25.10    2.50
  -5  -8   2    7.70    1.50
  -5  -8   2    7.80    1.60
   5  -8  -2    5.70    1.70
   5  -8  -2    7.30    1.30
   5  -8  -2   10.20    1.90
  -5   8   2    7.10    1.30
  -5   8   2    7.60    1.90
   5   8  -2    7.80    1.40
  -4  -8   2   -0.20    0.70
  -4  -8   2    0.00    0.50
  -4  -8   2    0.10    1.20
   4  -8  -2    0.30    1.00
   4  -8  -2    1.30    0.70
  -4   8   2   -0.60    0.90
  -4   8   2    1.70    1.40
   4   8  -2   -0.50    1.00
  -3  -8   2    2.20    0.90
  -3  -8   2    1.90    1.30
   3  -8  -2   -0.10    1.00
  -3  -8   2    0.20    0.50
   3  -8  -2   -0.10    1.10
   3  -8  -2    2.50    1.10
  -3   8   2    2.00    0.90
   3   8  -2    2.30    1.10
  -3   8   2    0.50    1.30
   3   8  -2    2.50    1.30
   2  -8  -2   -0.90    0.90
   2  -8  -2    0.90    1.00
   2  -8  -2    0.80    0.70
  -2  -8   2    1.40    0.80
  -2  -8   2    0.40    0.60
   2  -8  -2   -0.20    1.10
   2   8  -2    0.10    0.70
  -2   8   2    1.70    1.20
   2   8  -2   -1.40    0.90
  -2   8   2    1.40    0.80
   1  -8  -2   12.30    1.60
  -1  -8   2   14.50    1.60
   1  -8  -2   14.70    1.60
   1  -8  -2   14.70    1.90
   1  -8  -2   11.70    1.80
   1  -8  -2   13.70    1.50
   1   8  -2   15.40    1.90
  -1   8   2   15.30    1.40
   1   8  -2   14.60    1.50
  -1   8   2   15.50    1.90
  -1   8   2   14.70    1.70
   0  -8  -2    0.00    1.00
   0  -8  -2    2.30    0.90
   0  -8  -2    0.40    0.90
   0  -8   2    0.80    0.80
   0  -8  -2    1.50    0.70
   0  -8   2    0.40    0.90
   0   8   2    3.50    1.10
   0   8  -2    1.40    1.10
   0   8   2   -0.30    0.90
   0   8  -2    2.10    0.80
  -1  -8  -2    4.60    1.30
   1  -8   2    2.00    1.00
  -1  -8  -2    2.20    0.80
  -1  -8  -2    1.90    0.80
   1  -8   2    2.30    0.90
  -1   8  -2    2.40    1.00
   1   8   2    4.40    1.30
   1   8   2    2.90    1.00
  -1   8  -2    3.20    1.10
  -2  -8  -2    0.40    0.70
   2  -8   2    0.00    0.90
   2  -8   2    0.00    1.00
  -2  -8  -2    1.30    1.00
  -2  -8  -2    2.60    1.30
  -2   8  -2    0.80    0.80
  -2   8  -2    1.00    0.80
   2   8   2    1.30    0.80
   2   8   2   -1.30    1.10
   3  -8   2   -1.10    1.10
  -3  -8  -2   -1.70    1.00
  -3  -8  -2    0.70    0.70
   3  -8   2    0.90    0.80
  -3  -8  -2    0.80    1.30
   3   8   2   -1.80    1.20
  -3   8  -2    1.10    1.10
   4  -8   2    2.50    1.20
  -4  -8  -2    0.10    0.90
   4  -8   2    0.30    1.30
  -4  -8  -2    0.00    1.20
  -4  -8  -2    1.00    1.00
  -4   8  -2    3.20    1.10
   4   8   2    2.60    1.20
  -5  -8  -2    2.00    1.20
  -5  -8  -2    3.30    1.60
   5  -8   2    0.20    0.90
  -5  -8  -2    2.80    0.80
   5  -8   2    0.60    0.90
   5   8   2    1.50    1.60
  -5   8  -2    0.20    1.30
   5  -9  -2    0.90    1.60
  -5  -9   2    0.60    1.20
   5  -9  -2    0.00    1.00
  -5  -9   2   -0.50    0.80
   5   9  -2    0.00    1.10
  -5   9   2   -0.90    1.10
  -5   9   2   -0.50    1.50
   4  -9  -2   -2.10    1.30
  -4  -9   2   -0.90    1.30
   4  -9  -2    0.20    1.00
  -4  -9   2    1.30    1.20
   4  -9  -2    0.50    1.10
  -4   9   2    0.60    1.40
   4   9  -2    0.10    1.20
  -4   9   2    0.80    0.80
   3  -9  -2    1.50    1.10
   3  -9  -2    2.80    1.50
  -3  -9   2    0.90    0.80
  -3  -9   2    2.60    1.40
  -3   9   2    1.00    1.00
   3   9  -2    2.50    1.30
  -2  -9   2    2.20    1.00
   2  -9  -2    0.70    1.30
  -2  -9   2    1.30    1.20
   2  -9  -2    1.50    1.10
  -2   9   2   -0.90    1.20
   2   9  -2    0.40    1.00
   2   9  -2    1.60    1.00
  -1  -9   2    0.20    0.70
   1  -9  -2   -0.40    0.90
   1  -9  -2    1.10    1.20
  -1  -9   2    0.50    0.70
   1   9  -2   -0.30    1.10
  -1   9   2   -0.10    0.70
  -1   9   2    2.20    1.20
   0  -9  -2    2.00    1.10
   0  -9  -2    1.80    0.90
   0  -9   2    2.80    1.10
   0   9   2    3.80    1.20
   0   9   2    1.20    1.10
   0   9  -2    1.50    1.10
   1  -9   2    2.00    1.10
  -1  -9  -2    0.90    0.90
  -1  -9  -2    0.70    1.00
   1   9   2   -1.50    1.10
  -1   9  -2    0.00    1.10
  -1   9  -2    0.10    0.90
   1   9   2    0.10    0.90
  -2  -9  -2    1.40    1.50
  -2  -9  -2   -0.10    1.00
   2  -9   2    2.20    1.00
  -2   9  -2    3.10    1.30
   2   9   2    1.20    1.10
  -3  -9  -2    8.30    2.00
  -3  -9  -2    5.90    1.60
   3  -9   2    6.30    1.60
   3  -9   2    7.20    1.80
  -3   9  -2    6.80    1.40
   3   9   2    7.00    1.50
   4  -9   2    3.20    1.60
  -4  -9  -2    3.00    1.50
  -4  -9  -2    0.20    1.10
   4  -9   2    2.20    1.40
   4   9   2    2.40    1.70
  -4   9  -2   -0.20    0.90
   2 -10  -2    1.50    0.90
   2 -10  -2    1.60    1.10
  -2 -10   2    0.20    1.20
  -2 -10   2    1.30    1.10
   1 -10  -2    3.20    1.30
  -1 -10   2    3.00    1.00
   1 -10  -2    4.20    1.50
  -1 -10   2    4.50    1.30
   0 -10  -2    1.70    1.20
   0 -10   2    0.50    0.80
   0 -10   2    1.20    1.20
   0 -10  -2   -0.40    1.50
   0  10  -2    2.00    1.20
  -1 -10  -2    1.70    1.30
   1 -10   2    0.00    1.20
  -1 -10  -2   -1.50    1.40
   2 -10   2   -0.20    1.20
  -2 -10  -2    1.20    1.50
  -2 -10  -2    0.70    1.10
   2  10   2    0.10    1.40
  -2  10  -2   -0.40    1.10
 -10   0   3    5.40    1.60
  10   0  -3    6.00    1.20
  10   0  -3    4.90    1.40
  10   0  -3    5.50    1.50
   9   0  -3    2.50    0.90
   9   0  -3    3.40    1.20
  -9   0   3    2.90    1.30
   9   0  -3    2.90    1.00
   8   0  -3    3.10    0.90
  -8   0   3    1.60    0.70
   8   0  -3    1.00    0.70
   8   0  -3    1.50    0.80
  -8   0   3    1.40    1.00
  -8   0   3    0.70    0.70
  -7   0   3  177.58    4.30
  -7   0   3  176.28    4.90
  -7   0   3  182.48    4.60
   7   0  -3  175.58    4.70
   7   0  -3  168.48    4.30
   7   0  -3  177.48    4.80
   7   0  -3  171.18    5.10
  -6   0   3  349.67    7.50
   6   0  -3  357.96    7.60
   6   0  -3  351.16    8.00
  -6   0   3  339.87    7.20
  -6   0   3  361.66    7.50
   6   0  -3  362.16    7.80
  -6   0   3  358.66    7.80
   6   0  -3  350.66    7.90
   6   0  -3  342.87    7.30
  -5   0   3    6.10    0.70
  -5   0   3    7.60    0.70
  -5   0   3    8.00    0.80
   5   0  -3    6.80    0.90
   5   0  -3    7.80    0.90
   5   0  -3    5.60    0.90
  -5   0   3    7.40    0.80
   5   0  -3    8.20    1.00
  -4   0   3   25.80    1.10
   4   0  -3   24.10    1.20
  -4   0   3   26.40    1.20
   4   0  -3   23.80    1.20
   4   0  -3   26.00    1.20
  -4   0   3   24.70    1.00
  -4   0   3   26.10    1.10
   4   0  -3   23.40    0.90
   4   0  -3   24.60    1.10
   3   0  -3  228.88    5.00
   3   0  -3  235.18    4.80
  -3   0   3  235.88    4.80
  -3   0   3  229.18    4.60
  -3   0   3  224.58    5.00
   3   0  -3  229.48    4.90
  -3   0   3  228.98    4.70
   3   0  -3  229.88    4.70
  -3   0   3  231.98    4.60
   3   0  -3  228.78    4.60
  -2   0   3  767.32   14.00
   2   0  -3  782.12   14.20
   2   0  -3  778.32   14.20
  -2   0   3  780.22   14.00
   2   0  -3  778.02   14.30
  -2   0   3  780.62   13.90
   2   0  -3  788.22   14.00
  -2   0   3  758.82   14.20
   2   0  -3  765.72   14.00
  -1   0   3 1875.41   34.80
   1   0  -3 1828.92   33.80
   1   0  -3 1868.91   35.60
   1   0  -3 1894.41   34.80
  -1   0   3 1844.82   34.60
  -1   0   3 1851.71   34.60
   1   0  -3 1901.41   35.30
   0   0   3  392.86    7.40
   0   0   3  399.06    7.30
   0   0  -3  400.06    7.30
   0   0  -3  394.96    7.60
   0   0  -3  399.36    7.50
   0   0  -3  400.26    7.40
   1   0   3  925.71   17.10
  -1   0  -3  930.61   17.60
  -1   0  -3  967.50   17.90
   1   0   3  948.21   17.40
  -1   0  -3  938.71   17.10
  -1   0  -3  949.31   17.20
  -1   0  -3  941.91   17.00
   1   0   3  961.00   17.10
  -1   0  -3  919.51   17.60
  -2   0  -3   30.00    1.10
   2   0   3   29.30    1.10
  -2   0  -3   26.90    1.30
  -2   0  -3   28.90    1.20
  -2   0  -3   29.00    1.10
   2   0   3   27.50    1.10
   2   0   3   30.30    1.00
  -2   0  -3   28.30    1.20
   3   0   3  108.39    2.90
   3   0   3  105.39    2.70
  -3   0  -3  110.59    2.70
  -3   0  -3  107.19    2.80
  -3   0  -3  110.79    2.90
  -3   0  -3  112.39    3.00
   3   0   3  113.09    2.80
   3   0   3  108.09    3.00
   4   0   3  131.59    3.40
  -4   0  -3  137.19    3.50
   4   0   3  131.79    3.30
  -4   0  -3  133.19    3.20
   4   0   3  129.59    3.50
  -4   0  -3  138.59    3.70
   4   0   3  133.89    3.30
   4   0   3  128.19    3.60
  -4   0  -3  134.59    3.60
   5   0   3  207.58    5.30
  -5   0  -3  213.68    5.30
   5   0   3  201.78    5.20
   5   0   3  207.28    4.90
  -5   0  -3  198.88    5.00
   5   0   3  205.98    4.80
  -5   0  -3  204.28    5.20
  -5   0  -3  201.58    4.60
   5   0   3  202.78    4.80
  -6   0  -3   11.30    1.50
  -6   0  -3   10.60    1.50
   6   0   3   11.30    1.10
  -6   0  -3   11.70    1.00
   6   0   3    9.30    1.40
   6   0   3   13.30    1.30
   6   0   3   11.10    1.40
  -6   0  -3   10.50    1.40
   7   0   3   22.00    1.60
  -7   0  -3   25.60    2.20
   7   0   3   20.90    1.70
  -7   0  -3   21.10    2.10
   7   0   3   24.70    2.10
  -7   0  -3   28.10    2.30
   8   0   3   47.70    2.90
  -8   0  -3   47.70    2.70
  -8   0  -3   46.60    3.40
  -8   0  -3   45.80    2.80
  -9   0  -3   -0.60    1.30
  -9   0  -3    1.80    1.40
  -9   0  -3   -0.30    1.10
   9   0   3    1.10    0.90
  10  -1  -3    2.40    1.20
  10  -1  -3   -0.60    0.70
  10  -1  -3   -0.70    0.80
 -10  -1   3   -0.50    0.90
 -10   1   3    0.90    1.40
  10   1  -3    1.80    1.00
 -10   1   3   -1.30    1.30
  10   1  -3    1.10    1.20
  10   1  -3   -0.20    1.00
  -9  -1   3   35.30    2.30
  -9  -1   3   35.30    2.60
   9  -1  -3   33.80    2.40
   9  -1  -3   29.50    2.40
   9   1  -3   33.30    2.50
   9   1  -3   33.10    2.10
  -9   1   3   37.30    2.80
   9   1  -3   30.70    2.60
   8  -1  -3    1.00    1.00
   8  -1  -3    0.10    0.50
   8  -1  -3   -0.10    0.60
  -8  -1   3   -0.80    0.90
  -8  -1   3   -0.30    0.60
   8  -1  -3    0.60    0.70
  -8  -1   3    1.10    0.80
   8   1  -3    0.00    0.80
   8   1  -3   -0.20    0.70
   8   1  -3   -0.60    0.50
   8   1  -3   -0.10    0.60
  -8   1   3   -0.80    0.90
  -7  -1   3    0.50    0.80
   7  -1  -3   -0.30    0.50
   7  -1  -3   -0.20    0.80
   7  -1  -3    1.60    0.60
  -7  -1   3    1.50    0.80
   7  -1  -3   -0.50    0.70
  -7  -1   3    0.60    0.50
   7  -1  -3    0.70    0.70
  -7   1   3    0.20    0.50
  -7   1   3    0.10    0.60
   7   1  -3    0.90    0.60
   7   1  -3   -1.30    0.50
  -7   1   3    1.20    1.00
  -7   1   3   -0.40    0.40
   7   1  -3    2.10    0.90
   6  -1  -3    2.40    0.80
  -6  -1   3    3.40    0.70
   6  -1  -3    4.30    1.00
   6  -1  -3    4.00    0.90
  -6  -1   3    2.70    0.70
  -6  -1   3    2.60    0.50
   6  -1  -3    2.20    0.80
  -6  -1   3    3.70    0.80
   6   1  -3    2.80    0.70
  -6   1   3    2.50    0.80
  -6   1   3    3.90    1.00
   6   1  -3    3.40    0.80
  -6   1   3    3.90    0.80
  -6   1   3    2.80    0.60
   6   1  -3    1.70    0.40
   6   1  -3    3.40    0.90
  -5  -1   3   16.60    1.10
   5  -1  -3   16.20    1.40
  -5  -1   3   15.60    1.10
   5  -1  -3   16.70    1.20
  -5  -1   3   17.40    1.00
   5  -1  -3   15.80    1.00
  -5  -1   3   16.30    0.90
   5  -1  -3   16.40    1.30
   5   1  -3   17.20    1.10
  -5   1   3   16.90    0.80
  -5   1   3   18.00    1.20
  -5   1   3   16.20    1.30
   5   1  -3   16.30    0.80
  -5   1   3   16.20    1.10
   5   1  -3   16.80    1.20
   5   1  -3   16.10    0.90
   5   1  -3   17.00    1.00
  -4  -1   3  230.38    5.00
   4  -1  -3  223.08    5.20
  -4  -1   3  225.58    4.70
   4  -1  -3  234.58    5.10
   4  -1  -3  230.78    5.40
   4  -1  -3  234.58    5.00
  -4  -1   3  228.58    4.80
  -4  -1   3  231.18    4.90
  -4  -1   3  228.58    5.40
  -4   1   3  224.58    4.70
   4   1  -3  225.58    4.90
   4   1  -3  224.38    5.30
   4   1  -3  223.88    4.70
   4   1  -3  227.98    4.90
  -4   1   3  222.08    5.10
   4   1  -3  225.98    5.10
  -4   1   3  227.28    5.00
  -4   1   3  223.48    4.40
  -3  -1   3  920.61   16.60
  -3  -1   3  908.91   16.70
   3  -1  -3  918.71   17.00
  -3  -1   3  925.41   16.40
  -3  -1   3  903.51   16.60
   3  -1  -3  897.61   16.20
   3  -1  -3  921.31   16.70
   3  -1  -3  924.91   16.80
   3  -1  -3  890.71   16.50
   3  -1  -3  893.61   16.90
  -3   1   3  909.51   16.70
  -3   1   3  888.91   17.10
  -3   1   3  876.51   17.00
  -3   1   3  893.51   16.40
   3   1  -3  907.91   16.40
  -3   1   3  915.51   16.70
   3   1  -3  908.31   16.70
   3   1  -3  920.11   16.60
   3   1  -3  915.11   16.70
  -3   1   3  925.71   16.90
   3   1  -3  914.61   17.00
  -2  -1   3  220.68    4.40
   2  -1  -3  214.98    4.70
   2  -1  -3  219.98    4.40
  -2  -1   3  215.98    4.30
  -2  -1   3  212.68    4.40
  -2  -1   3  220.38    4.00
  -2  -1   3  208.48    4.10
   2  -1  -3  215.58    4.30
   2  -1  -3  215.38    4.50
   2   1  -3  216.48    4.50
  -2   1   3  219.38    4.50
   2   1  -3  217.58    4.20
  -2   1   3  212.18    4.70
  -2   1   3  215.48    4.00
  -2   1   3  220.28    4.30
   2   1  -3  218.08    4.20
  -2   1   3  211.48    3.90
   2   1  -3  210.98    4.00
   2   1  -3  212.98    4.60
  -2   1   3  218.48    4.50
  -1  -1   3  203.58    3.90
   1  -1  -3  202.58    4.00
   1  -1  -3  200.08    4.20
  -1  -1   3  204.98    4.10
  -1  -1   3  199.88    3.80
   1  -1  -3  200.98    3.90
   1   1  -3  204.18    4.20
  -1   1   3  196.38    4.10
  -1   1   3  200.58    4.10
   1   1  -3  199.48    4.10
  -1   1   3  201.38    3.80
   1   1  -3  204.88    3.80
   1   1  -3  199.98    3.60
   1   1  -3  204.18    3.70
  -1   1   3  194.68    3.70
   1   1  -3  200.68    4.20
   0  -1  -3  193.48    4.00
   0  -1  -3  192.38    3.90
   0  -1   3  188.98    3.60
   0  -1   3  187.78    3.80
   0  -1  -3  186.88    3.80
   0  -1  -3  185.38    3.50
   0   1  -3  186.78    3.70
   0   1  -3  184.38    3.40
   0   1   3  189.88    3.80
   0   1  -3  189.98    3.90
   0   1   3  187.38    3.40
   0   1   3  188.78    3.80
   0   1   3  193.68    3.90
   0   1  -3  189.98    3.50
   0   1  -3  190.18    3.90
   0   1   3  186.78    3.50
  -1  -1  -3   89.59    2.30
  -1  -1  -3   93.99    2.30
  -1  -1  -3   90.79    1.90
   1  -1   3   91.59    2.20
   1  -1   3   91.89    2.10
   1  -1   3   94.29    2.30
  -1  -1  -3   90.59    2.00
  -1   1  -3   90.29    2.10
  -1   1  -3   91.19    2.20
  -1   1  -3   89.39    1.70
  -1   1  -3   89.49    2.50
  -1   1  -3   89.99    1.90
  -1   1  -3   91.99    2.30
   1   1   3   90.59    2.20
   1   1   3   90.99    2.30
   1   1   3   91.99    2.10
   2  -1   3 1257.57   23.50
   2  -1   3 1299.37   23.40
   2  -1   3 1321.87   23.40
   2  -1   3 1259.47   23.40
  -2  -1  -3 1298.67   23.20
  -2  -1  -3 1258.17   23.50
   2  -1   3 1295.37   23.30
  -2  -1  -3 1322.27   23.50
  -2  -1  -3 1296.37   23.40
  -2   1  -3 1263.47   23.40
   2   1   3 1299.97   23.30
  -2   1  -3 1307.67   23.60
  -2   1  -3 1239.18   23.40
   2   1   3 1279.97   23.40
   2   1   3 1288.87   23.20
  -2   1  -3 1327.77   23.50
  -2   1  -3 1289.67   23.90
  -3  -1  -3   15.90    1.00
   3  -1   3   16.00    1.10
  -3  -1  -3   17.00    1.00
   3  -1   3   16.80    1.00
   3  -1   3   16.00    0.80
   3  -1   3   16.50    0.70
  -3  -1  -3   16.50    1.00
   3  -1   3   15.50    1.10
  -3   1  -3   15.20    0.80
   3   1   3   15.50    1.00
  -3   1  -3   15.20    1.00
  -3   1  -3   14.90    1.10
  -3   1  -3   16.70    1.10
   3   1   3   16.20    0.90
   3   1   3   18.60    1.00
   4  -1   3  124.89    3.40
  -4  -1  -3  127.29    3.30
  -4  -1  -3  126.19    3.30
   4  -1   3  122.79    3.00
   4  -1   3  128.99    3.50
   4  -1   3  121.69    3.10
  -4  -1  -3  119.29    3.50
   4  -1   3  126.89    3.60
  -4   1  -3  132.29    3.60
   4   1   3  126.59    3.50
   4   1   3  127.49    3.10
   4   1   3  124.09    3.40
  -4   1  -3  129.19    3.60
  -4   1  -3  120.59    2.90
  -4   1  -3  133.09    3.60
   5  -1   3    9.30    1.10
   5  -1   3    9.80    1.10
   5  -1   3   10.30    1.30
   5  -1   3    8.90    0.90
  -5  -1  -3   10.50    1.10
  -5  -1  -3   10.20    1.20
  -5  -1  -3    8.50    1.00
   5  -1   3    9.80    0.90
   5   1   3    9.70    1.20
   5   1   3    8.00    1.10
  -5   1  -3   10.00    1.40
  -5   1  -3    9.90    1.20
  -5   1  -3    7.40    1.20
  -5   1  -3    9.30    0.80
   5   1   3    9.80    0.90
   6  -1   3   -0.20    0.80
   6  -1   3    0.60    0.50
   6  -1   3    0.30    0.50
   6  -1   3   -0.20    0.50
   6  -1   3    1.50    0.70
  -6  -1  -3    1.20    0.70
  -6  -1  -3    1.90    1.00
  -6  -1  -3    0.00    0.60
  -6  -1  -3    0.80    0.60
   6   1   3    1.00    0.70
   6   1   3    1.00    0.40
   6   1   3    0.20    0.80
  -6   1  -3   -0.20    0.90
  -6   1  -3    1.20    1.10
  -6   1  -3    1.30    1.00
  -7  -1  -3   20.90    1.80
  -7  -1  -3   21.30    2.10
   7  -1   3   18.10    1.80
  -7  -1  -3   20.80    1.90
  -7  -1  -3   17.60    1.40
   7  -1   3   19.90    2.00
   7  -1   3   25.50    1.80
   7  -1   3   19.00    1.60
  -7   1  -3   21.20    2.10
  -7   1  -3   20.50    2.30
   7   1   3   18.50    1.70
  -7   1  -3   20.80    2.10
   7   1   3   21.90    2.00
   7   1   3   19.80    1.40
   8  -1   3    0.30    0.80
  -8  -1  -3    0.00    0.90
  -8  -1  -3   -0.60    0.80
  -8  -1  -3    0.30    1.20
   8  -1   3    0.80    0.80
   8   1   3    0.30    1.10
  -8   1  -3   -0.70    1.10
  -8   1  -3    1.00    1.20
   8   1   3    0.60    0.90
  -8   1  -3    0.70    0.90
  -9  -1  -3    2.30    1.40
  -9  -1  -3    0.40    1.70
  -9  -1  -3   -0.80    1.30
   9  -1   3    0.10    1.30
  -9   1  -3    1.80    1.80
   9   1   3    0.20    1.20
  -9   1  -3    0.90    1.30
  -9   1  -3    4.80    1.60
  10  -2  -3    9.50    1.80
 -10  -2   3   10.20    1.90
 -10  -2   3   12.50    1.70
  10  -2  -3   13.70    1.70
  10  -2  -3   11.60    1.70
 -10   2   3   11.40    1.90
  10   2  -3   15.20    1.80
  10   2  -3   15.30    2.20
 -10   2   3   16.80    2.30
  -9  -2   3   -0.60    0.60
   9  -2  -3   -0.90    1.10
  -9  -2   3   -0.70    0.70
   9  -2  -3    0.80    1.00
  -9  -2   3    0.90    0.80
   9   2  -3    0.90    1.10
   9   2  -3    0.10    0.70
  -9   2   3   -0.70    0.80
   9   2  -3    0.40    1.00
  -9   2   3   -0.40    1.20
  -8  -2   3    5.30    1.10
   8  -2  -3    4.90    1.20
   8  -2  -3    5.70    1.40
   8  -2  -3    5.20    1.00
  -8  -2   3    8.50    1.40
   8  -2  -3    7.80    1.50
  -8  -2   3    6.20    1.30
   8   2  -3    5.60    1.00
   8   2  -3    8.20    1.30
   8   2  -3    5.50    1.00
  -8   2   3    7.00    1.40
  -8   2   3    7.80    1.30
  -8   2   3    7.60    1.20
   8   2  -3    5.90    1.10
   7  -2  -3   34.00    1.90
   7  -2  -3   38.90    2.40
   7  -2  -3   36.00    2.10
   7  -2  -3   35.80    1.90
  -7  -2   3   35.80    2.00
  -7  -2   3   38.70    2.10
  -7  -2   3   39.40    2.10
   7  -2  -3   36.80    2.30
   7   2  -3   37.90    2.00
  -7   2   3   38.70    2.20
   7   2  -3   35.10    2.20
   7   2  -3   37.90    2.10
   7   2  -3   34.80    1.70
  -7   2   3   36.80    2.20
   6  -2  -3  121.29    3.60
   6  -2  -3  124.19    3.90
   6  -2  -3  119.09    3.90
  -6  -2   3  120.59    3.40
  -6  -2   3  122.39    3.70
   6  -2  -3  123.99    3.60
  -6  -2   3  124.99    3.40
  -6   2   3  127.69    3.60
   6   2  -3  123.99    3.70
   6   2  -3  124.69    3.60
   6   2  -3  122.69    3.30
   6   2  -3  123.39    3.70
  -6   2   3  120.19    3.90
  -5  -2   3   81.49    2.50
   5  -2  -3   82.09    2.60
   5  -2  -3   81.89    2.60
  -5  -2   3   84.89    2.80
   5  -2  -3   80.89    2.80
  -5  -2   3   85.39    2.50
   5  -2  -3   83.69    3.00
   5   2  -3   85.99    2.30
  -5   2   3   86.29    2.50
  -5   2   3   84.59    2.90
  -5   2   3   83.69    1.90
   5   2  -3   83.49    2.50
   5   2  -3   85.89    2.70
  -5   2   3   84.69    2.90
   5   2  -3   85.79    2.80
   5   2  -3   85.69    2.70
  -4  -2   3  186.88    3.80
   4  -2  -3  192.78    4.90
  -4  -2   3  197.58    4.40
   4  -2  -3  189.08    4.40
   4  -2  -3  191.28    4.70
  -4  -2   3  186.88    4.40
   4  -2  -3  198.38    4.40
  -4  -2   3  191.38    4.30
  -4   2   3  193.68    4.60
   4   2  -3  192.48    4.40
   4   2  -3  190.68    4.50
   4   2  -3  191.48    4.30
  -4   2   3  190.18    4.70
   4   2  -3  181.18    3.60
  -4   2   3  198.48    4.30
   4   2  -3  192.78    4.00
  -3  -2   3  597.94   11.00
   3  -2  -3  579.14   11.50
   3  -2  -3  581.14   11.10
   3  -2  -3  576.94   11.50
  -3  -2   3  571.44   11.00
   3  -2  -3  586.34   11.10
  -3  -2   3  590.24   11.10
   3  -2  -3  573.94   10.70
   3   2  -3  586.94   11.30
  -3   2   3  586.24   11.20
  -3   2   3  571.54   11.10
  -3   2   3  589.04   11.40
   3   2  -3  594.44   10.90
  -3   2   3  573.44   10.80
   3   2  -3  585.74   10.90
   3   2  -3  568.34   10.50
  -2  -2   3    5.30    0.60
  -2  -2   3    4.90    0.40
  -2  -2   3    5.20    0.60
   2  -2  -3    4.50    0.70
  -2  -2   3    5.00    0.30
   2  -2  -3    5.20    0.40
   2  -2  -3    4.80    0.60
   2  -2  -3    6.20    0.70
   2   2  -3    5.00    0.70
   2   2  -3    5.00    0.40
  -2   2   3    4.60    0.50
   2   2  -3    5.60    0.60
  -2   2   3    5.40    0.70
  -2   2   3    5.50    0.70
  -1  -2   3    1.50    0.40
  -1  -2   3    0.30    0.10
   1  -2  -3    0.10    0.10
  -1  -2   3    0.30    0.10
   1  -2  -3    0.30    0.50
   1  -2  -3   -0.20    0.30
  -1  -2   3   -0.10    0.20
   1  -2  -3    0.00    0.10
  -1   2   3   -0.10    0.20
   1   2  -3    0.10    0.30
  -1   2   3   -0.80    0.30
   1   2  -3    0.10    0.30
  -1   2   3    0.30    0.30
   1   2  -3    0.30    0.20
   0  -2   3   10.90    0.70
   0  -2  -3   12.70    0.80
   0  -2  -3   11.50    0.30
   0  -2  -3   11.20    0.80
   0  -2  -3   11.80    0.40
   0  -2   3   12.10    0.60
   0  -2  -3   11.70    0.70
   0  -2   3   11.80    0.40
   0   2  -3   12.10    0.40
   0   2   3   12.50    0.80
   0   2  -3   11.30    0.80
   0   2   3   12.00    0.90
   0   2  -3   12.70    0.80
   0   2  -3   11.00    0.60
   0   2  -3   12.20    0.40
   0   2   3   13.00    0.70
  -1  -2  -3   15.00    0.60
   1  -2   3   16.10    0.80
   1  -2   3   14.90    0.40
  -1  -2  -3   14.70    0.80
   1  -2   3   14.50    0.70
  -1  -2  -3   17.40    1.00
   1  -2   3   14.20    0.40
   1  -2   3   15.30    1.00
   1   2   3   16.30    0.90
  -1   2  -3   15.30    0.80
  -1   2  -3   14.80    0.80
  -1   2  -3   14.80    0.70
   1   2   3   13.50    0.80
   1   2   3   17.40    1.00
  -1   2  -3   14.00    1.00
  -1   2  -3   15.00    0.40
  -2  -2  -3  225.18    5.00
   2  -2   3  219.78    4.00
   2  -2   3  226.18    5.00
   2  -2   3  225.78    4.80
   2  -2   3  215.08    4.30
   2  -2   3  228.18    4.90
  -2  -2  -3  223.18    4.90
  -2  -2  -3  220.58    4.50
   2   2   3  228.38    5.00
   2   2   3  224.28    4.60
  -2   2  -3  221.98    5.20
  -2   2  -3  224.58    4.60
  -2   2  -3  228.08    5.00
   2   2   3  216.58    4.10
  -2   2  -3  223.88    4.90
   3  -2   3   24.00    0.80
   3  -2   3   21.40    1.20
   3  -2   3   22.90    1.40
  -3  -2  -3   23.60    1.10
   3  -2   3   22.40    0.90
   3  -2   3   22.20    1.20
  -3  -2  -3   23.70    1.40
  -3  -2  -3   24.10    1.40
  -3   2  -3   23.20    1.30
  -3   2  -3   25.20    1.50
   3   2   3   23.80    1.00
   3   2   3   22.70    1.30
   3   2   3   27.00    1.40
  -3   2  -3   24.10    1.00
  -4  -2  -3  251.47    5.50
   4  -2   3  253.67    5.30
   4  -2   3  247.68    5.90
  -4  -2  -3  253.27    5.80
   4  -2   3  250.37    5.90
   4  -2   3  242.88    5.00
  -4  -2  -3  259.27    5.90
   4  -2   3  243.18    5.90
   4   2   3  248.18    5.80
  -4   2  -3  247.38    6.00
  -4   2  -3  241.98    5.90
   4   2   3  251.97    5.80
   4   2   3  243.08    5.20
   5  -2   3   57.09    2.50
  -5  -2  -3   53.59    2.50
   5  -2   3   55.29    2.40
  -5  -2  -3   56.19    2.20
  -5  -2  -3   59.29    2.30
   5  -2   3   54.79    1.80
   5  -2   3   53.79    2.50
   5  -2   3   57.59    2.00
  -5   2  -3   59.49    2.60
   5   2   3   59.09    2.40
   5   2   3   51.09    2.20
   5   2   3   54.29    1.90
  -5   2  -3   54.69    2.40
   6  -2   3    5.30    1.20
  -6  -2  -3    6.10    1.30
   6  -2   3    6.20    1.00
  -6  -2  -3    6.90    1.20
   6  -2   3    5.90    1.00
  -6  -2  -3    6.60    1.10
   6  -2   3    8.40    1.00
   6   2   3    7.50    1.30
  -6   2  -3    6.20    1.40
   6   2   3    6.20    0.80
   6   2   3    7.20    1.20
  -6   2  -3    6.10    1.20
   7  -2   3    4.70    1.10
  -7  -2  -3    5.00    1.40
  -7  -2  -3    4.60    1.10
   7  -2   3    4.60    1.00
  -7  -2  -3    5.30    1.10
   7  -2   3    3.60    1.10
   7  -2   3    4.90    1.00
  -7   2  -3    6.10    1.40
   7   2   3    3.10    0.90
  -7   2  -3    4.60    1.20
   7   2   3    4.10    1.00
  -8  -2  -3   43.60    2.70
   8  -2   3   46.30    3.10
   8  -2   3   45.40    2.30
   8  -2   3   46.20    2.40
  -8  -2  -3   49.20    2.90
  -8  -2  -3   49.80    3.20
  -8   2  -3   49.90    3.10
   8   2   3   44.70    2.90
  -8   2  -3   47.00    3.30
   8   2   3   46.80    2.80
   9  -2   3   -0.10    1.20
  -9  -2  -3   -0.30    1.20
  -9  -2  -3   -1.40    1.40
   9  -2   3    0.20    0.90
  -9  -2  -3    0.60    1.40
   9   2   3   -0.30    1.10
  -9   2  -3    0.00    1.40
   9   2   3   -1.90    1.00
  10  -3  -3    1.00    1.20
 -10  -3   3    1.50    1.30
 -10  -3   3    0.20    1.00
  10  -3  -3    3.00    1.50
  10   3  -3    1.90    1.20
 -10   3   3   -1.00    1.50
  -9  -3   3   13.80    1.70
   9  -3  -3   11.20    1.60
  -9  -3   3   15.90    1.90
  -9  -3   3   15.10    1.90
   9  -3  -3   17.30    1.90
   9  -3  -3   15.60    2.10
   9   3  -3   12.80    2.00
  -9   3   3   14.00    2.10
  -9   3   3   16.80    2.20
  -9   3   3   12.40    1.90
   8  -3  -3    8.10    1.60
  -8  -3   3    8.90    1.30
   8  -3  -3   10.50    1.50
  -8  -3   3    8.90    1.40
  -8  -3   3    9.30    1.30
   8  -3  -3    7.10    1.30
  -8   3   3    9.50    1.70
  -8   3   3   11.20    1.50
   8   3  -3   12.40    1.60
   8   3  -3    9.60    1.50
  -8   3   3   11.40    1.60
  -7  -3   3    3.80    0.80
   7  -3  -3    3.40    0.90
  -7  -3   3    3.50    1.10
   7  -3  -3    3.50    0.80
   7  -3  -3    4.70    1.10
   7  -3  -3    3.60    1.20
   7  -3  -3    3.60    1.00
  -7  -3   3    5.10    0.90
   7   3  -3    3.70    0.70
   7   3  -3    5.30    1.10
   7   3  -3    4.10    1.20
  -7   3   3    4.50    1.20
  -7   3   3    5.80    1.20
  -7   3   3    4.20    1.20
   6  -3  -3   63.89    2.90
  -6  -3   3   63.59    2.30
   6  -3  -3   62.99    2.50
   6  -3  -3   59.79    2.20
  -6  -3   3   64.99    2.80
   6  -3  -3   66.79    3.00
  -6  -3   3   69.99    2.60
  -6   3   3   62.99    2.60
   6   3  -3   64.99    2.10
  -6   3   3   64.69    2.60
  -6   3   3   62.99    2.90
   6   3  -3   63.69    2.40
   6   3  -3   63.39    2.60
   5  -3  -3   82.59    3.20
  -5  -3   3   86.29    2.60
  -5  -3   3   85.89    3.00
  -5  -3   3   89.09    2.80
   5  -3  -3   92.79    3.30
   5  -3  -3   84.09    2.60
   5  -3  -3   88.29    2.80
  -5   3   3   87.19    3.20
   5   3  -3   85.69    2.90
  -5   3   3   89.69    2.90
   5   3  -3   84.29    2.90
   5   3  -3   87.79    2.60
  -5   3   3   86.19    2.70
   5   3  -3   87.79    2.40
   4  -3  -3  152.68    3.90
   4  -3  -3  154.38    3.80
   4  -3  -3  160.28    4.30
  -4  -3   3  157.58    3.90
  -4  -3   3  160.38    3.70
  -4  -3   3  147.79    3.00
   4  -3  -3  148.59    4.30
   4   3  -3  152.08    4.00
  -4   3   3  152.88    3.90
   4   3  -3  156.78    4.20
  -4   3   3  154.98    4.40
   4   3  -3  154.78    3.70
   4   3  -3  150.38    3.30
  -4   3   3  155.08    4.10
   3  -3  -3   11.00    0.60
  -3  -3   3   14.50    1.10
  -3  -3   3   10.50    0.70
  -3  -3   3   14.20    0.90
   3  -3  -3   15.80    1.10
   3  -3  -3   13.00    1.00
   3  -3  -3   11.20    0.30
   3  -3  -3   13.10    1.10
   3   3  -3   13.70    1.00
  -3   3   3   13.50    1.10
  -3   3   3   15.00    1.00
  -3   3   3   11.50    0.90
   3   3  -3   14.70    1.10
  -2  -3   3  222.38    4.40
  -2  -3   3  212.18    4.00
   2  -3  -3  214.08    4.10
   2  -3  -3  222.28    4.90
  -2  -3   3  222.98    4.70
  -2  -3   3  223.48    4.20
   2  -3  -3  223.28    4.50
  -2  -3   3  211.88    4.00
   2  -3  -3  221.58    4.80
   2  -3  -3  230.78    5.40
   2   3  -3  213.98    5.00
  -2   3   3  217.38    5.00
  -2   3   3  223.38    5.10
  -2   3   3  226.28    4.60
   2   3  -3  218.08    4.70
  -1  -3   3  138.69    3.00
   1  -3  -3  137.19    2.90
   1  -3  -3  137.59    3.50
   1  -3  -3  142.49    3.20
  -1  -3   3  137.79    2.80
  -1  -3   3  133.89    3.30
   1   3  -3  137.59    3.10
  -1   3   3  136.99    3.40
   1   3  -3  137.59    3.40
   1   3  -3  138.29    3.50
  -1   3   3  137.89    3.40
  -1   3   3  138.49    2.90
   0  -3   3  228.98    4.80
   0  -3   3  223.18    4.40
   0  -3  -3  221.98    4.30
   0  -3   3  227.78    4.60
   0  -3  -3  231.38    5.00
   0  -3  -3  217.48    4.70
   0   3  -3  219.18    4.40
   0   3   3  229.38    4.90
   0   3   3  230.08    5.00
   0   3  -3  229.08    5.00
   0   3   3  225.88    4.90
   0   3  -3  232.18    5.10
   1  -3   3   85.59    2.50
   1  -3   3   85.09    1.80
  -1  -3  -3   88.19    2.00
  -1  -3  -3   88.89    1.70
   1  -3   3   87.79    2.30
  -1  -3  -3   92.19    2.50
  -1  -3  -3   94.49    2.70
   1  -3   3   89.99    2.20
   1   3   3   87.09    2.40
  -1   3  -3   90.69    2.50
  -1   3  -3   91.29    2.70
   1   3   3   87.89    2.30
   1   3   3   89.89    2.60
  -1   3  -3   86.99    2.30
   2  -3   3  236.48    4.70
  -2  -3  -3  232.98    4.40
   2  -3   3  249.08    5.60
  -2  -3  -3  253.07    5.60
   2  -3   3  236.98    4.30
   2  -3   3  248.78    5.30
  -2  -3  -3  240.98    5.40
   2  -3   3  244.48    5.40
  -2  -3  -3  243.48    4.90
   2   3   3  242.08    5.20
  -2   3  -3  235.28    5.30
   2   3   3  246.98    5.50
   2   3   3  242.58    4.90
  -2   3  -3  244.28    5.20
  -2   3  -3  252.27    5.70
   3  -3   3  202.58    4.90
   3  -3   3  203.48    4.90
  -3  -3  -3  199.98    4.90
  -3  -3  -3  189.68    4.30
   3  -3   3  192.68    4.60
  -3  -3  -3  199.78    4.90
   3  -3   3  193.88    4.10
   3   3   3  195.08    4.80
   3   3   3  193.38    4.00
  -3   3  -3  194.78    4.90
  -3   3  -3  189.18    4.40
   3   3   3  197.88    4.50
   3   3   3  195.98    4.30
  -4  -3  -3  205.78    5.20
  -4  -3  -3  207.88    4.80
   4  -3   3  200.38    4.40
  -4  -3  -3  205.88    5.30
   4  -3   3  207.58    5.30
   4  -3   3  207.88    5.30
   4  -3   3  197.98    4.10
   4  -3   3  207.58    5.20
  -4   3  -3  202.98    5.40
   4   3   3  203.48    5.20
   4   3   3  204.28    4.60
   4   3   3  204.88    5.20
   4   3   3  196.58    4.10
  -4   3  -3  208.18    5.40
   5  -3   3    0.00    0.80
   5  -3   3    1.10    0.50
   5  -3   3    0.60    0.90
  -5  -3  -3    0.50    0.50
  -5  -3  -3    0.50    0.70
   5  -3   3    0.90    0.80
  -5  -3  -3    0.80    0.60
   5   3   3    0.90    0.40
  -5   3  -3    0.80    0.90
   5   3   3    1.80    0.70
   5   3   3    2.30    0.90
  -5   3  -3   -0.10    0.90
  -6  -3  -3   11.40    1.50
   6  -3   3   10.00    1.40
   6  -3   3   10.70    1.30
  -6  -3  -3   10.70    1.20
  -6  -3  -3   14.10    1.60
   6  -3   3   10.40    1.10
   6  -3   3   11.50    1.50
   6   3   3    9.20    1.40
  -6   3  -3   11.00    1.70
  -6   3  -3   10.00    1.50
   6   3   3   13.60    1.60
  -7  -3  -3   20.50    1.80
   7  -3   3   18.40    1.90
   7  -3   3   19.60    1.90
  -7  -3  -3   18.50    1.80
   7  -3   3   19.90    2.00
   7  -3   3   20.10    1.60
  -7  -3  -3   18.80    1.90
   7   3   3   22.10    2.10
  -7   3  -3   21.90    2.20
   7   3   3   18.70    1.90
  -7   3  -3   17.60    2.20
   8  -3   3    1.50    1.10
   8  -3   3    1.10    1.00
  -8  -3  -3    0.50    1.00
  -8  -3  -3   -0.60    0.90
  -8  -3  -3    1.50    1.20
   8   3   3    0.70    1.30
  -8   3  -3    0.80    1.10
   8   3   3    1.00    0.80
   9  -4  -3    2.90    1.20
   9  -4  -3    1.10    1.40
   9  -4  -3    1.60    1.10
  -9  -4   3    2.10    1.00
  -9  -4   3    0.30    1.00
  -9  -4   3    0.90    1.30
  -9   4   3    1.50    1.30
  -9   4   3    0.00    1.40
   9   4  -3    1.40    1.00
   8  -4  -3   -0.20    1.20
   8  -4  -3    1.00    0.80
  -8  -4   3   -1.60    0.90
   8  -4  -3    1.70    0.80
  -8  -4   3    0.10    1.10
  -8  -4   3   -0.60    0.60
  -8   4   3   -0.60    0.80
   8   4  -3    0.30    0.90
  -8   4   3    1.50    1.30
   7  -4  -3   24.40    2.00
  -7  -4   3   21.40    1.80
   7  -4  -3   22.60    2.20
   7  -4  -3   21.90    2.20
  -7  -4   3   20.60    1.50
   7  -4  -3   19.20    2.00
  -7  -4   3   22.60    1.70
   7   4  -3   22.70    2.00
  -7   4   3   24.80    2.30
  -7   4   3   25.00    2.40
   6  -4  -3   28.70    1.60
   6  -4  -3   31.40    2.00
  -6  -4   3   30.70    2.20
   6  -4  -3   30.40    2.30
  -6  -4   3   30.40    1.80
   6  -4  -3   30.60    2.30
  -6  -4   3   31.60    1.90
   6   4  -3   29.70    2.10
  -6   4   3   30.50    2.20
  -6   4   3   28.20    2.30
   5  -4  -3   22.70    1.40
  -5  -4   3   22.20    2.00
   5  -4  -3   20.50    1.80
  -5  -4   3   21.00    1.20
   5  -4  -3   20.30    1.50
   5  -4  -3   22.90    1.90
  -5  -4   3   21.30    1.50
   5   4  -3   21.50    1.70
  -5   4   3   23.60    1.70
  -5   4   3   23.20    1.70
   5   4  -3   22.60    1.80
  -4  -4   3   87.89    2.80
  -4  -4   3   84.99    2.50
   4  -4  -3   83.39    2.70
   4  -4  -3   87.89    2.60
   4  -4  -3   76.39    2.00
   4  -4  -3   90.99    3.30
   4  -4  -3   86.29    3.20
   4   4  -3   90.39    3.10
  -4   4   3   79.99    2.70
  -4   4   3   89.09    3.30
  -4   4   3   82.19    3.00
   4   4  -3   83.29    2.80
   3  -4  -3  237.88    5.40
  -3  -4   3  240.58    5.50
   3  -4  -3  230.48    4.80
  -3  -4   3  231.68    5.10
  -3  -4   3  240.18    5.30
   3  -4  -3  245.18    5.40
   3  -4  -3  254.77    6.20
   3  -4  -3  231.38    4.40
  -3  -4   3  226.38    4.30
  -3   4   3  246.18    5.70
  -3   4   3  241.48    5.40
   3   4  -3  246.68    5.60
   3   4  -3  246.68    5.90
  -3   4   3  236.78    5.90
   2  -4  -3   -0.10    0.30
  -2  -4   3   -0.30    0.20
   2  -4  -3   -0.20    0.60
   2  -4  -3    0.20    0.20
   2  -4  -3    0.20    0.50
  -2  -4   3    0.10    0.20
  -2  -4   3    0.50    0.50
   2  -4  -3    0.70    0.60
  -2   4   3    0.60    0.30
   2   4  -3    0.40    0.30
   2   4  -3    0.00    0.40
  -2   4   3    0.30    0.40
  -2   4   3    0.20    0.40
   1  -4  -3   12.20    0.80
  -1  -4   3   11.40    0.70
  -1  -4   3   12.10    0.70
  -1  -4   3   11.40    1.00
   1  -4  -3   12.00    1.20
   1  -4  -3   13.30    1.00
  -1  -4   3   13.10    0.80
   1   4  -3   13.30    1.20
  -1   4   3   12.60    0.70
  -1   4   3   11.10    1.10
  -1   4   3   13.80    1.20
   1   4  -3   14.80    0.90
   1   4  -3   12.40    1.10
   0  -4   3    1.00    0.30
   0  -4  -3    1.00    0.40
   0  -4  -3    1.90    0.30
   0  -4  -3    1.80    0.60
   0  -4   3    1.80    0.40
   0  -4   3    1.40    0.50
   0   4  -3    0.50    0.40
   0   4  -3    0.60    0.50
   0   4   3    1.10    0.60
   0   4   3    1.10    0.40
   0   4  -3    1.30    0.30
   0   4   3    0.60    0.50
   1  -4   3    3.00    0.30
   1  -4   3    2.40    0.60
  -1  -4  -3    3.10    0.40
   1  -4   3    3.50    0.50
   1  -4   3    3.90    0.60
  -1  -4  -3    3.20    0.30
  -1  -4  -3    3.50    0.80
  -1  -4  -3    3.80    0.70
   1   4   3    3.90    0.60
  -1   4  -3    2.70    0.60
   1   4   3    2.90    0.60
  -1   4  -3    3.30    0.60
   1   4   3    3.70    0.70
   2  -4   3   92.89    3.00
  -2  -4  -3   91.39    2.40
   2  -4   3   88.89    2.10
  -2  -4  -3   94.79    3.00
   2  -4   3   97.69    2.90
   2  -4   3   97.69    2.70
  -2  -4  -3   99.49    3.20
  -2   4  -3   93.29    3.10
   2   4   3   89.89    2.90
  -2   4  -3   87.69    2.60
  -2   4  -3  102.79    3.20
   2   4   3   94.89    2.80
   2   4   3   92.49    2.50
   3  -4   3   15.30    0.80
   3  -4   3   15.70    1.40
   3  -4   3   16.20    1.30
  -3  -4  -3   16.30    1.10
   3  -4   3   13.20    1.40
  -3  -4  -3   14.20    1.40
  -3  -4  -3   14.60    0.70
  -3  -4  -3   15.90    1.40
  -3   4  -3   13.50    1.10
   3   4   3   13.50    1.40
   3   4   3   16.90    1.30
  -3   4  -3   14.90    1.50
   3   4   3   15.80    0.80
  -4  -4  -3  101.49    2.90
   4  -4   3  107.99    3.70
  -4  -4  -3  102.49    3.60
   4  -4   3   98.69    3.40
  -4  -4  -3  100.69    3.60
   4  -4   3  102.89    3.40
   4  -4   3   96.79    2.60
  -4   4  -3  100.89    3.50
   4   4   3  105.79    3.10
  -4   4  -3  102.09    2.90
   4   4   3   98.99    3.50
  -5  -4  -3   42.20    2.10
   5  -4   3   42.70    2.30
   5  -4   3   41.20    2.30
  -5  -4  -3   38.60    2.40
  -5  -4  -3   44.80    2.50
   5  -4   3   39.10    2.50
   5  -4   3   40.60    1.70
   5   4   3   40.00    2.40
   5   4   3   39.90    1.90
  -5   4  -3   39.30    2.60
  -6  -4  -3    0.90    0.70
   6  -4   3   -0.40    0.90
   6  -4   3   -1.00    0.80
   6  -4   3    0.10    0.50
   6  -4   3    1.60    1.10
  -6  -4  -3    0.90    1.00
  -6  -4  -3    0.60    1.10
   6   4   3    0.40    0.70
  -6   4  -3   -0.90    1.10
   6   4   3    0.50    1.00
  -7  -4  -3   -0.20    0.70
   7  -4   3    1.10    1.10
  -7  -4  -3    1.60    1.30
  -7  -4  -3   -0.40    1.00
   7  -4   3    0.10    1.10
   7   4   3    1.10    0.80
   7   4   3    0.80    1.20
  -7   4  -3   -1.90    1.20
   8  -4   3   24.20    2.30
  -8  -4  -3   32.80    3.00
  -8  -4  -3   24.60    2.40
   8  -4   3   31.20    2.90
  -8  -4  -3   25.60    2.10
   8   4   3   24.70    2.50
  -8   4  -3   31.60    3.00
  -9  -5   3   11.50    1.90
   9  -5  -3   12.00    1.60
  -9  -5   3   16.70    2.00
   9  -5  -3   14.70    2.40
   9  -5  -3   17.00    2.10
   9   5  -3   11.50    2.10
  -9   5   3   12.50    2.00
   8  -5  -3    0.70    1.00
  -8  -5   3   -0.10    0.80
   8  -5  -3    1.00    1.00
  -8  -5   3   -0.50    0.90
   8  -5  -3    0.10    1.00
  -8  -5   3    1.30    1.20
  -8   5   3   -1.20    0.80
   8   5  -3   -1.90    0.70
  -8   5   3    0.50    1.20
  -7  -5   3    3.80    1.30
  -7  -5   3    2.30    0.90
   7  -5  -3    2.90    1.30
   7  -5  -3    2.50    1.10
  -7  -5   3    2.30    0.90
   7  -5  -3    2.20    0.80
  -7   5   3    3.00    1.40
  -7   5   3    3.60    1.40
   7   5  -3    2.20    1.30
  -6  -5   3    2.00    0.70
  -6  -5   3    2.60    1.20
   6  -5  -3    2.60    1.20
   6  -5  -3    2.70    0.90
  -6  -5   3    2.90    1.00
   6  -5  -3    3.40    1.30
  -6   5   3    2.80    1.00
  -6   5   3    3.70    1.00
   6   5  -3    1.60    0.90
   5  -5  -3    6.20    1.40
   5  -5  -3    6.80    0.90
   5  -5  -3    4.80    1.30
  -5  -5   3    5.90    1.00
  -5  -5   3    5.60    1.10
   5  -5  -3    5.90    1.10
  -5  -5   3    5.50    1.20
  -5   5   3    5.00    1.10
   5   5  -3    7.00    1.20
   5   5  -3    4.30    1.00
  -5   5   3    6.10    1.20
   4  -5  -3   72.99    3.10
  -4  -5   3   68.49    2.60
   4  -5  -3   72.59    2.50
   4  -5  -3   67.79    3.00
  -4  -5   3   66.79    2.30
   4  -5  -3   69.49    2.40
   4   5  -3   64.59    2.90
  -4   5   3   68.69    3.00
  -4   5   3   65.79    2.60
   4   5  -3   65.39    2.70
   3  -5  -3  107.79    2.70
   3  -5  -3  110.89    3.80
  -3  -5   3  105.79    3.30
  -3  -5   3  109.89    3.10
   3  -5  -3  110.09    3.30
   3  -5  -3  112.69    3.30
  -3   5   3  114.49    3.60
  -3   5   3  107.69    3.20
   3   5  -3  110.09    3.70
  -3   5   3  106.89    3.70
   3   5  -3  111.49    3.40
   2  -5  -3    0.20    0.40
   2  -5  -3   -1.20    0.50
   2  -5  -3    0.30    0.80
   2  -5  -3   -0.50    0.70
  -2  -5   3   -0.10    0.30
  -2  -5   3   -0.50    0.50
   2  -5  -3    0.10    0.30
  -2   5   3    0.80    0.60
   2   5  -3    0.50    0.50
  -2   5   3    0.40    0.40
  -2   5   3    0.20    0.70
   2   5  -3   -0.40    0.70
  -1  -5   3    6.90    0.70
   1  -5  -3    5.90    0.70
   1  -5  -3    7.20    1.00
  -1  -5   3    7.30    0.80
  -1  -5   3    7.20    0.90
   1  -5  -3    6.50    0.80
  -1  -5   3    7.70    0.80
  -1   5   3    7.60    1.10
   1   5  -3    4.40    1.00
  -1   5   3    5.20    0.60
   1   5  -3    6.70    0.80
  -1   5   3    6.10    1.00
   0  -5  -3    7.20    0.60
   0  -5   3    7.70    0.70
   0  -5   3    9.30    0.90
   0  -5   3    8.70    1.00
   0  -5  -3    7.90    0.90
   0  -5  -3    7.80    0.90
   0   5  -3    8.40    1.10
   0   5   3    8.90    1.10
   0   5   3    7.40    0.90
   0   5   3    7.80    1.10
   0   5  -3    8.00    0.70
   0   5  -3    8.00    1.10
  -1  -5  -3   10.40    1.10
   1  -5   3    9.50    1.00
  -1  -5  -3    9.50    0.60
  -1  -5  -3    9.20    1.20
  -1  -5  -3    9.00    0.70
   1  -5   3    9.30    0.90
   1  -5   3    8.60    0.60
   1  -5   3    8.50    1.10
  -1   5  -3    9.80    1.20
  -1   5  -3    9.70    1.00
   1   5   3    9.00    1.00
   1   5   3    9.00    1.20
   1   5   3   10.90    1.10
  -2  -5  -3   71.29    2.60
   2  -5   3   75.39    2.90
  -2  -5  -3   68.89    2.10
   2  -5   3   70.69    2.40
  -2  -5  -3   74.19    2.90
   2  -5   3   70.49    2.60
  -2   5  -3   71.49    2.90
   2   5   3   69.79    2.50
  -2   5  -3   69.79    2.50
   2   5   3   69.69    2.70
   2   5   3   70.79    2.20
   3  -5   3    6.50    0.60
   3  -5   3    5.60    0.90
  -3  -5  -3    5.50    1.20
   3  -5   3    7.20    1.20
  -3  -5  -3    6.70    0.80
  -3  -5  -3    8.20    1.10
   3  -5   3    6.80    1.20
   3   5   3    7.10    1.00
  -3   5  -3    6.20    0.90
   3   5   3    5.20    1.20
  -3   5  -3    5.30    1.20
  -4  -5  -3   40.70    1.90
  -4  -5  -3   37.60    2.20
   4  -5   3   37.40    1.90
   4  -5   3   39.90    2.40
  -4  -5  -3   38.50    2.20
   4  -5   3   35.90    1.50
   4  -5   3   37.60    2.40
   4   5   3   36.80    2.40
  -4   5  -3   37.00    1.80
  -4   5  -3   40.00    2.30
   4   5   3   42.40    2.00
  -5  -5  -3    1.30    0.80
  -5  -5  -3    0.20    1.00
  -5  -5  -3   -0.40    0.70
   5  -5   3    0.30    0.70
   5  -5   3   -1.10    0.60
   5  -5   3   -0.50    0.80
  -5   5  -3    0.60    1.10
   5   5   3   -1.50    0.90
   5   5   3   -0.80    0.60
  -6  -5  -3    0.20    1.10
   6  -5   3   -0.40    0.70
   6  -5   3   -0.40    1.10
   6  -5   3    1.00    0.90
  -6  -5  -3    1.50    1.00
  -6  -5  -3   -0.30    0.80
  -6   5  -3    1.60    1.40
   6   5   3    0.70    0.90
   6   5   3    1.30    0.80
   7  -5   3    8.60    1.80
  -7  -5  -3    6.70    1.20
   7  -5   3    4.30    1.50
  -7  -5  -3    7.00    1.50
  -7  -5  -3    5.00    1.60
   7   5   3    6.30    1.40
  -7   5  -3    2.80    1.30
  -8  -5  -3   -0.90    1.50
  -8  -5  -3    2.70    1.40
   8  -5   3   -2.10    1.20
   8  -5   3    1.30    1.40
  -8  -5  -3   -1.70    1.10
  -8   5  -3    0.90    1.20
   8   5   3   -0.50    1.10
  -8  -6   3    1.20    1.20
   8  -6  -3   -0.60    1.40
   8  -6  -3    1.00    1.00
   8  -6  -3    1.80    1.10
  -8  -6   3   -0.40    0.90
  -8   6   3    0.00    1.00
   8   6  -3    0.80    1.50
  -8   6   3    0.40    1.00
  -7  -6   3   30.10    2.50
   7  -6  -3   32.90    2.90
   7  -6  -3   31.50    2.10
  -7  -6   3   31.90    2.20
  -7  -6   3   32.30    2.10
   7  -6  -3   30.20    2.90
  -7   6   3   30.40    3.10
   7   6  -3   35.30    3.00
  -7   6   3   32.30    2.70
   6  -6  -3   42.30    2.80
  -6  -6   3   43.30    2.70
  -6  -6   3   50.79    3.20
   6  -6  -3   43.40    2.60
  -6  -6   3   43.10    2.00
   6  -6  -3   41.00    3.00
  -6   6   3   47.20    3.20
  -6   6   3   42.10    2.80
   6   6  -3   42.10    2.90
   5  -6  -3    3.90    0.80
   5  -6  -3    4.30    0.90
   5  -6  -3    2.80    1.30
   5  -6  -3    2.20    1.00
  -5  -6   3    3.70    1.10
  -5  -6   3    4.40    0.80
  -5  -6   3    4.50    1.40
   5   6  -3    4.00    1.00
  -5   6   3    4.10    1.40
  -5   6   3    5.50    1.30
   5   6  -3    4.80    1.10
   4  -6  -3    0.60    0.90
   4  -6  -3    0.30    1.00
   4  -6  -3    0.30    0.80
   4  -6  -3    1.90    0.70
  -4  -6   3    0.20    0.80
  -4  -6   3    1.40    0.60
   4   6  -3    1.20    0.70
   4   6  -3    1.20    0.90
  -4   6   3    1.70    0.90
  -4   6   3    0.90    0.80
   3  -6  -3    4.90    1.00
   3  -6  -3    8.20    1.20
   3  -6  -3    6.20    0.70
  -3  -6   3    9.40    1.10
  -3  -6   3    8.00    1.00
   3  -6  -3    6.90    1.40
   3   6  -3   11.60    1.50
  -3   6   3    5.00    0.80
  -3   6   3    6.50    1.10
   3   6  -3    8.80    1.20
  -3   6   3   11.20    1.60
  -2  -6   3   14.80    1.40
  -2  -6   3   14.70    1.10
   2  -6  -3   15.80    1.50
   2  -6  -3   14.90    1.10
   2  -6  -3   13.40    1.40
   2  -6  -3   18.90    2.00
  -2  -6   3   17.20    1.60
   2   6  -3   15.60    1.60
  -2   6   3   17.80    1.70
   2   6  -3   18.20    1.50
  -2   6   3   15.90    1.30
  -2   6   3   17.50    1.80
  -1  -6   3   34.50    1.60
  -1  -6   3   33.70    1.80
  -1  -6   3   34.90    1.60
  -1  -6   3   36.80    1.70
   1  -6  -3   37.70    1.90
   1  -6  -3   36.20    2.20
   1  -6  -3   34.60    1.60
   1  -6  -3   38.20    2.50
   1   6  -3   36.20    2.20
  -1   6   3   33.30    1.90
   1   6  -3   35.40    1.70
  -1   6   3   35.40    2.20
   0  -6  -3   16.20    1.50
   0  -6   3   20.00    1.50
   0  -6  -3   14.40    1.00
   0  -6  -3   16.70    1.20
   0  -6   3   16.30    1.20
   0  -6   3   15.50    1.10
   0   6  -3   16.80    1.60
   0   6   3   16.00    1.50
   0   6   3   13.30    1.30
   0   6  -3   16.10    1.10
   0   6   3   13.20    1.40
   0   6  -3   18.50    1.50
  -1  -6  -3    9.20    0.90
   1  -6   3   11.60    1.30
   1  -6   3   11.40    1.20
  -1  -6  -3   12.00    1.30
   1  -6   3   10.90    0.80
  -1  -6  -3   13.10    1.60
   1  -6   3    9.80    1.00
  -1   6  -3   11.30    1.30
   1   6   3    9.80    1.20
   1   6   3   10.90    1.20
  -1   6  -3   10.30    1.30
   1   6   3   10.30    1.20
  -2  -6  -3    1.00    0.80
   2  -6   3   -0.50    0.70
  -2  -6  -3   -0.60    0.90
   2  -6   3    0.90    0.60
   2  -6   3    0.70    0.90
  -2  -6  -3   -0.10    0.30
   2   6   3   -0.10    0.70
  -2   6  -3    0.00    0.70
  -2   6  -3    0.60    0.70
   2   6   3   -0.30    0.40
   2   6   3    0.20    0.70
  -3  -6  -3   10.10    1.50
  -3  -6  -3    9.40    1.40
   3  -6   3    9.40    1.40
   3  -6   3    7.10    1.10
   3  -6   3    8.60    1.30
  -3  -6  -3    6.10    0.80
   3   6   3    5.80    1.10
  -3   6  -3   10.00    1.50
   3   6   3    8.30    1.40
  -3   6  -3    5.60    1.00
  -4  -6  -3    1.90    0.80
   4  -6   3    1.00    1.10
   4  -6   3    1.50    0.80
  -4  -6  -3    1.00    1.10
  -4  -6  -3    0.70    1.00
   4  -6   3    2.10    1.10
   4   6   3    2.10    1.10
   4   6   3    1.20    0.80
  -4   6  -3    1.30    0.80
   5  -6   3   39.70    2.50
  -5  -6  -3   45.90    3.10
  -5  -6  -3   48.80    3.10
  -5  -6  -3   47.50    2.30
   5  -6   3   41.10    2.60
   5  -6   3   44.60    3.10
   5   6   3   49.00    3.20
   5   6   3   44.40    2.30
  -5   6  -3   42.30    3.00
  -6  -6  -3    3.20    1.50
  -6  -6  -3   -0.90    1.20
  -6  -6  -3    1.70    1.00
   6  -6   3    1.10    1.30
   6  -6   3    0.10    1.30
   6  -6   3    0.80    1.20
   6   6   3   -0.70    0.90
  -6   6  -3    0.50    1.30
  -7  -6  -3    2.90    1.60
  -7  -6  -3    1.70    0.90
   7  -6   3    1.60    1.10
   7  -6   3    2.60    1.50
  -7  -6  -3    3.90    1.30
   7   6   3    4.00    1.40
  -7   6  -3    0.10    1.10
   7  -7  -3   -1.00    0.90
   7  -7  -3   -1.30    1.40
  -7  -7   3    1.00    1.10
  -7  -7   3    0.30    1.20
   7  -7  -3   -2.00    1.00
   7   7  -3   -0.60    1.30
  -7   7   3    1.30    1.40
  -7   7   3   -0.20    1.00
  -6  -7   3    3.90    1.00
  -6  -7   3    3.50    1.30
   6  -7  -3    3.10    1.30
   6  -7  -3    4.10    1.30
  -6  -7   3    1.90    1.20
  -6   7   3    2.90    1.30
  -6   7   3    2.30    1.70
   6   7  -3    2.20    1.10
  -5  -7   3    1.10    1.00
  -5  -7   3   -0.10    1.00
  -5  -7   3    0.90    0.80
   5  -7  -3    0.00    1.00
   5  -7  -3   -0.10    1.20
   5   7  -3    0.50    1.10
  -5   7   3    0.50    0.70
  -5   7   3   -0.20    1.30
   5   7  -3    0.10    0.90
  -4  -7   3    6.80    1.10
  -4  -7   3    8.10    1.40
   4  -7  -3    5.10    1.50
   4  -7  -3    6.80    1.10
   4  -7  -3    6.40    1.30
   4  -7  -3    8.30    1.30
   4   7  -3    6.80    1.10
  -4   7   3    7.00    1.40
  -4   7   3    6.70    1.20
   4   7  -3    7.50    1.50
  -3  -7   3   42.00    2.50
   3  -7  -3   41.20    2.30
   3  -7  -3   36.10    2.10
  -3  -7   3   36.60    2.00
   3  -7  -3   35.30    2.70
   3  -7  -3   35.50    2.50
   3   7  -3   37.80    2.60
  -3   7   3   38.00    2.60
   3   7  -3   35.10    2.30
  -3   7   3   31.60    2.40
  -2  -7   3    4.10    1.10
   2  -7  -3    3.20    0.90
  -2  -7   3    4.60    0.90
   2  -7  -3    3.40    0.70
   2  -7  -3    3.30    1.30
   2  -7  -3    5.10    1.10
  -2   7   3    4.40    1.20
   2   7  -3    3.20    1.00
   2   7  -3    2.30    1.00
  -2   7   3    1.80    0.90
  -2   7   3    4.50    0.90
  -1  -7   3    1.30    0.70
  -1  -7   3    0.30    0.80
   1  -7  -3    0.40    0.60
   1  -7  -3    0.10    0.60
   1  -7  -3    0.80    0.80
   1  -7  -3    0.70    0.80
   1  -7  -3    0.90    0.60
   1   7  -3    0.90    1.00
  -1   7   3   -0.40    0.80
  -1   7   3    0.50    0.90
  -1   7   3    0.90    0.60
   1   7  -3    0.30    0.70
   0  -7  -3    6.70    0.80
   0  -7  -3    6.40    1.10
   0  -7   3    6.00    0.90
   0  -7  -3    6.70    1.30
   0  -7  -3    5.50    1.40
   0  -7   3    5.90    1.10
   0   7   3    6.20    1.10
   0   7  -3    6.90    0.90
   0   7  -3    7.00    1.20
   0   7  -3    7.40    1.30
   0   7   3    5.60    1.10
   0   7   3    8.50    1.30
  -1  -7  -3    6.30    1.10
  -1  -7  -3    4.30    1.20
   1  -7   3    6.00    1.10
   1  -7   3    7.50    1.30
  -1  -7  -3    4.90    0.80
   1   7   3    7.60    1.30
   1   7   3    6.70    1.10
  -1   7  -3    5.90    1.10
   1   7   3    5.80    1.30
  -1   7  -3    6.80    1.20
  -2  -7  -3   27.00    2.10
  -2  -7  -3   26.40    1.50
   2  -7   3   32.00    2.40
   2  -7   3   25.30    1.90
  -2  -7  -3   29.60    2.10
   2   7   3   26.10    2.10
  -2   7  -3   22.80    2.00
   2   7   3   27.40    1.80
  -2   7  -3   23.80    1.80
   3  -7   3   -0.20    1.00
   3  -7   3    0.10    0.60
  -3  -7  -3   -0.80    0.60
  -3  -7  -3   -0.30    0.70
  -3  -7  -3   -0.10    0.70
   3   7   3   -0.80    0.70
   3   7   3    2.00    1.30
  -3   7  -3    0.20    0.70
  -4  -7  -3   17.30    2.10
   4  -7   3   19.20    2.10
  -4  -7  -3   13.20    1.40
   4  -7   3   20.20    2.30
  -4  -7  -3   18.00    1.90
   4   7   3   19.50    2.10
  -4   7  -3   17.00    1.90
   4   7   3   17.10    1.60
  -5  -7  -3    4.60    1.20
  -5  -7  -3    1.70    0.70
   5  -7   3    3.30    1.50
   5  -7   3    2.80    1.40
  -5  -7  -3    1.10    1.40
   5   7   3    1.60    1.10
  -5   7  -3    1.30    1.40
   6  -7   3    1.80    1.50
  -6  -7  -3    0.10    1.00
  -6  -7  -3    0.70    1.10
   6  -7   3   -0.60    1.30
  -6  -7  -3    1.50    1.60
   6   7   3    0.40    1.50
  -6   7  -3   -1.40    1.30
  -6  -8   3   14.10    1.90
  -6  -8   3   12.00    2.20
   6  -8  -3    9.00    1.60
   6  -8  -3   12.00    2.20
   6  -8  -3   11.60    2.30
  -6   8   3   11.90    1.80
   6   8  -3   14.30    2.10
  -6   8   3   13.40    2.10
  -5  -8   3    8.40    1.70
   5  -8  -3   10.90    2.10
  -5  -8   3    6.60    1.30
  -5  -8   3    4.70    1.10
   5  -8  -3    8.00    1.50
  -5   8   3    6.70    1.90
   5   8  -3    7.10    1.40
  -5   8   3    6.90    1.20
   4  -8  -3    2.00    1.40
  -4  -8   3    0.50    0.80
   4  -8  -3   -0.40    1.00
  -4  -8   3    0.10    1.10
  -4  -8   3    4.40    1.50
  -4   8   3    4.00    1.60
   4   8  -3    1.00    1.10
   4   8  -3    1.00    1.30
  -4   8   3   -0.10    0.80
   3  -8  -3    0.60    0.80
   3  -8  -3    1.10    0.90
  -3  -8   3   -0.70    1.00
   3  -8  -3    0.20    1.10
  -3  -8   3   -0.90    0.80
   3  -8  -3   -1.30    1.00
  -3   8   3   -1.00    0.60
   3   8  -3   -0.50    0.60
  -3   8   3    0.00    1.10
   3   8  -3    0.10    1.10
   2  -8  -3    1.10    1.00
  -2  -8   3    0.40    0.90
   2  -8  -3    0.00    0.80
  -2  -8   3    0.90    1.00
   2  -8  -3   -0.80    1.00
   2   8  -3    0.10    0.90
  -2   8   3    0.70    0.90
  -2   8   3   -0.10    1.00
   2   8  -3    1.20    1.20
   1  -8  -3    0.50    0.80
   1  -8  -3    0.80    0.90
  -1  -8   3    2.10    1.00
   1  -8  -3    1.30    0.70
   1   8  -3    0.40    0.70
   1   8  -3   -0.20    0.70
  -1   8   3    0.20    0.90
  -1   8   3    0.20    0.90
   0  -8  -3    2.50    1.00
   0  -8  -3    0.40    1.00
   0  -8   3    1.40    1.00
   0  -8  -3    1.40    0.80
   0  -8   3    1.60    0.80
   0  -8  -3    1.70    1.40
   0   8   3    1.00    1.10
   0   8  -3    1.80    1.10
   0   8   3    1.10    0.70
   1  -8   3    0.20    0.90
  -1  -8  -3   -0.70    0.70
  -1  -8  -3   -0.20    1.10
   1   8   3    0.20    0.70
  -1   8  -3   -2.20    0.70
  -1   8  -3   -1.20    0.90
   1   8   3    0.70    1.20
   2  -8   3    2.20    1.00
   2  -8   3    2.00    1.20
  -2  -8  -3   -0.10    0.90
  -2  -8  -3    2.70    1.20
  -2   8  -3    0.50    0.80
  -2   8  -3    0.50    1.10
   2   8   3    2.00    1.00
   2   8   3    1.60    0.90
   3  -8   3    1.20    1.00
  -3  -8  -3   -1.10    1.00
   3  -8   3    0.60    1.00
  -3  -8  -3    1.10    1.00
   3   8   3   -1.80    1.20
  -3   8  -3    1.50    1.20
   4  -8   3    0.20    1.00
  -4  -8  -3    1.80    1.00
   4  -8   3    0.90    1.20
  -4  -8  -3   -0.50    1.40
  -4   8  -3    2.40    1.40
   4   8   3   -1.30    1.40
   5  -8   3   12.10    2.20
   5  -8   3   11.40    1.90
  -5  -8  -3    7.40    1.60
  -5  -8  -3   11.40    1.90
  -5   8  -3   10.90    1.80
   5   8   3    7.80    1.70
   5  -9  -3    1.60    1.80
  -5  -9   3    3.40    1.40
  -5  -9   3    2.50    1.40
   5  -9  -3    1.50    1.20
   5   9  -3    3.10    1.50
  -5   9   3    1.40    1.70
  -4  -9   3    3.10    1.70
   4  -9  -3    1.60    1.60
   4  -9  -3    2.80    1.30
  -4  -9   3    1.00    0.90
   4   9  -3    2.30    1.00
  -4   9   3    1.60    1.50
  -3  -9   3    4.40    1.20
   3  -9  -3    6.10    1.80
   3  -9  -3    4.90    1.30
  -3  -9   3    5.70    1.50
   3   9  -3    4.10    1.30
  -3   9   3    3.00    1.30
   3   9  -3    3.90    1.60
   2  -9  -3    0.30    1.10
   2  -9  -3    1.00    1.10
  -2  -9   3    0.70    0.80
  -2  -9   3   -0.40    1.10
  -2   9   3    0.90    1.30
  -2   9   3    0.80    1.20
   2   9  -3    0.20    1.10
  -1  -9   3   -0.70    0.70
   1  -9  -3    0.70    1.10
  -1  -9   3   -1.30    1.10
   1  -9  -3   -0.70    1.20
  -1   9   3    0.90    1.10
  -1   9   3   -0.30    1.10
   1   9  -3    1.40    1.30
   0  -9  -3    0.10    1.10
   0  -9   3   -1.00    0.90
   0  -9  -3    0.80    1.10
   0   9  -3   -1.20    1.00
   0   9   3   -0.40    0.90
   1  -9   3    0.30    1.10
  -1  -9  -3    0.40    1.30
  -1  -9  -3    0.20    1.50
  -1  -9  -3    0.10    0.90
  -1   9  -3   -0.60    1.10
   1   9   3    0.40    1.20
   1   9   3   -0.30    0.90
  -1   9  -3    0.50    1.00
  -2  -9  -3    2.50    1.30
  -2  -9  -3    5.40    1.40
   2  -9   3    3.90    1.50
   2   9   3    4.70    1.30
  -2   9  -3    4.20    1.50
   3  -9   3   -0.10    0.80
  -3  -9  -3   -0.70    1.00
  -3  -9  -3   -0.10    0.90
  -3   9  -3    1.10    1.30
   3   9   3    0.90    1.10
  -4  -9  -3    8.60    2.20
   4  -9   3    2.60    1.20
  -4  -9  -3    6.60    1.70
  -4   9  -3    7.00    1.80
   4   9   3    7.20    2.00
  -2 -10   3    0.80    0.90
   2 -10  -3    0.40    0.90
  -2 -10   3   -0.50    1.10
   2 -10  -3    0.40    1.40
   2  10  -3    0.30    1.00
  -2  10   3   -1.30    1.10
   1 -10  -3    2.80    1.30
   1 -10  -3    2.30    1.50
  -1 -10   3    0.20    1.30
  -1 -10   3    1.40    1.20
   1  10  -3    0.70    1.00
   0 -10   3    3.00    1.30
   0 -10  -3    0.10    1.30
   0 -10  -3   -0.70    1.50
   0  10  -3   -0.50    1.20
   0  10   3   -0.20    0.80
   1 -10   3    1.80    1.30
  -1 -10  -3   -0.50    1.70
  -1 -10  -3   -0.20    0.90
 -10   0   4   26.70    2.50
  10   0  -4   26.00    2.20
  10   0  -4   27.70    2.20
  10   0  -4   23.70    2.40
  -9   0   4    6.00    1.50
  -9   0   4    4.30    1.30
   9   0  -4    7.50    1.40
   9   0  -4    3.60    1.10
   8   0  -4    0.20    0.90
   8   0  -4    1.40    1.00
   8   0  -4    0.50    0.80
  -8   0   4    0.60    0.80
  -8   0   4    0.90    0.70
  -7   0   4   12.70    1.10
   7   0  -4   10.50    1.00
  -7   0   4   13.20    1.20
  -7   0   4   14.80    1.60
   7   0  -4   11.20    1.30
  -7   0   4   14.70    1.30
   7   0  -4   12.70    1.30
   7   0  -4   12.10    1.40
  -6   0   4   11.20    1.00
  -6   0   4   10.40    0.90
   6   0  -4   11.90    1.20
   6   0  -4    8.70    1.20
   6   0  -4   12.50    1.40
   6   0  -4   13.00    1.20
  -6   0   4    9.60    0.90
  -6   0   4   10.50    1.10
   5   0  -4   54.59    2.00
  -5   0   4   56.69    1.80
   5   0  -4   57.89    2.20
   5   0  -4   54.59    2.10
  -5   0   4   59.69    2.00
   5   0  -4   55.89    2.00
  -5   0   4   59.89    2.00
   5   0  -4   54.29    1.70
  -5   0   4   52.49    1.70
   4   0  -4   29.80    1.10
  -4   0   4   29.70    1.30
   4   0  -4   30.40    1.30
   4   0  -4   30.10    1.30
   4   0  -4   30.20    1.40
   4   0  -4   30.80    1.40
  -4   0   4   30.80    1.30
  -4   0   4   30.40    1.20
  -4   0   4   28.70    1.10
   3   0  -4  438.76    8.30
   3   0  -4  425.86    8.40
   3   0  -4  423.16    8.50
   3   0  -4  427.16    8.20
   3   0  -4  422.56    8.20
  -3   0   4  435.96    8.10
  -3   0   4  431.76    8.10
  -3   0   4  420.56    8.50
  -3   0   4  434.86    8.30
  -3   0   4  414.46    8.20
   2   0  -4 2903.11   54.69
  -2   0   4 2816.62   53.29
   2   0  -4 2816.12   52.59
   2   0  -4 2905.81   53.39
  -2   0   4 2899.11   53.09
   2   0  -4 2942.71   53.69
   2   0  -4 2900.51   54.69
  -2   0   4 2864.51   52.89
   1   0  -4  336.97    6.30
   1   0  -4  338.57    6.60
  -1   0   4  328.57    6.30
   1   0  -4  329.67    6.50
  -1   0   4  330.77    6.30
  -1   0   4  330.07    6.40
   0   0   4 1806.32   33.90
   0   0  -4 1865.11   34.40
   0   0  -4 1799.72   34.10
   0   0  -4 1810.52   34.40
   0   0   4 1776.92   34.00
   0   0  -4 1854.21   34.70
  -1   0  -4  801.12   14.50
  -1   0  -4  786.32   14.50
  -1   0  -4  779.02   14.60
   1   0   4  803.52   14.70
   1   0   4  796.22   14.70
  -1   0  -4  812.82   14.90
   1   0   4  797.12   14.40
  -1   0  -4  786.92   14.70
   2   0   4  151.78    3.50
  -2   0  -4  147.39    3.30
  -2   0  -4  154.58    3.50
  -2   0  -4  155.08    3.50
  -2   0  -4  155.08    3.60
   2   0   4  154.38    3.60
  -2   0  -4  149.99    3.70
  -2   0  -4  145.19    3.50
   2   0   4  148.59    3.30
  -3   0  -4   79.79    2.50
  -3   0  -4   81.89    2.30
   3   0   4   77.29    2.50
  -3   0  -4   81.59    2.60
  -3   0  -4   81.99    2.40
   3   0   4   83.89    2.40
   3   0   4   78.49    2.20
  -4   0  -4   45.60    1.70
   4   0   4   43.10    1.60
   4   0   4   43.60    2.00
  -4   0  -4   45.90    2.00
  -4   0  -4   43.60    2.00
   4   0   4   43.30    1.80
  -4   0  -4   45.30    1.90
  -5   0  -4  225.28    5.50
   5   0   4  217.68    5.60
  -5   0  -4  216.48    5.00
  -5   0  -4  227.58    5.80
  -5   0  -4  211.48    5.50
   5   0   4  211.28    5.10
   5   0   4  221.08    5.20
  -6   0  -4   32.00    2.10
   6   0   4   31.20    2.10
  -6   0  -4   32.50    2.40
   6   0   4   31.40    1.70
  -6   0  -4   28.80    1.40
   6   0   4   33.80    1.80
  -6   0  -4   30.70    2.10
  -7   0  -4   22.50    2.10
   7   0   4   21.60    2.00
   7   0   4   20.10    1.60
  -7   0  -4   17.90    1.90
  -7   0  -4   15.50    2.10
  -8   0  -4    3.00    1.70
  -8   0  -4    2.70    1.60
  -8   0  -4    3.00    1.30
   8   0   4    2.00    1.30
  -9   0  -4   11.00    2.40
   9   0   4    7.50    1.80
  -9   0  -4    6.50    1.80
  -9   0  -4    7.70    1.90
 -10  -1   4    4.00    1.20
  10  -1  -4    8.90    1.70
 -10  -1   4    5.70    1.40
  10  -1  -4    3.40    1.20
  10  -1  -4    3.10    1.30
 -10   1   4    7.40    1.70
  10   1  -4    7.20    1.70
  10   1  -4    3.70    1.50
   9  -1  -4   26.80    2.00
   9  -1  -4   27.90    2.30
  -9  -1   4   25.40    2.20
  -9  -1   4   22.50    2.20
   9   1  -4   25.10    1.90
   9   1  -4   25.00    2.40
   9   1  -4   27.50    2.20
  -9   1   4   25.00    2.20
  -8  -1   4   14.70    1.50
   8  -1  -4   12.90    1.70
  -8  -1   4   15.20    1.70
   8  -1  -4   12.00    1.30
   8  -1  -4   13.50    1.50
  -8  -1   4   13.30    1.30
   8  -1  -4   14.80    1.60
  -8   1   4   13.80    1.60
   8   1  -4   15.10    1.40
  -8   1   4   18.40    1.90
   8   1  -4   15.80    1.70
   8   1  -4   14.30    1.50
  -8   1   4   15.20    1.60
   8   1  -4   18.70    1.80
   7  -1  -4   54.29    2.50
   7  -1  -4   50.19    2.50
  -7  -1   4   51.79    2.10
  -7  -1   4   54.09    2.50
   7  -1  -4   57.19    2.80
   7  -1  -4   52.69    2.40
   7  -1  -4   52.49    2.20
  -7  -1   4   53.59    2.20
   7   1  -4   56.69    2.50
   7   1  -4   54.79    2.40
   7   1  -4   56.09    2.20
  -7   1   4   55.59    2.50
  -7   1   4   53.99    2.40
  -7   1   4   52.39    2.30
   6  -1  -4  375.76    8.50
  -6  -1   4  401.66    8.20
  -6  -1   4  389.26    8.30
  -6  -1   4  384.96    8.20
   6  -1  -4  388.96    8.30
   6  -1  -4  407.36    8.90
   6  -1  -4  383.76    8.50
  -6   1   4  385.76    8.10
  -6   1   4  381.76    8.50
   6   1  -4  371.76    7.50
   6   1  -4  402.16    8.30
   6   1  -4  394.86    8.60
  -6   1   4  398.06    8.60
   6   1  -4  389.26    8.10
   6   1  -4  383.56    8.00
   5  -1  -4    0.70    0.60
  -5  -1   4    0.10    0.50
   5  -1  -4    0.30    0.40
  -5  -1   4    1.00    0.50
  -5  -1   4    0.00    0.30
   5  -1  -4    0.70    0.60
  -5  -1   4    0.40    0.40
   5  -1  -4    0.20    0.60
   5   1  -4    0.10    0.40
   5   1  -4    0.00    0.40
  -5   1   4    0.50    0.40
  -5   1   4    0.50    0.30
  -5   1   4    1.00    0.60
   5   1  -4   -0.10    0.50
   5   1  -4    0.70    0.70
   5   1  -4    0.30    0.40
  -5   1   4    0.40    0.30
   4  -1  -4  101.79    2.30
  -4  -1   4  105.09    2.60
   4  -1  -4  103.29    3.00
   4  -1  -4  100.89    2.90
   4  -1  -4  103.39    3.10
  -4  -1   4  104.69    2.70
   4  -1  -4  105.09    2.80
  -4  -1   4  101.89    2.90
  -4  -1   4  112.49    2.80
   4   1  -4  106.69    2.80
  -4   1   4  106.19    2.70
  -4   1   4   99.89    2.20
   4   1  -4  106.59    2.80
  -4   1   4  104.19    2.80
   4   1  -4  104.39    2.50
  -4   1   4  105.39    2.50
  -4   1   4  103.19    2.90
   4   1  -4  104.89    2.70
   4   1  -4  105.89    3.10
   3  -1  -4  175.58    3.90
  -3  -1   4  181.08    3.90
   3  -1  -4  181.58    4.00
  -3  -1   4  179.38    3.90
  -3  -1   4  179.28    3.50
   3  -1  -4  180.88    3.60
  -3  -1   4  179.78    4.00
   3  -1  -4  186.78    4.20
   3  -1  -4  183.48    4.30
   3   1  -4  181.38    3.80
  -3   1   4  171.58    3.50
  -3   1   4  177.68    3.90
   3   1  -4  179.28    4.30
  -3   1   4  181.68    4.00
   3   1  -4  175.98    3.60
   3   1  -4  180.48    3.90
  -3   1   4  180.38    4.30
  -3   1   4  177.18    3.60
  -3   1   4  182.38    4.20
   3   1  -4  181.18    4.00
  -2  -1   4  136.09    3.10
  -2  -1   4  138.79    3.00
   2  -1  -4  145.39    3.50
  -2  -1   4  143.29    3.10
   2  -1  -4  140.49    3.10
   2  -1  -4  138.29    3.10
  -2  -1   4  137.99    2.90
  -2  -1   4  138.39    2.80
   2  -1  -4  144.19    3.40
  -2   1   4  137.99    2.70
   2   1  -4  144.49    2.90
  -2   1   4  143.99    3.30
   2   1  -4  139.49    3.30
   2   1  -4  139.49    3.30
  -2   1   4  139.49    3.20
   2   1  -4  139.89    3.50
  -2   1   4  137.99    3.00
   2   1  -4  139.29    2.90
  -1  -1   4  499.45    9.20
   1  -1  -4  493.95    9.30
   1  -1  -4  483.35    9.20
   1  -1  -4  510.85    9.50
  -1  -1   4  498.95    9.30
  -1   1   4  490.75    9.00
   1   1  -4  501.75    8.90
  -1   1   4  498.05    9.30
   1   1  -4  494.85    9.60
   1   1  -4  494.25    9.40
   1   1  -4  492.35    8.90
  -1   1   4  465.65    8.90
   1   1  -4  494.05    9.40
   0  -1  -4   24.40    1.10
   0  -1  -4   25.90    1.10
   0  -1  -4   26.40    1.20
   0  -1   4   26.60    0.90
   0  -1   4   26.90    1.00
   0   1   4   25.30    0.70
   0   1  -4   27.30    1.40
   0   1  -4   27.10    1.20
   0   1   4   26.90    1.10
   0   1  -4   25.90    0.90
   0   1  -4   25.40    1.00
   0   1  -4   26.30    0.80
   0   1   4   25.70    1.00
   0   1   4   25.50    0.60
  -1  -1  -4  264.87    5.60
  -1  -1  -4  266.47    5.10
   1  -1   4  268.67    5.40
  -1  -1  -4  266.07    5.60
  -1  -1  -4  270.47    5.50
   1  -1   4  273.27    5.50
  -1  -1  -4  267.27    5.30
  -1   1  -4  262.27    5.30
  -1   1  -4  263.97    4.90
   1   1   4  266.97    5.40
   1   1   4  264.97    4.90
  -1   1  -4  272.17    5.50
  -1   1  -4  265.17    5.80
   1   1   4  266.47    5.40
  -1   1  -4  268.57    5.50
  -1   1  -4  265.17    5.10
  -2  -1  -4   21.10    1.00
  -2  -1  -4   20.00    1.00
   2  -1   4   20.40    0.70
   2  -1   4   21.50    1.10
   2  -1   4   20.80    1.00
  -2  -1  -4   21.40    1.20
  -2  -1  -4   20.90    0.90
   2  -1   4   21.30    1.20
  -2   1  -4   21.10    1.40
  -2   1  -4   19.60    0.70
  -2   1  -4   20.30    1.00
  -2   1  -4   21.60    1.10
  -2   1  -4   20.90    1.10
   2   1   4   21.60    1.20
   2   1   4   19.80    1.00
   2   1   4   21.50    1.00
  -3  -1  -4  182.98    4.10
  -3  -1  -4  187.18    4.50
  -3  -1  -4  187.48    4.30
   3  -1   4  180.38    4.30
  -3  -1  -4  179.88    4.20
   3  -1   4  188.98    3.80
   3  -1   4  185.08    4.50
   3  -1   4  179.88    4.40
   3   1   4  184.08    4.40
  -3   1  -4  182.58    4.10
  -3   1  -4  178.78    4.40
   3   1   4  182.88    4.20
   3   1   4  180.38    4.20
  -3   1  -4  176.68    3.70
  -3   1  -4  187.28    4.70
   4  -1   4    9.60    1.10
  -4  -1  -4    8.90    0.90
   4  -1   4    8.80    0.70
  -4  -1  -4    8.80    1.00
  -4  -1  -4    9.50    1.20
   4  -1   4    8.60    1.00
  -4  -1  -4    8.50    1.00
   4  -1   4    7.80    0.90
  -4   1  -4    8.50    1.10
  -4   1  -4    8.00    1.10
   4   1   4    8.20    1.00
   4   1   4    9.90    0.90
  -4   1  -4   10.00    1.30
  -4   1  -4    8.90    0.80
   4   1   4    7.60    0.90
  -5  -1  -4   29.70    1.70
  -5  -1  -4   28.90    1.50
   5  -1   4   26.50    1.90
   5  -1   4   27.00    1.30
  -5  -1  -4   28.00    2.00
  -5  -1  -4   30.00    2.00
   5  -1   4   29.30    1.80
   5  -1   4   29.60    1.90
  -5   1  -4   27.60    1.30
   5   1   4   28.40    1.70
   5   1   4   30.90    1.60
  -5   1  -4   35.10    2.20
  -5   1  -4   31.50    2.20
  -5   1  -4   33.90    2.00
   5   1   4   32.00    1.90
   6  -1   4    5.40    1.00
  -6  -1  -4    3.10    1.20
  -6  -1  -4    6.30    1.00
   6  -1   4    2.90    1.10
  -6  -1  -4    4.50    0.90
   6  -1   4    4.60    1.10
  -6  -1  -4    2.90    1.20
  -6   1  -4    3.90    1.20
  -6   1  -4    4.40    1.10
   6   1   4    6.20    1.20
   6   1   4    4.90    0.70
   6   1   4    4.90    1.00
  -6   1  -4    6.20    1.50
  -7  -1  -4   -1.30    0.70
  -7  -1  -4    0.90    0.80
   7  -1   4    0.30    0.50
   7  -1   4    0.00    1.00
  -7  -1  -4    2.30    1.30
  -7   1  -4    0.60    1.10
   7   1   4    1.70    0.90
   7   1   4    1.00    0.50
  -7   1  -4    1.90    1.20
   7   1   4    0.20    0.70
  -7   1  -4   -1.40    1.00
  -8  -1  -4   15.90    2.00
  -8  -1  -4   17.30    2.30
   8  -1   4   15.70    1.90
   8  -1   4   13.40    1.50
  -8  -1  -4   14.70    1.90
  -8   1  -4   17.80    2.10
   8   1   4   15.20    1.80
  -8   1  -4   15.40    2.10
 -10  -2   4   16.90    2.10
  10  -2  -4   15.30    1.90
  10  -2  -4   11.90    1.90
 -10  -2   4   13.80    2.00
  10   2  -4   13.50    1.70
 -10   2   4   15.40    2.10
  10   2  -4   11.80    1.80
 -10   2   4   13.10    1.90
  -9  -2   4    1.30    0.80
  -9  -2   4    0.10    1.10
   9  -2  -4    0.80    1.20
   9  -2  -4    2.90    0.90
  -9  -2   4    0.50    1.00
  -9   2   4    0.50    1.10
   9   2  -4    0.60    1.10
  -9   2   4   -0.30    1.20
   9   2  -4   -0.10    1.20
   8  -2  -4    8.60    1.20
  -8  -2   4    8.50    1.20
   8  -2  -4   12.70    1.50
  -8  -2   4    9.40    1.30
   8  -2  -4    8.50    1.30
   8  -2  -4   10.10    1.50
   8  -2  -4   10.80    1.50
  -8  -2   4   10.80    1.40
  -8   2   4    9.70    1.40
   8   2  -4   12.90    1.40
   8   2  -4   12.00    1.70
   8   2  -4   11.00    1.30
  -8   2   4   11.40    1.50
   8   2  -4   11.70    1.20
   7  -2  -4    0.90    1.00
  -7  -2   4    1.60    0.90
   7  -2  -4    0.90    0.90
   7  -2  -4    2.10    0.70
  -7  -2   4    0.50    0.60
   7  -2  -4    2.10    0.70
  -7  -2   4    1.10    0.60
   7   2  -4    3.10    0.90
   7   2  -4    2.60    0.70
   7   2  -4    2.00    0.80
  -7   2   4    1.50    0.70
  -7   2   4    2.20    0.90
   7   2  -4    1.00    0.90
  -6  -2   4   17.30    1.20
   6  -2  -4   18.30    1.60
   6  -2  -4   21.10    1.70
  -6  -2   4   18.20    1.40
   6  -2  -4   18.40    1.50
  -6  -2   4   19.90    1.50
   6  -2  -4   18.40    1.50
   6   2  -4   17.50    1.10
  -6   2   4   16.00    1.50
   6   2  -4   20.40    1.50
   6   2  -4   17.90    1.40
  -6   2   4   24.10    1.80
   6   2  -4   17.10    1.20
  -6   2   4   17.00    1.40
   5  -2  -4   30.20    1.80
   5  -2  -4   33.80    1.70
   5  -2  -4   34.40    1.90
  -5  -2   4   34.70    1.50
  -5  -2   4   32.90    1.50
  -5  -2   4   33.10    1.70
   5  -2  -4   30.80    1.60
  -5  -2   4   30.80    1.10
   5   2  -4   32.70    1.60
  -5   2   4   32.90    1.80
   5   2  -4   31.70    1.20
  -5   2   4   34.00    1.80
   5   2  -4   31.00    1.40
   5   2  -4   33.80    1.60
  -5   2   4   33.70    1.40
   4  -2  -4   30.40    1.40
  -4  -2   4   31.40    1.40
  -4  -2   4   31.20    1.30
   4  -2  -4   31.30    1.20
   4  -2  -4   31.20    1.60
  -4  -2   4   29.40    1.30
   4  -2  -4   31.60    1.40
  -4  -2   4   30.20    1.10
   4  -2  -4   31.30    1.70
  -4   2   4   30.60    1.40
  -4   2   4   30.80    1.60
  -4   2   4   32.40    1.50
   4   2  -4   33.30    1.30
   4   2  -4   33.60    1.60
   4   2  -4   31.50    1.30
  -4   2   4   32.40    1.20
   4   2  -4   31.10    1.00
   4   2  -4   29.20    1.70
   3  -2  -4    4.90    0.30
   3  -2  -4    5.20    0.70
   3  -2  -4    6.00    0.70
   3  -2  -4    6.20    0.60
  -3  -2   4    5.20    0.50
  -3  -2   4    6.30    0.70
   3  -2  -4    5.90    0.90
  -3  -2   4    5.90    0.70
  -3   2   4    5.00    0.80
  -3   2   4    6.00    0.50
  -3   2   4    8.00    0.80
   3   2  -4    5.40    0.80
   3   2  -4    5.30    0.30
   3   2  -4    5.60    0.80
   3   2  -4    6.10    0.50
  -3   2   4    5.20    0.60
   3   2  -4    6.10    0.50
   2  -2  -4  369.86    7.20
   2  -2  -4  375.56    7.90
   2  -2  -4  360.96    6.80
  -2  -2   4  371.46    6.90
  -2  -2   4  373.46    7.00
  -2  -2   4  377.06    7.40
   2  -2  -4  387.16    7.60
  -2  -2   4  373.96    6.70
   2  -2  -4  353.96    6.70
   2  -2  -4  381.56    7.40
   2   2  -4  379.06    7.60
  -2   2   4  378.06    7.30
  -2   2   4  371.86    6.80
   2   2  -4  377.76    7.00
  -2   2   4  378.96    7.70
   2   2  -4  378.06    7.60
  -2   2   4  376.26    7.60
  -1  -2   4  114.09    2.80
   1  -2  -4  110.29    2.70
  -1  -2   4  106.59    2.10
  -1  -2   4  114.89    2.50
   1  -2  -4  111.39    2.40
   1  -2  -4  112.69    2.90
  -1   2   4  109.39    2.40
   1   2  -4  110.89    2.70
   1   2  -4  115.69    2.90
  -1   2   4  115.69    2.90
  -1   2   4  109.09    2.20
  -1   2   4  113.99    2.90
   1   2  -4  109.29    2.20
   1   2  -4  112.09    2.20
   0  -2  -4   96.19    2.40
   0  -2  -4  101.59    2.60
   0  -2  -4   95.59    1.90
   0  -2   4   98.09    2.40
   0  -2  -4   92.09    1.80
   0  -2  -4   98.89    2.70
   0  -2   4   97.19    2.10
   0   2  -4   92.79    2.60
   0   2   4   94.39    1.90
   0   2   4   95.59    2.50
   0   2  -4   98.39    2.60
   0   2  -4   94.49    1.90
   0   2  -4   93.99    2.20
   0   2  -4   95.29    2.50
   0   2  -4   95.49    1.90
   0   2   4   95.49    2.50
   1  -2   4   18.80    0.90
  -1  -2  -4   20.60    0.70
  -1  -2  -4   19.60    1.00
  -1  -2  -4   21.00    1.10
  -1  -2  -4   20.00    0.60
   1  -2   4   18.50    1.00
   1  -2   4   19.00    0.80
  -1   2  -4   20.70    1.10
  -1   2  -4   19.70    0.50
   1   2   4   19.10    1.00
  -1   2  -4   20.30    0.80
   1   2   4   22.20    1.10
   1   2   4   21.20    1.00
  -1   2  -4   21.60    1.00
   2  -2   4  130.59    3.40
   2  -2   4  135.89    3.40
  -2  -2  -4  132.99    3.00
   2  -2   4  131.49    2.70
  -2  -2  -4  135.79    3.50
   2  -2   4  132.59    3.20
  -2  -2  -4  142.89    3.60
  -2   2  -4  138.99    3.60
  -2   2  -4  133.19    3.30
   2   2   4  134.39    3.20
   2   2   4  132.59    3.40
  -2   2  -4  134.69    3.20
  -2   2  -4  140.39    3.90
   3  -2   4   18.50    0.80
   3  -2   4   18.90    0.60
  -3  -2  -4   20.70    1.10
   3  -2   4   19.70    1.20
   3  -2   4   19.90    1.20
  -3  -2  -4   18.40    1.20
  -3  -2  -4   20.00    1.40
   3  -2   4   19.80    1.30
   3   2   4   20.30    1.10
   3   2   4   18.30    1.20
   3   2   4   18.40    1.30
  -3   2  -4   20.50    1.60
  -3   2  -4   17.10    0.90
  -3   2  -4   17.40    1.40
  -4  -2  -4  118.39    3.50
  -4  -2  -4  114.79    3.60
  -4  -2  -4  121.39    3.40
   4  -2   4  122.49    3.60
   4  -2   4  126.19    3.70
   4  -2   4  123.59    3.60
   4  -2   4  122.19    3.00
  -4   2  -4  120.69    3.10
  -4   2  -4  122.49    3.80
   4   2   4  121.99    3.10
   4   2   4  119.99    3.60
   4   2   4  116.99    3.50
  -4   2  -4  126.09    3.80
   5  -2   4  139.09    4.20
   5  -2   4  134.59    4.30
   5  -2   4  142.19    4.20
  -5  -2  -4  143.39    4.40
  -5  -2  -4  136.69    4.00
  -5  -2  -4  141.79    4.10
   5  -2   4  139.09    3.60
   5   2   4  143.29    3.70
  -5   2  -4  148.29    4.60
  -5   2  -4  138.79    4.40
   5   2   4  147.09    4.30
   5   2   4  141.79    4.10
  -6  -2  -4    1.50    0.90
  -6  -2  -4    3.50    1.30
   6  -2   4    2.10    1.00
   6  -2   4    4.00    0.70
   6  -2   4    2.70    1.10
  -6  -2  -4    4.30    0.90
  -6  -2  -4    2.60    0.90
   6  -2   4    3.10    1.00
  -6   2  -4    3.70    1.30
  -6   2  -4    2.60    1.00
   6   2   4    1.20    0.60
   6   2   4    2.90    0.80
   6   2   4    3.30    1.00
  -7  -2  -4   11.90    1.50
   7  -2   4   10.60    1.50
  -7  -2  -4    9.90    1.30
   7  -2   4   10.30    1.30
   7  -2   4   10.90    1.50
  -7  -2  -4   13.60    1.80
  -7  -2  -4    7.60    1.60
   7  -2   4   10.20    1.70
  -7   2  -4   12.50    1.90
   7   2   4   15.90    1.90
  -7   2  -4   10.60    1.60
   7   2   4   12.30    1.50
   8  -2   4    2.60    1.40
  -8  -2  -4    3.00    1.20
  -8  -2  -4    5.10    1.40
  -8  -2  -4    3.50    1.40
   8  -2   4    4.60    1.20
  -8   2  -4    4.00    1.70
  -8   2  -4    6.60    1.70
   8   2   4    4.30    1.40
   8   2   4    4.30    1.20
 -10  -3   4    7.90    1.70
  10  -3  -4    9.70    2.00
 -10  -3   4    8.80    1.80
  10  -3  -4    9.20    1.50
  10   3  -4   11.30    2.10
 -10   3   4    9.30    2.00
 -10   3   4    9.30    2.00
  -9  -3   4   45.60    2.80
   9  -3  -4   43.80    2.60
  -9  -3   4   42.30    2.60
   9  -3  -4   41.40    2.70
  -9  -3   4   45.90    2.80
   9  -3  -4   43.30    3.10
  -9   3   4   39.50    2.90
   9   3  -4   44.20    2.70
  -9   3   4   42.40    3.10
   9   3  -4   41.60    2.80
  -9   3   4   45.30    3.20
  -8  -3   4    8.20    1.30
   8  -3  -4    5.20    1.00
   8  -3  -4    8.20    1.20
   8  -3  -4    9.10    1.40
  -8  -3   4    6.50    1.30
  -8  -3   4    9.40    1.30
   8   3  -4    8.00    1.40
  -8   3   4    7.60    1.30
  -8   3   4   10.70    1.70
   8   3  -4    7.90    1.50
  -8   3   4    8.50    1.50
   7  -3  -4    0.40    1.00
  -7  -3   4    0.10    0.80
   7  -3  -4   -0.60    0.80
   7  -3  -4    0.70    0.70
  -7  -3   4    0.40    0.80
   7  -3  -4    0.80    0.90
  -7  -3   4    0.50    0.60
   7   3  -4   -0.30    0.80
  -7   3   4    0.60    0.90
  -7   3   4    1.60    0.90
   7   3  -4    0.30    0.60
  -7   3   4    0.00    0.90
  -6  -3   4   72.29    3.00
   6  -3  -4   75.39    3.30
  -6  -3   4   77.89    2.70
  -6  -3   4   81.99    2.80
   6  -3  -4   75.19    3.20
   6  -3  -4   69.19    2.60
   6  -3  -4   74.19    2.70
  -6   3   4   71.59    2.80
   6   3  -4   74.49    2.90
  -6   3   4   76.99    2.80
   6   3  -4   72.19    2.20
   6   3  -4   72.99    2.90
  -6   3   4   74.69    3.20
   6   3  -4   77.29    2.70
  -5  -3   4    6.90    0.80
   5  -3  -4    7.30    0.90
  -5  -3   4    6.40    1.00
   5  -3  -4    4.60    0.90
   5  -3  -4    7.10    1.20
   5  -3  -4    7.30    1.20
  -5   3   4    6.30    1.00
   5   3  -4    8.70    1.00
   5   3  -4    8.50    1.20
   5   3  -4    6.90    0.60
  -5   3   4    5.90    0.90
   5   3  -4    6.80    1.10
  -5   3   4    6.10    0.90
   4  -3  -4  524.15   10.50
   4  -3  -4  492.35    9.80
  -4  -3   4  534.45   10.40
   4  -3  -4  540.25   11.30
   4  -3  -4  530.35   10.50
  -4  -3   4  508.75   10.20
   4  -3  -4  527.15   11.00
  -4  -3   4  541.55   10.60
   4   3  -4  514.35   10.60
  -4   3   4  529.95   11.00
   4   3  -4  519.15   10.20
   4   3  -4  526.05   10.80
  -4   3   4  523.85   10.70
  -4   3   4  523.05   10.40
   3  -3  -4  414.06    8.30
  -3  -3   4  407.76    8.20
  -3  -3   4  390.26    7.40
   3  -3  -4  414.56    8.90
   3  -3  -4  423.16    8.40
   3  -3  -4  396.46    7.80
  -3  -3   4  422.56    8.40
  -3  -3   4  394.26    7.80
   3   3  -4  398.46    8.50
  -3   3   4  401.76    8.00
  -3   3   4  404.16    8.70
   3   3  -4  408.36    7.90
   3   3  -4  409.16    8.30
  -3   3   4  406.16    8.50
  -2  -3   4  182.58    3.50
  -2  -3   4  182.98    3.70
  -2  -3   4  176.68    3.40
  -2  -3   4  181.98    4.20
   2  -3  -4  185.48    4.70
   2  -3  -4  178.28    3.50
   2  -3  -4  189.08    4.30
   2  -3  -4  179.48    4.00
   2  -3  -4  184.28    4.30
  -2   3   4  180.58    3.80
   2   3  -4  180.28    4.00
  -2   3   4  187.08    4.50
  -2   3   4  184.18    4.50
   2   3  -4  185.78    4.50
   1  -3  -4  111.59    2.80
   1  -3  -4  114.09    3.10
  -1  -3   4  110.39    2.60
  -1  -3   4  111.39    2.90
   1  -3  -4  108.89    2.00
   1  -3  -4  104.99    2.40
  -1  -3   4  107.09    2.10
  -1   3   4  105.19    2.20
  -1   3   4  108.99    3.00
   1   3  -4  113.99    3.10
  -1   3   4  111.09    3.00
   1   3  -4  103.49    2.50
   1   3  -4  109.29    3.00
   0  -3  -4  180.58    4.40
   0  -3  -4  182.38    3.90
   0  -3   4  186.88    4.10
   0  -3   4  176.88    3.70
   0  -3  -4  168.58    3.30
   0  -3  -4  183.68    4.20
   0  -3  -4  169.18    3.30
   0  -3   4  174.78    3.40
   0   3  -4  170.28    3.40
   0   3   4  182.28    4.10
   0   3  -4  177.78    4.30
   0   3  -4  177.88    4.20
   0   3   4  174.98    4.20
   0   3   4  183.88    4.20
  -1  -3  -4    1.40    0.50
  -1  -3  -4    1.60    0.20
  -1  -3  -4    1.30    0.30
   1  -3   4    2.30    0.50
  -1  -3  -4    1.90    0.60
   1  -3   4    1.70    0.10
   1  -3   4    1.50    0.60
   1  -3   4    1.50    0.30
   1   3   4    1.70    0.50
  -1   3  -4    2.10    0.50
   1   3   4    1.50    0.50
  -1   3  -4    1.80    0.40
   1   3   4    1.80    0.50
  -1   3  -4    1.00    0.50
   2  -3   4  185.08    4.20
  -2  -3  -4  181.18    4.40
  -2  -3  -4  183.28    4.60
   2  -3   4  174.88    3.50
   2  -3   4  179.18    4.30
  -2  -3  -4  179.18    3.90
   2  -3   4  184.98    4.50
   2   3   4  183.98    4.30
   2   3   4  187.28    4.30
  -2   3  -4  175.98    4.20
  -2   3  -4  188.58    4.30
  -2   3  -4  186.68    4.70
   2   3   4  182.78    4.50
   2   3   4  181.38    4.00
  -2   3  -4  185.28    4.30
   3  -3   4   41.50    1.30
  -3  -3  -4   41.10    1.90
   3  -3   4   44.90    2.10
   3  -3   4   46.40    2.00
   3  -3   4   41.80    1.80
  -3  -3  -4   40.70    1.60
  -3  -3  -4   42.70    1.90
   3   3   4   43.10    1.70
  -3   3  -4   41.90    1.80
  -3   3  -4   40.00    1.50
  -3   3  -4   43.20    2.00
   3   3   4   42.60    1.80
   3   3   4   44.60    2.00
   4  -3   4   50.49    1.70
   4  -3   4   58.09    2.50
  -4  -3  -4   52.69    2.50
   4  -3   4   50.89    2.30
   4  -3   4   54.39    2.30
  -4  -3  -4   54.59    2.00
  -4  -3  -4   57.39    2.50
   4   3   4   52.99    2.00
  -4   3  -4   54.39    2.60
  -4   3  -4   56.29    1.80
   4   3   4   52.79    2.30
  -4   3  -4   50.39    2.50
  -5  -3  -4   -0.30    0.90
   5  -3   4   -1.00    0.50
   5  -3   4    0.50    0.90
  -5  -3  -4   -0.50    0.50
  -5  -3  -4    1.60    0.80
   5  -3   4    0.50    0.50
   5  -3   4    0.00    0.50
   5   3   4   -0.20    0.50
   5   3   4    0.20    0.80
  -5   3  -4   -0.30    1.00
   5   3   4    0.50    0.50
  -5   3  -4   -0.70    0.90
  -6  -3  -4    6.60    1.50
   6  -3   4    6.10    1.20
   6  -3   4    5.00    0.80
  -6  -3  -4    4.40    1.10
  -6  -3  -4    5.80    1.20
   6  -3   4    4.80    1.20
   6  -3   4    3.60    1.20
  -6   3  -4    8.40    1.60
   6   3   4    4.30    1.10
   6   3   4    6.50    1.30
  -6   3  -4    4.50    1.40
   7  -3   4    1.20    1.20
  -7  -3  -4    1.80    0.70
  -7  -3  -4    1.90    1.20
  -7  -3  -4    2.50    1.40
  -7  -3  -4    2.70    1.10
   7  -3   4    3.50    1.20
   7   3   4    3.80    1.20
  -7   3  -4    2.70    1.10
   7   3   4    3.40    1.20
  -7   3  -4    1.30    1.30
  -8  -3  -4   16.60    2.20
  -8  -3  -4   22.10    2.30
   8  -3   4   14.80    2.00
   8  -3   4   12.90    1.70
   8   3   4   17.90    2.00
  -8   3  -4   16.40    2.20
  -8   3  -4   16.40    2.10
   8   3   4   14.50    1.80
  -9  -4   4    2.20    0.90
  -9  -4   4    1.40    1.10
   9  -4  -4    3.70    1.60
   9  -4  -4    3.10    1.20
   9  -4  -4    2.80    1.00
  -9  -4   4    3.30    1.40
  -9   4   4    3.00    1.20
  -9   4   4    2.70    1.10
   9   4  -4    2.30    1.50
  -8  -4   4    9.80    1.40
  -8  -4   4   10.20    1.60
   8  -4  -4   10.20    1.60
   8  -4  -4    8.40    1.50
  -8  -4   4   10.40    1.40
   8  -4  -4    9.90    1.80
   8   4  -4   12.90    1.90
  -8   4   4    5.70    1.50
  -8   4   4    7.90    1.40
  -7  -4   4    1.70    1.00
   7  -4  -4    1.60    0.80
   7  -4  -4    3.10    1.10
   7  -4  -4    2.40    1.20
  -7  -4   4    2.90    1.20
   7  -4  -4    3.70    0.90
  -7  -4   4    2.70    0.90
   7   4  -4    2.80    1.20
  -7   4   4    2.90    1.00
  -7   4   4    4.80    1.30
  -6  -4   4    1.60    1.10
   6  -4  -4    1.70    0.60
   6  -4  -4    1.10    0.80
   6  -4  -4    1.10    1.10
  -6  -4   4    1.00    0.80
  -6  -4   4    1.40    0.70
   6  -4  -4    1.70    0.70
   6   4  -4    2.50    0.80
  -6   4   4    3.10    0.90
  -6   4   4    3.90    1.10
   6   4  -4    0.80    0.70
   5  -4  -4   20.90    1.70
   5  -4  -4   24.80    1.70
   5  -4  -4   23.80    1.60
   5  -4  -4   25.20    1.80
  -5  -4   4   23.70    1.50
  -5  -4   4   25.90    1.70
   5   4  -4   23.90    1.80
  -5   4   4   27.60    1.70
   5   4  -4   25.00    1.80
  -5   4   4   22.50    1.80
   4  -4  -4   36.40    1.70
   4  -4  -4   37.30    1.80
  -4  -4   4   38.50    1.80
   4  -4  -4   34.80    1.20
  -4  -4   4   35.80    1.70
   4  -4  -4   38.80    2.30
   4  -4  -4   33.90    2.00
   4   4  -4   38.90    1.80
  -4   4   4   34.10    2.10
  -4   4   4   37.40    1.70
  -4   4   4   37.20    2.00
   4   4  -4   36.70    2.00
   3  -4  -4    2.00    0.70
   3  -4  -4    1.40    0.80
   3  -4  -4    1.10    0.40
  -3  -4   4    2.00    0.20
  -3  -4   4    1.60    0.50
  -3  -4   4    1.30    0.70
   3  -4  -4    1.70    0.70
  -3  -4   4    1.70    0.40
  -3   4   4    1.30    0.60
   3   4  -4    2.20    0.80
  -3   4   4    1.30    0.80
   3   4  -4    1.80    0.60
  -3   4   4    2.20    0.60
   2  -4  -4   45.50    1.60
  -2  -4   4   43.60    0.90
  -2  -4   4   41.00    0.90
  -2  -4   4   45.90    1.80
   2  -4  -4   44.50    2.10
   2  -4  -4   45.50    1.90
  -2  -4   4   43.20    1.30
   2  -4  -4   43.30    1.90
   2  -4  -4   42.30    1.20
   2   4  -4   46.60    1.70
  -2   4   4   45.50    1.50
  -2   4   4   42.10    2.00
  -2   4   4   44.70    1.90
   2   4  -4   42.90    2.00
   1  -4  -4    3.00    0.50
  -1  -4   4    2.60    0.30
   1  -4  -4    2.60    0.30
  -1  -4   4    2.20    0.30
   1  -4  -4    1.10    0.60
  -1  -4   4    4.50    0.80
   1  -4  -4    2.20    0.80
  -1  -4   4    2.80    0.50
  -1   4   4    2.00    0.40
  -1   4   4    2.30    0.60
   1   4  -4    2.20    0.70
   1   4  -4    3.40    0.50
   1   4  -4    2.00    0.60
  -1   4   4    2.50    0.60
   0  -4   4   13.10    1.00
   0  -4  -4   13.30    1.20
   0  -4   4   12.10    0.60
   0  -4  -4   13.60    1.30
   0  -4   4   13.10    0.50
   0  -4  -4   13.60    0.90
   0  -4  -4   12.40    0.60
   0  -4   4   11.80    0.70
   0   4   4   12.40    1.10
   0   4   4   13.30    1.00
   0   4  -4   13.20    1.20
   0   4   4   13.90    1.20
   0   4  -4   13.10    0.70
   0   4  -4   14.00    1.20
   1  -4   4    4.20    0.30
  -1  -4  -4    5.30    0.50
  -1  -4  -4    4.50    0.80
   1  -4   4    3.60    0.80
   1  -4   4    4.70    0.60
   1  -4   4    4.90    0.70
  -1  -4  -4    5.30    0.80
   1   4   4    4.10    0.80
  -1   4  -4    5.60    0.80
   1   4   4    5.50    0.80
  -1   4  -4    3.50    0.80
   1   4   4    4.80    0.80
   2  -4   4   69.89    2.60
   2  -4   4   70.09    2.30
  -2  -4  -4   64.99    2.50
  -2  -4  -4   66.29    1.90
  -2  -4  -4   69.69    2.70
   2  -4   4   65.39    2.10
  -2   4  -4   68.69    2.60
   2   4   4   68.19    2.30
   2   4   4   66.39    2.10
   2   4   4   69.99    2.70
  -2   4  -4   65.19    2.40
  -3  -4  -4   22.10    1.10
  -3  -4  -4   22.30    1.80
   3  -4   4   20.70    1.70
   3  -4   4   22.80    1.40
   3  -4   4   19.90    1.60
  -3  -4  -4   24.90    1.80
   3  -4   4   23.20    1.00
   3   4   4   23.60    1.80
   3   4   4   24.00    1.40
   3   4   4   21.50    1.10
  -3   4  -4   22.90    1.60
  -3   4  -4   24.30    1.50
  -4  -4  -4   56.69    2.60
   4  -4   4   55.99    2.60
  -4  -4  -4   57.29    2.20
  -4  -4  -4   63.39    2.80
   4  -4   4   57.19    2.40
   4  -4   4   59.19    2.80
   4   4   4   56.99    2.20
   4   4   4   52.69    2.50
  -4   4  -4   54.29    2.20
  -4   4  -4   57.69    2.80
   5  -4   4   49.40    2.80
  -5  -4  -4   58.39    2.40
  -5  -4  -4   52.59    2.60
   5  -4   4   51.49    2.60
  -5  -4  -4   55.49    2.70
   5  -4   4   52.99    2.60
  -5   4  -4   56.99    2.80
   5   4   4   57.59    2.40
   5   4   4   55.69    2.90
   6  -4   4    0.80    0.70
  -6  -4  -4    0.50    1.20
  -6  -4  -4   -0.50    0.90
   6  -4   4    0.00    0.80
  -6  -4  -4    0.20    0.70
   6  -4   4    0.60    0.80
   6   4   4    1.90    1.20
  -6   4  -4   -0.50    1.10
   6   4   4    0.30    0.80
  -7  -4  -4    6.80    1.50
  -7  -4  -4   11.80    2.00
  -7  -4  -4   10.50    1.60
   7  -4   4    6.20    1.60
   7  -4   4    6.10    1.50
   7   4   4   10.10    1.80
  -7   4  -4    9.00    1.60
   7   4   4    7.80    1.20
  -8  -4  -4    3.60    1.80
  -8  -4  -4    2.60    1.40
   8  -4   4    4.70    1.50
  -8  -4  -4    3.50    1.40
   8  -4   4    4.60    1.70
  -8   4  -4    5.30    1.80
   8   4   4    2.50    1.50
   9  -5  -4   12.30    2.00
  -9  -5   4   12.60    1.90
  -9  -5   4   15.10    1.90
   9  -5  -4   12.50    1.80
   9  -5  -4   12.60    2.20
  -9  -5   4   13.60    1.80
  -9   5   4   10.60    2.10
   9   5  -4   13.80    2.20
  -9   5   4   15.70    2.40
   8  -5  -4    0.40    1.00
  -8  -5   4    0.10    0.80
  -8  -5   4    0.70    0.70
  -8  -5   4   -0.60    1.00
   8  -5  -4    0.00    1.10
   8  -5  -4    1.00    1.40
  -8   5   4   -0.20    0.80
  -8   5   4    0.70    1.30
   8   5  -4    0.00    1.30
   7  -5  -4   11.80    1.90
   7  -5  -4   11.90    1.60
  -7  -5   4   13.30    1.70
  -7  -5   4   14.30    1.40
  -7  -5   4   14.50    2.00
  -7   5   4   13.70    1.60
  -7   5   4   13.00    1.90
   7   5  -4   13.10    1.70
   6  -5  -4   51.99    3.20
   6  -5  -4   50.69    2.30
   6  -5  -4   57.99    2.70
  -6  -5   4   62.49    3.30
   6  -5  -4   53.29    2.90
  -6  -5   4   56.29    2.70
  -6  -5   4   55.69    2.50
   6   5  -4   53.59    2.90
  -6   5   4   55.09    2.80
  -6   5   4   52.09    3.20
   6   5  -4   54.19    2.90
  -5  -5   4    4.10    0.80
   5  -5  -4    5.80    0.90
   5  -5  -4    3.10    1.00
   5  -5  -4    3.70    1.00
  -5  -5   4    4.60    1.00
   5  -5  -4    4.00    1.30
  -5   5   4    4.30    1.30
   5   5  -4    3.70    1.20
  -5   5   4    3.70    1.00
   5   5  -4    1.80    0.80
   4  -5  -4   38.90    2.00
   4  -5  -4   39.50    2.40
   4  -5  -4   38.80    2.00
   4  -5  -4   32.80    2.40
  -4  -5   4   38.90    1.80
  -4  -5   4   38.90    2.10
  -4   5   4   35.10    2.20
  -4   5   4   36.10    1.90
   4   5  -4   38.00    1.90
   4   5  -4   36.00    2.10
  -4   5   4   39.90    2.30
  -3  -5   4   63.49    2.30
  -3  -5   4   70.49    2.70
   3  -5  -4   68.09    2.60
   3  -5  -4   65.39    2.40
   3  -5  -4   65.49    2.00
   3  -5  -4   67.69    3.10
  -3   5   4   67.19    2.30
   3   5  -4   65.89    2.80
  -3   5   4   70.19    2.80
  -3   5   4   69.59    2.90
   3   5  -4   67.49    2.50
   2  -5  -4    1.50    0.40
  -2  -5   4    0.70    0.70
   2  -5  -4    1.90    0.80
   2  -5  -4    0.60    0.80
   2  -5  -4    1.30    0.60
   2  -5  -4    0.80    0.80
  -2  -5   4    1.70    0.40
  -2   5   4    1.90    0.60
  -2   5   4    2.10    0.50
   2   5  -4    1.80    0.90
  -2   5   4    1.80    0.70
   2   5  -4    1.90    0.50
   1  -5  -4   11.40    1.40
  -1  -5   4    9.10    0.70
   1  -5  -4    9.20    0.60
  -1  -5   4   10.30    0.90
   1  -5  -4   10.40    1.10
   1  -5  -4    9.90    0.80
  -1  -5   4   10.10    1.10
  -1  -5   4    8.10    0.70
   1   5  -4   11.10    0.90
  -1   5   4   10.30    1.30
   1   5  -4   12.20    1.40
  -1   5   4   10.60    0.70
  -1   5   4   11.50    1.30
   0  -5  -4    7.30    1.20
   0  -5   4    8.30    0.90
   0  -5  -4    7.20    0.50
   0  -5   4    8.10    0.80
   0  -5   4    8.20    0.70
   0  -5  -4    7.10    1.10
   0  -5  -4    9.00    0.90
   0  -5   4    7.70    0.50
   0   5  -4    8.50    1.10
   0   5   4    9.50    1.10
   0   5   4    8.90    1.20
   0   5  -4    8.60    1.20
   0   5  -4    7.50    0.60
   0   5   4    8.20    1.00
   1  -5   4    1.80    0.50
   1  -5   4    2.50    0.80
   1  -5   4    1.60    0.60
  -1  -5  -4    1.90    0.70
  -1  -5  -4    2.40    0.40
  -1  -5  -4    1.70    0.70
   1   5   4    1.30    0.60
   1   5   4    2.00    0.70
  -1   5  -4    2.80    0.90
   1   5   4    3.30    0.70
  -1   5  -4    2.60    0.80
   2  -5   4   11.90    1.10
   2  -5   4   10.70    1.00
   2  -5   4   11.70    1.40
  -2  -5  -4   11.10    1.40
  -2  -5  -4   12.20    1.30
  -2  -5  -4   11.90    0.90
   2   5   4   12.20    1.30
   2   5   4   11.70    1.30
   2   5   4   12.10    1.10
  -2   5  -4    8.50    1.10
  -2   5  -4   10.60    1.40
  -3  -5  -4   22.70    1.90
   3  -5   4   21.00    1.50
  -3  -5  -4   22.10    1.90
   3  -5   4   23.00    2.00
   3  -5   4   21.40    1.60
  -3  -5  -4   22.90    1.30
  -3   5  -4   24.30    1.60
   3   5   4   21.20    1.90
   3   5   4   21.00    1.40
  -3   5  -4   20.30    1.90
   4  -5   4    6.90    1.30
  -4  -5  -4    7.70    1.40
   4  -5   4    6.40    1.10
  -4  -5  -4    5.00    1.10
   4  -5   4    5.90    1.30
  -4  -5  -4    4.60    0.80
  -4   5  -4    6.70    1.40
   4   5   4    5.30    1.30
   4   5   4    5.50    0.90
  -4   5  -4    6.00    0.90
  -5  -5  -4    7.90    1.30
   5  -5   4    5.10    1.40
   5  -5   4    5.80    1.40
   5  -5   4    4.90    1.10
  -5  -5  -4    3.60    1.30
  -5  -5  -4    5.10    0.90
   5   5   4    6.20    1.50
   5   5   4    6.90    1.20
  -5   5  -4    8.10    1.40
  -6  -5  -4    6.30    1.20
   6  -5   4    7.10    1.60
   6  -5   4    4.20    1.20
  -6  -5  -4    5.50    1.60
   6  -5   4    8.10    1.70
  -6  -5  -4    6.00    1.60
  -6   5  -4    5.70    1.30
   6   5   4    6.60    1.30
   6   5   4    8.50    1.30
   7  -5   4    0.80    1.30
  -7  -5  -4   -1.50    1.30
  -7  -5  -4   -0.30    1.10
  -7  -5  -4    2.30    1.10
   7  -5   4   -0.20    1.20
   7   5   4    0.20    0.90
  -7   5  -4    1.70    1.50
  -8  -6   4    1.00    0.90
  -8  -6   4   -0.70    1.20
   8  -6  -4    2.00    1.10
   8  -6  -4   -0.30    1.20
   8  -6  -4    2.00    1.20
  -8  -6   4    1.30    0.70
  -8   6   4    3.50    1.50
   8   6  -4    1.10    1.50
  -8   6   4   -1.20    0.90
  -7  -6   4   -1.20    1.00
   7  -6  -4    1.50    1.20
   7  -6  -4    1.40    1.40
  -7  -6   4    0.20    0.90
  -7  -6   4   -0.40    0.60
  -7   6   4   -1.60    1.30
   7   6  -4    1.30    1.20
  -7   6   4   -0.80    0.70
   6  -6  -4    3.80    1.50
   6  -6  -4    4.10    1.30
  -6  -6   4    4.50    1.10
  -6  -6   4    3.10    1.40
  -6  -6   4    3.20    1.00
  -6   6   4    4.20    1.00
   6   6  -4    3.60    1.30
  -6   6   4    7.20    1.80
   6   6  -4    3.80    1.40
   5  -6  -4    8.30    1.10
   5  -6  -4    4.70    1.20
  -5  -6   4    5.70    0.90
   5  -6  -4    7.50    1.70
   5  -6  -4    4.30    1.30
  -5  -6   4    6.60    1.20
   5   6  -4    7.30    1.50
  -5   6   4    5.80    1.20
   5   6  -4    6.80    1.20
  -5   6   4    7.00    1.60
  -4  -6   4    2.50    0.80
   4  -6  -4    1.40    0.60
   4  -6  -4    0.80    1.10
  -4  -6   4    2.80    0.80
   4  -6  -4    2.30    1.00
   4  -6  -4    1.40    1.10
   4   6  -4    1.60    1.10
  -4   6   4    3.40    1.20
  -4   6   4    1.50    0.80
  -4   6   4    2.90    1.10
   4   6  -4    0.70    0.80
   3  -6  -4   18.40    1.70
   3  -6  -4   20.50    1.70
  -3  -6   4   19.00    1.70
   3  -6  -4   17.60    1.90
   3  -6  -4   19.30    1.20
  -3  -6   4   19.20    1.60
  -3   6   4   22.70    2.00
  -3   6   4   15.20    1.70
   3   6  -4   17.50    1.70
   3   6  -4   19.30    1.60
  -3   6   4   19.80    1.40
   2  -6  -4   77.19    2.60
   2  -6  -4   77.69    3.40
   2  -6  -4   68.39    2.60
  -2  -6   4   75.19    2.80
  -2  -6   4   68.89    2.10
   2  -6  -4   67.79    2.80
   2   6  -4   68.29    3.10
   2   6  -4   72.29    2.60
  -2   6   4   77.49    3.30
  -2   6   4   69.39    2.90
  -2   6   4   69.49    2.30
   1  -6  -4    0.70    0.50
   1  -6  -4    3.00    1.10
  -1  -6   4    0.30    0.60
   1  -6  -4    0.70    0.60
  -1  -6   4    0.30    0.50
   1  -6  -4   -0.10    0.90
   1   6  -4   -0.80    0.50
  -1   6   4    0.50    0.40
  -1   6   4    0.30    0.80
   1   6  -4    0.80    0.90
  -1   6   4    0.70    0.80
   0  -6  -4   69.29    2.70
   0  -6  -4   70.39    2.50
   0  -6  -4   66.49    1.90
   0  -6   4   64.09    2.20
   0  -6   4   73.19    2.70
   0  -6  -4   71.49    3.00
   0   6  -4   71.99    3.10
   0   6  -4   68.59    2.10
   0   6  -4   72.99    3.00
   0   6   4   73.09    2.90
   0   6   4   66.39    2.90
   0   6   4   70.09    2.70
   1  -6   4   33.00    2.00
  -1  -6  -4   33.30    1.30
  -1  -6  -4   37.00    2.00
   1  -6   4   33.70    1.70
  -1  -6  -4   36.90    2.10
  -1   6  -4   33.60    2.20
   1   6   4   36.90    2.30
   1   6   4   33.90    1.90
   1   6   4   34.10    1.90
  -1   6  -4   35.70    2.10
   2  -6   4   13.30    1.60
   2  -6   4   11.10    1.30
  -2  -6  -4   15.60    1.80
  -2  -6  -4   10.70    0.90
  -2  -6  -4   13.10    1.40
   2   6   4   13.60    1.20
  -2   6  -4   13.20    1.30
   2   6   4   12.20    1.60
   2   6   4   12.70    1.40
  -2   6  -4   11.00    1.40
   3  -6   4    1.10    0.90
  -3  -6  -4    2.00    0.60
  -3  -6  -4    0.80    1.10
   3  -6   4    1.20    1.10
  -3  -6  -4    1.30    1.00
   3   6   4    2.50    1.20
   3   6   4    1.50    0.80
  -3   6  -4    1.10    0.70
  -3   6  -4    1.40    1.10
  -4  -6  -4   13.80    1.60
   4  -6   4   14.20    1.70
   4  -6   4   14.00    1.70
  -4  -6  -4   12.30    1.60
  -4  -6  -4   13.40    1.20
   4   6   4   11.80    1.80
  -4   6  -4   11.00    1.60
   4   6   4   14.60    1.60
  -5  -6  -4   28.10    2.50
  -5  -6  -4   30.90    2.60
   5  -6   4   35.70    2.70
  -5  -6  -4   29.00    2.00
   5  -6   4   33.20    2.80
   5   6   4   32.00    2.70
  -5   6  -4   31.50    2.80
   5   6   4   35.70    2.30
  -6  -6  -4    0.80    1.00
  -6  -6  -4    1.40    1.40
   6  -6   4   -1.70    1.20
  -6  -6  -4    1.60    1.10
   6  -6   4    2.00    1.30
   6   6   4    0.60    1.10
  -6   6  -4    1.30    1.50
   7  -6   4    4.70    1.70
  -7  -6  -4    3.40    1.30
  -7  -6  -4    4.70    1.80
   7  -6   4    3.40    1.70
  -7  -6  -4    4.20    1.80
   7   6   4    4.90    1.80
  -7   6  -4    4.50    1.40
  -7  -7   4    3.90    1.40
   7  -7  -4    3.10    1.30
  -7  -7   4    5.40    1.20
   7  -7  -4    7.30    2.00
  -7  -7   4    5.90    1.80
  -7   7   4    5.20    1.30
  -7   7   4    5.00    1.50
   7   7  -4    5.00    1.70
  -6  -7   4   28.70    2.90
  -6  -7   4   28.90    2.20
  -6  -7   4   28.70    1.90
   6  -7  -4   32.40    2.50
   6  -7  -4   28.70    3.00
  -6   7   4   27.70    2.70
   6   7  -4   33.80    2.50
  -6   7   4   23.30    2.20
   6   7  -4   32.00    2.80
  -5  -7   4   -0.30    0.80
   5  -7  -4    0.60    1.00
   5  -7  -4    0.80    0.90
  -5  -7   4   -0.40    0.70
  -5  -7   4   -0.80    0.80
   5   7  -4    1.20    0.90
  -5   7   4   -0.30    1.20
   5   7  -4   -1.20    1.00
  -5   7   4   -0.10    0.80
   4  -7  -4    6.30    1.50
   4  -7  -4    7.70    1.30
  -4  -7   4    7.80    1.40
  -4  -7   4    6.60    1.00
   4  -7  -4    6.00    1.60
   4  -7  -4    6.60    1.30
   4   7  -4    6.70    1.30
   4   7  -4    7.30    1.60
  -4   7   4    4.30    1.00
  -4   7   4    6.80    1.40
  -4   7   4    7.70    1.60
   3  -7  -4    9.10    1.40
   3  -7  -4    9.10    1.70
  -3  -7   4    9.50    1.50
  -3  -7   4   10.50    1.40
   3  -7  -4   10.60    1.30
   3   7  -4   10.70    1.50
  -3   7   4   11.00    1.70
   3   7  -4   11.00    1.40
  -3   7   4   11.60    1.80
   2  -7  -4    1.80    1.00
  -2  -7   4    0.90    0.60
   2  -7  -4    0.50    0.50
   2  -7  -4    1.40    1.10
   2  -7  -4    0.30    0.70
  -2   7   4    0.50    1.00
  -2   7   4   -0.70    0.90
   2   7  -4    0.10    0.70
   2   7  -4   -0.10    1.00
   1  -7  -4    5.30    0.90
   1  -7  -4    4.80    1.40
   1  -7  -4    7.90    1.10
  -1  -7   4    6.40    1.00
   1  -7  -4    5.60    1.20
  -1  -7   4    6.50    1.20
  -1   7   4    3.90    1.00
   1   7  -4    3.40    1.20
   1   7  -4    4.60    0.80
  -1   7   4    5.10    1.20
   0  -7   4    1.10    0.80
   0  -7  -4    0.90    0.90
   0  -7  -4    2.20    1.00
   0  -7  -4    1.00    0.70
   0   7   4    0.30    0.90
   0   7   4    1.40    0.90
   0   7  -4    0.40    0.70
   0   7  -4    0.70    0.70
   1  -7   4    0.30    0.60
  -1  -7  -4   -0.10    0.70
  -1  -7  -4    0.10    1.10
   1  -7   4    0.90    0.90
   1   7   4    1.10    1.00
  -1   7  -4    1.70    1.00
  -1   7  -4    0.60    1.00
   1   7   4    0.70    0.70
   1   7   4    1.00    0.80
   2  -7   4    5.40    1.10
  -2  -7  -4    3.00    1.10
  -2  -7  -4    4.00    1.30
   2  -7   4    3.70    1.00
   2   7   4    1.90    1.30
  -2   7  -4    4.10    1.30
  -2   7  -4    3.80    1.00
   2   7   4    5.50    1.20
   3  -7   4    2.50    1.20
  -3  -7  -4    1.80    0.80
   3  -7   4    0.70    0.90
  -3  -7  -4   -0.30    1.20
  -3   7  -4    2.20    0.90
   3   7   4    1.10    1.00
   3   7   4    1.40    1.00
  -3   7  -4   -0.10    0.80
  -4  -7  -4    1.90    1.30
  -4  -7  -4    0.30    1.30
   4  -7   4    1.40    0.90
   4  -7   4   -0.30    1.00
  -4   7  -4    0.10    0.80
   4   7   4    0.30    1.40
   4   7   4   -1.70    0.70
  -5  -7  -4    2.70    1.50
   5  -7   4   -0.50    1.30
   5  -7   4    4.40    1.40
  -5  -7  -4    1.70    1.20
   5   7   4    0.70    1.50
  -5   7  -4    1.30    1.50
  -6  -7  -4    1.30    1.20
  -6  -7  -4    0.60    1.10
   6  -7   4    1.30    1.30
   6  -7   4    2.30    1.60
   6   7   4    2.00    1.30
  -6   7  -4    0.50    1.40
  -6  -8   4   -1.50    0.90
   6  -8  -4   -1.00    0.90
  -6  -8   4   -0.30    0.80
  -6  -8   4   -0.20    1.00
   6  -8  -4   -0.70    1.10
   6   8  -4    1.50    1.40
  -6   8   4    0.30    1.10
  -5  -8   4   -0.50    1.20
  -5  -8   4    0.70    0.90
  -5  -8   4    1.60    1.10
   5  -8  -4    0.80    1.40
   5  -8  -4    1.60    1.20
  -5   8   4   -1.70    1.30
   5   8  -4    0.80    1.40
   5   8  -4    0.70    1.20
  -4  -8   4   -1.10    0.80
   4  -8  -4    0.00    1.10
   4  -8  -4    1.30    1.30
  -4  -8   4    0.10    0.70
   4   8  -4    0.20    0.80
  -4   8   4   -0.70    1.20
   4   8  -4    0.80    1.20
   3  -8  -4    0.50    1.00
  -3  -8   4   -0.20    1.00
  -3  -8   4    0.10    0.60
   3  -8  -4    0.30    1.00
  -3   8   4    1.30    0.90
  -3   8   4   -0.10    1.20
   3   8  -4   -0.20    0.90
   3   8  -4    2.30    1.40
   2  -8  -4    6.60    1.40
  -2  -8   4    4.50    1.30
  -2  -8   4    6.00    1.30
   2  -8  -4    4.00    1.50
   2  -8  -4    6.10    1.50
   2   8  -4    3.90    1.00
   2   8  -4    7.30    1.60
  -2   8   4    5.30    1.50
  -2   8   4    5.00    1.50
   1  -8  -4    1.00    1.00
   1  -8  -4    2.00    1.00
  -1  -8   4    1.00    0.80
   1  -8  -4    0.30    1.00
   1   8  -4   -0.50    1.00
  -1   8   4    0.80    1.10
  -1   8   4    1.50    1.10
   0  -8  -4    6.00    1.60
   0  -8  -4    7.50    1.00
   0  -8  -4   10.40    1.40
   0  -8   4    9.90    1.20
   0  -8  -4    9.70    1.70
   0  -8   4   12.10    1.70
   0   8   4    6.70    1.30
   0   8   4    9.80    1.50
   0   8  -4    5.80    1.40
  -1  -8  -4    2.20    1.00
  -1  -8  -4    4.20    1.10
   1  -8   4    4.00    1.20
  -1  -8  -4    2.70    1.60
   1   8   4    2.30    1.40
  -1   8  -4    1.30    1.20
   1   8   4    3.20    0.90
  -1   8  -4    2.90    1.20
  -2  -8  -4    2.40    0.90
  -2  -8  -4    4.10    1.50
   2  -8   4    2.00    1.20
   2   8   4    0.90    1.00
  -2   8  -4    2.30    1.30
  -2   8  -4    3.80    1.10
   2   8   4    3.70    1.00
   3  -8   4    0.40    1.20
  -3  -8  -4   -0.20    1.30
  -3  -8  -4   -1.00    1.00
  -3   8  -4    2.80    1.30
   3   8   4    0.50    0.90
   3   8   4   -0.90    0.90
   4  -8   4   11.60    2.10
  -4  -8  -4    8.10    1.80
  -4  -8  -4   12.20    2.20
   4  -8   4   10.60    1.70
   4   8   4    6.70    1.90
  -4   8  -4   11.40    2.00
   5  -8   4    7.20    2.00
   5  -8   4    9.80    1.80
  -5  -8  -4   14.90    2.40
  -5  -8  -4   10.10    2.00
  -5   8  -4   13.00    1.90
   5   8   4   13.80    2.30
   5  -9  -4    2.40    1.70
  -5  -9   4   -1.10    1.50
   5  -9  -4    1.00    1.20
  -5  -9   4   -1.00    1.10
   5   9  -4   -1.20    1.20
  -5   9   4   -1.80    0.90
  -4  -9   4    4.00    1.20
  -4  -9   4    5.70    1.30
  -4  -9   4    7.70    1.70
   4  -9  -4    9.10    1.70
   4  -9  -4    7.70    2.10
   4   9  -4    5.70    1.50
   4   9  -4    5.40    1.50
  -4   9   4    9.30    2.00
  -3  -9   4   10.30    1.80
   3  -9  -4    6.40    1.60
   3  -9  -4    5.40    1.70
  -3  -9   4    7.20    1.40
   3   9  -4    7.00    1.90
  -3   9   4    5.70    1.50
   2  -9  -4    1.20    0.90
   2  -9  -4    0.60    1.20
  -2  -9   4    0.10    0.80
  -2  -9   4    0.10    0.70
   2   9  -4   -1.70    1.10
  -2   9   4    0.40    1.20
  -2   9   4    0.50    1.20
   1  -9  -4    0.20    1.10
  -1  -9   4   -0.10    1.10
   1  -9  -4    0.30    1.00
   1  -9  -4    1.10    1.70
  -1   9   4    0.10    1.10
   1   9  -4   -1.00    1.20
  -1   9   4   -0.40    1.20
   0  -9   4    0.30    0.80
   0  -9  -4    1.80    1.60
   0  -9  -4   -0.50    1.20
   0   9   4    0.70    1.10
   0   9  -4    0.70    1.20
   1  -9   4    0.60    1.00
  -1  -9  -4   -0.40    1.00
  -1  -9  -4    2.50    1.40
  -1   9  -4    0.00    1.20
   1   9   4    2.00    1.20
  -1   9  -4   -0.90    1.00
   2  -9   4    4.50    1.50
  -2  -9  -4    5.30    1.70
  -2  -9  -4    6.80    1.50
   2   9   4    4.80    1.40
  -2   9  -4    3.00    1.20
   2   9   4    2.30    1.20
   3  -9   4    0.80    1.40
  -3  -9  -4   -2.30    1.40
  -3  -9  -4    1.30    1.30
   3   9   4   -1.60    1.00
  -3   9  -4    0.00    1.00
  -1 -10   4    1.10    1.30
   1 -10  -4    0.50    1.20
  -1 -10   4    0.90    0.90
   1 -10  -4    0.10    1.50
   1  10  -4   -0.60    1.30
  -1  10   4    0.50    0.90
   0 -10   4    2.20    1.00
   0 -10  -4    1.70    1.20
   0  10   4    1.40    1.20
   0  10  -4    1.60    1.30
  10   0  -5    1.20    1.20
 -10   0   5    2.30    1.30
  10   0  -5    2.20    1.00
 -10   0   5    0.90    1.40
   9   0  -5    5.80    1.30
  -9   0   5    5.60    1.30
   9   0  -5    7.40    1.30
  -9   0   5    3.00    1.10
   8   0  -5    1.50    1.00
  -8   0   5    0.30    1.00
   8   0  -5    3.50    1.00
  -8   0   5    1.30    0.70
   8   0  -5    1.50    0.80
  -7   0   5  118.69    3.40
   7   0  -5  110.59    3.40
   7   0  -5  114.79    4.00
  -7   0   5  101.79    3.10
  -7   0   5  112.99    3.70
  -7   0   5  105.39    3.40
   7   0  -5  117.69    3.60
   7   0  -5  111.99    3.90
   6   0  -5   14.70    0.90
  -6   0   5   14.90    1.00
  -6   0   5   18.50    1.30
  -6   0   5   17.20    1.20
   6   0  -5   19.30    1.50
   6   0  -5   15.40    1.20
   6   0  -5   16.50    1.60
   6   0  -5   16.80    1.30
  -6   0   5   17.70    1.30
  -5   0   5   14.70    0.90
   5   0  -5   15.50    1.30
  -5   0   5   17.80    1.20
  -5   0   5   16.00    0.90
   5   0  -5   14.00    1.10
   5   0  -5   14.40    1.00
   5   0  -5   16.70    1.40
   5   0  -5   14.60    1.00
  -5   0   5   16.30    1.10
   4   0  -5  358.26    7.20
  -4   0   5  355.76    7.10
   4   0  -5  368.26    7.30
   4   0  -5  356.76    7.50
  -4   0   5  360.46    7.40
  -4   0   5  351.86    7.10
   4   0  -5  369.96    7.80
  -4   0   5  365.06    7.30
   4   0  -5  357.86    7.30
   3   0  -5   53.19    1.90
   3   0  -5   53.29    1.60
   3   0  -5   55.49    1.80
  -3   0   5   49.99    1.80
  -3   0   5   53.49    1.50
  -3   0   5   53.59    1.60
   3   0  -5   53.89    1.90
  -3   0   5   53.09    1.70
  -3   0   5   56.29    1.80
   3   0  -5   53.89    1.70
  -2   0   5  556.94   10.50
   2   0  -5  568.44   10.90
   2   0  -5  568.54   10.70
   2   0  -5  576.24   10.50
  -2   0   5  568.74   10.60
   2   0  -5  561.04   10.90
   2   0  -5  562.44   10.70
  -2   0   5  552.54   10.40
   1   0  -5  284.57    5.50
  -1   0   5  286.27    5.70
   1   0  -5  281.47    5.90
   1   0  -5  275.77    5.70
  -1   0   5  277.97    5.50
  -1   0   5  283.07    5.60
   0   0  -5  180.88    4.00
   0   0   5  186.98    3.80
   0   0  -5  184.78    3.80
   0   0  -5  180.68    4.10
   0   0   5  186.18    4.00
   0   0  -5  180.58    4.20
   1   0   5  173.98    4.00
  -1   0  -5  174.88    3.80
   1   0   5  176.38    3.90
  -1   0  -5  180.38    4.00
  -1   0  -5  177.28    4.20
  -1   0  -5  170.78    3.80
  -1   0  -5  171.78    3.90
  -2   0  -5  215.88    5.20
   2   0   5  214.38    4.50
  -2   0  -5  214.18    4.70
  -2   0  -5  210.18    4.60
  -2   0  -5  216.68    4.80
   2   0   5  219.08    4.80
   2   0   5  216.88    4.90
  -3   0  -5   17.80    1.30
  -3   0  -5   17.20    1.10
  -3   0  -5   15.70    1.10
   3   0   5   15.60    1.20
  -3   0  -5   15.70    1.00
  -3   0  -5   16.70    1.50
   3   0   5   16.20    1.00
   3   0   5   16.00    0.90
   4   0   5    1.30    0.50
   4   0   5    1.40    0.70
  -4   0  -5    0.00    0.80
  -4   0  -5    1.10    0.60
  -4   0  -5   -0.40    0.60
   4   0   5    0.80    0.50
  -4   0  -5    0.30    0.70
  -5   0  -5    0.00    1.00
   5   0   5    1.10    0.70
   5   0   5    0.30    0.60
  -5   0  -5   -0.30    0.60
  -5   0  -5    0.70    0.80
   5   0   5    1.00    0.70
  -5   0  -5    0.30    0.80
   6   0   5   -0.30    0.90
   6   0   5    1.90    0.80
  -6   0  -5    0.30    0.70
  -6   0  -5   -0.80    1.20
  -6   0  -5   -0.10    0.90
  -6   0  -5   -0.60    1.10
   7   0   5    0.30    0.80
  -7   0  -5   -0.60    1.30
  -7   0  -5    0.00    1.40
   7   0   5   -0.80    0.70
  -7   0  -5   -0.30    0.70
  -8   0  -5   -0.10    1.10
   8   0   5    0.30    0.80
  -8   0  -5   -0.30    1.10
  -8   0  -5   -1.60    1.20
 -10  -1   5   33.00    2.30
  10  -1  -5   29.90    2.40
  10  -1  -5   39.80    2.80
 -10  -1   5   38.00    3.10
 -10   1   5   33.90    2.70
  10   1  -5   32.60    2.90
  10   1  -5   32.60    2.60
   9  -1  -5    2.70    1.00
  -9  -1   5    3.70    1.20
   9  -1  -5    2.50    1.10
  -9  -1   5    4.10    1.40
   9   1  -5    4.30    1.30
  -9   1   5    3.20    1.40
   9   1  -5    4.90    1.20
  -9   1   5    3.90    1.20
   8  -1  -5   46.70    2.70
   8  -1  -5   48.10    2.60
   8  -1  -5   50.79    2.60
  -8  -1   5   46.50    2.40
  -8  -1   5   53.69    2.60
   8  -1  -5   46.10    2.60
   8   1  -5   52.99    2.60
   8   1  -5   50.19    2.20
  -8   1   5   51.79    2.50
  -8   1   5   50.39    2.90
   8   1  -5   51.39    2.50
  -8   1   5   47.80    2.50
   7  -1  -5   45.60    2.20
   7  -1  -5   45.50    2.40
  -7  -1   5   45.20    2.00
   7  -1  -5   44.40    2.40
   7  -1  -5   51.39    2.30
  -7  -1   5   45.30    2.20
  -7  -1   5   47.90    2.20
  -7   1   5   49.50    2.10
   7   1  -5   46.40    2.20
  -7   1   5   50.19    2.60
  -7   1   5   48.40    2.40
   7   1  -5   46.00    2.00
   7   1  -5   51.49    2.30
  -6  -1   5    9.20    1.10
   6  -1  -5    8.10    1.10
   6  -1  -5    6.90    1.10
  -6  -1   5    8.00    0.90
   6  -1  -5    7.10    1.20
  -6  -1   5    7.50    0.80
   6  -1  -5    9.50    1.30
  -6  -1   5    7.60    0.90
   6   1  -5   10.40    1.00
   6   1  -5    8.60    1.10
  -6   1   5    9.90    1.10
   6   1  -5    7.60    1.10
  -6   1   5    7.30    1.00
   6   1  -5    8.60    1.10
  -6   1   5    8.20    0.90
   6   1  -5    8.40    0.90
   5  -1  -5  149.29    3.80
   5  -1  -5  148.79    4.00
  -5  -1   5  145.99    3.60
   5  -1  -5  144.49    4.10
  -5  -1   5  147.59    3.60
   5  -1  -5  147.09    3.20
   5  -1  -5  148.39    4.20
  -5  -1   5  142.89    3.70
  -5   1   5  148.19    3.90
  -5   1   5  145.79    4.00
   5   1  -5  145.59    4.20
   5   1  -5  147.69    3.70
   5   1  -5  150.38    3.70
  -5   1   5  151.38    3.50
   5   1  -5  146.19    3.50
  -5   1   5  144.19    3.10
   5   1  -5  148.79    3.90
   4  -1  -5   96.69    2.90
  -4  -1   5   94.49    2.60
   4  -1  -5   91.49    2.20
   4  -1  -5   91.59    2.60
   4  -1  -5   95.49    2.70
   4  -1  -5   93.29    2.80
  -4  -1   5   90.79    2.70
  -4  -1   5   95.99    2.50
   4  -1  -5   92.29    2.90
  -4  -1   5   93.19    2.50
   4   1  -5   91.39    2.60
   4   1  -5   91.49    2.30
   4   1  -5   93.09    2.90
  -4   1   5   90.39    2.10
   4   1  -5   93.89    2.50
  -4   1   5   92.99    2.80
   4   1  -5   92.39    2.60
  -4   1   5   93.59    2.60
  -4   1   5   92.99    2.20
  -4   1   5   96.89    2.70
  -3  -1   5  342.37    6.40
  -3  -1   5  341.17    6.80
   3  -1  -5  341.47    7.10
   3  -1  -5  341.77    7.20
   3  -1  -5  339.37    6.90
   3  -1  -5  341.97    6.60
   3  -1  -5  342.47    6.90
  -3  -1   5  333.97    6.80
  -3  -1   5  335.77    6.80
   3   1  -5  334.17    6.60
   3   1  -5  346.37    6.70
  -3   1   5  333.57    6.30
  -3   1   5  338.37    7.10
   3   1  -5  344.77    7.00
   3   1  -5  330.67    7.10
  -3   1   5  340.97    6.90
  -3   1   5  339.17    6.80
   3   1  -5  324.97    6.40
  -2  -1   5  443.06    8.40
  -2  -1   5  449.26    8.60
   2  -1  -5  457.55    8.90
   2  -1  -5  449.56    9.00
  -2  -1   5  446.96    8.30
   2  -1  -5  446.66    8.70
   2  -1  -5  455.55    8.60
   2   1  -5  440.16    8.30
  -2   1   5  442.86    8.40
  -2   1   5  446.36    8.80
   2   1  -5  453.55    8.80
   2   1  -5  436.26    8.80
   2   1  -5  438.96    9.00
   2   1  -5  443.16    8.30
  -2   1   5  441.16    8.70
  -2   1   5  438.06    8.00
   1  -1  -5  156.78    3.70
  -1  -1   5  162.98    3.50
   1  -1  -5  165.28    3.70
  -1  -1   5  156.38    3.50
   1  -1  -5  159.28    3.60
  -1   1   5  161.28    3.30
   1   1  -5  158.38    3.90
   1   1  -5  159.78    3.70
  -1   1   5  169.38    3.70
   1   1  -5  161.98    3.20
   1   1  -5  165.58    3.70
  -1   1   5  159.88    3.70
   1   1  -5  158.78    3.10
   0  -1   5    9.60    0.80
   0  -1  -5   10.70    0.90
   0  -1   5    9.40    0.60
   0  -1  -5   11.40    0.90
   0  -1   5    9.80    0.70
   0  -1  -5    9.10    0.80
   0   1  -5   14.80    0.90
   0   1   5    9.80    0.70
   0   1  -5   10.90    1.10
   0   1  -5   10.30    0.50
   0   1   5   10.60    0.80
   0   1  -5    8.60    0.60
   0   1   5    9.20    0.40
   0   1  -5   10.50    0.90
   0   1   5    9.00    0.40
  -1  -1  -5  358.96    7.40
   1  -1   5  362.26    7.30
  -1  -1  -5  352.16    6.80
  -1  -1  -5  371.96    7.40
   1  -1   5  365.46    7.20
  -1  -1  -5  363.26    7.40
  -1   1  -5  371.96    7.80
   1   1   5  365.06    6.70
  -1   1  -5  356.46    6.90
  -1   1  -5  357.96    7.30
   1   1   5  368.76    7.30
  -1   1  -5  358.56    7.10
   1   1   5  365.96    7.20
  -1   1  -5  359.16    7.30
  -2  -1  -5  399.46    8.00
  -2  -1  -5  413.76    8.20
   2  -1   5  396.46    8.10
   2  -1   5  396.66    8.10
   2  -1   5  386.96    7.30
  -2  -1  -5  399.56    8.10
  -2  -1  -5  390.66    7.70
  -2  -1  -5  407.36    8.40
  -2   1  -5  398.16    8.00
  -2   1  -5  391.26    7.50
  -2   1  -5  391.06    8.10
   2   1   5  402.56    8.20
  -2   1  -5  392.76    8.10
   2   1   5  397.96    8.00
  -2   1  -5  401.26    8.60
   2   1   5  404.56    8.00
  -3  -1  -5   42.70    1.60
   3  -1   5   44.40    1.90
  -3  -1  -5   43.00    1.80
  -3  -1  -5   40.10    1.90
  -3  -1  -5   45.50    1.90
   3  -1   5   41.90    1.30
   3  -1   5   44.10    1.80
  -3   1  -5   43.80    1.90
   3   1   5   41.60    1.80
   3   1   5   43.30    1.70
  -3   1  -5   43.10    2.00
  -3   1  -5   42.60    1.70
   3   1   5   43.80    1.80
  -3   1  -5   38.50    1.20
  -4  -1  -5   97.69    2.90
  -4  -1  -5   94.19    3.20
   4  -1   5   98.39    3.10
  -4  -1  -5   99.29    3.00
   4  -1   5   95.99    3.20
  -4  -1  -5   96.79    3.10
  -4   1  -5   94.19    3.10
   4   1   5   99.39    2.90
  -4   1  -5   96.59    3.50
   4   1   5   94.19    3.20
   4   1   5   93.39    2.90
  -4   1  -5   96.89    2.80
   5  -1   5   96.69    3.50
  -5  -1  -5   97.99    3.20
  -5  -1  -5  101.39    3.70
  -5  -1  -5   94.59    3.40
  -5  -1  -5   90.19    3.00
   5  -1   5   92.49    3.10
   5   1   5   90.89    3.10
  -5   1  -5   95.89    2.80
   5   1   5   96.69    3.00
   5   1   5   93.09    3.40
  -5   1  -5   96.89    3.60
  -5   1  -5   91.39    3.30
  -6  -1  -5   -0.40    0.60
  -6  -1  -5    0.90    0.80
   6  -1   5   -0.40    0.40
   6  -1   5   -0.10    0.90
  -6  -1  -5   -0.20    0.70
  -6  -1  -5   -0.40    1.20
  -6   1  -5   -0.80    1.00
  -6   1  -5    0.60    0.70
   6   1   5    0.10    0.90
   6   1   5    1.00    0.70
   6   1   5   -1.30    0.60
  -7  -1  -5   15.00    1.70
  -7  -1  -5   15.20    1.90
   7  -1   5   14.30    1.90
   7  -1   5   15.40    1.60
  -7  -1  -5   17.00    2.00
  -7   1  -5   16.30    2.00
   7   1   5   18.70    1.50
  -7   1  -5   16.10    1.90
   7   1   5   15.20    1.90
   8  -1   5   36.00    2.20
  -8  -1  -5   39.10    3.00
  -8  -1  -5   36.30    2.50
  -8  -1  -5   37.10    3.30
   8  -1   5   42.00    3.10
   8   1   5   41.30    3.00
  -8   1  -5   40.40    3.30
  -8   1  -5   40.10    3.20
 -10  -2   5    0.20    1.30
  10  -2  -5    0.00    1.20
  10  -2  -5    1.50    1.20
 -10  -2   5    2.10    1.40
 -10   2   5    1.10    1.30
  10   2  -5   -1.50    1.30
 -10   2   5    1.70    1.10
  10   2  -5    0.20    0.80
   9  -2  -5   -0.20    1.00
  -9  -2   5    1.20    1.10
   9  -2  -5    0.80    0.80
  -9  -2   5   -0.50    1.10
  -9   2   5   -1.00    1.10
  -9   2   5    0.20    1.10
   9   2  -5   -0.20    0.80
   9   2  -5   -0.30    1.00
   8  -2  -5   -0.30    0.90
   8  -2  -5    1.00    0.70
  -8  -2   5   -0.20    0.90
   8  -2  -5    0.10    0.70
  -8  -2   5   -0.20    0.70
  -8  -2   5    0.90    0.90
   8  -2  -5    0.40    0.90
   8   2  -5    1.40    1.00
  -8   2   5    0.70    0.90
  -8   2   5   -1.40    0.80
   8   2  -5    0.90    0.80
   8   2  -5   -0.80    0.70
  -7  -2   5   10.90    1.30
   7  -2  -5    9.50    1.30
  -7  -2   5    9.80    1.20
   7  -2  -5    9.20    1.50
  -7  -2   5    9.40    1.30
   7  -2  -5    9.40    1.20
   7  -2  -5   10.00    1.30
  -7   2   5    7.70    1.40
   7   2  -5   12.60    1.40
   7   2  -5    8.40    1.10
  -7   2   5    9.60    1.50
   7   2  -5   11.60    1.30
   7   2  -5    9.30    1.10
  -7   2   5    9.60    1.20
   6  -2  -5   16.60    1.60
   6  -2  -5   15.70    1.30
   6  -2  -5   15.30    1.60
   6  -2  -5   15.90    1.60
  -6  -2   5   15.50    1.30
  -6  -2   5   16.50    1.50
  -6  -2   5   14.90    1.30
   6   2  -5   15.10    1.40
  -6   2   5   13.00    1.20
   6   2  -5   14.10    1.20
  -6   2   5   16.70    1.60
  -6   2   5   14.20    1.40
   6   2  -5   16.40    1.40
   6   2  -5   12.90    1.00
   5  -2  -5    0.20    0.80
  -5  -2   5   -0.10    0.60
   5  -2  -5   -0.70    0.70
   5  -2  -5    1.00    0.50
   5  -2  -5    0.10    0.50
  -5  -2   5   -0.20    0.40
  -5  -2   5    0.60    0.60
  -5   2   5    1.00    0.70
   5   2  -5    0.60    0.40
   5   2  -5    1.30    0.60
  -5   2   5    0.70    0.40
  -5   2   5    1.30    0.80
   5   2  -5    1.30    0.60
   5   2  -5    1.50    0.60
   5   2  -5    0.80    0.80
  -5   2   5    0.70    0.80
  -4  -2   5    1.20    0.40
   4  -2  -5    0.70    0.20
  -4  -2   5    1.50    0.50
   4  -2  -5    1.30    0.50
   4  -2  -5    0.60    0.40
   4  -2  -5    0.60    0.50
   4  -2  -5    1.30    0.60
  -4  -2   5    0.70    0.40
   4  -2  -5    1.10    0.50
   4   2  -5    0.50    0.50
  -4   2   5    0.20    0.60
   4   2  -5    1.40    0.60
   4   2  -5    0.90    0.40
  -4   2   5    1.40    0.50
   4   2  -5    1.30    0.50
  -4   2   5    0.40    0.40
   4   2  -5    1.20    0.20
  -4   2   5    1.80    0.50
  -3  -2   5   73.69    1.90
   3  -2  -5   74.59    2.30
  -3  -2   5   80.19    2.30
   3  -2  -5   74.89    2.10
  -3  -2   5   73.99    1.80
  -3  -2   5   80.19    2.30
   3  -2  -5   78.39    2.50
   3  -2  -5   77.49    2.60
   3   2  -5   74.69    2.50
   3   2  -5   76.59    2.00
  -3   2   5   77.49    2.50
  -3   2   5   75.49    1.70
  -3   2   5   77.79    2.40
   3   2  -5   74.29    2.40
   3   2  -5   77.69    1.90
  -3   2   5   81.89    2.30
   2  -2  -5   85.39    2.40
  -2  -2   5   81.89    1.80
   2  -2  -5   86.89    2.60
   2  -2  -5   87.49    2.80
   2  -2  -5   82.39    2.00
   2  -2  -5   83.69    2.30
  -2  -2   5   84.19    2.00
  -2  -2   5   85.49    2.40
   2   2  -5   83.49    2.50
  -2   2   5   86.69    2.50
   2   2  -5   87.49    2.60
  -2   2   5   86.09    2.50
   2   2  -5   82.79    1.90
  -2   2   5   83.59    2.10
   1  -2  -5 1089.49   20.10
   1  -2  -5 1116.69   20.60
  -1  -2   5 1121.09   20.10
  -1  -2   5 1130.79   20.40
   1  -2  -5 1148.79   20.40
  -1   2   5 1136.79   20.50
  -1   2   5 1115.39   20.50
  -1   2   5 1067.69   20.00
   1   2  -5 1088.49   20.10
  -1   2   5 1092.49   19.80
   1   2  -5 1102.69   20.30
   1   2  -5 1111.79   20.80
   1   2  -5 1106.49   20.60
   0  -2  -5  519.75   10.20
   0  -2   5  528.65    9.90
   0  -2  -5  541.55   10.60
   0  -2  -5  531.55   10.40
   0  -2   5  544.95   10.30
   0   2  -5  538.15   10.50
   0   2  -5  517.85   10.50
   0   2   5  540.25   10.40
   0   2   5  541.95   10.40
   0   2  -5  517.15   10.00
   0   2  -5  556.94   10.50
   0   2   5  516.05    9.50
  -1  -2  -5    8.80    0.80
  -1  -2  -5    7.50    0.60
  -1  -2  -5    8.90    0.90
   1  -2   5    7.80    0.80
  -1  -2  -5    8.40    0.30
  -1  -2  -5    7.90    1.00
   1  -2   5    8.60    0.60
  -1   2  -5    7.90    0.50
  -1   2  -5    9.10    0.90
  -1   2  -5    8.40    0.80
   1   2   5    9.10    0.80
   1   2   5    8.40    0.80
   1   2   5    8.20    0.80
  -1   2  -5    8.10    0.60
  -2  -2  -5   -0.50    0.60
   2  -2   5    0.50    0.60
  -2  -2  -5    0.20    0.40
   2  -2   5    0.20    0.40
   2  -2   5    0.80    0.50
  -2  -2  -5    0.30    0.50
  -2  -2  -5    0.20    0.20
   2   2   5    0.70    0.40
  -2   2  -5    1.00    0.60
  -2   2  -5    0.40    0.40
  -2   2  -5    0.60    0.10
  -2   2  -5    0.40    0.50
  -2   2  -5    1.10    0.50
   2   2   5    0.20    0.50
   3  -2   5    1.50    0.50
  -3  -2  -5    0.90    0.80
  -3  -2  -5    1.00    0.60
   3  -2   5    1.40    0.70
   3  -2   5    1.80    0.60
  -3  -2  -5    0.60    0.40
  -3  -2  -5    1.60    0.70
   3   2   5   -0.50    0.60
   3   2   5    1.40    0.50
   3   2   5    0.70    0.50
  -3   2  -5    2.00    0.70
  -3   2  -5    0.40    0.80
  -3   2  -5    0.80    0.50
  -4  -2  -5   12.30    1.20
  -4  -2  -5   15.80    1.40
  -4  -2  -5   13.60    1.30
   4  -2   5   13.80    1.20
  -4  -2  -5   13.10    1.10
   4  -2   5   12.30    1.40
   4  -2   5   12.80    1.40
  -4   2  -5   13.30    1.40
  -4   2  -5   13.20    1.10
  -4   2  -5   15.20    1.80
   4   2   5   14.90    1.50
   4   2   5   13.50    1.40
   4   2   5   13.90    1.20
  -5  -2  -5   17.30    1.60
  -5  -2  -5   21.50    2.00
  -5  -2  -5   19.30    1.60
   5  -2   5   18.10    1.60
  -5  -2  -5   16.60    1.40
   5  -2   5   18.40    1.70
   5  -2   5   19.40    1.70
   5   2   5   15.90    1.30
  -5   2  -5   22.50    2.10
   5   2   5   19.00    1.70
  -5   2  -5   17.50    1.70
   5   2   5   19.80    1.80
  -6  -2  -5   -0.60    0.40
   6  -2   5    0.60    0.80
  -6  -2  -5   -0.20    0.80
  -6  -2  -5   -0.80    0.80
   6  -2   5    0.10    0.80
  -6  -2  -5   -2.00    0.90
   6  -2   5   -0.30    0.70
   6   2   5    0.10    0.60
  -6   2  -5    1.30    1.20
   6   2   5    1.30    1.00
  -6   2  -5   -0.40    1.10
   6   2   5   -1.30    0.40
   7  -2   5    2.10    1.20
   7  -2   5   -0.70    0.80
  -7  -2  -5   -1.10    1.30
  -7  -2  -5    1.30    1.30
  -7  -2  -5    0.40    0.70
  -7  -2  -5   -0.40    0.90
   7   2   5    0.80    0.70
  -7   2  -5    0.10    1.30
  -7   2  -5    0.80    1.20
   7   2   5    0.10    1.10
  -8  -2  -5    0.80    1.10
   8  -2   5   -0.40    1.00
   8  -2   5    0.10    1.20
  -8  -2  -5    0.30    1.10
  -8   2  -5   -1.30    1.40
   8   2   5   -0.70    1.20
  -8   2  -5   -1.40    1.40
  10  -3  -5   11.70    1.70
  10  -3  -5   12.20    2.00
 -10  -3   5   12.80    1.90
 -10  -3   5    7.10    1.50
  -9  -3   5    5.50    1.20
  -9  -3   5    9.50    1.50
   9  -3  -5    7.70    1.40
  -9  -3   5    5.80    1.10
   9  -3  -5    4.80    1.20
   9  -3  -5    6.60    1.30
   9   3  -5    7.80    1.70
  -9   3   5    6.50    1.60
   9   3  -5    4.50    1.30
  -9   3   5    4.60    1.50
  -9   3   5    5.40    1.30
  -8  -3   5    1.20    0.70
   8  -3  -5    1.10    0.70
  -8  -3   5    1.30    1.00
  -8  -3   5    0.80    1.00
   8  -3  -5    0.70    1.10
   8  -3  -5   -0.70    0.90
  -8   3   5    0.20    1.10
  -8   3   5    0.40    0.70
   8   3  -5   -0.30    0.70
   8   3  -5    1.60    1.00
  -8   3   5   -0.30    1.00
   7  -3  -5   81.49    3.60
  -7  -3   5   82.39    3.00
  -7  -3   5   85.59    3.40
   7  -3  -5   84.39    3.30
  -7  -3   5   88.39    3.10
   7  -3  -5   87.09    3.20
   7  -3  -5   82.89    3.60
  -7   3   5   88.29    3.20
  -7   3   5   84.89    3.50
   7   3  -5   87.59    3.20
   7   3  -5   86.89    3.60
  -7   3   5   86.89    3.50
   7   3  -5   86.79    3.20
   6  -3  -5   37.80    2.10
   6  -3  -5   46.20    2.60
   6  -3  -5   43.90    2.20
  -6  -3   5   42.60    2.30
  -6  -3   5   40.00    1.90
   6  -3  -5   38.60    2.30
  -6  -3   5   46.20    2.20
   6   3  -5   44.40    2.40
   6   3  -5   43.00    2.00
  -6   3   5   45.10    2.00
   6   3  -5   44.00    2.30
  -6   3   5   45.40    2.10
  -6   3   5   44.00    2.50
   5  -3  -5  390.16    9.10
   5  -3  -5  392.56    9.20
  -5  -3   5  404.16    8.40
  -5  -3   5  377.36    7.70
   5  -3  -5  396.36    8.60
   5  -3  -5  402.76    8.70
  -5  -3   5  402.16    8.50
   5   3  -5  398.46    8.80
   5   3  -5  413.56    8.30
   5   3  -5  403.96    8.70
  -5   3   5  409.66    8.80
  -5   3   5  394.86    8.10
  -5   3   5  401.16    8.50
  -5   3   5  388.76    9.10
   4  -3  -5   10.60    1.20
  -4  -3   5    9.20    0.90
  -4  -3   5   11.00    1.00
   4  -3  -5   11.20    1.20
   4  -3  -5   10.80    1.10
   4  -3  -5    8.90    0.80
  -4  -3   5    8.90    0.70
  -4   3   5    9.90    1.00
   4   3  -5    7.40    1.00
   4   3  -5   10.90    1.30
   4   3  -5    9.10    0.80
  -4   3   5    7.90    1.20
  -4   3   5   10.50    1.20
  -3  -3   5    2.70    0.40
   3  -3  -5    3.60    0.80
  -3  -3   5    2.90    0.30
   3  -3  -5    3.60    0.60
   3  -3  -5    3.00    0.70
  -3  -3   5    2.50    0.60
   3  -3  -5    3.00    0.70
  -3  -3   5    2.90    0.60
  -3   3   5    3.60    0.50
   3   3  -5    3.80    0.70
   3   3  -5    3.70    0.70
   3   3  -5    3.00    0.50
  -3   3   5    3.90    0.80
  -3   3   5    4.70    0.90
   2  -3  -5   18.20    0.70
   2  -3  -5   19.10    1.00
  -2  -3   5   18.30    0.80
  -2  -3   5   17.40    1.00
   2  -3  -5   21.00    1.20
   2  -3  -5   20.20    1.50
   2  -3  -5   21.00    1.30
  -2   3   5   17.30    1.10
   2   3  -5   18.30    1.30
  -2   3   5   16.10    1.20
  -2   3   5   17.90    0.70
   2   3  -5   18.40    1.00
  -1  -3   5   78.99    1.60
   1  -3  -5   88.49    2.50
  -1  -3   5   86.89    2.60
   1  -3  -5   83.99    2.10
  -1  -3   5   84.69    2.30
  -1  -3   5   83.49    1.70
   1  -3  -5   89.79    2.70
  -1   3   5   87.59    2.70
   1   3  -5   85.39    2.00
  -1   3   5   85.39    1.60
   1   3  -5   81.59    2.60
   1   3  -5   89.29    2.70
  -1   3   5   86.59    2.60
   0  -3  -5  125.69    3.60
   0  -3  -5  117.29    2.40
   0  -3   5  129.09    3.20
   0  -3  -5  124.99    3.10
   0  -3  -5  123.89    3.30
   0  -3  -5  114.99    2.30
   0  -3   5  124.29    2.70
   0   3   5  129.69    3.30
   0   3   5  122.09    3.30
   0   3   5  123.89    3.30
   0   3  -5  126.09    3.40
   0   3  -5  119.59    2.40
   0   3  -5  123.29    3.40
  -1  -3  -5    0.00    0.50
   1  -3   5    0.20    0.20
  -1  -3  -5    0.00    0.30
   1  -3   5    0.10    0.30
  -1  -3  -5   -0.40    0.60
   1  -3   5   -0.20    0.50
  -1  -3  -5   -0.60    0.60
   1   3   5   -0.10    0.40
  -1   3  -5    0.60    0.30
  -1   3  -5    0.20    0.50
   1   3   5   -0.10    0.40
   1   3   5    0.10    0.60
  -1   3  -5    0.60    0.50
  -1   3  -5    0.20    0.60
   2  -3   5  215.88    5.30
   2  -3   5  221.08    4.80
  -2  -3  -5  215.48    4.60
  -2  -3  -5  216.28    5.30
   2  -3   5  217.48    5.00
  -2  -3  -5  217.78    5.20
   2   3   5  221.38    5.10
  -2   3  -5  218.18    5.20
  -2   3  -5  213.38    5.40
   2   3   5  220.58    5.30
  -2   3  -5  223.88    5.10
  -2   3  -5  208.28    4.90
   2   3   5  222.88    5.20
   3  -3   5  141.99    3.90
   3  -3   5  145.79    4.10
  -3  -3  -5  148.39    4.20
  -3  -3  -5  142.29    3.60
   3  -3   5  144.99    3.80
  -3  -3  -5  150.38    4.20
  -3  -3  -5  139.89    3.30
   3   3   5  138.59    3.70
  -3   3  -5  140.89    4.20
  -3   3  -5  142.49    3.70
   3   3   5  142.09    3.80
   3   3   5  150.48    4.10
   4  -3   5  123.39    3.70
   4  -3   5  122.29    3.80
   4  -3   5  119.39    3.80
  -4  -3  -5  116.09    3.10
  -4  -3  -5  123.39    3.50
  -4  -3  -5  123.99    3.90
  -4  -3  -5  119.49    3.80
  -4   3  -5  117.89    3.90
  -4   3  -5  118.99    3.20
   4   3   5  123.49    3.80
   4   3   5  121.49    3.60
   4   3   5  125.99    3.50
  -4   3  -5  124.69    4.40
   5  -3   5   38.70    2.10
  -5  -3  -5   35.20    2.30
   5  -3   5   33.70    2.00
  -5  -3  -5   36.20    2.50
  -5  -3  -5   30.00    1.80
   5  -3   5   34.60    2.30
  -5  -3  -5   32.20    1.60
  -5   3  -5   37.60    2.50
   5   3   5   32.50    2.20
  -5   3  -5   36.80    2.70
   5   3   5   31.20    1.70
   6  -3   5    3.50    1.20
   6  -3   5    3.80    1.10
   6  -3   5    2.50    1.00
  -6  -3  -5    3.20    1.20
  -6  -3  -5    4.80    1.50
  -6  -3  -5    2.30    1.10
  -6   3  -5    3.70    1.40
  -6   3  -5    4.10    1.40
   6   3   5    2.20    1.10
   7  -3   5   11.00    1.80
  -7  -3  -5    8.30    1.40
  -7  -3  -5    8.30    1.90
   7  -3   5    8.30    1.50
  -7  -3  -5    9.20    1.30
   7   3   5    7.30    1.50
  -7   3  -5    5.20    1.60
  -7   3  -5    5.10    1.70
  -8  -3  -5   33.00    3.00
   8  -3   5   32.20    2.60
   8  -3   5   34.10    2.60
  -8  -3  -5   35.60    3.00
  -8   3  -5   38.70    3.30
  -9  -4   5    1.00    0.90
   9  -4  -5    1.20    1.20
   9  -4  -5    1.20    0.90
  -9  -4   5    2.80    1.30
  -9  -4   5    2.50    1.20
   9  -4  -5    1.30    1.40
  -9   4   5    0.50    1.20
   9   4  -5    2.80    1.50
  -9   4   5    0.60    0.90
  -8  -4   5    3.80    1.20
   8  -4  -5    3.10    1.20
   8  -4  -5    2.00    1.10
  -8  -4   5    3.20    1.20
  -8  -4   5    2.30    0.90
  -8   4   5    1.00    1.20
   8   4  -5    3.90    1.40
  -8   4   5    0.80    1.20
  -7  -4   5    4.10    1.20
   7  -4  -5    4.30    1.30
  -7  -4   5    4.80    1.00
   7  -4  -5    5.00    1.30
   7  -4  -5    4.70    1.40
  -7  -4   5    3.50    1.10
   7  -4  -5    3.40    1.00
   7   4  -5    2.90    1.10
  -7   4   5    4.40    1.10
   7   4  -5    4.50    1.30
  -7   4   5    3.60    1.40
   6  -4  -5   27.20    2.20
   6  -4  -5   27.50    1.80
  -6  -4   5   23.90    1.60
   6  -4  -5   25.30    2.30
  -6  -4   5   26.10    2.20
  -6  -4   5   25.40    1.90
   6  -4  -5   24.20    1.80
  -6   4   5   24.00    1.70
   6   4  -5   25.90    2.10
  -6   4   5   28.10    2.40
   6   4  -5   24.20    2.00
  -5  -4   5    5.00    1.00
   5  -4  -5    5.80    1.10
   5  -4  -5    6.00    1.30
  -5  -4   5    4.60    0.90
   5  -4  -5    5.70    1.10
   5  -4  -5    6.20    1.10
  -5   4   5    4.40    0.80
  -5   4   5    6.90    1.30
   5   4  -5    5.70    1.20
   5   4  -5    5.00    1.10
  -5   4   5    5.20    1.20
  -4  -4   5    3.30    0.70
   4  -4  -5    2.40    0.50
   4  -4  -5    2.50    0.70
   4  -4  -5    1.80    0.90
   4  -4  -5    3.70    0.80
  -4  -4   5    2.90    0.80
  -4   4   5    3.10    0.80
   4   4  -5    1.60    0.80
   4   4  -5    4.80    1.00
  -4   4   5    2.90    0.70
  -4   4   5    4.20    1.10
   3  -4  -5  106.69    3.70
   3  -4  -5  105.59    2.70
  -3  -4   5  105.89    3.00
   3  -4  -5  106.79    3.10
   3  -4  -5  106.09    3.30
  -3  -4   5  109.19    3.30
   3   4  -5  105.09    3.00
  -3   4   5  104.09    3.40
   3   4  -5  101.29    3.40
  -3   4   5   97.19    3.40
  -3   4   5   98.69    2.70
   2  -4  -5   32.00    1.80
   2  -4  -5   30.20    1.80
  -2  -4   5   32.30    1.20
   2  -4  -5   33.30    1.50
   2  -4  -5   36.10    1.70
   2  -4  -5   30.40    1.00
  -2  -4   5   33.80    1.60
  -2   4   5   33.20    1.80
  -2   4   5   34.10    1.90
  -2   4   5   33.00    1.20
   2   4  -5   35.20    1.80
   2   4  -5   34.30    1.40
   1  -4  -5  398.46    8.00
   1  -4  -5  388.96    8.40
  -1  -4   5  373.86    7.00
  -1  -4   5  384.26    8.10
  -1  -4   5  391.46    7.80
   1  -4  -5  379.66    7.50
   1   4  -5  381.46    8.40
  -1   4   5  366.46    7.00
  -1   4   5  379.16    8.30
   1   4  -5  384.06    8.30
  -1   4   5  395.96    8.40
   1   4  -5  388.16    7.50
   0  -4  -5  186.58    3.70
   0  -4   5  196.98    4.60
   0  -4  -5  196.68    4.80
   0  -4  -5  192.98    4.40
   0  -4  -5  195.78    5.10
   0   4  -5  194.68    4.90
   0   4   5  193.88    4.90
   0   4   5  190.68    4.70
   0   4  -5  186.38    3.80
   0   4  -5  193.98    4.90
   0   4   5  195.88    4.80
   1  -4   5    0.40    0.60
   1  -4   5    0.50    0.30
  -1  -4  -5   -0.10    0.60
  -1  -4  -5    0.70    0.70
   1  -4   5    0.10    0.40
  -1  -4  -5    0.10    0.20
   1   4   5   -0.20    0.50
   1   4   5   -0.30    0.60
  -1   4  -5    0.20    0.60
  -1   4  -5    0.70    0.70
   1   4   5    0.30    0.50
   2  -4   5    2.80    0.90
  -2  -4  -5    4.00    0.50
   2  -4   5    3.80    0.60
  -2  -4  -5    3.90    0.80
   2  -4   5    3.40    0.80
  -2  -4  -5    4.50    1.00
   2   4   5    2.90    0.60
  -2   4  -5    3.10    0.80
  -2   4  -5    5.60    1.10
  -2   4  -5    2.50    0.60
   2   4   5    3.80    1.00
   2   4   5    3.40    0.90
  -3  -4  -5    0.10    0.60
   3  -4   5    0.30    0.60
   3  -4   5   -1.00    0.70
  -3  -4  -5    0.70    0.90
  -3  -4  -5   -0.20    0.50
   3  -4   5    0.50    0.50
   3   4   5   -0.30    0.60
  -3   4  -5    0.00    0.90
   3   4   5   -0.30    0.70
  -3   4  -5    0.40    0.70
   3   4   5   -0.20    0.40
  -4  -4  -5   25.90    1.90
   4  -4   5   25.60    2.00
   4  -4   5   24.10    1.70
  -4  -4  -5   27.30    1.60
  -4  -4  -5   26.60    1.90
   4  -4   5   24.90    2.10
   4   4   5   28.40    2.10
  -4   4  -5   30.30    2.20
  -4   4  -5   26.30    1.70
   4   4   5   26.80    1.70
  -5  -4  -5    9.00    1.50
  -5  -4  -5   11.40    1.20
  -5  -4  -5   14.00    1.80
   5  -4   5   11.00    1.40
   5  -4   5   12.50    1.50
   5  -4   5    9.80    1.50
  -5   4  -5    9.90    1.20
  -5   4  -5   12.60    1.60
   5   4   5   14.00    1.80
   5   4   5   11.80    1.30
  -6  -4  -5   -1.20    0.90
   6  -4   5   -0.50    0.80
  -6  -4  -5    0.40    0.90
   6  -4   5    0.50    1.20
   6  -4   5    0.90    1.10
  -6  -4  -5    0.70    0.80
  -6   4  -5   -1.20    0.70
   6   4   5   -0.30    0.80
   6   4   5    1.30    1.10
   7  -4   5   -0.40    0.80
  -7  -4  -5   -1.00    1.10
   7  -4   5    1.10    1.00
  -7  -4  -5    0.10    1.10
  -7  -4  -5   -1.10    1.40
  -7   4  -5    0.70    1.00
   7   4   5    0.60    1.00
   7   4   5   -0.80    1.20
   9  -5  -5   -0.20    1.40
   9  -5  -5   -1.10    1.00
  -9  -5   5   -1.40    0.80
   9  -5  -5    0.20    1.10
  -9  -5   5    0.00    1.10
  -9  -5   5    1.30    1.10
  -9   5   5   -0.70    1.20
   9   5  -5   -0.10    1.50
  -9   5   5    3.40    1.60
   8  -5  -5    4.60    1.40
  -8  -5   5    4.50    1.40
   8  -5  -5    4.00    1.10
  -8  -5   5    4.90    1.30
  -8  -5   5    4.10    1.10
  -8   5   5    3.50    1.50
   8   5  -5    5.80    1.60
  -8   5   5    2.90    1.60
   7  -5  -5   40.00    2.60
   7  -5  -5   42.20    3.10
  -7  -5   5   40.60    2.40
  -7  -5   5   45.90    3.00
  -7  -5   5   41.10    2.40
  -7   5   5   38.30    2.60
  -7   5   5   35.40    2.70
   7   5  -5   39.10    2.70
   7   5  -5   36.30    2.50
  -6  -5   5    1.00    1.00
  -6  -5   5   -0.10    0.80
   6  -5  -5    0.00    0.70
   6  -5  -5    0.20    0.80
  -6  -5   5   -1.40    0.70
   6  -5  -5    0.20    1.00
   6  -5  -5    0.30    0.90
  -6   5   5    0.90    0.70
   6   5  -5   -1.70    0.90
   6   5  -5    0.30    1.10
  -6   5   5    0.30    1.20
   5  -5  -5   45.80    2.30
   5  -5  -5   38.00    2.70
  -5  -5   5   39.40    2.30
   5  -5  -5   42.70    2.30
   5  -5  -5   39.10    2.50
  -5  -5   5   42.60    2.00
  -5   5   5   44.10    2.40
  -5   5   5   45.70    2.20
  -5   5   5   42.00    2.50
   5   5  -5   42.20    2.40
   5   5  -5   46.60    2.60
   4  -5  -5   10.80    1.20
   4  -5  -5   10.40    1.20
   4  -5  -5    9.00    1.30
  -4  -5   5    9.50    1.20
  -4  -5   5    9.00    1.10
  -4   5   5    9.00    1.50
   4   5  -5   10.50    1.30
  -4   5   5   10.20    1.30
   4   5  -5    6.70    1.30
  -4   5   5    9.00    1.10
   3  -5  -5   17.40    1.50
   3  -5  -5   15.30    1.80
   3  -5  -5   15.60    1.10
  -3  -5   5   14.80    1.30
  -3  -5   5   16.90    1.50
   3  -5  -5   14.00    1.40
  -3   5   5   13.30    1.60
  -3   5   5   15.50    1.10
   3   5  -5   16.20    1.60
   3   5  -5   17.60    1.40
  -3   5   5   15.30    1.50
  -2  -5   5   13.40    1.20
   2  -5  -5   12.10    0.70
   2  -5  -5   12.40    1.30
  -2  -5   5   14.80    0.90
   2  -5  -5   16.40    1.60
   2  -5  -5   13.80    1.20
   2  -5  -5   13.50    1.70
   2   5  -5   15.00    1.20
  -2   5   5   13.20    1.50
   2   5  -5   12.90    1.40
  -2   5   5   14.60    0.90
  -2   5   5   17.80    1.80
   1  -5  -5    9.50    0.90
   1  -5  -5    8.90    1.30
  -1  -5   5    9.70    0.90
   1  -5  -5    9.10    1.00
  -1  -5   5    9.40    1.10
  -1   5   5    9.90    1.30
   1   5  -5    9.80    0.80
  -1   5   5    8.90    1.20
   1   5  -5    9.80    1.20
   0  -5   5    1.30    0.70
   0  -5  -5    1.50    0.70
   0  -5   5    0.70    0.50
   0  -5  -5    1.00    0.60
   0  -5  -5    0.50    0.80
   0   5   5    0.30    0.60
   0   5  -5    1.30    0.80
   0   5   5   -0.10    0.70
   0   5   5    0.60    0.70
   0   5  -5    0.50    0.30
   0   5  -5    2.00    0.80
   1  -5   5   28.90    1.50
   1  -5   5   27.10    1.10
  -1  -5  -5   35.30    2.10
   1  -5   5   35.80    1.90
  -1  -5  -5   30.30    1.70
  -1   5  -5   28.00    1.80
   1   5   5   31.10    1.70
   1   5   5   32.50    1.90
  -1   5  -5   29.30    1.70
   1   5   5   29.40    1.80
   2  -5   5   76.19    2.70
   2  -5   5   84.69    3.20
  -2  -5  -5   75.49    2.90
  -2  -5  -5   83.59    3.30
   2  -5   5   76.59    2.40
  -2  -5  -5   78.29    2.20
   2   5   5   76.39    2.60
   2   5   5   75.49    3.00
  -2   5  -5   81.79    3.00
   2   5   5   80.09    3.00
  -2   5  -5   73.89    3.20
  -3  -5  -5   22.70    2.00
   3  -5   5   22.20    1.90
  -3  -5  -5   24.10    2.00
   3  -5   5   21.00    1.40
  -3  -5  -5   23.10    1.30
   3   5   5   23.00    1.90
   3   5   5   24.80    2.10
  -3   5  -5   21.30    1.90
  -3   5  -5   23.00    1.80
   4  -5   5   19.60    1.60
   4  -5   5   16.70    1.90
  -4  -5  -5   19.00    1.90
  -4  -5  -5   16.40    1.90
  -4  -5  -5   16.60    1.30
  -4   5  -5   17.20    1.60
   4   5   5   19.40    1.70
  -4   5  -5   15.90    1.80
   4   5   5   17.80    1.80
  -5  -5  -5   10.70    1.30
  -5  -5  -5   12.20    1.60
  -5  -5  -5   12.30    1.60
   5  -5   5   13.60    1.80
   5  -5   5   14.00    1.90
   5   5   5   12.60    1.60
  -5   5  -5   10.70    1.80
   5   5   5   12.00    1.60
  -6  -5  -5    0.80    1.00
  -6  -5  -5    1.10    1.40
   6  -5   5    1.30    1.20
   6  -5   5    0.90    1.30
  -6  -5  -5    0.90    1.00
   6   5   5   -0.80    0.90
   6   5   5    0.70    1.20
  -6   5  -5    0.20    1.30
  -7  -5  -5    7.30    1.40
   7  -5   5    8.20    1.50
  -7  -5  -5    5.80    1.70
  -7  -5  -5    9.30    2.10
   7  -5   5    8.10    1.50
  -7   5  -5   10.10    2.00
   7   5   5    6.60    1.70
  -8  -6   5    1.10    1.30
   8  -6  -5    1.90    1.00
  -8  -6   5    0.60    0.90
  -8  -6   5    0.20    1.00
   8  -6  -5    1.50    1.60
   8   6  -5   -0.20    1.40
  -8   6   5    1.20    1.20
  -8   6   5    0.90    1.40
  -7  -6   5    8.70    1.40
   7  -6  -5    9.70    2.00
  -7  -6   5   11.00    1.90
   7  -6  -5   14.90    1.90
  -7  -6   5    8.70    1.60
   7   6  -5    7.80    1.70
  -7   6   5    7.90    1.90
  -7   6   5   10.20    1.70
   7   6  -5    7.90    1.70
   6  -6  -5   -0.50    1.20
  -6  -6   5    0.00    0.90
  -6  -6   5   -1.20    0.80
   6  -6  -5    0.60    0.80
   6  -6  -5   -1.50    1.00
  -6  -6   5   -0.70    0.70
  -6   6   5    1.60    1.00
  -6   6   5    0.00    1.20
   6   6  -5    1.10    1.10
   6   6  -5    1.10    1.10
   5  -6  -5    4.50    1.30
   5  -6  -5    2.70    1.10
   5  -6  -5    2.50    0.80
  -5  -6   5    2.70    0.80
   5  -6  -5    4.10    1.20
  -5  -6   5    2.80    0.90
  -5   6   5    3.50    1.00
   5   6  -5    5.00    1.40
  -5   6   5    3.00    1.10
   5   6  -5    3.00    0.90
   4  -6  -5   12.10    1.50
  -4  -6   5   12.60    1.40
   4  -6  -5   12.80    1.40
   4  -6  -5   14.30    1.80
  -4  -6   5   15.90    1.50
  -4   6   5   14.50    1.90
  -4   6   5   15.70    1.80
  -4   6   5   12.20    1.30
   4   6  -5   11.20    1.60
   4   6  -5   13.20    1.50
   3  -6  -5    5.00    1.00
   3  -6  -5    5.90    1.40
   3  -6  -5    5.10    0.80
  -3  -6   5    6.90    1.10
  -3  -6   5    4.30    1.10
   3  -6  -5    5.30    1.20
  -3   6   5    5.40    1.20
   3   6  -5    4.40    1.00
  -3   6   5    6.80    1.40
   3   6  -5    5.10    1.30
  -3   6   5    5.70    0.80
   2  -6  -5   21.60    1.40
   2  -6  -5   25.00    1.80
  -2  -6   5   23.40    1.20
   2  -6  -5   21.90    2.20
   2  -6  -5   21.10    1.80
  -2  -6   5   23.70    1.60
   2   6  -5   22.70    2.00
   2   6  -5   24.00    1.50
  -2   6   5   21.50    1.90
  -2   6   5   20.10    1.80
   1  -6  -5   18.30    1.90
   1  -6  -5   19.30    1.40
   1  -6  -5   17.70    1.20
  -1  -6   5   19.50    1.70
  -1  -6   5   18.60    1.30
  -1   6   5   18.40    1.70
  -1   6   5   18.90    1.80
   1   6  -5   19.30    1.90
   0  -6  -5   12.00    1.50
   0  -6  -5   14.30    1.40
   0  -6   5   10.10    1.10
   0  -6  -5   12.80    1.20
   0   6  -5    9.50    1.50
   0   6   5   12.10    1.50
   0   6   5   13.70    1.40
   0   6  -5   12.50    1.50
   1  -6   5    8.70    1.20
  -1  -6  -5    8.60    1.20
  -1  -6  -5    9.00    1.30
   1  -6   5    5.90    0.90
  -1  -6  -5    8.20    1.60
   1   6   5    8.70    1.40
   1   6   5    8.40    1.20
  -1   6  -5    7.10    1.20
   1   6   5    8.80    1.20
  -1   6  -5    5.80    1.20
  -2  -6  -5    7.80    1.30
  -2  -6  -5    6.00    1.40
   2  -6   5    6.60    1.00
   2  -6   5    5.40    1.10
  -2   6  -5    7.80    1.30
   2   6   5    5.60    1.20
  -2   6  -5    5.60    1.00
   2   6   5    7.10    1.20
   2   6   5    5.80    0.90
  -3  -6  -5    1.50    1.10
   3  -6   5    2.10    1.20
   3  -6   5    0.40    0.80
  -3  -6  -5   -0.70    1.10
   3   6   5    0.20    0.90
  -3   6  -5    0.30    1.10
   3   6   5    2.10    1.00
  -3   6  -5    2.30    0.90
  -4  -6  -5    6.30    1.40
  -4  -6  -5    4.80    1.50
   4  -6   5    3.70    1.10
   4  -6   5    4.30    1.00
   4   6   5    3.40    1.10
   4   6   5    3.20    1.50
  -4   6  -5    7.00    1.60
  -5  -6  -5    1.70    1.30
   5  -6   5    1.20    1.20
   5  -6   5    0.90    1.00
  -5  -6  -5   -1.10    1.30
  -5   6  -5   -0.10    0.90
   5   6   5   -2.00    1.30
   5   6   5    1.30    0.80
  -6  -6  -5   -0.80    1.40
  -6  -6  -5   -1.20    0.90
   6  -6   5   -0.10    0.90
   6  -6   5   -0.20    1.20
  -6   6  -5   -0.20    0.90
   6   6   5   -0.30    1.00
   7  -7  -5    4.70    1.20
  -7  -7   5    4.90    1.20
  -7  -7   5    5.90    1.20
  -7  -7   5    6.40    1.80
   7  -7  -5    3.80    1.70
  -7   7   5    5.70    1.60
   7   7  -5    5.70    1.70
  -7   7   5    5.50    1.90
   6  -7  -5    1.80    1.10
   6  -7  -5   -0.50    1.20
  -6  -7   5    0.50    0.70
  -6  -7   5   -0.70    1.40
  -6  -7   5    1.70    1.20
  -6   7   5    0.50    1.60
   6   7  -5    0.80    0.90
   6   7  -5    1.80    1.30
  -5  -7   5    3.40    1.10
  -5  -7   5    3.00    1.00
   5  -7  -5    1.30    1.20
   5  -7  -5    5.60    1.70
   5  -7  -5    2.10    1.00
   5   7  -5    7.00    1.40
   5   7  -5    3.90    1.10
  -5   7   5    1.60    1.50
   4  -7  -5   16.00    2.10
  -4  -7   5   13.40    1.70
   4  -7  -5   12.20    1.80
   4  -7  -5   14.10    1.60
  -4  -7   5   14.20    1.60
   4  -7  -5   14.60    1.80
  -4   7   5   14.10    1.90
   4   7  -5   11.20    1.80
   4   7  -5   17.40    1.80
  -4   7   5   15.10    1.90
  -3  -7   5    1.50    1.10
  -3  -7   5    2.60    1.00
   3  -7  -5    1.00    1.10
   3  -7  -5    1.10    0.80
   3  -7  -5    1.90    1.20
   3   7  -5    0.50    0.80
  -3   7   5    2.40    1.20
  -3   7   5   -0.50    1.10
   3   7  -5    0.60    0.80
   2  -7  -5    5.30    1.30
   2  -7  -5    4.60    1.00
  -2  -7   5    4.30    1.10
   2  -7  -5    6.70    1.30
   2  -7  -5    8.40    1.70
  -2   7   5    6.60    1.40
   2   7  -5    5.50    1.40
   2   7  -5    5.50    0.90
  -2   7   5    6.80    1.50
  -1  -7   5    0.70    0.70
   1  -7  -5   -1.00    1.10
   1  -7  -5   -0.80    0.80
   1  -7  -5    0.20    1.10
  -1  -7   5   -0.30    0.90
   1   7  -5    0.90    1.00
  -1   7   5   -0.10    0.90
  -1   7   5   -0.70    0.90
   0  -7   5   -0.30    0.60
   0  -7  -5   -0.30    1.30
   0  -7   5    0.90    0.80
   0  -7  -5    0.50    0.70
   0  -7  -5    0.10    0.70
   0   7  -5    0.30    0.70
   0   7  -5   -0.20    1.00
   0   7   5    0.70    1.00
   0   7   5    0.90    0.90
   1  -7   5   10.80    1.40
  -1  -7  -5   10.40    1.30
  -1  -7  -5   15.00    1.70
  -1  -7  -5   12.70    1.70
   1   7   5   13.20    1.60
   1   7   5   12.70    1.50
  -1   7  -5   13.60    1.60
   1   7   5   16.20    1.70
  -1   7  -5   11.70    1.60
  -2  -7  -5   17.30    1.70
   2  -7   5   16.20    1.80
  -2  -7  -5   16.80    2.10
   2   7   5   15.30    2.00
   2   7   5   17.80    1.90
  -2   7  -5   17.00    1.90
  -2   7  -5   17.80    1.80
  -3  -7  -5    4.60    1.10
  -3  -7  -5    2.30    1.40
   3  -7   5    8.00    1.30
   3  -7   5    7.90    1.40
  -3   7  -5    6.40    1.50
  -3   7  -5    5.60    1.20
   3   7   5    5.00    1.50
   3   7   5    7.90    1.50
  -4  -7  -5    4.50    1.50
   4  -7   5    4.00    1.30
   4  -7   5    3.70    1.50
  -4  -7  -5    5.60    1.80
  -4   7  -5    1.90    1.10
   4   7   5    2.40    1.20
   4   7   5    6.70    1.80
  -5  -7  -5    6.50    1.90
  -5  -7  -5    2.90    1.60
   5  -7   5    5.70    1.50
   5  -7   5    5.90    1.70
   5   7   5    7.90    1.90
  -5   7  -5    6.20    1.80
  -6  -8   5    0.10    0.90
   6  -8  -5   -0.40    1.60
  -6  -8   5    0.70    1.60
  -6  -8   5    0.50    0.70
   6  -8  -5    0.50    1.20
   6   8  -5    0.10    1.00
   6   8  -5    0.00    1.20
  -6   8   5    3.00    1.70
  -5  -8   5   -0.80    1.40
  -5  -8   5    0.70    1.30
   5  -8  -5    1.50    1.50
   5  -8  -5    1.00    1.30
  -5  -8   5    1.60    1.10
   5   8  -5   -0.60    1.10
  -5   8   5   -1.10    1.40
   5   8  -5    1.60    1.40
   4  -8  -5   -0.40    0.80
  -4  -8   5    1.30    0.90
  -4  -8   5    1.70    1.10
   4  -8  -5    1.40    1.10
   4  -8  -5   -0.40    0.90
  -4   8   5    0.80    1.30
  -4   8   5    0.10    0.90
   4   8  -5    0.10    1.00
   4   8  -5   -0.90    1.20
   3  -8  -5    5.10    1.40
  -3  -8   5    4.50    1.40
  -3  -8   5    4.70    1.30
   3  -8  -5    4.60    1.10
   3   8  -5    4.30    1.50
  -3   8   5    5.10    1.60
  -3   8   5    5.20    1.60
   2  -8  -5    1.10    1.10
  -2  -8   5    2.40    0.80
   2  -8  -5    4.30    1.40
  -2  -8   5    1.50    1.20
   2   8  -5    1.30    1.30
  -2   8   5    2.10    1.20
  -2   8   5    1.80    1.30
   1  -8  -5   15.80    2.10
   1  -8  -5   13.50    1.50
  -1  -8   5   16.20    1.90
  -1   8   5   14.40    1.80
   1   8  -5   13.50    1.90
  -1   8   5   17.40    2.00
   0  -8   5    5.30    1.50
   0  -8   5    4.10    1.10
   0  -8  -5    7.40    1.90
   0  -8  -5    5.90    1.50
   0   8  -5    4.80    1.40
   0   8   5    3.70    1.20
   0   8   5    4.60    1.40
  -1  -8  -5    2.50    1.10
  -1  -8  -5    2.40    1.30
   1  -8   5    1.10    1.00
  -1  -8  -5   -3.40    1.30
  -1   8  -5    1.30    1.00
   1   8   5    3.40    1.30
  -1   8  -5    0.80    1.10
   1   8   5   -0.60    1.30
  -2  -8  -5   -0.50    0.70
  -2  -8  -5   -1.40    1.50
  -2  -8  -5   -0.40    0.90
   2  -8   5   -0.80    0.70
   2   8   5    0.80    1.40
  -2   8  -5    0.50    1.20
  -2   8  -5   -0.20    0.90
   2   8   5   -0.30    1.00
  -3  -8  -5   -0.30    0.90
   3  -8   5    2.10    1.40
  -3  -8  -5    1.30    1.50
  -3   8  -5    0.30    0.90
   3   8   5   -0.90    1.40
   3   8   5    0.50    1.10
   4  -8   5    2.30    1.10
  -4  -8  -5    4.90    1.50
  -4  -8  -5    3.10    1.50
  -4   8  -5    1.40    1.50
   4   8   5    2.50    1.40
  -4  -9   5    2.90    1.20
   4  -9  -5    2.60    1.40
  -4  -9   5    1.80    1.20
   4  -9  -5    1.90    1.70
   4   9  -5    2.80    1.70
  -4   9   5    0.70    1.00
   3  -9  -5    3.70    1.70
  -3  -9   5    0.50    1.10
   3  -9  -5    0.50    0.90
  -3  -9   5    1.60    1.40
   3  -9  -5    0.40    0.90
  -3   9   5   -1.10    1.30
  -3   9   5   -0.80    1.40
   3   9  -5    2.50    1.60
   2  -9  -5   -1.50    1.10
   2  -9  -5    0.40    1.30
  -2  -9   5    0.50    1.30
  -2  -9   5    0.90    0.80
   2   9  -5    0.40    1.00
  -2   9   5    1.00    1.30
  -2   9   5   -1.00    0.90
  -1  -9   5    0.40    1.20
   1  -9  -5    0.00    1.10
   1  -9  -5   -1.80    1.30
   1  -9  -5    1.20    1.30
   1   9  -5   -0.40    1.20
  -1   9   5   -0.70    1.10
  -1   9   5   -0.90    1.00
   0  -9  -5   -1.30    1.50
   0  -9   5   -0.70    1.10
   0  -9  -5    1.20    1.20
   0   9  -5   -0.70    1.10
   0   9   5    2.50    1.40
   1  -9   5    0.30    0.90
  -1  -9  -5    1.10    1.00
  -1  -9  -5    0.80    1.80
   1  -9   5    0.70    0.80
  -1   9  -5    0.10    0.90
  -1   9  -5    1.70    1.20
   1   9   5    1.10    1.10
  -2  -9  -5    4.10    1.60
  -2  -9  -5    3.80    1.70
  -2  -9  -5    3.30    1.40
   2  -9   5    8.90    1.70
   2   9   5    6.20    1.50
   2   9   5    3.50    1.10
  -2   9  -5    4.70    1.60
  10   0  -6    5.20    1.20
 -10   0   6    7.90    1.80
 -10   0   6    8.10    1.40
   9   0  -6    2.00    1.20
  -9   0   6   -0.60    0.80
  -9   0   6    1.40    1.00
   8   0  -6    7.30    1.00
  -8   0   6    6.80    1.00
   8   0  -6    6.70    1.30
  -8   0   6    9.40    1.50
   8   0  -6    7.90    1.30
   8   0  -6    6.60    1.10
  -7   0   6   14.60    1.40
   7   0  -6   16.70    1.50
   7   0  -6   12.80    1.30
   7   0  -6   15.20    1.60
  -7   0   6   13.60    1.30
  -7   0   6   14.40    1.50
   7   0  -6   14.50    1.70
   6   0  -6   44.10    2.20
   6   0  -6   44.80    1.70
  -6   0   6   46.80    1.70
  -6   0   6   42.60    1.60
  -6   0   6   45.00    2.00
   6   0  -6   48.20    2.00
  -6   0   6   44.10    2.10
   6   0  -6   45.80    2.00
   6   0  -6   48.00    2.50
  -5   0   6   28.60    1.40
  -5   0   6   28.30    1.50
  -5   0   6   28.80    1.30
   5   0  -6   26.00    1.60
   5   0  -6   29.90    1.60
   5   0  -6   30.10    1.40
   5   0  -6   29.70    1.40
   5   0  -6   30.10    1.50
   4   0  -6   69.89    2.20
   4   0  -6   71.59    2.20
   4   0  -6   69.79    2.60
  -4   0   6   70.89    2.30
  -4   0   6   68.39    1.90
   4   0  -6   72.19    2.40
  -4   0   6   73.19    2.10
   4   0  -6   69.29    2.10
  -4   0   6   74.69    2.30
  -3   0   6   11.90    0.70
   3   0  -6   13.90    1.10
   3   0  -6   12.80    0.90
  -3   0   6   12.10    0.80
  -3   0   6   11.00    0.80
   3   0  -6   11.80    1.00
   3   0  -6   11.80    0.90
   3   0  -6   13.40    0.90
  -2   0   6  889.01   16.70
   2   0  -6  916.51   17.30
   2   0  -6  942.71   17.40
  -2   0   6  930.91   16.90
  -2   0   6  912.91   17.10
   2   0  -6  933.01   16.80
   2   0  -6  920.71   17.10
  -2   0   6  918.51   16.80
   1   0  -6  166.58    3.90
   1   0  -6  162.98    4.00
  -1   0   6  166.58    3.60
   1   0  -6  165.98    3.50
  -1   0   6  167.88    3.80
  -1   0   6  168.88    3.70
   0   0  -6  240.28    4.90
   0   0  -6  239.38    5.40
   0   0  -6  238.68    5.50
   0   0   6  242.78    5.20
   0   0  -6  237.58    5.10
   0   0   6  237.78    4.80
  -1   0  -6  429.86    8.90
  -1   0  -6  420.26    8.20
  -1   0  -6  425.66    8.60
   1   0   6  423.06    8.50
   1   0   6  417.76    8.00
  -1   0  -6  421.06    8.30
   1   0   6  429.56    8.50
  -1   0  -6  403.76    8.30
  -2   0  -6  151.78    3.60
   2   0   6  155.98    3.50
  -2   0  -6  153.98    3.70
   2   0   6  159.78    4.00
   2   0   6  162.18    4.00
  -2   0  -6  157.78    3.90
  -2   0  -6  157.98    4.40
  -3   0  -6   14.30    1.20
  -3   0  -6   14.90    1.10
   3   0   6   16.30    1.20
   3   0   6   15.40    1.00
   3   0   6   14.70    1.20
  -3   0  -6   15.60    1.60
  -3   0  -6   15.80    1.00
   4   0   6    0.00    0.60
  -4   0  -6   -0.70    0.60
   4   0   6   -0.70    0.70
   4   0   6   -0.30    0.40
  -4   0  -6    0.10    0.40
  -4   0  -6   -0.90    0.60
  -4   0  -6    1.80    0.70
   5   0   6    6.90    1.00
  -5   0  -6    4.80    0.80
   5   0   6    6.10    1.00
  -5   0  -6    7.50    1.20
  -5   0  -6    6.30    1.20
   6   0   6    7.50    1.40
   6   0   6    9.40    1.20
  -6   0  -6    9.00    1.40
  -6   0  -6   10.70    1.90
   7   0   6    0.40    0.90
  -7   0  -6    0.90    1.50
   7   0   6    4.60    1.40
  -7   0  -6    0.70    1.20
  -8   0  -6    1.20    1.70
  -8   0  -6    0.20    2.20
   8   0   6    1.20    1.30
  10  -1  -6    9.90    1.70
 -10  -1   6    9.00    1.90
 -10  -1   6   11.30    1.50
  10   1  -6    8.60    1.60
 -10   1   6   10.20    1.70
  10   1  -6    7.80    1.60
  -9  -1   6    8.70    1.40
   9  -1  -6    5.40    1.20
   9  -1  -6    5.40    1.30
  -9  -1   6    6.30    1.50
   9   1  -6    5.60    1.30
  -9   1   6    5.30    1.60
  -9   1   6    4.10    1.00
   8  -1  -6   38.50    2.30
  -8  -1   6   42.50    2.30
   8  -1  -6   36.40    2.60
  -8  -1   6   43.00    2.50
   8  -1  -6   42.50    2.50
   8  -1  -6   38.60    2.40
   8   1  -6   38.90    2.40
  -8   1   6   37.10    2.30
  -8   1   6   40.20    2.60
   8   1  -6   45.20    2.40
  -8   1   6   37.70    2.00
   7  -1  -6   35.10    2.10
  -7  -1   6   38.00    2.10
   7  -1  -6   39.00    2.10
  -7  -1   6   37.80    1.90
   7  -1  -6   37.30    2.10
   7  -1  -6   32.70    2.00
  -7  -1   6   32.00    1.60
  -7   1   6   35.00    2.10
  -7   1   6   32.50    2.00
   7   1  -6   35.00    1.70
  -7   1   6   31.10    1.60
   7   1  -6   32.70    1.60
   7   1  -6   35.50    1.90
   7   1  -6   33.30    2.20
   7   1  -6   35.90    2.00
  -6  -1   6   89.59    2.70
   6  -1  -6   91.39    3.30
   6  -1  -6   85.49    3.30
   6  -1  -6   89.69    2.90
  -6  -1   6   87.69    2.80
  -6  -1   6   86.89    2.90
  -6  -1   6   85.29    2.70
   6  -1  -6   92.29    3.10
   6   1  -6   89.39    3.00
  -6   1   6   91.09    3.10
   6   1  -6   89.19    3.30
  -6   1   6   85.99    3.00
   6   1  -6   82.99    2.70
   6   1  -6   86.09    2.80
   6   1  -6   84.09    2.50
  -6   1   6   87.99    2.60
  -5  -1   6    5.70    0.70
   5  -1  -6    4.70    0.60
  -5  -1   6    6.20    0.80
   5  -1  -6    4.90    0.90
   5  -1  -6    4.60    0.80
   5  -1  -6    3.60    0.90
  -5  -1   6    4.10    0.70
   5  -1  -6    5.40    0.90
   5   1  -6    5.00    0.60
   5   1  -6    5.60    0.80
  -5   1   6    6.20    0.90
   5   1  -6    6.00    0.80
   5   1  -6    4.80    1.00
  -5   1   6    3.70    0.70
  -5   1   6    4.60    0.40
  -5   1   6    4.90    0.80
  -5   1   6    4.50    0.60
   5   1  -6    5.50    0.80
   4  -1  -6  320.37    6.80
  -4  -1   6  312.97    6.80
   4  -1  -6  323.67    6.70
   4  -1  -6  318.97    7.10
   4  -1  -6  312.77    6.90
  -4  -1   6  318.97    6.70
  -4  -1   6  320.97    6.70
   4  -1  -6  318.27    6.40
  -4  -1   6  317.37    6.50
   4  -1  -6  326.57    7.20
  -4   1   6  316.77    7.00
   4   1  -6  320.67    6.90
  -4   1   6  322.17    6.80
  -4   1   6  326.67    6.80
   4   1  -6  318.37    6.60
   4   1  -6  316.87    6.50
   4   1  -6  305.67    6.20
  -4   1   6  315.87    6.20
   4   1  -6  315.57    7.20
  -3  -1   6  225.78    4.90
   3  -1  -6  230.68    5.30
  -3  -1   6  226.58    4.60
   3  -1  -6  229.28    4.80
   3  -1  -6  229.28    5.20
   3  -1  -6  228.98    5.30
   3  -1  -6  226.58    5.00
  -3  -1   6  227.78    5.00
  -3   1   6  219.58    4.40
   3   1  -6  220.38    4.50
  -3   1   6  224.88    4.80
  -3   1   6  223.28    5.00
   3   1  -6  229.88    5.50
   3   1  -6  227.58    4.70
   3   1  -6  225.48    4.70
  -3   1   6  228.38    5.20
   3   1  -6  227.08    5.40
   3   1  -6  228.98    5.20
  -2  -1   6    6.80    0.60
  -2  -1   6    7.50    0.60
   2  -1  -6    6.30    0.70
  -2  -1   6    6.00    0.60
   2  -1  -6    8.00    0.80
   2  -1  -6    7.50    0.90
   2  -1  -6    7.40    0.70
   2   1  -6    7.40    0.50
   2   1  -6    6.40    0.80
  -2   1   6    6.30    0.30
  -2   1   6    7.10    0.80
   2   1  -6    7.10    0.80
   2   1  -6    6.80    0.50
  -2   1   6    8.60    0.70
   2   1  -6    7.00    0.80
   1  -1  -6    4.20    0.70
   1  -1  -6    4.60    0.70
  -1  -1   6    3.60    0.50
  -1  -1   6    4.50    0.60
   1  -1  -6    3.80    0.70
  -1   1   6    5.40    0.70
  -1   1   6    4.40    0.40
  -1   1   6    4.70    0.70
   1   1  -6    4.10    0.70
   1   1  -6    3.30    0.50
   1   1  -6    4.60    0.40
   0  -1  -6   77.49    2.30
   0  -1   6   79.29    2.10
   0  -1  -6   78.79    2.30
   0  -1   6   78.89    2.30
   0  -1   6   80.69    2.20
   0  -1  -6   77.79    2.40
   0   1   6   77.39    1.80
   0   1   6   79.89    2.30
   0   1  -6   79.49    2.10
   0   1  -6   78.19    2.20
   0   1  -6   80.59    2.50
   0   1  -6   76.69    1.90
   0   1  -6   80.99    2.80
   0   1   6   80.49    2.30
  -1  -1  -6    7.80    0.50
   1  -1   6    8.40    0.80
  -1  -1  -6    8.20    0.90
  -1  -1  -6    8.20    1.00
  -1  -1  -6    7.60    0.90
   1  -1   6    9.00    0.80
   1   1   6    7.80    0.40
  -1   1  -6    9.00    1.20
  -1   1  -6   10.00    1.00
  -1   1  -6    9.50    0.80
   1   1   6    8.80    0.90
  -1   1  -6    7.80    0.70
  -1   1  -6    8.00    0.60
  -2  -1  -6  287.57    6.30
   2  -1   6  283.87    6.20
  -2  -1  -6  286.07    6.30
  -2  -1  -6  278.27    5.70
  -2  -1  -6  280.07    6.50
   2  -1   6  276.87    6.10
   2   1   6  292.47    6.20
  -2   1  -6  281.87    6.20
  -2   1  -6  275.67    5.60
   2   1   6  279.97    6.00
  -2   1  -6  286.27    6.20
   2   1   6  284.47    6.40
  -2   1  -6  279.97    6.70
  -3  -1  -6   33.00    1.70
  -3  -1  -6   35.40    2.10
   3  -1   6   37.50    1.80
  -3  -1  -6   37.30    1.90
  -3  -1  -6   35.10    1.70
   3  -1   6   33.40    1.80
   3  -1   6   32.50    1.10
  -3  -1  -6   35.10    1.50
   3   1   6   36.50    1.70
   3   1   6   33.80    1.80
  -3   1  -6   35.70    1.70
   3   1   6   36.00    1.60
  -3   1  -6   39.80    2.20
  -3   1  -6   35.80    1.20
  -3   1  -6   36.40    1.80
   4  -1   6    9.30    1.10
  -4  -1  -6    9.10    1.10
  -4  -1  -6   10.10    1.20
  -4  -1  -6    9.80    1.10
  -4  -1  -6    9.10    1.30
  -4  -1  -6    8.70    1.40
   4  -1   6   10.10    1.20
  -4   1  -6    9.30    1.10
  -4   1  -6    9.60    1.20
  -4   1  -6   10.20    1.50
   4   1   6    8.50    1.20
   4   1   6    7.90    0.90
   4   1   6    8.10    0.90
  -5  -1  -6    9.70    1.60
  -5  -1  -6    7.90    1.20
   5  -1   6    8.40    1.20
   5  -1   6    7.90    1.20
  -5  -1  -6    8.60    1.20
  -5  -1  -6    6.80    1.20
   5   1   6   10.70    1.20
  -5   1  -6    8.40    1.60
  -5   1  -6   10.00    1.30
   5   1   6    8.30    1.00
   5   1   6    6.70    1.10
  -5   1  -6    8.30    1.00
   6  -1   6    7.10    1.40
  -6  -1  -6    4.80    1.10
  -6  -1  -6    7.80    1.80
  -6  -1  -6    5.40    1.10
   6  -1   6    4.50    1.10
  -6  -1  -6    6.10    1.50
  -6   1  -6    2.80    1.50
   6   1   6    6.40    1.10
  -6   1  -6    7.20    1.40
   6   1   6    4.90    1.10
  -7  -1  -6   61.79    3.90
   7  -1   6   61.19    3.40
  -7  -1  -6   59.59    3.30
   7  -1   6   59.49    2.90
   7   1   6   54.89    3.30
   7   1   6   54.39    2.60
  -7   1  -6   59.19    3.40
  -7   1  -6   61.89    3.80
  -8  -1  -6   14.70    2.20
  -8  -1  -6   16.20    2.20
   8  -1   6   15.20    2.20
   8  -1   6   13.60    1.60
  -8   1  -6   13.90    1.90
  -8   1  -6   19.60    2.70
   8   1   6   14.10    1.90
  10  -2  -6    0.90    1.20
  10  -2  -6   -0.20    1.10
 -10  -2   6    1.20    1.20
 -10  -2   6    2.40    1.50
 -10   2   6    1.40    1.20
 -10   2   6   -1.00    1.30
  10   2  -6    1.00    1.20
  10   2  -6    2.00    1.30
   9  -2  -6    3.00    1.30
  -9  -2   6    3.90    1.00
   9  -2  -6    3.30    1.30
  -9  -2   6    2.60    1.30
   9  -2  -6    3.50    1.00
   9   2  -6    5.00    1.40
  -9   2   6    0.90    1.10
   9   2  -6    6.80    1.40
  -8  -2   6    5.10    1.30
   8  -2  -6    6.90    1.40
   8  -2  -6    4.40    1.30
  -8  -2   6    6.00    1.10
   8  -2  -6    4.20    1.20
  -8  -2   6    5.30    1.20
   8  -2  -6    4.80    1.30
  -8   2   6    4.30    1.10
  -8   2   6    4.20    1.40
   8   2  -6    5.80    1.40
   8   2  -6    3.40    1.10
   8   2  -6    5.30    1.10
  -8   2   6    5.90    1.10
   7  -2  -6    0.10    0.60
   7  -2  -6    0.00    0.80
   7  -2  -6    0.40    0.90
   7  -2  -6   -1.50    0.70
  -7  -2   6    0.20    0.60
  -7  -2   6   -0.20    0.70
  -7  -2   6   -0.10    0.60
  -7   2   6    0.40    0.60
   7   2  -6   -0.30    0.60
  -7   2   6    0.10    1.00
   7   2  -6    0.20    0.50
   7   2  -6    1.00    0.80
  -7   2   6    0.00    0.70
  -6  -2   6  110.99    3.30
   6  -2  -6  112.09    3.50
  -6  -2   6  112.99    3.50
   6  -2  -6  124.09    4.00
  -6  -2   6  114.39    3.50
   6  -2  -6  109.39    3.80
   6  -2  -6  115.19    3.70
  -6  -2   6  109.29    3.10
  -6   2   6  114.19    3.10
  -6   2   6  109.19    3.80
  -6   2   6  117.69    3.70
   6   2  -6  111.39    3.50
   6   2  -6  112.49    3.30
   6   2  -6  113.99    4.00
   6   2  -6  116.79    3.40
  -5  -2   6  278.47    6.00
  -5  -2   6  280.57    6.20
   5  -2  -6  291.37    7.10
   5  -2  -6  282.37    6.70
  -5  -2   6  287.97    6.40
   5  -2  -6  280.27    6.20
   5  -2  -6  284.47    6.80
   5  -2  -6  279.77    6.40
   5   2  -6  294.07    7.00
  -5   2   6  281.07    6.50
   5   2  -6  270.07    6.50
  -5   2   6  281.67    5.90
   5   2  -6  283.97    6.10
  -5   2   6  281.17    6.80
  -5   2   6  282.57    6.50
   5   2  -6  285.97    6.20
   4  -2  -6    3.20    0.40
  -4  -2   6    3.60    0.60
  -4  -2   6    3.60    0.60
   4  -2  -6    3.50    0.90
  -4  -2   6    2.30    0.70
   4  -2  -6    4.30    0.90
   4  -2  -6    4.50    0.70
   4  -2  -6    4.80    0.90
  -4   2   6    2.70    0.80
   4   2  -6    6.00    1.00
   4   2  -6    3.60    0.60
   4   2  -6    4.00    0.50
  -4   2   6    3.50    0.40
   4   2  -6    3.30    0.30
  -4   2   6    3.40    0.70
   4   2  -6    3.40    0.80
  -4   2   6    3.20    0.70
  -3  -2   6  209.18    4.40
   3  -2  -6  212.38    5.10
   3  -2  -6  218.38    4.80
  -3  -2   6  219.78    4.90
  -3  -2   6  206.68    4.10
   3  -2  -6  211.08    5.30
   3  -2  -6  213.58    4.80
  -3  -2   6  217.28    4.90
   3   2  -6  212.38    5.20
  -3   2   6  203.78    4.00
  -3   2   6  213.68    5.00
   3   2  -6  211.68    5.10
   3   2  -6  205.78    4.20
  -3   2   6  208.18    4.70
  -3   2   6  208.78    5.10
   3   2  -6  213.18    4.40
   2  -2  -6   42.30    1.40
  -2  -2   6   43.90    1.60
   2  -2  -6   44.00    1.60
   2  -2  -6   47.20    2.00
  -2  -2   6   43.60    1.20
   2  -2  -6   44.30    1.80
  -2  -2   6   42.80    1.40
   2  -2  -6   46.40    1.70
  -2   2   6   46.60    1.80
  -2   2   6   48.20    1.80
   2   2  -6   45.20    1.80
  -2   2   6   45.00    1.40
   2   2  -6   45.00    1.80
   2   2  -6   44.90    1.20
   1  -2  -6   55.09    1.90
  -1  -2   6   54.39    1.70
  -1  -2   6   56.59    1.90
   1  -2  -6   59.99    2.20
   1  -2  -6   54.69    1.80
   1   2  -6   53.39    2.10
  -1   2   6   56.09    1.40
   1   2  -6   54.79    1.10
  -1   2   6   56.69    2.00
   1   2  -6   55.89    1.90
   1   2  -6   58.89    2.20
  -1   2   6   56.89    2.00
   0  -2  -6    1.00    0.50
   0  -2  -6    0.60    0.50
   0  -2   6    0.60    0.30
   0  -2   6    0.90    0.50
   0  -2  -6   -0.20    0.60
   0  -2   6    1.00    0.50
   0   2  -6    0.80    0.40
   0   2   6    0.30    0.20
   0   2  -6    0.50    0.50
   0   2  -6    0.30    0.20
   0   2   6    0.00    0.40
   0   2   6    0.00    0.50
   0   2  -6    0.60    0.40
   0   2  -6    0.70    0.40
   1  -2   6   27.00    1.30
  -1  -2  -6   26.60    1.60
   1  -2   6   26.60    1.20
  -1  -2  -6   26.70    1.50
  -1  -2  -6   23.50    0.60
  -1  -2  -6   25.10    1.50
  -1   2  -6   25.70    1.30
  -1   2  -6   27.00    1.50
   1   2   6   27.30    1.40
  -1   2  -6   24.30    0.90
   1   2   6   23.80    1.30
  -1   2  -6   23.80    1.00
   1   2   6   25.70    1.30
  -2  -2  -6   79.09    2.80
  -2  -2  -6   73.79    2.30
   2  -2   6   76.59    2.40
  -2  -2  -6   79.69    2.80
  -2  -2  -6   78.69    2.80
  -2  -2  -6   74.89    1.90
   2  -2   6   79.49    2.60
   2   2   6   78.99    2.60
  -2   2  -6   82.39    2.70
  -2   2  -6   82.39    3.20
  -2   2  -6   83.59    2.60
   2   2   6   80.59    2.60
  -3  -2  -6    4.60    0.90
   3  -2   6    4.10    0.90
  -3  -2  -6    5.00    0.90
  -3  -2  -6    4.20    0.60
   3  -2   6    6.60    0.90
  -3  -2  -6    5.20    0.90
   3   2   6    6.50    0.90
  -3   2  -6    3.80    0.80
  -3   2  -6    4.90    0.90
  -3   2  -6    5.50    1.10
   3   2   6    6.60    1.10
   4  -2   6   12.70    1.40
   4  -2   6   11.70    1.20
  -4  -2  -6   11.60    1.60
  -4  -2  -6   11.00    1.00
  -4  -2  -6   11.90    1.30
  -4  -2  -6   11.30    1.20
   4   2   6   11.40    1.30
  -4   2  -6   11.60    1.10
  -4   2  -6   10.60    1.50
   4   2   6   10.70    1.20
  -4   2  -6   12.70    1.50
   4   2   6   12.70    1.20
  -5  -2  -6    3.50    1.10
  -5  -2  -6    4.80    1.20
   5  -2   6    3.50    1.00
  -5  -2  -6    2.50    0.90
  -5  -2  -6    3.30    1.00
   5  -2   6    4.10    1.10
   5   2   6    4.80    1.20
  -5   2  -6    4.60    1.30
   5   2   6    3.20    1.00
  -5   2  -6    4.40    1.50
   5   2   6    4.80    0.90
  -6  -2  -6    0.40    0.90
  -6  -2  -6    0.60    1.00
   6  -2   6    1.70    1.00
  -6  -2  -6    0.60    0.80
   6  -2   6    1.50    1.10
  -6   2  -6    2.40    1.20
   6   2   6    1.90    0.90
  -6   2  -6    1.40    1.40
   6   2   6    0.70    0.90
   6   2   6    1.30    0.70
  -7  -2  -6    0.30    1.60
  -7  -2  -6    0.90    0.90
   7  -2   6    1.00    0.80
   7  -2   6    1.00    1.20
  -7  -2  -6   -0.50    0.90
  -7   2  -6    0.20    1.10
  -7   2  -6    1.80    1.30
   7   2   6   -0.20    0.80
   8  -2   6   -0.20    1.20
  -8  -2  -6   -0.90    1.50
   8   2   6   -0.30    1.30
   9  -3  -6    1.60    0.90
   9  -3  -6    1.40    1.30
  -9  -3   6    0.00    1.10
  -9  -3   6    0.90    1.00
   9  -3  -6    0.60    0.90
   9   3  -6    3.30    1.40
   9   3  -6    0.20    1.10
  -9   3   6    1.20    1.20
  -9   3   6    0.20    0.90
  -8  -3   6   18.70    1.90
   8  -3  -6   22.00    2.10
  -8  -3   6   24.80    2.00
  -8  -3   6   25.30    2.10
   8  -3  -6   18.90    1.90
   8  -3  -6   19.80    2.10
  -8   3   6   20.80    2.10
   8   3  -6   23.90    2.20
   8   3  -6   24.70    2.00
  -8   3   6   17.40    1.70
  -8   3   6   21.50    2.00
   7  -3  -6   80.19    3.20
  -7  -3   6   86.29    3.10
   7  -3  -6   85.49    3.70
  -7  -3   6   84.39    3.20
   7  -3  -6   86.59    3.70
  -7  -3   6   87.99    3.50
   7  -3  -6   88.49    3.40
   7   3  -6   91.69    3.70
   7   3  -6   90.29    3.40
  -7   3   6   87.09    3.80
   7   3  -6   89.09    3.20
  -7   3   6   87.49    3.30
  -7   3   6   87.39    3.10
   6  -3  -6    3.50    0.90
   6  -3  -6    2.70    1.00
  -6  -3   6    2.60    0.70
   6  -3  -6    3.60    1.00
  -6  -3   6    2.50    0.70
   6  -3  -6    3.40    0.90
  -6   3   6    1.00    0.60
   6   3  -6    3.20    0.80
   6   3  -6    3.00    1.00
  -6   3   6    3.20    0.90
   6   3  -6    3.10    0.80
   5  -3  -6    3.20    1.10
   5  -3  -6    2.50    1.10
   5  -3  -6    2.90    0.60
  -5  -3   6    2.60    0.70
   5  -3  -6    5.10    1.00
  -5  -3   6    4.80    0.90
  -5  -3   6    3.50    0.60
   5  -3  -6    4.50    1.00
  -5   3   6    5.30    1.20
   5   3  -6    4.70    0.80
  -5   3   6    4.60    0.90
   5   3  -6    3.30    1.00
  -5   3   6    3.20    0.60
   5   3  -6    3.60    0.90
  -5   3   6    2.90    0.80
   4  -3  -6    0.30    0.50
  -4  -3   6    0.00    0.60
   4  -3  -6    0.50    0.50
   4  -3  -6   -0.10    0.30
  -4  -3   6    0.00    0.60
   4  -3  -6    0.00    0.70
   4  -3  -6    0.60    0.70
  -4   3   6    0.70    0.80
  -4   3   6    0.10    0.50
   4   3  -6    0.30    0.70
  -4   3   6    1.50    0.70
   4   3  -6    0.50    0.40
  -4   3   6   -0.40    0.60
   3  -3  -6    5.90    1.00
   3  -3  -6    6.30    0.80
  -3  -3   6    5.80    0.90
  -3  -3   6    5.00    0.50
   3  -3  -6    4.80    0.80
  -3  -3   6    5.20    0.80
  -3   3   6    7.90    1.10
  -3   3   6    5.20    0.90
  -3   3   6    3.70    0.50
   3   3  -6    6.30    0.90
   3   3  -6    4.10    0.50
  -3   3   6    6.30    0.80
   2  -3  -6   14.20    1.40
   2  -3  -6   14.60    1.00
   2  -3  -6   12.90    1.20
  -2  -3   6   14.70    0.90
   2  -3  -6   13.50    1.20
  -2  -3   6   15.20    1.20
   2  -3  -6   13.70    0.70
   2   3  -6   15.70    0.90
  -2   3   6   14.30    1.10
  -2   3   6   14.00    1.20
  -2   3   6   13.80    0.60
   2   3  -6   14.10    1.30
   2   3  -6   14.10    1.00
  -1  -3   6  188.08    4.40
   1  -3  -6  175.08    4.00
  -1  -3   6  177.58    4.10
   1  -3  -6  184.68    4.70
   1  -3  -6  178.78    4.30
   1   3  -6  177.38    3.70
  -1   3   6  185.18    4.60
   1   3  -6  173.08    4.60
  -1   3   6  181.58    4.50
   1   3  -6  177.28    4.20
   0  -3   6    2.40    0.40
   0  -3   6    2.00    0.60
   0  -3   6    1.90    0.70
   0  -3  -6    1.70    0.70
   0  -3  -6    3.40    0.60
   0  -3  -6    2.10    0.80
   0   3  -6    3.10    0.80
   0   3  -6    2.30    0.40
   0   3  -6    2.10    0.20
   0   3   6    2.50    0.60
   0   3   6    2.00    0.70
   0   3  -6    2.80    0.80
  -1  -3  -6   26.10    1.60
   1  -3   6   24.10    1.30
  -1  -3  -6   25.90    1.80
  -1  -3  -6   25.30    1.50
   1  -3   6   27.50    1.20
   1   3   6   25.10    1.30
  -1   3  -6   23.80    1.50
  -1   3  -6   23.90    1.50
   1   3   6   25.70    1.50
   1   3   6   26.00    1.50
  -1   3  -6   25.00    1.50
  -1   3  -6   24.00    1.00
  -2  -3  -6   28.60    1.80
   2  -3   6   28.90    1.60
  -2  -3  -6   27.20    1.60
   2  -3   6   27.90    1.50
  -2  -3  -6   28.10    1.30
  -2  -3  -6   26.00    1.70
  -2   3  -6   24.70    1.30
   2   3   6   28.30    1.70
  -2   3  -6   27.30    1.60
   2   3   6   29.80    1.50
  -2   3  -6   25.00    1.70
  -2   3  -6   27.80    1.60
   2   3   6   27.70    1.70
  -3  -3  -6    9.00    1.30
   3  -3   6   11.10    1.30
  -3  -3  -6    9.90    1.00
   3  -3   6    9.90    1.00
   3  -3   6   11.90    1.30
  -3  -3  -6   10.60    1.40
   3   3   6   11.80    1.10
  -3   3  -6   12.00    1.30
   3   3   6   12.60    1.40
   3   3   6   10.20    1.30
  -3   3  -6   13.00    1.20
  -4  -3  -6    0.20    0.90
   4  -3   6   -0.50    0.80
   4  -3   6    0.40    0.50
  -4  -3  -6    0.00    0.70
  -4  -3  -6    0.20    0.70
   4  -3   6    0.20    0.60
  -4   3  -6    0.20    0.50
  -4   3  -6    0.70    0.90
   4   3   6    1.30    0.70
   4   3   6   -0.20    0.60
   4   3   6    0.20    0.50
  -4   3  -6    0.20    0.60
  -5  -3  -6    0.50    0.70
   5  -3   6    1.40    1.00
   5  -3   6   -0.40    0.90
  -5  -3  -6    1.10    1.20
  -5  -3  -6    0.50    0.90
   5  -3   6   -0.10    0.70
  -5   3  -6    1.60    1.30
   5   3   6    1.20    0.70
   5   3   6    1.40    1.00
  -5   3  -6   -0.40    1.10
   6  -3   6    4.80    1.30
   6  -3   6    5.20    1.30
  -6  -3  -6    5.00    1.30
  -6  -3  -6    4.20    1.30
  -6  -3  -6    3.20    1.30
   6   3   6    3.00    1.20
  -6   3  -6    2.90    1.40
  -6   3  -6    1.80    1.40
  -7  -3  -6   35.90    3.20
  -7  -3  -6   28.40    2.60
  -7  -3  -6   23.20    2.20
   7  -3   6   30.90    2.30
   7  -3   6   28.30    2.60
  -7   3  -6   33.60    3.20
   7   3   6   30.80    2.20
  -7   3  -6   36.30    3.20
  -9  -4   6    0.30    0.70
  -9  -4   6    1.30    1.00
  -9  -4   6   -0.10    0.80
   9  -4  -6    2.60    1.40
   9  -4  -6   -1.50    1.00
   9  -4  -6   -0.20    0.90
  -9   4   6    2.60    1.40
  -9   4   6   -0.10    1.30
   9   4  -6    1.00    1.50
   8  -4  -6    5.20    1.30
  -8  -4   6    7.20    1.30
   8  -4  -6    7.30    1.70
  -8  -4   6    5.00    1.30
   8  -4  -6    5.70    1.20
  -8  -4   6    7.60    1.20
  -8   4   6    4.90    1.40
  -8   4   6    6.50    1.30
   8   4  -6    7.20    1.30
   7  -4  -6    2.30    1.30
  -7  -4   6    3.60    1.20
   7  -4  -6    3.10    1.20
   7  -4  -6    7.20    1.20
  -7  -4   6    3.40    1.20
  -7  -4   6    4.20    1.00
   7  -4  -6    3.80    1.10
  -7   4   6    3.70    1.20
   7   4  -6    5.10    1.30
  -7   4   6    5.20    1.30
   7   4  -6    5.70    1.30
  -6  -4   6   31.90    1.80
  -6  -4   6   30.30    2.00
   6  -4  -6   28.50    2.00
   6  -4  -6   31.50    2.20
   6  -4  -6   30.80    2.40
   6  -4  -6   30.10    1.90
  -6   4   6   33.00    2.30
  -6   4   6   28.70    2.00
   6   4  -6   32.70    2.30
   6   4  -6   28.00    1.90
  -5  -4   6  174.18    4.70
  -5  -4   6  173.48    4.60
   5  -4  -6  171.78    5.40
   5  -4  -6  168.88    4.90
   5  -4  -6  177.48    4.80
   5  -4  -6  175.98    5.40
  -5   4   6  175.68    4.60
  -5   4   6  180.98    5.10
   5   4  -6  170.48    5.00
  -5   4   6  174.38    5.30
   5   4  -6  170.58    4.80
   4  -4  -6    3.20    0.80
   4  -4  -6    2.70    0.90
   4  -4  -6    1.80    1.00
   4  -4  -6    1.50    0.50
  -4  -4   6    3.90    0.90
  -4  -4   6    2.70    0.80
  -4   4   6    2.90    0.70
  -4   4   6    2.00    1.00
  -4   4   6    3.50    1.00
   4   4  -6    3.60    0.80
   4   4  -6    2.60    0.80
   3  -4  -6   72.89    2.80
  -3  -4   6   68.79    2.40
  -3  -4   6   70.09    2.60
   3  -4  -6   77.19    2.70
   3  -4  -6   71.09    2.30
   3  -4  -6   76.79    3.20
  -3   4   6   70.29    2.70
   3   4  -6   70.29    2.90
  -3   4   6   75.79    3.00
   3   4  -6   73.89    2.40
   2  -4  -6   10.00    1.00
   2  -4  -6    9.60    1.10
  -2  -4   6   13.10    1.10
  -2  -4   6   11.70    0.80
   2  -4  -6   10.30    0.70
   2  -4  -6   12.00    1.40
   2  -4  -6   12.60    1.30
   2   4  -6   10.90    1.30
  -2   4   6   12.20    1.30
   2   4  -6   11.90    0.90
  -2   4   6    9.20    1.20
   1  -4  -6   25.10    1.60
   1  -4  -6   24.70    1.60
   1  -4  -6   24.00    1.20
  -1  -4   6   29.00    1.40
  -1  -4   6   27.00    1.60
   1   4  -6   25.20    1.00
  -1   4   6   28.50    1.60
   1   4  -6   23.10    1.70
  -1   4   6   27.00    1.70
   0  -4  -6    9.40    1.30
   0  -4  -6   10.30    1.10
   0  -4   6    8.90    0.70
   0  -4   6    9.70    1.00
   0  -4  -6    9.50    1.00
   0   4  -6    8.80    1.10
   0   4   6   10.30    1.10
   0   4  -6    8.80    1.20
   0   4   6   10.70    1.20
  -1  -4  -6    0.70    0.70
  -1  -4  -6    0.70    0.30
  -1  -4  -6    1.90    0.90
   1  -4   6   -0.30    0.60
   1  -4   6    0.10    0.40
  -1  -4  -6    0.60    0.90
   1   4   6    0.20    0.60
  -1   4  -6    0.10    0.70
   1   4   6    2.00    0.80
   1   4   6   -0.50    0.50
  -1   4  -6    0.90    0.60
   2  -4   6   28.90    1.60
  -2  -4  -6   32.30    2.00
   2  -4   6   31.10    1.80
  -2  -4  -6   29.90    1.30
  -2  -4  -6   28.60    1.80
  -2   4  -6   31.30    1.90
  -2   4  -6   30.60    1.90
   2   4   6   31.90    1.50
   2   4   6   30.70    1.80
   2   4   6   32.70    1.80
   3  -4   6    4.50    0.80
   3  -4   6    4.80    0.80
   3  -4   6    4.40    0.90
  -3  -4  -6    5.30    0.80
  -3  -4  -6    4.40    1.20
  -3  -4  -6    4.20    0.90
   3   4   6    4.70    1.10
   3   4   6    4.10    0.80
   3   4   6    3.20    1.10
  -3   4  -6    2.70    1.10
  -3   4  -6    4.60    1.00
   4  -4   6    4.50    1.20
   4  -4   6    4.90    0.90
  -4  -4  -6    4.10    0.70
  -4  -4  -6    4.90    1.10
  -4  -4  -6    4.10    1.00
   4  -4   6    6.40    1.20
  -4   4  -6    4.40    1.00
   4   4   6    4.80    1.10
   4   4   6    4.40    1.10
  -4   4  -6    2.70    1.00
  -5  -4  -6    0.80    0.90
   5  -4   6    1.50    1.00
  -5  -4  -6    1.90    1.20
  -5  -4  -6    0.50    0.90
   5  -4   6    0.70    0.80
  -5   4  -6    0.70    0.80
  -5   4  -6    2.70    0.90
   5   4   6    1.90    1.20
   5   4   6    1.90    1.00
  -6  -4  -6   -2.20    0.90
   6  -4   6    0.10    0.70
  -6  -4  -6   -0.80    1.10
  -6  -4  -6    2.60    1.50
   6  -4   6   -0.60    0.80
   6   4   6    0.30    0.70
  -6   4  -6   -1.80    0.70
   6   4   6   -0.60    1.10
   7  -4   6   -1.70    1.10
   7  -4   6    0.90    1.30
  -7  -4  -6    2.90    1.80
  -7  -4  -6    0.60    0.90
  -7  -4  -6    2.10    1.00
   7   4   6   -0.70    1.20
  -7   4  -6   -1.80    1.40
   7   4   6    0.80    0.80
  -9  -5   6    0.20    0.90
  -9  -5   6    1.20    1.00
  -9  -5   6    1.00    0.90
   9  -5  -6    0.70    0.90
   9  -5  -6    0.60    1.20
   9  -5  -6    1.20    1.50
  -9   5   6    1.10    1.50
  -9   5   6    1.40    1.50
   9   5  -6    3.00    1.70
  -8  -5   6    6.80    1.40
   8  -5  -6    6.10    1.30
   8  -5  -6    7.40    1.80
  -8  -5   6    8.90    1.60
  -8  -5   6    6.20    1.60
  -8   5   6   11.00    2.10
  -8   5   6    8.00    1.50
   8   5  -6    6.50    1.70
   7  -5  -6    7.60    1.50
  -7  -5   6    8.40    1.30
   7  -5  -6    4.10    1.50
   7  -5  -6    5.00    1.20
  -7  -5   6    6.40    1.60
  -7  -5   6    8.30    1.40
   7   5  -6    6.10    1.30
  -7   5   6    7.00    1.80
   7   5  -6    7.30    1.60
  -7   5   6    5.40    1.10
  -6  -5   6   18.20    1.70
   6  -5  -6   17.30    1.80
   6  -5  -6   16.60    2.10
   6  -5  -6   19.90    1.90
  -6  -5   6   17.70    1.80
   6  -5  -6   15.20    2.10
   6   5  -6   15.40    1.80
   6   5  -6   22.80    2.10
  -6   5   6   16.70    1.60
  -6   5   6   15.70    2.00
   5  -5  -6    0.70    0.90
   5  -5  -6   -0.30    0.60
  -5  -5   6   -0.30    0.80
   5  -5  -6   -1.10    0.90
  -5  -5   6   -0.50    0.80
   5  -5  -6   -0.50    1.00
   5   5  -6    0.50    0.90
  -5   5   6    1.00    0.80
  -5   5   6   -0.20    0.90
  -5   5   6   -0.80    0.60
   5   5  -6    1.50    1.10
  -4  -5   6   36.60    2.00
   4  -5  -6   35.20    2.10
   4  -5  -6   37.50    2.40
   4  -5  -6   32.30    2.10
  -4  -5   6   39.10    2.10
  -4   5   6   35.10    2.10
   4   5  -6   36.60    2.00
  -4   5   6   34.50    1.70
   4   5  -6   31.50    2.20
  -4   5   6   36.20    2.40
  -3  -5   6   10.90    1.10
  -3  -5   6   10.30    1.30
   3  -5  -6   12.60    1.30
   3  -5  -6   14.00    1.20
   3  -5  -6   10.00    1.60
   3  -5  -6   12.50    1.30
   3   5  -6   12.90    1.50
  -3   5   6   11.50    1.40
   3   5  -6   11.60    1.10
  -3   5   6   10.80    1.30
   2  -5  -6    0.00    0.70
   2  -5  -6    0.80    0.90
  -2  -5   6    1.00    0.40
   2  -5  -6    0.30    0.90
   2  -5  -6    0.50    0.50
  -2  -5   6    0.50    0.70
  -2   5   6    1.20    0.90
   2   5  -6    1.20    0.50
   2   5  -6   -0.10    0.50
  -2   5   6    1.20    0.70
   1  -5  -6    0.70    0.80
  -1  -5   6   -0.20    0.50
   1  -5  -6   -0.20    0.60
  -1  -5   6   -0.80    0.60
   1  -5  -6    0.10    0.40
   1   5  -6    0.10    0.40
   1   5  -6   -0.60    0.50
  -1   5   6   -0.30    0.70
  -1   5   6    0.10    0.80
   0  -5  -6    7.60    0.90
   0  -5   6    8.10    1.10
   0  -5   6    5.80    1.00
   0  -5  -6    6.20    1.10
   0  -5  -6    6.20    1.10
   0   5  -6    6.00    1.00
   0   5   6    5.00    0.90
   0   5   6    5.80    1.10
   0   5  -6    5.40    1.10
  -1  -5  -6   -0.10    1.00
  -1  -5  -6    0.60    0.70
   1  -5   6    0.40    0.50
   1  -5   6   -0.50    0.50
  -1  -5  -6   -0.10    0.90
  -1   5  -6    0.90    0.90
   1   5   6    1.10    0.90
  -1   5  -6    0.40    0.60
   1   5   6   -0.60    0.90
   1   5   6   -0.50    0.40
  -2  -5  -6   69.99    3.10
   2  -5   6   68.49    2.90
  -2  -5  -6   68.39    2.90
  -2   5  -6   67.29    3.00
   2   5   6   65.89    2.80
  -2   5  -6   72.09    3.00
   2   5   6   66.39    2.50
   2   5   6   63.49    2.80
   3  -5   6   19.50    1.70
  -3  -5  -6   24.60    2.20
  -3  -5  -6   25.20    2.10
   3  -5   6   23.20    2.00
   3   5   6   20.30    2.00
  -3   5  -6   25.80    2.00
  -3   5  -6   23.10    2.20
   3   5   6   23.50    1.70
   4  -5   6    0.30    0.80
   4  -5   6   -0.20    0.80
  -4  -5  -6   -0.70    1.10
  -4  -5  -6   -1.10    1.00
  -4   5  -6    0.20    0.70
   4   5   6   -1.80    0.80
   4   5   6    0.50    0.90
  -4   5  -6   -1.30    1.00
   5  -5   6    0.70    1.10
  -5  -5  -6    1.60    1.30
  -5  -5  -6   -1.50    1.10
   5  -5   6    1.00    0.90
  -5   5  -6    0.80    0.90
   5   5   6    0.90    0.90
   5   5   6    0.60    1.00
  -6  -5  -6    2.40    1.20
  -6  -5  -6    0.30    1.30
   6  -5   6   -0.20    1.10
   6  -5   6   -0.40    0.90
   6   5   6    1.20    1.40
  -6   5  -6    1.60    1.50
   6   5   6   -0.40    0.70
  -8  -6   6   -0.20    1.30
   8  -6  -6    0.00    0.90
  -8  -6   6    0.70    0.90
   8  -6  -6    1.30    1.60
  -8  -6   6   -0.40    1.00
  -8   6   6    0.30    0.80
  -8   6   6   -0.10    1.00
   8   6  -6   -0.90    1.30
  -7  -6   6    1.00    1.40
   7  -6  -6   -0.70    0.90
   7  -6  -6   -0.30    1.10
  -7  -6   6    1.40    1.20
  -7  -6   6   -1.50    1.00
   7   6  -6    1.40    1.20
   7   6  -6    0.20    1.10
  -7   6   6    0.20    1.10
  -7   6   6    2.60    1.50
   6  -6  -6    5.40    1.20
  -6  -6   6    2.90    1.00
  -6  -6   6    3.20    1.20
   6  -6  -6    6.70    1.70
   6  -6  -6    4.40    1.20
   6   6  -6    2.40    1.20
   6   6  -6    4.70    1.50
  -6   6   6    3.60    0.90
  -6   6   6    3.60    1.60
  -5  -6   6   12.30    1.60
  -5  -6   6   13.10    1.50
   5  -6  -6   12.10    1.50
   5  -6  -6   13.40    2.10
   5  -6  -6   11.90    1.80
   5  -6  -6   12.20    1.50
   5   6  -6   13.30    1.90
   5   6  -6   12.20    1.60
  -5   6   6   15.00    1.90
  -5   6   6   13.40    1.70
   4  -6  -6    4.10    1.20
  -4  -6   6    1.50    0.80
   4  -6  -6    1.70    0.80
  -4  -6   6    2.10    1.00
   4  -6  -6    3.00    1.10
  -4   6   6    2.70    1.20
  -4   6   6    0.40    1.20
   4   6  -6    2.40    0.90
   4   6  -6    1.40    1.10
   3  -6  -6    3.10    1.10
   3  -6  -6    2.40    0.90
  -3  -6   6    2.80    1.10
   3  -6  -6    2.30    1.00
   3  -6  -6    2.90    0.80
  -3  -6   6    3.70    1.00
  -3   6   6    2.90    0.90
   3   6  -6    2.40    0.80
   3   6  -6    4.00    1.20
  -3   6   6    5.30    1.40
   2  -6  -6   69.59    3.60
  -2  -6   6   69.49    2.90
   2  -6  -6   66.89    2.90
   2  -6  -6   66.99    2.90
   2  -6  -6   70.69    2.70
  -2   6   6   69.99    3.20
  -2   6   6   66.89    3.10
   2   6  -6   64.69    2.40
   2   6  -6   66.79    3.10
   1  -6  -6   26.20    2.30
   1  -6  -6   25.20    1.60
  -1  -6   6   26.70    1.90
  -1  -6   6   24.00    1.50
   1  -6  -6   23.80    1.90
  -1   6   6   26.10    2.20
   1   6  -6   25.60    2.20
  -1   6   6   24.70    1.90
   0  -6   6    1.90    0.80
   0  -6  -6    1.40    0.80
   0  -6  -6    1.30    0.70
   0  -6  -6    2.10    1.00
   0  -6   6    2.30    0.80
   0   6  -6    1.10    1.00
   0   6   6    1.30    0.70
   0   6  -6   -0.70    0.90
   0   6   6    1.00    0.80
  -1  -6  -6    6.40    1.30
  -1  -6  -6    5.30    1.50
  -1  -6  -6    5.90    1.10
   1  -6   6    5.50    1.20
   1   6   6    7.00    1.20
  -1   6  -6    6.30    1.20
   1   6   6    4.80    1.30
   1   6   6    7.20    1.30
  -1   6  -6    5.60    1.30
  -2  -6  -6    8.00    1.80
  -2  -6  -6    4.80    1.20
   2  -6   6    6.70    1.20
  -2  -6  -6    7.00    1.30
   2  -6   6    6.00    1.00
  -2   6  -6    7.60    1.30
  -2   6  -6    5.80    1.20
   2   6   6    6.20    1.20
   2   6   6    8.10    1.30
  -3  -6  -6    2.70    1.00
   3  -6   6    1.20    0.80
   3  -6   6    2.10    1.00
  -3  -6  -6    3.50    1.20
  -3   6  -6    1.10    0.80
  -3   6  -6    0.80    1.20
   3   6   6    3.50    1.10
   3   6   6    1.80    0.80
   4  -6   6   -0.70    0.80
  -4  -6  -6   -0.90    1.20
  -4  -6  -6    3.00    1.30
   4  -6   6   -0.90    1.10
   4   6   6    0.00    1.20
  -4   6  -6    0.50    1.20
   4   6   6   -0.90    0.90
   5  -6   6    2.60    1.20
   5  -6   6    3.10    1.40
  -5  -6  -6    1.20    1.10
  -5  -6  -6    1.70    1.50
  -5   6  -6    2.10    1.40
   5   6   6   -2.10    1.30
   5   6   6   -0.60    0.90
  -6  -6  -6    1.70    1.20
   6  -6   6    1.70    1.40
   6  -6   6    0.20    0.90
  -6  -6  -6    2.20    1.20
   6   6   6    1.20    1.20
  -6   6  -6   -0.60    1.40
  -7  -7   6    2.70    1.70
   7  -7  -6    2.30    1.20
  -7  -7   6    5.00    1.30
   7  -7  -6    2.90    1.40
  -7  -7   6    2.50    1.20
   7   7  -6    3.90    1.50
  -7   7   6   -0.70    1.40
   7   7  -6    1.20    1.00
   6  -7  -6   15.70    2.50
   6  -7  -6   18.00    2.10
  -6  -7   6   17.00    2.20
  -6  -7   6   16.30    1.80
  -6  -7   6   14.10    1.90
   6   7  -6   15.70    2.00
   6   7  -6   12.00    2.00
  -6   7   6   17.10    2.60
   5  -7  -6    0.50    1.20
   5  -7  -6    1.90    1.40
  -5  -7   6    1.20    1.10
  -5  -7   6    2.30    1.00
   5  -7  -6    3.20    1.10
  -5   7   6    0.20    1.30
   5   7  -6    2.30    1.00
  -5   7   6    3.90    1.30
   5   7  -6    2.30    1.10
   4  -7  -6   11.20    1.60
   4  -7  -6   11.60    1.50
  -4  -7   6   11.70    1.70
  -4  -7   6   15.90    1.80
   4   7  -6   12.50    2.00
  -4   7   6   12.40    1.80
  -4   7   6   12.80    1.80
   4   7  -6   12.50    1.40
   3  -7  -6    8.80    1.70
   3  -7  -6    8.70    1.30
  -3  -7   6   10.50    1.70
   3  -7  -6    8.60    1.60
  -3  -7   6   10.50    1.50
  -3   7   6    7.80    1.70
  -3   7   6    7.30    1.50
   3   7  -6    9.90    1.50
   3   7  -6    9.60    1.20
   2  -7  -6    0.10    0.60
   2  -7  -6   -0.80    1.00
   2  -7  -6   -0.50    0.80
  -2  -7   6    1.50    1.00
   2  -7  -6   -1.00    0.70
  -2   7   6    1.80    1.10
  -2   7   6   -0.30    1.10
   2   7  -6   -0.30    0.80
  -1  -7   6    1.80    0.80
   1  -7  -6    1.70    1.00
   1  -7  -6    2.20    1.10
  -1  -7   6    1.50    0.70
   1  -7  -6    0.90    1.00
  -1   7   6    1.90    0.90
   1   7  -6    1.70    0.90
  -1   7   6   -0.30    1.00
   0  -7  -6    3.00    1.50
   0  -7  -6    1.20    0.80
   0  -7   6    1.90    0.90
   0  -7   6    2.50    0.80
   0  -7  -6    1.90    1.20
   0   7   6    2.80    1.10
   0   7  -6    0.60    1.10
   0   7   6    4.80    1.30
   0   7  -6    0.40    1.00
   1  -7   6    1.70    0.80
  -1  -7  -6    1.90    1.00
  -1  -7  -6    1.70    1.10
  -1  -7  -6    1.40    1.30
  -1   7  -6   -0.80    1.10
   1   7   6    0.40    1.10
   1   7   6    2.20    0.90
   1   7   6    0.90    1.20
  -1   7  -6    1.90    1.10
   2  -7   6   37.30    2.70
  -2  -7  -6   33.70    2.10
  -2  -7  -6   34.10    2.40
  -2  -7  -6   43.80    3.60
   2   7   6   39.60    3.00
  -2   7  -6   35.20    2.50
   2   7   6   37.00    2.70
  -2   7  -6   37.70    2.60
   3  -7   6    9.20    1.60
  -3  -7  -6    8.10    1.50
  -3  -7  -6    9.00    1.40
  -3   7  -6    6.80    1.60
   3   7   6    8.30    1.30
   3   7   6    6.50    1.80
  -3   7  -6   10.90    1.40
   4  -7   6    2.00    1.40
  -4  -7  -6    0.40    1.10
  -4  -7  -6   -0.50    0.80
  -4   7  -6    1.10    1.00
   4   7   6    0.20    1.00
   4   7   6    1.20    1.20
  -5  -7  -6    0.20    1.40
  -5  -7  -6    0.20    1.60
   5  -7   6    0.20    1.00
   5   7   6   -0.80    1.00
  -5   7  -6   -0.40    1.30
  -6  -8   6    5.10    1.30
  -6  -8   6    5.40    1.50
   6  -8  -6    6.20    1.60
   6  -8  -6    4.50    1.80
  -6  -8   6    5.10    1.30
   6   8  -6    3.80    1.70
   6   8  -6    4.20    1.50
  -6   8   6    5.70    1.90
  -5  -8   6   15.20    2.10
   5  -8  -6    9.10    1.50
  -5  -8   6    9.00    1.60
   5  -8  -6    8.00    1.80
   5   8  -6    6.60    1.50
  -5   8   6    9.60    1.90
   5   8  -6    8.20    1.70
  -4  -8   6   -1.00    0.70
  -4  -8   6    1.70    1.10
   4  -8  -6    1.40    1.10
   4  -8  -6    1.00    1.20
   4  -8  -6    2.10    1.50
  -4   8   6    1.70    1.50
   4   8  -6    0.20    1.30
  -4   8   6    1.90    1.40
  -3  -8   6    4.30    1.50
   3  -8  -6    3.30    1.10
  -3  -8   6    3.90    1.00
   3  -8  -6    5.20    1.50
  -3   8   6    3.80    1.50
   3   8  -6    5.30    1.70
  -3   8   6    7.10    1.70
   2  -8  -6   12.30    2.00
  -2  -8   6   11.10    1.70
   2  -8  -6    9.50    1.70
   2   8  -6   10.40    1.90
  -2   8   6   11.10    1.70
  -2   8   6    9.20    1.50
   1  -8  -6    9.30    1.60
   1  -8  -6    7.70    1.90
  -1  -8   6    7.70    1.40
  -1   8   6    4.40    1.40
   1   8  -6    6.20    1.30
  -1   8   6    9.40    1.80
   0  -8  -6   -0.60    1.10
   0  -8  -6    1.10    1.20
   0  -8   6    1.70    1.00
   0  -8   6    0.00    0.80
   0   8   6    1.20    1.00
   0   8  -6   -0.30    1.10
   0   8   6    3.20    1.30
  -1  -8  -6    0.20    1.10
  -1  -8  -6    2.70    1.40
   1  -8   6    0.30    1.00
   1  -8   6    0.90    1.20
  -1   8  -6    1.80    1.20
  -1   8  -6   -0.70    1.10
   1   8   6   -0.70    1.10
  -2  -8  -6    0.60    1.40
  -2  -8  -6    0.10    1.80
  -2  -8  -6   -0.50    0.70
   2  -8   6    0.30    1.10
   2   8   6   -1.50    1.10
  -2   8  -6    2.70    1.10
   2   8   6   -1.20    1.40
  -2   8  -6   -0.10    1.00
  -3  -8  -6    1.10    1.30
  -3  -8  -6    2.90    1.30
   3  -8   6   -0.40    0.90
  -3  -8  -6    1.30    1.40
   3   8   6    0.30    1.10
   3   8   6    1.80    1.30
  -3   8  -6   -0.40    0.80
  -4  -8  -6   -1.20    1.50
   4  -8   6    1.20    1.40
  -4  -8  -6    1.70    1.50
   4   8   6   -0.90    1.50
  -4   8  -6    0.50    1.50
  -4  -9   6    1.10    1.10
   4  -9  -6    1.20    1.60
   4  -9  -6    0.20    1.30
  -4  -9   6    0.60    0.90
  -4   9   6    0.20    1.50
  -4   9   6    0.10    1.40
   4   9  -6    1.00    1.10
  -3  -9   6    0.20    1.10
   3  -9  -6   -0.50    1.30
   3  -9  -6    0.20    1.30
  -3  -9   6   -0.30    0.90
   3   9  -6    1.40    1.20
  -3   9   6    0.20    1.40
  -3   9   6    0.30    1.10
   2  -9  -6    1.40    1.40
  -2  -9   6    1.00    1.30
  -2  -9   6    0.00    1.10
   2  -9  -6    0.00    1.30
  -2   9   6    1.10    1.00
   2   9  -6   -0.10    1.40
  -2   9   6   -0.10    1.30
   1  -9  -6    0.20    0.90
   1  -9  -6    1.80    1.40
  -1  -9   6    0.50    1.30
   1  -9  -6   -0.70    1.40
   1   9  -6   -1.00    0.90
  -1   9   6    0.60    0.80
  -1   9   6   -0.10    1.20
   0  -9  -6    1.10    1.30
   0  -9  -6   -2.20    1.00
   0  -9   6    0.50    1.20
   0   9  -6    0.90    1.20
   0   9   6   -0.30    1.20
  -1  -9  -6    0.10    1.40
  -1  -9  -6    2.10    1.50
   1  -9   6    1.90    1.00
   1   9   6    0.90    1.20
  -1   9  -6    0.50    1.30
  -1   9  -6    0.30    0.90
  -2  -9  -6    8.00    2.40
  -2  -9  -6    6.00    1.60
   2  -9   6    5.50    1.60
   2   9   6    9.90    1.80
  -2   9  -6    7.50    1.60
 -10   0   7   25.40    2.30
  10   0  -7   22.80    2.10
 -10   0   7   26.20    2.80
  -9   0   7   37.30    2.10
   9   0  -7   44.40    2.70
  -9   0   7   41.30    3.00
  -8   0   7   23.90    2.20
   8   0  -7   21.60    2.00
   8   0  -7   23.90    2.00
  -8   0   7   24.70    1.80
   8   0  -7   23.20    2.30
   7   0  -7    5.10    1.10
   7   0  -7    4.10    0.90
  -7   0   7    3.70    0.90
   7   0  -7    4.80    1.20
  -7   0   7    4.40    0.80
   7   0  -7    4.20    1.00
  -7   0   7    5.10    1.10
  -6   0   7  214.58    5.40
   6   0  -7  220.98    5.90
  -6   0   7  216.58    5.30
   6   0  -7  213.38    5.50
  -6   0   7  180.28    4.70
   6   0  -7  206.78    4.90
  -6   0   7  210.68    4.80
   6   0  -7  215.18    5.20
   5   0  -7   -0.40    0.50
  -5   0   7    1.10    0.40
  -5   0   7    0.70    0.50
   5   0  -7    0.60    0.60
   5   0  -7    0.20    0.50
  -5   0   7    0.10    0.60
   5   0  -7    1.40    0.70
  -5   0   7    0.80    0.40
   5   0  -7    0.40    0.50
   4   0  -7  633.84   12.30
   4   0  -7  659.73   13.00
  -4   0   7  641.34   12.20
  -4   0   7  617.74   12.00
   4   0  -7  629.64   12.60
   4   0  -7  616.54   12.30
  -4   0   7  664.93   12.70
   4   0  -7  632.04   12.40
   4   0  -7  652.33   13.00
  -4   0   7  650.83   12.40
   3   0  -7    1.40    0.50
   3   0  -7    1.70    0.70
   3   0  -7    1.00    0.50
   3   0  -7    2.40    0.50
   3   0  -7    2.70    0.80
  -3   0   7    1.80    0.40
  -3   0   7    1.70    0.50
  -3   0   7    2.10    0.50
   2   0  -7  235.38    5.20
   2   0  -7  237.78    5.50
  -2   0   7  232.98    4.90
   2   0  -7  234.88    4.90
   2   0  -7  235.88    5.40
  -2   0   7  233.58    5.20
  -2   0   7  231.08    5.10
  -1   0   7  386.06    7.40
  -1   0   7  375.56    7.60
   1   0  -7  375.66    7.80
   1   0  -7  378.36    7.40
   1   0  -7  381.66    8.10
  -1   0   7  386.16    7.80
   0   0   7  395.86    8.20
   0   0  -7  400.86    8.40
   0   0  -7  402.16    7.80
   0   0  -7  401.66    8.60
   0   0  -7  399.26    8.10
   0   0   7  393.66    7.70
   1   0   7   29.70    1.10
   1   0   7   29.00    1.40
  -1   0  -7   30.70    1.70
  -1   0  -7   31.70    1.40
  -1   0  -7   28.20    1.20
  -1   0  -7   28.40    1.80
  -2   0  -7   17.00    1.10
  -2   0  -7   16.90    1.60
  -2   0  -7   16.90    1.20
   2   0   7   20.20    1.50
  -2   0  -7   18.80    1.10
   2   0   7   21.00    1.40
   3   0   7   12.30    1.30
   3   0   7   10.20    1.10
  -3   0  -7    8.90    0.90
   3   0   7   10.60    0.90
  -3   0  -7   10.30    0.90
  -3   0  -7    8.60    1.00
  -3   0  -7    9.60    1.30
  -4   0  -7    5.20    1.40
  -4   0  -7    4.80    1.00
  -4   0  -7    7.00    1.10
   4   0   7    4.30    1.00
   4   0   7    3.90    1.00
  -5   0  -7    5.20    1.00
  -5   0  -7    5.70    1.00
   5   0   7    4.70    1.10
  -5   0  -7    5.90    1.60
   5   0   7    5.50    1.10
  -6   0  -7   15.00    2.00
  -6   0  -7   12.90    1.70
   6   0   7   10.30    1.50
   6   0   7   14.90    1.60
   7   0   7    2.50    1.10
   7   0   7    2.90    1.50
  -7   0  -7    3.10    1.40
 -10  -1   7   -0.90    1.00
  10  -1  -7    1.70    1.30
 -10  -1   7    0.40    1.40
  10   1  -7    0.70    1.10
 -10   1   7    2.30    1.60
 -10   1   7    1.60    1.20
  10   1  -7    1.80    1.00
   9  -1  -7   20.80    1.90
   9  -1  -7   23.50    2.10
  -9  -1   7   16.50    1.70
   9  -1  -7   18.30    2.20
  -9  -1   7   23.00    2.40
  -9   1   7   19.10    1.80
   9   1  -7   20.40    2.00
  -9   1   7   19.10    2.30
   8  -1  -7   38.70    2.40
   8  -1  -7   44.20    2.40
   8  -1  -7   44.40    2.60
   8  -1  -7   48.80    2.60
  -8  -1   7   41.80    2.20
  -8  -1   7   44.80    2.70
  -8   1   7   43.10    2.50
  -8   1   7   44.80    2.60
   8   1  -7   47.00    2.50
   8   1  -7   44.10    2.40
  -8   1   7   41.50    2.20
  -7  -1   7   13.20    1.50
  -7  -1   7   11.70    1.40
  -7  -1   7   10.10    1.10
   7  -1  -7   13.90    1.50
   7  -1  -7   13.30    1.50
  -7  -1   7   14.30    1.30
   7  -1  -7   15.20    1.60
   7  -1  -7   12.10    1.70
   7   1  -7   12.20    1.30
   7   1  -7   12.70    1.30
  -7   1   7   12.00    1.40
   7   1  -7   11.40    1.60
  -7   1   7   11.50    1.50
  -7   1   7   11.20    1.10
  -6  -1   7   36.70    1.90
  -6  -1   7   41.50    1.80
  -6  -1   7   38.80    2.00
   6  -1  -7   39.00    1.90
   6  -1  -7   32.40    2.00
   6  -1  -7   36.40    1.80
   6  -1  -7   34.40    2.00
  -6   1   7   41.60    2.10
   6   1  -7   38.80    1.90
   6   1  -7   38.20    1.90
   6   1  -7   35.50    1.50
  -6   1   7   36.10    2.10
   6   1  -7   41.10    2.40
  -6   1   7   38.20    1.60
   6   1  -7   37.60    1.70
  -5  -1   7   54.59    1.90
  -5  -1   7   56.29    2.20
   5  -1  -7   53.19    2.20
  -5  -1   7   54.49    2.10
   5  -1  -7   56.09    2.30
   5  -1  -7   57.89    2.50
   5  -1  -7   58.09    2.40
   5   1  -7   53.69    2.00
  -5   1   7   52.59    2.00
  -5   1   7   55.19    2.20
   5   1  -7   54.49    2.50
  -5   1   7   56.69    2.40
   5   1  -7   52.59    2.00
   5   1  -7   52.99    1.70
  -5   1   7   54.19    1.70
   5   1  -7   58.49    2.20
   4  -1  -7  124.39    3.70
  -4  -1   7  121.09    2.90
  -4  -1   7  128.29    3.20
   4  -1  -7  123.59    3.20
   4  -1  -7  126.19    3.60
   4  -1  -7  128.79    3.80
   4  -1  -7  128.49    3.40
  -4  -1   7  129.89    3.40
   4   1  -7  126.79    3.50
   4   1  -7  128.19    3.80
  -4   1   7  126.49    3.70
  -4   1   7  130.59    3.40
   4   1  -7  129.69    3.20
   4   1  -7  125.59    3.20
  -4   1   7  119.39    2.80
  -4   1   7  127.09    3.40
   4   1  -7  122.59    2.90
  -3  -1   7   21.40    1.10
  -3  -1   7   23.90    1.10
   3  -1  -7   21.90    1.30
   3  -1  -7   25.30    1.50
   3  -1  -7   25.50    1.40
  -3  -1   7   23.20    1.00
   3  -1  -7   23.30    1.30
   3  -1  -7   22.40    1.20
   3   1  -7   22.80    1.40
  -3   1   7   24.60    1.40
  -3   1   7   22.60    0.80
   3   1  -7   23.40    1.50
   3   1  -7   22.70    1.00
   3   1  -7   22.00    1.00
   3   1  -7   25.30    1.60
  -3   1   7   21.70    1.30
  -3   1   7   22.00    1.10
   2  -1  -7   11.60    1.10
   2  -1  -7    9.90    1.00
   2  -1  -7   14.50    1.10
   2  -1  -7   12.60    1.00
  -2  -1   7   11.30    0.90
  -2  -1   7   12.40    0.80
  -2  -1   7   12.10    0.90
   2   1  -7   11.10    1.10
   2   1  -7   12.80    1.20
  -2   1   7   10.50    0.50
   2   1  -7   11.70    0.70
   2   1  -7   11.20    0.60
  -2   1   7   13.00    1.10
   2   1  -7   11.70    1.10
  -2   1   7   12.20    0.80
  -1  -1   7  101.39    2.60
   1  -1  -7  102.89    2.90
   1  -1  -7  102.89    2.70
   1  -1  -7  101.19    2.90
  -1  -1   7  100.89    2.80
   1  -1  -7   99.29    2.90
  -1   1   7  101.39    2.30
  -1   1   7  101.79    2.90
   1   1  -7   98.09    2.20
  -1   1   7   98.89    2.90
   1   1  -7  101.09    2.80
   1   1  -7  106.89    3.20
   0  -1   7  480.85    9.40
   0  -1   7  472.75    9.20
   0  -1  -7  461.85    9.50
   0  -1  -7  473.55    9.60
   0  -1  -7  456.15    9.60
   0   1  -7  455.75    8.60
   0   1  -7  467.45    9.20
   0   1   7  480.45    9.40
   0   1  -7  470.45    9.70
   0   1  -7  471.05    9.30
   0   1   7  469.25    9.50
   0   1   7  458.35    8.70
  -1  -1  -7    3.10    0.80
  -1  -1  -7    2.70    0.40
  -1  -1  -7    2.90    0.70
   1  -1   7    2.60    0.60
  -1  -1  -7    3.80    0.80
   1  -1   7    3.10    0.60
   1  -1   7    2.50    0.60
  -1   1  -7    2.30    0.50
   1   1   7    3.20    0.70
   1   1   7    2.40    0.30
  -1   1  -7    1.20    0.90
  -1   1  -7    2.50    0.80
  -1   1  -7    3.30    0.50
  -1   1  -7    2.50    0.60
  -2  -1  -7  441.26    9.20
   2  -1   7  438.16    9.20
  -2  -1  -7  453.05    9.80
  -2  -1  -7  447.66    9.40
   2  -1   7  446.56    9.30
  -2  -1  -7  437.46    8.70
  -2   1  -7  438.46    8.60
   2   1   7  421.86    8.30
   2   1   7  449.95    9.00
  -2   1  -7  458.45   10.10
  -2   1  -7  449.16    9.30
   2   1   7  465.55    9.30
  -2   1  -7  456.75    9.30
  -3  -1  -7    5.90    0.90
  -3  -1  -7    6.20    1.30
   3  -1   7    6.00    1.00
   3  -1   7    5.80    1.00
  -3  -1  -7    7.40    0.80
  -3  -1  -7    5.20    0.90
   3   1   7    7.50    1.00
   3   1   7    6.50    0.90
  -3   1  -7    6.90    1.20
  -3   1  -7    5.30    0.80
   3   1   7    7.20    1.10
  -3   1  -7    7.10    1.00
  -4  -1  -7    0.50    0.60
  -4  -1  -7   -0.10    0.50
   4  -1   7    0.40    0.80
   4  -1   7   -1.00    0.70
  -4  -1  -7   -0.30    0.80
  -4  -1  -7    0.80    1.10
  -4   1  -7   -0.70    0.70
   4   1   7    1.20    0.90
  -4   1  -7   -1.00    0.70
  -4   1  -7    0.10    0.60
   4   1   7    0.20    0.70
   4   1   7   -0.60    0.50
   5  -1   7    3.50    1.10
   5  -1   7    5.20    1.20
  -5  -1  -7    2.60    1.40
  -5  -1  -7    4.40    1.10
   5   1   7    4.20    1.00
  -5   1  -7    3.30    0.90
   5   1   7    5.80    1.30
  -5   1  -7    4.00    0.90
  -5   1  -7    4.00    1.20
   6  -1   7   -0.20    1.00
  -6  -1  -7   -0.60    1.40
   6  -1   7    0.40    0.90
  -6  -1  -7    1.00    0.90
   6   1   7   -0.30    0.50
  -6   1  -7   -1.90    0.90
   6   1   7   -1.80    0.90
  -6   1  -7    1.30    1.50
  -7  -1  -7   48.90    3.90
   7  -1   7   46.60    2.70
   7  -1   7   46.50    3.20
  -7   1  -7   48.60    3.30
   7   1   7   46.10    2.50
  -7   1  -7   46.50    2.80
   7   1   7   47.60    2.90
  10  -2  -7    8.60    1.70
 -10  -2   7    9.80    1.90
 -10  -2   7    8.70    1.30
  10   2  -7   10.10    1.70
 -10   2   7    7.30    1.80
  10   2  -7   12.10    2.10
   9  -2  -7    7.50    1.30
   9  -2  -7    9.20    1.60
   9  -2  -7    6.40    1.40
  -9  -2   7    7.00    1.10
  -9  -2   7    9.50    1.70
   9   2  -7   10.10    1.50
   9   2  -7    6.60    1.60
   8  -2  -7   12.40    1.50
   8  -2  -7   14.80    1.90
   8  -2  -7   12.50    1.50
   8  -2  -7   18.40    2.20
  -8  -2   7   11.70    1.30
  -8  -2   7   12.70    1.70
  -8   2   7   13.70    1.40
  -8   2   7   13.30    1.90
   8   2  -7   15.50    1.50
  -8   2   7   14.20    1.90
   7  -2  -7   40.80    2.40
   7  -2  -7   48.30    2.50
  -7  -2   7   40.40    2.10
  -7  -2   7   44.50    2.20
   7  -2  -7   42.50    2.40
   7  -2  -7   40.20    2.30
  -7  -2   7   37.70    2.10
   7   2  -7   40.90    2.00
   7   2  -7   44.20    2.20
   7   2  -7   39.60    2.00
  -7   2   7   39.90    1.80
  -7   2   7   45.70    2.60
  -7   2   7   43.90    2.60
   6  -2  -7   38.30    2.10
   6  -2  -7   37.40    2.20
  -6  -2   7   40.20    2.10
  -6  -2   7   38.80    1.90
  -6  -2   7   34.00    1.60
   6  -2  -7   35.70    2.10
   6  -2  -7   37.30    2.10
  -6   2   7   40.20    2.30
   6   2  -7   41.30    1.90
   6   2  -7   38.60    2.40
  -6   2   7   38.20    2.20
  -6   2   7   36.90    1.60
   6   2  -7   36.00    1.60
  -6   2   7   37.40    2.00
  -5  -2   7    0.10    0.50
  -5  -2   7    0.30    0.60
   5  -2  -7    0.20    0.70
   5  -2  -7    1.70    0.90
   5  -2  -7    0.30    0.70
   5  -2  -7    0.70    0.70
   5  -2  -7    0.60    0.60
  -5  -2   7    0.70    0.50
   5   2  -7    0.00    0.40
  -5   2   7    0.90    0.70
   5   2  -7    0.80    0.70
  -5   2   7    1.30    0.60
   5   2  -7    1.70    0.60
  -5   2   7   -0.30    0.70
   5   2  -7    1.00    0.70
  -5   2   7    1.50    0.50
   4  -2  -7  100.29    3.10
  -4  -2   7  105.99    3.00
  -4  -2   7  108.69    3.10
   4  -2  -7  103.69    2.70
   4  -2  -7  108.49    3.60
   4  -2  -7  104.69    3.30
   4  -2  -7  106.49    3.20
  -4   2   7  106.99    3.30
  -4   2   7  100.29    3.40
   4   2  -7  104.99    3.40
   4   2  -7  103.59    2.60
   4   2  -7  104.29    3.30
   4   2  -7  109.39    2.80
  -4   2   7  103.29    2.40
  -4   2   7  110.39    3.10
   3  -2  -7  181.98    4.90
  -3  -2   7  188.68    4.40
  -3  -2   7  178.58    3.70
  -3  -2   7  181.48    4.10
   3  -2  -7  183.58    4.50
  -3  -2   7  188.88    4.40
   3  -2  -7  182.28    4.70
   3  -2  -7  188.88    4.50
  -3   2   7  171.48    3.40
   3   2  -7  182.48    4.70
   3   2  -7  177.68    3.90
   3   2  -7  181.98    3.60
  -3   2   7  183.78    4.60
  -3   2   7  180.68    4.20
  -3   2   7  176.38    4.70
   3   2  -7  180.88    4.70
   2  -2  -7  124.39    3.20
  -2  -2   7  131.29    3.40
   2  -2  -7  127.19    3.40
   2  -2  -7  130.99    3.80
   2  -2  -7  127.79    3.50
  -2  -2   7  130.19    3.20
  -2  -2   7  122.09    2.90
   2  -2  -7  125.09    3.60
  -2   2   7  129.09    3.50
   2   2  -7  128.99    3.80
  -2   2   7  124.39    3.00
   2   2  -7  130.09    3.50
  -2   2   7  130.69    3.70
   2   2  -7  125.29    3.60
  -1  -2   7   10.20    1.00
  -1  -2   7    9.90    0.80
   1  -2  -7   11.60    1.10
   1  -2  -7   11.40    1.00
   1  -2  -7    9.70    1.10
  -1   2   7   12.90    1.20
   1   2  -7   12.10    1.20
   1   2  -7   10.00    0.90
   1   2  -7    9.60    1.10
  -1   2   7    9.50    0.60
   1   2  -7    9.80    0.30
   0  -2   7   39.50    1.70
   0  -2   7   42.40    1.40
   0  -2  -7   42.50    1.90
   0  -2  -7   41.40    1.80
   0  -2   7   41.10    1.70
   0  -2  -7   42.70    2.00
   0   2  -7   48.10    2.10
   0   2  -7   40.00    1.80
   0   2  -7   39.50    1.80
   0   2  -7   37.80    1.20
   0   2   7   39.70    1.80
   0   2  -7   41.30    1.50
   0   2   7   41.00    1.80
  -1  -2  -7    3.50    0.80
   1  -2   7    3.60    0.80
  -1  -2  -7    2.30    0.70
   1  -2   7    2.80    0.60
  -1  -2  -7    4.00    0.80
  -1   2  -7    3.70    0.90
   1   2   7    3.80    0.80
  -1   2  -7    3.20    0.50
   1   2   7    3.60    0.80
  -1   2  -7    2.70    0.50
  -1   2  -7    4.70    0.80
   2  -2   7  100.19    3.00
   2  -2   7   96.89    3.20
  -2  -2  -7  103.39    3.40
  -2  -2  -7   99.69    3.20
  -2  -2  -7   98.59    3.30
   2   2   7   98.79    3.00
   2   2   7   97.59    3.00
  -2   2  -7   98.09    3.80
  -2   2  -7  102.79    3.30
  -2   2  -7   97.39    3.20
   2   2   7   93.79    3.00
  -3  -2  -7   30.40    2.00
  -3  -2  -7   26.70    1.70
   3  -2   7   25.50    1.80
  -3  -2  -7   28.50    1.90
  -3  -2  -7   24.90    2.10
   3  -2   7   26.40    1.70
   3   2   7   30.20    1.70
   3   2   7   27.00    1.70
  -3   2  -7   28.10    2.10
  -3   2  -7   24.80    1.70
  -3   2  -7   24.60    1.80
  -4  -2  -7   13.50    1.50
  -4  -2  -7   12.60    1.50
   4  -2   7   15.90    1.60
  -4  -2  -7   14.40    1.50
  -4  -2  -7   12.70    1.80
   4  -2   7   13.10    1.30
   4   2   7   11.90    1.20
   4   2   7   12.30    1.30
  -4   2  -7   14.50    1.80
  -4   2  -7   12.10    1.30
  -4   2  -7   15.00    1.50
   5  -2   7    0.00    0.60
  -5  -2  -7   -0.40    0.60
  -5  -2  -7   -0.20    1.00
  -5  -2  -7   -0.60    1.20
  -5  -2  -7   -1.50    0.70
   5  -2   7    0.00    0.60
   5   2   7   -0.70    0.60
  -5   2  -7   -1.30    1.10
   5   2   7    1.20    0.80
  -5   2  -7   -0.20    0.90
   5   2   7    0.50    0.90
  -6  -2  -7   12.90    1.90
   6  -2   7   11.90    1.50
  -6  -2  -7   14.90    2.00
   6  -2   7   12.20    1.80
  -6  -2  -7   12.90    1.60
   6   2   7   12.60    1.30
   6   2   7   12.30    1.80
  -6   2  -7   14.50    2.30
  -6   2  -7   13.20    1.70
   7  -2   7    0.40    1.30
   7  -2   7    1.30    0.80
  -7  -2  -7   -2.30    1.30
  -7  -2  -7    1.50    1.90
   7   2   7    0.40    1.30
  -7   2  -7    1.50    1.20
  -7   2  -7    0.80    1.00
   9  -3  -7   13.20    2.00
   9  -3  -7   10.10    1.50
  -9  -3   7   12.10    1.80
   9  -3  -7   10.40    1.70
  -9  -3   7   12.50    1.50
  -9   3   7    8.80    1.80
   9   3  -7   10.50    1.60
   9   3  -7   15.50    2.20
  -9   3   7    9.60    1.70
  -8  -3   7    3.50    1.10
   8  -3  -7    0.80    1.10
   8  -3  -7    5.00    1.30
  -8  -3   7    2.70    1.10
   8  -3  -7    2.70    1.00
  -8  -3   7    3.50    1.10
   8   3  -7    2.70    1.00
  -8   3   7    4.60    1.40
   8   3  -7    2.50    1.00
  -8   3   7    2.80    1.20
   8   3  -7    2.70    0.80
   7  -3  -7    2.40    1.10
   7  -3  -7    3.00    1.20
  -7  -3   7    3.30    0.80
  -7  -3   7    3.50    0.90
   7  -3  -7    4.40    1.30
   7  -3  -7    3.30    1.10
  -7  -3   7    4.20    1.10
   7   3  -7    3.60    1.10
   7   3  -7    3.70    1.00
   7   3  -7    4.00    1.30
  -7   3   7    1.20    1.20
  -7   3   7    3.50    1.10
   6  -3  -7    6.10    1.20
   6  -3  -7    8.80    1.40
   6  -3  -7    5.30    1.20
  -6  -3   7    7.70    1.00
   6  -3  -7    7.00    1.10
  -6  -3   7    7.00    1.20
  -6   3   7    6.70    1.10
   6   3  -7    5.70    0.80
  -6   3   7    6.10    1.20
  -6   3   7    6.50    1.20
   6   3  -7    7.60    1.30
  -5  -3   7   19.90    1.50
  -5  -3   7   18.70    1.50
   5  -3  -7   21.20    1.90
   5  -3  -7   18.60    1.90
   5  -3  -7   17.70    1.30
   5  -3  -7   18.30    1.90
   5  -3  -7   16.90    1.50
  -5   3   7   20.00    1.90
  -5   3   7   18.60    1.40
  -5   3   7   18.90    1.60
   5   3  -7   17.80    1.60
   5   3  -7   17.10    1.20
  -4  -3   7  262.17    6.00
   4  -3  -7  240.68    5.20
   4  -3  -7  256.57    5.80
   4  -3  -7  252.97    6.30
   4  -3  -7  256.17    6.10
   4  -3  -7  245.98    6.60
  -4  -3   7  258.57    6.00
  -4   3   7  253.57    6.20
   4   3  -7  258.97    6.50
   4   3  -7  252.87    6.40
  -4   3   7  255.77    5.90
  -4   3   7  248.08    6.40
   4   3  -7  249.28    5.40
   3  -3  -7    2.10    0.70
   3  -3  -7    1.20    0.60
   3  -3  -7    1.40    0.70
  -3  -3   7    0.30    0.50
  -3  -3   7    1.00    0.40
   3  -3  -7    1.00    0.70
  -3  -3   7    1.00    0.50
  -3   3   7    1.80    0.80
  -3   3   7    1.50    0.40
  -3   3   7    1.00    0.60
   3   3  -7    1.20    0.80
   3   3  -7    1.10    0.30
   3   3  -7    1.30    0.70
  -3   3   7    1.20    0.60
   2  -3  -7   79.09    3.10
   2  -3  -7   78.09    2.50
  -2  -3   7   78.99    2.60
  -2  -3   7   79.69    2.30
   2  -3  -7   75.99    2.20
   2  -3  -7   76.79    2.70
   2  -3  -7   83.19    2.70
  -2   3   7   76.29    2.20
  -2   3   7   72.79    1.70
  -2   3   7   78.29    2.80
   2   3  -7   83.59    2.80
   2   3  -7   77.09    2.90
  -2   3   7   78.59    2.80
  -1  -3   7    8.30    1.00
   1  -3  -7    9.30    1.10
  -1  -3   7    7.80    0.80
   1  -3  -7    9.50    0.90
   1  -3  -7    9.70    1.20
  -1   3   7   10.10    1.10
  -1   3   7    9.70    1.20
   1   3  -7    8.80    1.10
   1   3  -7    7.80    0.90
   1   3  -7    9.00    0.60
   0  -3   7   51.69    2.00
   0  -3  -7   49.10    2.10
   0  -3  -7   51.69    2.00
   0  -3   7   49.40    1.50
   0  -3  -7   46.40    2.20
   0  -3   7   50.19    2.10
   0   3  -7   48.70    2.10
   0   3   7   49.60    2.10
   0   3  -7   48.40    1.70
   0   3  -7   52.69    2.20
   0   3   7   49.60    2.00
   0   3  -7   51.59    2.40
   1  -3   7  117.29    3.50
  -1  -3  -7  122.59    3.60
  -1  -3  -7  123.59    3.80
   1  -3   7  122.49    3.10
  -1  -3  -7  124.79    3.80
  -1   3  -7  119.39    3.70
  -1   3  -7  113.19    3.60
   1   3   7  119.89    3.60
  -1   3  -7  118.69    3.70
   1   3   7  119.19    3.60
   2  -3   7  311.97    6.80
  -2  -3  -7  303.27    7.30
  -2  -3  -7  297.97    6.50
  -2  -3  -7  309.37    7.20
  -2  -3  -7  313.27    7.50
   2  -3   7  303.67    7.10
  -2   3  -7  316.37    7.30
   2   3   7  308.27    7.10
  -2   3  -7  299.37    7.20
   2   3   7  314.67    7.20
  -2   3  -7  319.97    7.30
   2   3   7  299.87    7.10
  -3  -3  -7   28.40    1.90
  -3  -3  -7   28.50    1.60
   3  -3   7   28.00    1.90
   3  -3   7   27.40    1.80
  -3  -3  -7   31.00    1.90
  -3  -3  -7   27.90    1.90
  -3   3  -7   27.20    1.80
   3   3   7   29.10    1.80
   3   3   7   30.60    2.00
  -3   3  -7   27.60    1.60
   3   3   7   28.80    1.70
  -4  -3  -7   11.10    1.20
  -4  -3  -7   12.10    1.60
  -4  -3  -7   10.00    1.40
   4  -3   7   10.00    1.40
  -4  -3  -7    9.50    1.70
   4  -3   7   11.10    1.50
   4   3   7   11.80    1.40
  -4   3  -7   11.30    1.50
   4   3   7   10.30    1.30
   4   3   7   13.70    1.60
   5  -3   7    0.90    0.70
  -5  -3  -7    0.80    0.90
  -5  -3  -7    0.20    1.00
  -5  -3  -7    0.90    1.10
   5  -3   7    1.30    0.80
  -5  -3  -7    1.50    1.00
  -5   3  -7    1.70    1.40
  -5   3  -7    2.00    1.20
   5   3   7    2.90    1.10
   5   3   7    3.00    0.90
   5   3   7    1.80    1.00
  -6  -3  -7    0.80    0.90
  -6  -3  -7   -1.20    1.10
  -6  -3  -7    1.10    1.20
   6  -3   7    0.20    0.80
   6  -3   7    0.00    0.70
  -6   3  -7   -0.30    1.00
  -6   3  -7    0.60    0.90
   6   3   7    1.70    1.20
   6   3   7   -0.80    0.60
  -7  -3  -7   32.20    2.70
   7  -3   7   37.90    2.60
  -7  -3  -7   38.10    3.50
   7  -3   7   32.80    2.50
  -7   3  -7   33.00    3.40
   7   3   7   38.20    2.70
  -7   3  -7   35.00    3.00
   9  -4  -7    2.10    1.30
  -9  -4   7    1.30    1.60
  -9  -4   7    1.30    1.30
  -9  -4   7    2.40    1.00
   9  -4  -7    3.80    1.60
  -9   4   7    2.00    1.40
   9   4  -7    3.60    1.70
  -9   4   7    1.00    1.30
   8  -4  -7    0.30    1.00
  -8  -4   7    1.10    1.10
   8  -4  -7    2.30    1.30
   8  -4  -7    1.50    1.20
  -8  -4   7   -0.70    0.80
  -8  -4   7    0.80    0.80
   8   4  -7    1.00    1.10
  -8   4   7    2.60    1.20
  -8   4   7    1.90    1.00
   8   4  -7    3.30    1.30
   7  -4  -7   12.90    1.90
   7  -4  -7   13.40    1.60
  -7  -4   7   12.70    1.60
  -7  -4   7   15.20    1.60
  -7  -4   7   13.50    1.70
   7  -4  -7   15.00    1.60
  -7   4   7   10.10    1.50
  -7   4   7   10.90    1.70
   7   4  -7    8.70    1.60
   7   4  -7   11.20    1.70
   7   4  -7   12.30    1.40
  -6  -4   7   11.80    1.40
  -6  -4   7   13.50    1.50
   6  -4  -7   12.90    1.60
   6  -4  -7   11.00    1.70
   6  -4  -7   10.00    1.30
   6  -4  -7   12.00    1.70
   6   4  -7   14.40    1.30
  -6   4   7   11.60    1.60
   6   4  -7   16.60    1.80
  -6   4   7   12.80    1.70
  -6   4   7   11.60    1.40
   6   4  -7   14.10    1.80
   5  -4  -7    0.30    0.70
   5  -4  -7   -0.10    0.90
   5  -4  -7    0.00    0.60
  -5  -4   7   -0.70    0.50
  -5  -4   7    0.00    0.70
   5  -4  -7   -0.10    0.70
   5   4  -7    0.20    0.60
   5   4  -7   -0.30    0.90
  -5   4   7    0.80    0.90
  -5   4   7    0.90    0.60
  -5   4   7    0.20    0.70
   4  -4  -7   35.80    1.90
  -4  -4   7   40.70    2.20
   4  -4  -7   42.00    2.60
   4  -4  -7   41.20    2.20
   4  -4  -7   38.90    1.80
  -4  -4   7   40.50    2.10
  -4   4   7   37.80    2.40
  -4   4   7   40.60    1.60
   4   4  -7   44.70    2.10
  -4   4   7   40.80    2.20
   4   4  -7   41.20    2.20
  -3  -4   7  131.59    3.70
  -3  -4   7  125.19    3.10
   3  -4  -7  132.69    4.60
  -3  -4   7  135.99    4.00
   3  -4  -7  134.49    3.60
   3  -4  -7  134.09    4.00
   3  -4  -7  138.79    4.00
  -3   4   7  134.49    4.20
  -3   4   7  134.49    4.30
   3   4  -7  127.29    4.20
   3   4  -7  138.79    3.60
   2  -4  -7   71.99    2.10
   2  -4  -7   78.89    3.30
   2  -4  -7   82.89    2.70
  -2  -4   7   80.89    2.30
   2  -4  -7   77.99    2.80
  -2  -4   7   79.09    2.70
   2  -4  -7   79.59    2.90
  -2   4   7   81.29    3.00
   2   4  -7   74.99    2.30
   2   4  -7   74.09    2.90
  -2   4   7   82.29    3.20
   1  -4  -7    0.80    0.90
  -1  -4   7    0.10    0.70
   1  -4  -7   -0.20    0.50
  -1  -4   7   -0.40    0.50
   1  -4  -7   -0.30    0.50
   1   4  -7   -0.20    0.50
  -1   4   7    0.60    0.50
   1   4  -7    0.70    0.30
  -1   4   7    0.90    0.70
   0  -4   7    6.10    0.80
   0  -4  -7    3.30    0.80
   0  -4   7    4.10    1.00
   0  -4  -7    5.10    0.90
   0  -4  -7    3.50    1.10
   0  -4   7    3.70    0.50
   0   4  -7    4.40    0.90
   0   4  -7    5.40    1.10
   0   4   7    4.40    1.00
   0   4   7    5.90    1.10
   1  -4   7   -0.20    0.70
  -1  -4  -7   -0.20    0.50
  -1  -4  -7    0.40    0.90
  -1  -4  -7    0.40    0.70
   1  -4   7    0.30    0.50
   1   4   7   -0.10    0.60
   1   4   7    0.90    0.50
   1   4   7    0.80    0.80
  -1   4  -7   -0.50    0.50
  -1   4  -7    0.10    0.60
  -2  -4  -7   44.60    2.60
   2  -4   7   49.99    2.10
   2  -4   7   45.50    2.40
  -2  -4  -7   46.90    2.40
  -2  -4  -7   46.00    2.50
  -2   4  -7   47.00    2.50
   2   4   7   46.90    2.50
   2   4   7   47.90    2.20
   2   4   7   43.80    2.20
  -2   4  -7   45.40    2.50
   3  -4   7    6.00    1.10
  -3  -4  -7    8.30    1.50
   3  -4   7    7.80    1.30
  -3  -4  -7    7.30    1.40
  -3  -4  -7    7.60    1.30
   3   4   7    7.80    1.20
   3   4   7    7.30    1.00
   3   4   7    6.80    1.10
  -3   4  -7    5.70    1.00
  -3   4  -7    6.70    1.20
   4  -4   7   15.40    1.70
  -4  -4  -7   15.00    1.90
  -4  -4  -7   16.50    2.00
   4  -4   7   13.90    1.60
  -4  -4  -7   13.40    1.80
  -4   4  -7   16.50    1.70
  -4   4  -7   12.70    1.60
   4   4   7   16.50    1.90
   4   4   7   12.00    1.60
  -5  -4  -7    0.00    0.90
   5  -4   7    0.20    0.90
   5  -4   7    0.90    1.20
  -5  -4  -7   -0.30    1.30
   5   4   7   -0.40    0.70
   5   4   7    0.60    1.10
  -5   4  -7   -0.10    1.30
  -5   4  -7    1.10    0.90
   6  -4   7    3.10    1.40
  -6  -4  -7    4.70    1.30
   6  -4   7    3.70    1.50
  -6  -4  -7    7.60    2.10
  -6   4  -7    5.70    1.40
   6   4   7    5.50    1.40
   6   4   7    4.10    1.20
   8  -5  -7   13.40    1.70
  -8  -5   7   15.90    2.10
  -8  -5   7   20.70    2.00
   8  -5  -7   13.00    2.10
  -8  -5   7   15.90    1.90
   8   5  -7   18.00    2.20
  -8   5   7   14.80    2.30
  -8   5   7   13.50    1.80
   8   5  -7   13.10    2.00
  -7  -5   7    0.10    0.70
   7  -5  -7    1.40    1.20
  -7  -5   7    1.70    1.00
   7  -5  -7    1.10    1.00
  -7  -5   7    1.20    0.90
   7  -5  -7    0.70    1.10
   7   5  -7    1.80    1.20
  -7   5   7    0.20    0.60
  -7   5   7    0.10    0.90
   7   5  -7   -0.10    0.70
  -6  -5   7   24.50    1.80
   6  -5  -7   22.60    2.30
   6  -5  -7   20.60    1.90
   6  -5  -7   24.10    2.80
   6  -5  -7   21.80    1.80
  -6  -5   7   25.10    2.10
  -6   5   7   25.30    1.60
   6   5  -7   24.60    2.10
  -6   5   7   23.70    2.50
   6   5  -7   23.50    2.20
  -6   5   7   23.40    2.30
   5  -5  -7    2.00    0.90
   5  -5  -7    3.10    0.90
   5  -5  -7    1.50    1.10
  -5  -5   7    0.90    0.90
   5  -5  -7    0.90    1.00
  -5  -5   7    1.90    0.70
  -5   5   7    0.50    0.80
  -5   5   7   -0.10    0.90
   5   5  -7    3.20    1.20
   5   5  -7   -0.50    0.50
  -4  -5   7   84.99    3.20
   4  -5  -7   90.49    3.50
  -4  -5   7   88.49    3.20
   4  -5  -7   89.29    4.00
   4  -5  -7   83.89    3.20
   4  -5  -7   84.99    2.80
   4   5  -7   84.99    3.70
  -4   5   7   91.59    3.90
   4   5  -7   87.29    3.10
  -4   5   7   86.99    3.60
   3  -5  -7   29.20    2.10
   3  -5  -7   28.00    1.90
  -3  -5   7   29.50    1.70
  -3  -5   7   27.30    2.00
   3  -5  -7   26.20    1.60
   3  -5  -7   26.50    2.10
  -3   5   7   24.90    2.10
  -3   5   7   29.20    2.20
   3   5  -7   27.60    2.10
   3   5  -7   26.10    1.60
  -2  -5   7    2.70    0.60
   2  -5  -7    1.20    1.00
  -2  -5   7    2.20    0.70
   2  -5  -7    2.70    1.00
   2  -5  -7    3.10    0.90
   2  -5  -7    2.50    0.90
  -2   5   7    1.80    1.00
  -2   5   7    2.40    1.10
   2   5  -7    3.50    1.00
   2   5  -7    4.50    0.70
  -1  -5   7   16.70    1.30
   1  -5  -7   15.70    1.10
   1  -5  -7   15.20    1.50
   1  -5  -7   16.20    1.80
  -1  -5   7   15.70    1.50
  -1   5   7   15.60    1.60
   1   5  -7   12.20    1.60
  -1   5   7   18.10    1.70
   0  -5  -7   33.30    1.60
   0  -5   7   32.20    1.90
   0  -5  -7   37.20    2.30
   0  -5   7   34.80    2.10
   0  -5  -7   32.50    2.20
   0   5  -7   36.00    2.10
   0   5   7   33.10    2.00
   0   5   7   31.00    2.10
   0   5  -7   33.30    2.30
  -1  -5  -7   19.60    1.80
  -1  -5  -7   20.20    2.20
   1  -5   7   22.70    1.60
  -1  -5  -7   18.90    1.40
   1   5   7   22.90    1.90
  -1   5  -7   19.50    1.90
   1   5   7   23.30    2.00
  -1   5  -7   18.00    1.90
   1   5   7   21.10    1.80
  -2  -5  -7  122.09    4.60
   2  -5   7  119.29    4.10
   2  -5   7  115.69    3.50
  -2  -5  -7  117.39    3.80
  -2  -5  -7  118.19    4.20
  -2   5  -7  117.39    4.40
   2   5   7  113.59    4.00
  -2   5  -7  114.19    4.10
   2   5   7  123.89    4.20
   2   5   7  109.89    3.60
   3  -5   7    3.10    1.00
  -3  -5  -7    2.90    1.40
   3  -5   7    2.20    1.10
  -3  -5  -7    3.20    1.00
  -3  -5  -7    5.80    1.40
  -3   5  -7    3.70    1.10
  -3   5  -7    2.80    1.00
   3   5   7    3.80    1.10
   3   5   7    2.70    0.90
   4  -5   7    0.80    1.10
   4  -5   7    2.70    1.00
  -4  -5  -7    1.80    1.00
  -4  -5  -7   -0.80    1.20
   4   5   7    1.00    1.10
  -4   5  -7    1.60    1.00
   4   5   7    0.40    1.20
  -4   5  -7    1.60    1.00
  -5  -5  -7    0.10    1.00
   5  -5   7    1.70    1.10
   5  -5   7   -0.30    1.20
  -5  -5  -7    0.60    1.00
  -5   5  -7    3.00    1.50
   5   5   7    1.90    1.20
   5   5   7    2.40    1.40
  -6  -5  -7    0.40    1.00
  -6  -5  -7   -0.40    1.50
   6  -5   7   -0.80    1.10
   6  -5   7   -0.80    1.30
   6   5   7   -1.50    1.00
   6   5   7   -1.60    0.80
  -6   5  -7    0.00    0.90
  -8  -6   7    1.40    1.20
   8  -6  -7    2.30    1.50
   8  -6  -7    1.10    1.50
  -8  -6   7    1.60    1.50
  -8  -6   7    1.90    1.10
   8   6  -7    1.50    1.00
  -8   6   7    0.80    1.50
   8   6  -7    0.60    0.90
  -7  -6   7   -1.70    1.20
  -7  -6   7    0.00    0.70
  -7  -6   7    0.70    1.30
   7  -6  -7    1.00    1.00
   7  -6  -7    1.20    0.90
   7  -6  -7    0.10    1.40
   7   6  -7   -1.60    1.10
  -7   6   7   -0.20    1.00
   7   6  -7    0.30    1.20
   6  -6  -7   32.70    2.20
   6  -6  -7   35.00    2.80
  -6  -6   7   32.70    2.30
  -6  -6   7   33.60    2.40
   6  -6  -7   35.30    2.70
   6   6  -7   37.20    2.90
   6   6  -7   34.00    2.60
  -6   6   7   27.70    2.90
  -5  -6   7    1.70    1.10
   5  -6  -7    3.30    1.20
   5  -6  -7    2.10    1.30
   5  -6  -7    5.20    1.30
  -5  -6   7    3.40    1.00
   5   6  -7    2.80    1.10
  -5   6   7    1.10    1.30
  -5   6   7    3.20    1.40
   5   6  -7    1.70    1.30
   4  -6  -7   43.50    3.10
  -4  -6   7   47.00    2.60
  -4  -6   7   44.40    2.70
   4  -6  -7   44.00    2.80
   4  -6  -7   47.10    2.70
  -4   6   7   42.50    2.50
   4   6  -7   41.70    2.80
  -4   6   7   41.00    3.00
   4   6  -7   42.80    2.30
   3  -6  -7    6.90    1.20
  -3  -6   7    7.70    1.30
   3  -6  -7    6.60    1.10
   3  -6  -7    6.70    1.60
  -3  -6   7    6.30    1.10
   3  -6  -7    6.70    1.40
  -3   6   7    7.00    1.50
  -3   6   7    9.70    1.60
   3   6  -7    5.50    1.20
   3   6  -7    6.40    1.00
   2  -6  -7   32.20    2.60
   2  -6  -7   30.80    2.00
   2  -6  -7   31.20    1.80
   2  -6  -7   29.40    2.70
  -2  -6   7   32.80    2.00
  -2   6   7   33.60    2.60
   2   6  -7   32.40    2.50
  -2   6   7   32.60    2.20
  -1  -6   7   12.00    1.60
   1  -6  -7   15.70    1.70
  -1  -6   7   12.10    1.20
   1  -6  -7   16.00    2.00
  -1   6   7   12.10    1.50
   1   6  -7   10.30    1.50
  -1   6   7   14.80    1.60
   0  -6  -7   11.40    1.20
   0  -6  -7   12.20    1.90
   0  -6  -7   16.50    1.80
   0  -6   7    9.90    1.50
   0  -6   7   10.80    1.30
   0   6  -7   11.20    1.50
   0   6  -7   11.50    1.60
   0   6   7   10.20    1.40
   0   6   7   12.80    1.50
  -1  -6  -7    0.60    1.40
  -1  -6  -7    0.60    0.80
  -1  -6  -7    1.20    1.20
   1  -6   7    2.30    1.10
  -1   6  -7    2.80    1.00
   1   6   7    2.70    1.00
   1   6   7    2.80    1.20
  -1   6  -7    0.50    1.00
   2  -6   7    3.10    1.20
  -2  -6  -7    1.40    1.50
  -2  -6  -7    0.70    1.00
  -2  -6  -7    2.70    1.30
  -2   6  -7    1.70    1.00
   2   6   7    0.60    1.20
  -2   6  -7    0.80    0.80
   2   6   7    1.50    1.20
   3  -6   7   -1.00    1.10
  -3  -6  -7   -1.50    1.20
  -3  -6  -7   -0.30    1.40
  -3  -6  -7    0.30    1.10
  -3   6  -7    0.90    0.90
   3   6   7   -0.40    1.10
  -3   6  -7    0.10    0.90
   3   6   7   -0.50    0.90
  -4  -6  -7    3.20    1.60
  -4  -6  -7    0.10    1.00
   4  -6   7    4.30    1.20
   4  -6   7    1.60    1.00
  -4  -6  -7    3.20    1.60
  -4   6  -7    1.50    1.00
   4   6   7    3.00    1.30
   4   6   7   -0.20    1.30
   5  -6   7   -1.50    1.20
  -5  -6  -7   -1.20    1.40
  -5  -6  -7   -0.80    0.90
   5  -6   7   -0.10    1.00
  -5   6  -7   -1.10    0.80
   5   6   7   -1.80    1.30
   5   6   7    0.10    1.10
  -7  -7   7   -1.40    1.20
   7  -7  -7   -1.60    1.00
   7  -7  -7    0.80    1.40
  -7  -7   7    0.40    1.60
  -7  -7   7    0.60    1.10
   7   7  -7    2.20    1.20
  -7   7   7    1.60    1.30
   7   7  -7    1.30    1.30
   6  -7  -7    4.40    1.80
  -6  -7   7    2.50    1.10
  -6  -7   7    1.10    1.10
   6  -7  -7    4.00    1.30
   6  -7  -7    2.70    1.10
   6   7  -7    2.20    1.50
  -6   7   7    2.30    1.20
   6   7  -7    2.40    1.30
   5  -7  -7    0.70    1.10
  -5  -7   7    0.70    0.80
   5  -7  -7   -0.30    1.10
  -5  -7   7    1.90    1.20
   5  -7  -7    0.10    1.00
  -5   7   7    1.30    1.40
   5   7  -7    0.90    1.30
  -5   7   7   -0.20    1.00
   5   7  -7    0.10    1.00
  -4  -7   7   16.80    1.90
  -4  -7   7   17.80    2.10
   4  -7  -7   17.20    2.00
   4  -7  -7   17.80    2.00
  -4   7   7   17.60    2.30
   4   7  -7   15.90    2.00
  -4   7   7   19.40    2.50
   3  -7  -7   11.10    1.60
  -3  -7   7   13.70    1.70
  -3  -7   7   11.60    1.60
   3  -7  -7   13.90    1.90
   3   7  -7   12.30    2.00
  -3   7   7   10.30    1.80
  -3   7   7   12.90    1.80
   2  -7  -7    6.70    1.50
  -2  -7   7    5.50    1.30
   2  -7  -7    7.80    1.40
   2  -7  -7    9.10    1.80
   2   7  -7    8.90    1.70
  -2   7   7    9.10    1.80
  -2   7   7    5.80    1.60
   1  -7  -7    7.90    1.70
  -1  -7   7    5.80    1.10
   1  -7  -7    9.90    1.60
  -1   7   7    8.20    1.60
  -1   7   7    8.50    1.40
   1   7  -7    8.10    1.60
   0  -7  -7    6.50    1.30
   0  -7   7    8.80    1.20
   0  -7  -7    7.90    1.60
   0  -7   7    7.50    1.30
   0   7  -7   11.30    1.80
   0   7   7    5.70    1.40
   0   7   7    8.70    1.70
   0   7  -7    8.50    1.70
  -1  -7  -7    8.50    1.60
  -1  -7  -7    7.50    1.10
   1  -7   7    6.50    1.40
   1  -7   7   10.10    1.70
  -1  -7  -7    7.90    1.40
  -1   7  -7    7.60    1.60
   1   7   7    7.20    1.40
  -1   7  -7    9.90    1.80
  -2  -7  -7   48.30    3.30
  -2  -7  -7   40.10    2.60
  -2  -7  -7   50.49    4.00
   2  -7   7   51.29    3.10
   2   7   7   47.30    2.80
   2   7   7   48.40    3.30
  -2   7  -7   48.60    3.00
  -3  -7  -7   -1.10    1.20
  -3  -7  -7   -0.50    1.10
  -3  -7  -7   -1.30    1.20
   3  -7   7    0.90    1.20
  -3   7  -7    0.40    1.00
   3   7   7   -0.20    1.10
  -3   7  -7    1.50    1.00
   3   7   7   -0.70    1.00
  -4  -7  -7    0.20    1.40
  -4  -7  -7   -0.80    1.60
   4  -7   7   -2.90    1.20
  -4  -7  -7    1.50    1.40
   4   7   7    1.50    1.20
  -4   7  -7    2.00    1.30
   4   7   7   -1.40    1.00
   5  -8  -7    1.30    1.00
  -5  -8   7    4.60    1.30
   5  -8  -7    0.50    1.40
   5  -8  -7    2.30    1.20
  -5  -8   7    3.20    1.10
  -5   8   7    2.40    1.20
  -5   8   7    1.50    1.70
   5   8  -7    1.80    1.60
  -4  -8   7    3.60    1.30
   4  -8  -7    2.30    1.30
  -4  -8   7    3.20    1.50
   4  -8  -7    2.00    1.10
  -4   8   7    1.90    1.50
  -4   8   7    0.60    1.40
   4   8  -7    2.30    1.50
   3  -8  -7    6.10    1.60
   3  -8  -7    4.70    1.40
  -3  -8   7    4.10    1.10
  -3  -8   7    6.00    1.40
   3   8  -7    4.20    1.40
  -3   8   7    5.00    1.70
  -3   8   7    3.40    1.30
  -2  -8   7    6.20    1.30
   2  -8  -7    5.60    1.70
   2  -8  -7    9.70    1.80
  -2   8   7    9.60    1.60
   2   8  -7   10.00    1.90
  -2   8   7    5.50    1.60
  -1  -8   7    2.60    1.30
   1  -8  -7   -1.70    1.10
   1  -8  -7    0.30    1.50
   1   8  -7   -1.00    1.20
  -1   8   7    0.70    1.20
  -1   8   7    1.60    1.20
   0  -8   7   -0.50    0.80
   0  -8  -7    1.00    1.70
   0  -8  -7   -0.50    0.80
   0   8   7    0.00    1.00
   0   8  -7    0.50    1.30
   0   8   7   -1.20    1.20
   1  -8   7    1.10    1.10
   1  -8   7    0.50    1.30
  -1  -8  -7   -0.80    1.70
  -1  -8  -7    2.20    1.10
  -1   8  -7   -0.40    0.80
   1   8   7    1.90    1.30
  -1   8  -7   -1.40    0.60
   2  -8   7   -1.40    1.10
  -2  -8  -7    0.80    1.40
  -2  -8  -7    0.60    0.80
  -2  -8  -7    1.50    1.50
  -2   8  -7    1.20    1.00
  -2   8  -7   -0.80    1.10
   2   8   7    1.60    1.40
  -3  -8  -7    0.50    1.60
  -3  -8  -7   -0.30    1.20
   3  -8   7   -1.60    1.20
  -3  -8  -7    0.60    1.30
   3   8   7    0.00    1.10
   3   8   7   -0.90    1.40
  -3   8  -7   -0.90    0.90
  -3  -9   7    0.60    1.30
   3  -9  -7    3.20    1.60
   3  -9  -7    4.20    1.60
  -3  -9   7    2.80    1.60
  -3   9   7    2.80    1.30
   3   9  -7    2.60    1.60
  -3   9   7    4.20    1.80
   2  -9  -7   -1.00    0.90
  -2  -9   7   -0.10    1.40
  -2  -9   7   -0.10    1.20
   2  -9  -7    1.20    1.40
  -2   9   7   -0.10    1.30
  -2   9   7    1.20    1.50
   2   9  -7    0.20    1.10
  -1  -9   7   -0.50    0.80
   1  -9  -7   -1.40    1.30
   1  -9  -7   -0.20    1.50
   1  -9  -7    0.00    1.30
  -1   9   7    1.20    1.20
  -1   9   7    2.20    1.20
   1   9  -7    3.40    1.50
   0  -9  -7    2.30    1.80
   0  -9   7    0.30    1.30
   0  -9  -7   -1.30    1.20
   0   9  -7    0.90    1.40
   0   9   7   -1.20    1.30
 -10   0   8    1.70    1.40
 -10   0   8    2.00    0.90
  10   0  -8    4.00    1.40
   9   0  -8    2.70    1.40
   9   0  -8    0.80    0.80
  -9   0   8    1.70    1.00
  -9   0   8   -0.60    0.90
   8   0  -8    2.90    1.00
   8   0  -8    4.10    1.20
   8   0  -8    5.00    1.50
  -8   0   8    3.40    0.90
  -8   0   8    4.10    1.30
   7   0  -8    1.80    1.00
  -7   0   8    1.30    0.60
  -7   0   8    1.70    0.80
   7   0  -8    0.80    0.60
   7   0  -8    0.70    0.80
  -7   0   8    0.60    0.60
  -6   0   8  106.89    2.90
  -6   0   8  101.29    3.30
  -6   0   8   98.99    3.40
   6   0  -8  101.49    3.20
   6   0  -8   95.79    3.00
   6   0  -8  104.89    3.90
   6   0  -8   99.49    3.40
  -5   0   8    5.50    0.90
   5   0  -8    5.90    1.20
  -5   0   8    4.50    0.60
   5   0  -8    5.80    0.80
  -5   0   8    5.60    0.90
   5   0  -8    5.80    0.80
  -5   0   8    5.00    0.70
   5   0  -8    4.40    0.80
   5   0  -8    4.70    0.80
   4   0  -8   40.70    2.10
   4   0  -8   42.70    1.80
  -4   0   8   38.80    1.90
   4   0  -8   40.20    1.70
   4   0  -8   41.60    2.20
  -4   0   8   37.10    1.60
  -4   0   8   37.40    1.60
   4   0  -8   37.30    1.70
  -4   0   8   37.10    1.40
   3   0  -8   81.49    2.90
  -3   0   8   76.19    2.10
   3   0  -8   84.19    2.70
  -3   0   8   81.19    2.40
   3   0  -8   79.79    2.50
   3   0  -8   80.09    2.30
  -3   0   8   80.99    2.40
   3   0  -8   82.59    2.80
  -2   0   8  130.99    3.40
  -2   0   8  129.19    3.50
   2   0  -8  126.69    3.10
  -2   0   8  131.69    3.20
   2   0  -8  123.89    3.50
   2   0  -8  126.59    3.40
   2   0  -8  132.19    3.90
  -1   0   8  118.39    2.90
   1   0  -8  125.89    3.70
   1   0  -8  119.09    3.30
   1   0  -8  112.59    2.80
  -1   0   8  120.19    3.30
  -1   0   8  117.09    3.20
   0   0  -8   21.90    1.80
   0   0  -8   25.50    1.40
   0   0   8   25.00    1.40
   0   0   8   20.70    1.00
   0   0  -8   25.60    1.70
  -1   0  -8   15.10    1.40
   1   0   8   16.30    1.40
   1   0   8   16.50    0.90
  -1   0  -8   14.40    1.00
  -1   0  -8   17.10    1.00
  -1   0  -8   14.80    1.50
  -2   0  -8    3.10    0.90
   2   0   8    3.00    0.90
   2   0   8    4.20    0.80
   2   0   8    4.70    0.60
  -2   0  -8    4.20    0.70
  -2   0  -8    4.10    0.70
  -2   0  -8    4.20    1.00
  -3   0  -8   62.89    2.10
   3   0   8   66.29    2.60
  -3   0  -8   68.89    2.60
  -3   0  -8   63.69    2.40
   3   0   8   67.79    2.80
  -3   0  -8   63.29    3.00
  -4   0  -8    5.80    0.90
  -4   0  -8    6.50    1.20
  -4   0  -8    2.30    1.30
   4   0   8    8.90    1.30
   4   0   8    5.00    1.20
  -5   0  -8    7.90    1.80
  -5   0  -8    6.60    1.20
   5   0   8   12.90    1.50
   5   0   8    9.90    1.40
   6   0   8    1.10    0.90
  -6   0  -8    1.40    1.20
   6   0   8    0.60    0.70
  -7   0  -8   20.80    2.90
   7   0   8   18.90    1.80
   7   0   8   19.20    2.40
  10  -1  -8   -0.60    0.80
 -10  -1   8    0.00    0.80
 -10  -1   8   -0.60    1.30
  10   1  -8   -0.30    0.80
 -10   1   8    0.10    1.40
   9  -1  -8    2.90    1.30
  -9  -1   8    1.50    0.70
  -9  -1   8    2.30    1.40
   9  -1  -8    2.30    1.10
   9   1  -8    3.90    1.00
  -9   1   8   -0.90    1.30
   8  -1  -8    7.20    1.40
   8  -1  -8    7.90    1.50
   8  -1  -8    7.30    1.20
   8  -1  -8    5.90    1.30
  -8  -1   8    6.10    1.00
  -8  -1   8    8.50    1.30
   8   1  -8    9.80    1.40
  -8   1   8    8.40    1.30
   8   1  -8    8.00    1.50
  -8   1   8   10.40    1.70
  -8   1   8    7.70    1.10
  -7  -1   8    8.80    1.20
   7  -1  -8    9.00    1.20
  -7  -1   8    7.40    1.00
   7  -1  -8    8.20    1.20
  -7  -1   8    9.50    1.30
   7  -1  -8   11.20    1.40
   7  -1  -8    9.70    1.60
  -7   1   8    9.90    1.40
   7   1  -8    7.00    1.50
   7   1  -8    8.30    1.20
  -7   1   8    8.50    1.00
  -7   1   8    9.50    1.30
   7   1  -8    8.30    1.20
  -6  -1   8   12.90    1.30
  -6  -1   8   14.60    1.20
   6  -1  -8   14.90    1.50
   6  -1  -8   14.80    1.50
   6  -1  -8   16.50    1.50
   6  -1  -8   15.00    1.80
  -6  -1   8   13.80    1.40
   6   1  -8   14.40    1.40
  -6   1   8   11.80    1.20
   6   1  -8   12.90    1.70
  -6   1   8   13.50    1.30
  -6   1   8   14.10    1.00
  -6   1   8   14.00    1.60
   6   1  -8   11.90    1.20
   6   1  -8   14.80    1.30
  -5  -1   8   41.00    2.00
   5  -1  -8   40.00    1.60
   5  -1  -8   43.00    2.00
   5  -1  -8   40.60    2.10
  -5  -1   8   45.00    2.00
   5  -1  -8   41.90    2.00
  -5  -1   8   42.30    1.70
   5  -1  -8   38.30    2.10
   5  -1  -8   42.40    1.90
   5   1  -8   41.40    2.00
  -5   1   8   38.00    1.80
  -5   1   8   40.80    1.40
  -5   1   8   43.30    2.00
  -5   1   8   45.60    2.10
   5   1  -8   42.40    1.80
   5   1  -8   41.30    2.20
   5   1  -8   37.50    1.60
  -4  -1   8  168.18    4.20
   4  -1  -8  163.48    4.50
  -4  -1   8  167.98    3.80
  -4  -1   8  166.68    4.00
   4  -1  -8  163.48    4.20
   4  -1  -8  166.68    4.10
   4  -1  -8  169.68    4.60
   4  -1  -8  171.98    4.70
   4   1  -8  161.18    3.70
   4   1  -8  167.68    4.50
  -4   1   8  166.08    4.10
  -4   1   8  169.38    4.60
   4   1  -8  175.58    4.80
  -4   1   8  165.48    4.20
   4   1  -8  164.08    3.90
   3  -1  -8   12.20    1.20
  -3  -1   8   11.10    0.80
  -3  -1   8   10.60    0.80
   3  -1  -8   12.10    1.10
  -3  -1   8   10.30    1.00
   3  -1  -8   12.90    1.00
  -3  -1   8   11.10    1.00
   3  -1  -8   10.30    1.10
   3  -1  -8   13.10    1.30
  -3   1   8   10.60    0.50
   3   1  -8   11.40    1.30
   3   1  -8   11.90    1.20
  -3   1   8   10.60    0.90
   3   1  -8    9.50    0.80
   3   1  -8   10.60    1.20
  -3   1   8    9.50    1.00
  -3   1   8   13.10    1.20
   2  -1  -8  215.48    5.40
   2  -1  -8  219.68    5.30
  -2  -1   8  215.98    4.80
  -2  -1   8  216.18    4.90
   2  -1  -8  222.78    4.90
   2  -1  -8  217.98    5.30
  -2  -1   8  214.58    5.00
  -2   1   8  223.18    4.70
   2   1  -8  214.28    4.50
  -2   1   8  209.78    4.20
   2   1  -8  210.38    4.40
   2   1  -8  222.98    5.30
  -2   1   8  209.78    5.10
   2   1  -8  219.08    5.60
   2   1  -8  219.08    5.30
   1  -1  -8   77.49    2.60
   1  -1  -8   69.29    2.20
   1  -1  -8   70.59    2.60
  -1  -1   8   75.99    2.50
  -1  -1   8   71.99    2.20
  -1  -1   8   70.99    2.20
   1  -1  -8   74.49    2.60
  -1   1   8   70.99    1.90
   1   1  -8   70.39    1.80
   1   1  -8   74.39    2.40
  -1   1   8   74.89    2.60
  -1   1   8   72.69    2.50
   1   1  -8   78.39    2.90
   0  -1   8   17.10    1.10
   0  -1   8   16.20    1.30
   0  -1  -8   19.80    1.30
   0  -1  -8   18.40    1.60
   0  -1  -8   18.30    1.50
   0   1  -8   19.20    1.20
   0   1   8   19.50    1.20
   0   1  -8   17.70    0.70
   0   1  -8   20.80    1.60
   0   1   8   17.30    1.30
   0   1   8   17.50    0.80
   0   1  -8   21.50    1.20
  -1  -1  -8  625.34   12.60
  -1  -1  -8  618.44   12.80
   1  -1   8  619.24   12.40
   1  -1   8  624.64   12.30
   1  -1   8  609.44   12.00
  -1  -1  -8  610.14   12.40
  -1   1  -8  636.74   12.70
   1   1   8  638.64   12.50
   1   1   8  624.34   12.40
   1   1   8  600.64   11.30
  -1   1  -8  601.84   11.90
  -1   1  -8  616.04   12.20
  -1   1  -8  649.83   13.40
  -2  -1  -8   21.10    1.50
  -2  -1  -8   26.70    2.10
   2  -1   8   25.80    1.60
   2  -1   8   25.90    1.70
  -2  -1  -8   26.80    1.80
  -2   1  -8   23.20    1.10
  -2   1  -8   24.60    1.60
  -2   1  -8   30.60    2.20
   2   1   8   25.50    1.70
  -2   1  -8   23.60    1.50
  -3  -1  -8   32.20    2.50
   3  -1   8   31.90    1.90
  -3  -1  -8   30.10    1.80
  -3  -1  -8   30.00    1.70
   3  -1   8   34.10    2.00
   3   1   8   35.10    2.00
  -3   1  -8   32.90    2.00
  -3   1  -8   33.30    2.60
  -3   1  -8   32.80    1.80
   3   1   8   31.70    1.60
   4  -1   8    4.50    1.20
  -4  -1  -8    6.40    1.60
   4  -1   8    2.20    1.00
  -4  -1  -8    2.70    0.80
   4   1   8    4.30    1.00
  -4   1  -8    3.70    1.40
  -4   1  -8    4.00    1.00
   4   1   8    3.70    0.80
  -4   1  -8    2.60    0.90
   5  -1   8    4.30    1.20
   5  -1   8    2.60    1.10
  -5  -1  -8    4.40    1.10
  -5  -1  -8    2.90    1.60
  -5   1  -8    2.10    1.00
  -5   1  -8    3.80    1.00
   5   1   8    1.90    1.20
  -5   1  -8    2.70    1.50
   5   1   8    4.10    0.90
  -6  -1  -8    6.80    2.00
   6  -1   8    6.60    1.50
  -6  -1  -8    7.40    1.40
   6  -1   8    8.20    1.50
   6   1   8    7.10    1.30
  -6   1  -8    5.70    1.20
   6   1   8    7.20    1.60
  -6   1  -8    7.00    2.10
  -7  -1  -8    1.00    1.30
   7  -1   8    1.50    1.10
   7  -1   8   -1.20    1.20
   7   1   8    0.00    0.90
  -7   1  -8    1.90    1.80
   7   1   8    1.00    1.30
   9  -2  -8    4.40    1.50
  -9  -2   8    3.60    1.20
   9  -2  -8    1.30    1.00
   9  -2  -8    1.50    1.30
  -9  -2   8    1.80    1.30
   9   2  -8    1.80    1.30
   9   2  -8    3.10    1.20
  -9   2   8    2.50    1.50
   8  -2  -8    6.20    1.50
   8  -2  -8    5.70    1.30
  -8  -2   8    7.90    1.10
  -8  -2   8    8.40    1.50
   8  -2  -8    6.20    1.40
  -8   2   8    8.40    1.60
  -8   2   8    9.50    1.80
   8   2  -8    7.20    1.30
  -7  -2   8    7.00    1.30
  -7  -2   8   10.00    1.30
   7  -2  -8    8.30    1.40
   7  -2  -8   10.80    1.30
   7  -2  -8    8.20    1.30
  -7  -2   8    8.20    1.20
   7  -2  -8    5.40    1.10
  -7   2   8   10.20    1.50
  -7   2   8    8.60    1.50
   7   2  -8   11.90    1.40
   7   2  -8   13.10    1.90
   7   2  -8    8.70    1.20
   6  -2  -8   37.10    2.40
  -6  -2   8   38.30    1.90
   6  -2  -8   39.20    2.30
  -6  -2   8   40.30    2.00
   6  -2  -8   41.00    2.30
   6  -2  -8   35.90    2.20
  -6  -2   8   43.50    2.10
   6   2  -8   39.80    1.90
  -6   2   8   40.90    2.10
   6   2  -8   36.20    2.30
  -6   2   8   41.30    2.10
  -6   2   8   40.60    2.50
   6   2  -8   38.30    2.10
   5  -2  -8   58.99    2.60
  -5  -2   8   55.79    2.10
  -5  -2   8   58.69    2.40
   5  -2  -8   55.99    2.40
   5  -2  -8   52.89    2.60
   5  -2  -8   62.79    2.70
   5  -2  -8   55.09    2.40
  -5   2   8   62.59    2.70
  -5   2   8   59.09    2.50
   5   2  -8   59.89    2.50
   5   2  -8   62.09    2.10
   5   2  -8   58.49    2.70
  -5   2   8   59.49    2.50
   4  -2  -8    0.50    0.70
   4  -2  -8    2.00    0.90
   4  -2  -8    2.30    0.50
   4  -2  -8    0.10    0.70
   4  -2  -8    1.20    0.80
  -4  -2   8    0.60    0.70
  -4  -2   8    1.60    0.70
   4   2  -8    2.00    0.90
  -4   2   8    1.80    0.70
   4   2  -8    1.70    0.50
   4   2  -8    0.90    0.60
  -4   2   8    1.20    0.60
   4   2  -8    1.40    0.40
  -4   2   8    0.70    0.80
  -3  -2   8  162.48    4.10
  -3  -2   8  159.28    4.10
   3  -2  -8  163.88    4.20
   3  -2  -8  163.08    4.50
  -3  -2   8  157.48    3.80
   3  -2  -8  156.88    4.50
   3  -2  -8  160.98    4.30
  -3  -2   8  157.08    3.50
  -3   2   8  163.38    4.40
  -3   2   8  159.28    3.80
   3   2  -8  159.28    3.50
   3   2  -8  156.78    4.40
  -3   2   8  167.28    4.60
   3   2  -8  164.28    4.50
   2  -2  -8    1.90    0.70
  -2  -2   8    1.60    0.60
   2  -2  -8    2.10    0.70
   2  -2  -8    1.80    0.80
  -2  -2   8    2.10    0.70
  -2  -2   8    2.40    0.50
   2  -2  -8    2.00    0.60
   2  -2  -8    3.10    0.90
   2   2  -8    2.00    0.80
   2   2  -8    2.30    0.70
  -2   2   8    1.30    0.70
  -2   2   8    1.60    0.50
   2   2  -8    1.80    0.30
   2   2  -8    1.80    0.70
  -2   2   8    1.90    0.60
   1  -2  -8   22.30    1.30
  -1  -2   8   21.90    1.20
  -1  -2   8   25.70    1.30
   1  -2  -8   22.40    1.60
   1  -2  -8   23.80    1.60
   1   2  -8   19.60    0.50
   1   2  -8   24.30    1.80
   1   2  -8   25.00    1.50
  -1   2   8   26.90    1.50
   1   2  -8   24.60    1.40
  -1   2   8   24.80    0.90
   0  -2  -8   80.09    2.90
   0  -2   8   75.39    2.50
   0  -2   8   78.79    2.50
   0  -2  -8   79.29    2.70
   0  -2  -8   74.99    2.70
   0   2  -8   78.69    2.90
   0   2   8   85.09    2.80
   0   2  -8   81.49    2.80
   0   2   8   79.49    2.80
   0   2  -8   77.59    2.60
  -1  -2  -8    9.90    1.40
   1  -2   8   12.50    1.20
  -1  -2  -8   11.50    1.40
   1  -2   8   13.00    1.00
  -1  -2  -8   12.00    1.40
   1  -2   8   12.70    1.20
   1   2   8   13.30    1.20
  -1   2  -8   10.30    1.10
  -1   2  -8   11.70    0.80
  -1   2  -8   13.50    1.50
   1   2   8   12.90    1.30
  -2  -2  -8   -0.30    1.00
  -2  -2  -8   -0.50    0.90
   2  -2   8   -0.80    0.70
  -2  -2  -8   -0.20    0.80
   2  -2   8    0.10    0.60
  -2   2  -8    0.10    1.10
   2   2   8    0.10    0.50
   2   2   8    1.00    0.50
  -2   2  -8    0.20    0.80
  -2   2  -8    0.50    0.50
  -3  -2  -8   18.90    1.90
   3  -2   8   19.90    1.50
  -3  -2  -8   18.30    1.70
   3  -2   8   18.50    1.40
  -3  -2  -8   18.60    1.60
   3   2   8   21.90    1.70
  -3   2  -8   18.50    1.50
   3   2   8   18.30    1.30
  -3   2  -8   21.20    1.80
  -3   2  -8   20.60    2.20
  -4  -2  -8    0.00    0.80
   4  -2   8   -0.90    0.80
  -4  -2  -8    0.60    0.80
  -4  -2  -8    0.40    0.90
   4  -2   8    0.20    0.60
   4   2   8   -0.10    0.50
  -4   2  -8   -1.10    0.70
  -4   2  -8    0.10    0.90
   4   2   8    0.00    0.70
  -4   2  -8   -0.30    0.80
   5  -2   8    5.20    1.30
  -5  -2  -8    6.70    1.40
  -5  -2  -8    6.90    1.90
   5  -2   8    6.20    1.40
  -5   2  -8    7.10    1.90
  -5   2  -8    6.50    1.40
   5   2   8    4.50    1.10
   6  -2   8   -0.40    0.70
   6  -2   8    1.70    0.90
  -6  -2  -8   -0.60    1.20
  -6  -2  -8    0.30    1.10
  -6   2  -8    0.30    1.20
  -6   2  -8   -0.60    1.60
   6   2   8   -0.20    0.60
   9  -3  -8   20.70    2.10
   9  -3  -8   18.10    2.20
   9  -3  -8   18.50    2.20
  -9  -3   8   21.60    2.40
  -9  -3   8   19.20    2.00
   9   3  -8   25.00    2.60
   9   3  -8   22.10    2.00
  -9   3   8   20.90    2.10
  -9   3   8   19.20    2.50
  -8  -3   8    0.60    0.70
   8  -3  -8   -1.20    0.90
  -8  -3   8    1.40    1.20
   8  -3  -8    1.40    1.20
   8  -3  -8   -0.30    1.10
  -8  -3   8    1.30    0.90
   8   3  -8    0.40    0.80
   8   3  -8    1.50    0.90
  -8   3   8   -0.80    0.70
  -8   3   8   -1.00    1.10
  -7  -3   8   32.90    2.30
   7  -3  -8   31.30    2.30
   7  -3  -8   29.20    2.20
   7  -3  -8   30.50    2.40
   7  -3  -8   31.00    2.10
  -7  -3   8   37.20    2.40
  -7  -3   8   32.50    2.10
   7   3  -8   32.40    2.00
  -7   3   8   35.30    2.60
   7   3  -8   35.50    2.50
  -7   3   8   33.70    2.60
   7   3  -8   29.50    2.00
   6  -3  -8   89.69    3.40
  -6  -3   8   85.29    3.00
   6  -3  -8   91.39    3.50
   6  -3  -8   84.89    3.60
  -6  -3   8   92.19    3.20
   6  -3  -8   87.99    3.50
  -6   3   8   93.19    3.50
   6   3  -8   91.79    2.90
  -6   3   8   86.89    3.30
   6   3  -8   90.39    3.60
  -6   3   8   86.79    3.70
  -5  -3   8   12.70    1.30
   5  -3  -8   14.60    1.20
  -5  -3   8   13.40    1.40
   5  -3  -8   16.50    1.60
   5  -3  -8   14.90    1.70
   5  -3  -8   12.80    1.70
  -5   3   8   13.50    1.50
   5   3  -8   14.10    1.60
   5   3  -8   17.40    1.70
   5   3  -8   13.90    1.10
  -5   3   8   14.40    1.50
  -5   3   8   13.00    1.70
   4  -3  -8  315.07    7.60
   4  -3  -8  316.07    6.90
   4  -3  -8  320.77    7.20
   4  -3  -8  317.87    7.90
   4  -3  -8  313.57    7.30
  -4  -3   8  333.57    7.30
  -4  -3   8  317.17    7.20
   4   3  -8  322.27    6.50
  -4   3   8  329.67    8.00
   4   3  -8  313.57    7.70
   4   3  -8  316.07    7.80
  -4   3   8  321.87    7.10
  -4   3   8  310.77    7.50
  -3  -3   8  144.79    3.90
   3  -3  -8  136.09    4.50
  -3  -3   8  136.59    3.90
   3  -3  -8  139.89    3.90
  -3  -3   8  131.79    3.40
   3  -3  -8  137.99    4.00
   3  -3  -8  138.19    4.10
  -3   3   8  138.29    4.10
  -3   3   8  136.79    4.30
   3   3  -8  131.39    4.10
  -3   3   8  139.69    3.60
   3   3  -8  145.89    4.30
  -2  -3   8  140.29    3.80
   2  -3  -8  139.69    3.50
   2  -3  -8  142.09    4.50
   2  -3  -8  137.69    4.20
   2  -3  -8  142.19    3.90
  -2  -3   8  139.19    3.50
   2  -3  -8  142.39    4.00
  -2   3   8  141.39    4.20
  -2   3   8  135.19    3.30
   2   3  -8  144.99    4.10
   2   3  -8  140.79    4.30
  -2   3   8  139.69    4.20
   1  -3  -8    6.20    1.00
  -1  -3   8    7.40    0.90
   1  -3  -8    7.40    1.00
  -1  -3   8    7.10    0.80
   1  -3  -8    6.90    1.10
   1   3  -8    6.40    1.00
   1   3  -8    6.60    0.60
  -1   3   8    6.80    1.10
  -1   3   8    5.60    1.10
   1   3  -8    7.40    0.80
   0  -3  -8   12.40    1.30
   0  -3   8   12.20    1.20
   0  -3  -8   11.10    1.30
   0  -3   8   12.00    1.20
   0  -3  -8   11.90    1.40
   0  -3   8   12.50    0.90
   0   3  -8   13.10    1.40
   0   3  -8   11.60    1.40
   0   3  -8   13.50    1.30
   0   3  -8   10.40    0.90
   0   3   8   12.60    1.40
   0   3   8   15.40    1.50
  -1  -3  -8  395.06    8.80
  -1  -3  -8  401.06    8.90
   1  -3   8  392.86    8.70
  -1  -3  -8  402.46    9.10
   1  -3   8  405.46    8.70
   1  -3   8  384.36    8.10
  -1   3  -8  396.96    9.00
  -1   3  -8  401.36    8.90
   1   3   8  383.16    8.80
  -1   3  -8  399.46    9.10
  -2  -3  -8   77.29    3.30
  -2  -3  -8   81.79    3.10
   2  -3   8   77.49    3.00
  -2  -3  -8   77.99    3.30
   2  -3   8   76.79    2.70
  -2   3  -8   78.29    3.00
  -2   3  -8   83.39    3.20
   2   3   8   77.59    3.10
  -2   3  -8   78.79    3.10
   2   3   8   78.19    3.00
   2   3   8   76.19    2.90
  -3  -3  -8    7.40    1.40
   3  -3   8    7.10    1.10
  -3  -3  -8    7.90    1.20
   3  -3   8    8.10    1.20
  -3  -3  -8    8.50    1.60
  -3   3  -8    7.90    1.10
  -3   3  -8    7.70    1.40
   3   3   8    6.50    1.20
   3   3   8    6.10    1.20
   3   3   8    7.00    1.00
  -3   3  -8    8.00    1.30
   4  -3   8    6.80    1.20
   4  -3   8    5.40    1.20
  -4  -3  -8    8.70    1.30
  -4  -3  -8    5.30    1.60
  -4  -3  -8    6.10    1.50
   4   3   8    8.60    1.10
  -4   3  -8    6.50    1.40
   4   3   8    7.90    1.40
   4   3   8    5.20    1.20
  -5  -3  -8    7.90    1.90
  -5  -3  -8    8.30    1.50
   5  -3   8    7.50    1.50
  -5  -3  -8    9.30    1.70
   5  -3   8   10.00    1.60
  -5   3  -8    8.40    1.40
   5   3   8    8.30    1.50
   5   3   8    6.30    1.10
   5   3   8    7.00    1.30
   6  -3   8    6.10    1.30
  -6  -3  -8    5.50    1.60
  -6  -3  -8    1.80    1.30
   6  -3   8    4.40    1.50
   6   3   8    4.60    1.20
  -6   3  -8    6.10    1.70
  -9  -4   8    0.00    1.10
   9  -4  -8    1.00    0.90
  -9  -4   8    2.30    1.20
   9  -4  -8    0.40    1.30
   9  -4  -8    1.20    1.90
   9   4  -8    0.70    1.30
  -9   4   8   -1.30    1.30
  -9   4   8   -0.30    0.80
   8  -4  -8    2.80    1.30
  -8  -4   8    3.40    1.00
   8  -4  -8    5.00    1.40
   8  -4  -8    2.50    1.30
  -8  -4   8    4.10    1.30
  -8  -4   8    3.70    1.20
  -8   4   8    3.60    1.50
  -8   4   8    4.20    1.30
   8   4  -8    3.20    1.00
   8   4  -8    5.70    1.60
   7  -4  -8   15.70    2.10
  -7  -4   8   12.40    1.50
  -7  -4   8   12.80    1.70
  -7  -4   8   13.60    1.70
   7  -4  -8   15.90    1.90
   7  -4  -8   16.30    1.90
   7   4  -8   13.60    1.80
  -7   4   8   11.50    1.40
  -7   4   8   11.60    2.00
   7   4  -8   14.80    1.40
   7   4  -8   18.60    2.20
   6  -4  -8   36.40    2.40
   6  -4  -8   34.30    2.60
  -6  -4   8   36.90    2.10
  -6  -4   8   34.40    2.30
   6  -4  -8   33.10    2.60
   6  -4  -8   38.10    2.70
   6   4  -8   31.70    1.80
   6   4  -8   39.40    2.60
  -6   4   8   36.00    2.40
  -6   4   8   36.30    2.00
  -6   4   8   34.40    2.80
   6   4  -8   44.30    2.50
  -5  -4   8   33.60    2.20
   5  -4  -8   35.80    2.50
   5  -4  -8   42.40    2.20
   5  -4  -8   38.50    2.60
  -5  -4   8   40.10    2.30
   5   4  -8   41.60    2.40
  -5   4   8   40.80    2.70
  -5   4   8   38.70    2.40
   5   4  -8   44.80    2.30
   4  -4  -8   10.80    1.50
   4  -4  -8   10.70    1.40
   4  -4  -8    8.60    1.40
  -4  -4   8   13.30    1.40
   4  -4  -8   10.70    1.20
  -4  -4   8    8.70    1.10
   4   4  -8   15.40    1.40
  -4   4   8   12.60    1.60
  -4   4   8   10.50    1.40
   4   4  -8   11.20    1.60
   3  -4  -8   50.39    2.30
   3  -4  -8   55.19    2.90
   3  -4  -8   53.39    2.50
   3  -4  -8   50.39    2.40
  -3  -4   8   49.99    2.30
  -3  -4   8   45.70    1.70
  -3   4   8   55.39    2.70
   3   4  -8   52.09    2.00
   3   4  -8   47.20    2.50
  -3   4   8   53.19    2.80
   2  -4  -8    0.80    0.60
   2  -4  -8    2.10    0.90
   2  -4  -8    2.50    1.10
  -2  -4   8    1.30    0.60
   2  -4  -8    0.10    0.90
  -2  -4   8    2.10    0.90
  -2   4   8    1.20    0.70
  -2   4   8    1.40    0.80
   2   4  -8    1.20    0.90
   2   4  -8    2.40    0.50
   1  -4  -8   10.20    1.10
   1  -4  -8    9.40    1.30
  -1  -4   8   11.40    1.20
   1  -4  -8   10.90    1.40
  -1  -4   8   10.30    1.10
  -1   4   8   10.90    1.40
   1   4  -8   10.20    1.30
  -1   4   8   10.90    1.30
   0  -4   8   40.90    1.90
   0  -4  -8   45.30    2.60
   0  -4   8   46.30    2.20
   0  -4  -8   44.90    2.50
   0  -4  -8   42.60    2.10
   0   4   8   46.10    2.30
   0   4  -8   43.10    2.50
   0   4  -8   43.50    2.20
   0   4   8   42.20    2.20
   1  -4   8    7.70    0.90
  -1  -4  -8    6.70    1.20
  -1  -4  -8    7.60    1.50
   1  -4   8    7.20    1.20
  -1  -4  -8    5.60    1.10
   1   4   8    8.10    1.10
  -1   4  -8    8.10    1.40
   1   4   8    7.60    1.30
  -1   4  -8    5.80    1.20
  -2  -4  -8   -0.50    0.70
  -2  -4  -8   -0.40    1.10
   2  -4   8    1.70    1.00
   2  -4   8   -0.20    0.60
  -2  -4  -8    0.80    1.00
   2   4   8    1.00    0.80
   2   4   8    0.10    0.70
  -2   4  -8    0.50    0.70
   2   4   8    1.20    1.00
  -2   4  -8    0.50    1.00
   3  -4   8    3.70    1.00
   3  -4   8    4.60    1.00
  -3  -4  -8    3.80    1.40
  -3  -4  -8    3.60    1.10
  -3  -4  -8    3.10    1.00
   3   4   8    4.60    1.20
   3   4   8    4.70    1.20
   3   4   8    5.00    0.90
  -3   4  -8    3.50    0.90
  -3   4  -8    4.90    1.10
  -4  -4  -8    1.00    1.20
   4  -4   8    0.80    1.10
  -4  -4  -8    0.40    1.00
   4  -4   8    2.60    1.00
  -4  -4  -8    0.60    0.90
  -4   4  -8   -0.30    0.70
  -4   4  -8    1.40    1.00
   4   4   8    0.40    1.10
   4   4   8   -0.50    0.70
  -5  -4  -8    5.00    1.50
   5  -4   8    4.80    1.50
   5  -4   8    4.40    1.30
  -5  -4  -8    4.60    1.50
  -5  -4  -8    4.70    1.90
  -5   4  -8    5.60    1.60
   5   4   8    4.10    1.10
   5   4   8    2.80    1.30
  -5   4  -8    3.80    1.20
   6  -4   8   -1.10    1.30
   6  -4   8   -0.50    0.70
  -6  -4  -8    0.10    1.40
  -6  -4  -8   -2.80    1.50
   6   4   8   -0.40    1.10
  -6   4  -8    1.90    1.10
   6   4   8   -2.50    1.20
   8  -5  -8    1.90    1.40
  -8  -5   8   -0.60    0.80
   8  -5  -8    0.10    0.70
   8  -5  -8   -0.50    1.20
  -8  -5   8    1.20    0.90
  -8  -5   8    0.40    1.20
   8   5  -8    1.90    1.30
  -8   5   8    1.30    1.00
   8   5  -8    0.20    0.90
   7  -5  -8    0.30    0.90
  -7  -5   8    0.60    1.20
  -7  -5   8   -0.40    1.00
  -7  -5   8    1.10    1.20
   7  -5  -8    1.30    1.00
   7  -5  -8    2.10    1.20
   7   5  -8   -0.70    0.80
  -7   5   8    1.70    1.40
   7   5  -8    0.70    1.10
   6  -5  -8    8.00    1.50
  -6  -5   8    5.70    1.40
   6  -5  -8    7.40    1.60
  -6  -5   8    9.00    1.40
   6  -5  -8    8.60    1.50
   6   5  -8    8.30    1.30
  -6   5   8    7.60    1.70
  -6   5   8    6.60    1.50
   6   5  -8    9.00    1.70
  -5  -5   8    6.50    1.10
  -5  -5   8    7.00    1.30
   5  -5  -8    5.70    1.30
   5  -5  -8    6.40    1.30
   5  -5  -8    6.30    1.20
   5   5  -8    8.00    1.40
  -5   5   8    6.60    1.60
   5   5  -8    5.70    1.10
  -5   5   8    8.40    1.60
   4  -5  -8   55.39    2.40
   4  -5  -8   57.59    2.80
   4  -5  -8   57.69    2.60
  -4  -5   8   58.29    2.80
  -4  -5   8   57.69    2.70
   4  -5  -8   59.09    3.30
  -4   5   8   59.39    3.10
  -4   5   8   56.79    2.80
   4   5  -8   56.69    3.20
   4   5  -8   56.79    2.50
   3  -5  -8   16.50    1.60
  -3  -5   8   17.00    1.60
   3  -5  -8   20.10    2.20
   3  -5  -8   18.00    1.60
   3  -5  -8   20.10    2.00
  -3   5   8   21.50    2.00
   3   5  -8   15.90    1.90
   3   5  -8   18.00    1.30
  -3   5   8   17.30    1.90
   2  -5  -8   58.69    2.60
   2  -5  -8   60.69    3.10
   2  -5  -8   59.99    3.30
  -2  -5   8   55.49    2.50
  -2  -5   8   57.09    2.10
   2  -5  -8   63.99    2.70
  -2   5   8   59.59    2.90
   2   5  -8   65.69    3.00
  -2   5   8   57.89    2.90
   1  -5  -8    3.30    1.10
  -1  -5   8    2.00    0.70
  -1  -5   8    2.30    1.00
   1  -5  -8    2.90    1.20
  -1   5   8    1.90    1.00
  -1   5   8    2.60    1.10
   1   5  -8    2.30    1.10
   0  -5   8   -1.10    0.80
   0  -5  -8   -1.00    0.70
   0  -5  -8    1.80    1.30
   0  -5  -8    1.40    1.10
   0  -5   8    0.50    0.70
   0   5   8    0.00    0.60
   0   5   8   -0.70    0.80
   0   5  -8   -0.80    0.60
   0   5  -8   -0.20    0.90
  -1  -5  -8  156.78    4.70
   1  -5   8  159.58    4.70
   1  -5   8  154.88    4.90
  -1  -5  -8  157.18    5.40
  -1  -5  -8  158.38    5.10
  -1   5  -8  156.58    5.10
   1   5   8  149.59    5.00
  -1   5  -8  155.28    5.10
   1   5   8  157.68    4.80
  -2  -5  -8   18.80    1.80
   2  -5   8   15.70    1.60
  -2  -5  -8   20.40    2.20
  -2  -5  -8   17.20    1.80
   2   5   8   19.50    2.00
  -2   5  -8   16.50    1.80
   2   5   8   16.40    1.60
  -2   5  -8   17.00    1.90
   2   5   8   17.90    1.80
  -3  -5  -8    9.90    1.50
   3  -5   8    6.80    1.30
  -3  -5  -8    9.40    1.80
   3  -5   8    8.40    1.20
  -3  -5  -8   10.40    1.80
   3   5   8    7.40    1.30
  -3   5  -8   10.50    1.80
  -3   5  -8    7.80    1.50
   3   5   8    9.40    1.40
  -4  -5  -8    1.50    1.10
   4  -5   8    3.00    1.10
  -4  -5  -8    3.70    1.60
   4  -5   8    1.20    1.00
  -4  -5  -8    3.00    1.20
   4   5   8    4.60    1.50
   4   5   8    4.50    1.40
  -4   5  -8    2.30    0.90
  -4   5  -8    4.90    1.30
  -5  -5  -8    0.60    1.40
  -5  -5  -8   -0.30    1.60
   5  -5   8    0.10    1.20
  -5  -5  -8   -0.50    1.40
   5  -5   8    0.50    0.80
   5   5   8    1.30    1.30
  -5   5  -8   -0.70    1.30
   5   5   8    1.80    1.40
   7  -6  -8   -0.70    1.00
  -7  -6   8    0.40    0.80
  -7  -6   8    1.30    1.00
   7  -6  -8    0.80    1.30
   7  -6  -8   -3.20    1.10
  -7  -6   8   -1.70    1.00
  -7   6   8    0.80    1.40
   7   6  -8    1.40    1.20
   7   6  -8    0.10    1.30
   6  -6  -8   19.20    2.00
  -6  -6   8   16.60    1.80
   6  -6  -8   15.50    2.00
  -6  -6   8   14.50    1.90
   6  -6  -8   14.70    2.00
   6   6  -8   15.70    2.00
   6   6  -8   16.30    1.90
  -6   6   8   14.90    2.10
  -6   6   8   14.50    2.10
   5  -6  -8   -0.40    1.20
   5  -6  -8   -0.60    0.70
  -5  -6   8    0.10    1.10
   5  -6  -8    0.40    1.10
  -5  -6   8    0.00    1.00
   5   6  -8    0.40    0.60
  -5   6   8   -0.30    0.70
  -5   6   8   -0.50    0.80
   5   6  -8    0.90    0.90
  -4  -6   8   -0.80    1.00
  -4  -6   8    0.10    1.00
   4  -6  -8    1.40    1.20
   4  -6  -8   -0.30    1.10
   4   6  -8   -0.50    0.80
   4   6  -8    1.10    0.90
  -4   6   8   -0.30    0.70
  -4   6   8    0.60    1.10
   3  -6  -8    4.40    1.30
   3  -6  -8    7.30    1.20
  -3  -6   8    5.90    1.20
   3  -6  -8    5.10    1.10
   3  -6  -8    7.60    1.50
  -3  -6   8    6.20    1.30
  -3   6   8    7.20    1.70
   3   6  -8    8.10    1.60
  -3   6   8    2.60    1.30
   2  -6  -8    9.20    1.60
   2  -6  -8   14.40    2.00
   2  -6  -8   11.00    1.30
  -2  -6   8   12.30    1.60
   2  -6  -8   11.30    1.60
  -2   6   8   11.80    1.60
  -2   6   8   10.00    1.70
   2   6  -8   12.80    1.80
   1  -6  -8   15.80    1.90
  -1  -6   8   18.30    2.00
  -1  -6   8   15.90    1.40
   1  -6  -8   14.80    1.80
   1   6  -8   14.20    1.70
  -1   6   8   14.20    1.70
  -1   6   8   14.90    1.90
   0  -6   8    5.30    1.40
   0  -6   8    5.10    1.10
   0  -6  -8    6.40    1.70
   0  -6  -8    3.20    1.00
   0   6  -8    3.20    1.10
   0   6  -8    4.60    1.10
   0   6   8    6.10    1.30
   0   6   8    4.90    1.40
  -1  -6  -8    1.50    1.30
  -1  -6  -8    1.10    0.80
   1  -6   8    2.20    0.90
   1  -6   8    2.60    1.00
  -1  -6  -8    2.80    1.70
   1   6   8    1.30    0.90
  -1   6  -8    2.20    1.30
  -1   6  -8    1.40    1.00
   1   6   8    1.30    0.80
  -2  -6  -8    0.50    1.20
  -2  -6  -8    1.30    1.10
   2  -6   8   -0.10    1.00
  -2  -6  -8   -0.50    0.90
  -2   6  -8    1.30    1.20
   2   6   8    0.20    0.80
   2   6   8   -1.70    1.10
  -2   6  -8    0.70    1.10
  -3  -6  -8    2.40    1.20
   3  -6   8    3.80    1.10
  -3  -6  -8    4.90    1.80
  -3  -6  -8    4.10    1.20
   3   6   8    2.60    1.10
   3   6   8    5.30    1.50
  -3   6  -8    4.30    1.50
  -3   6  -8    1.80    1.20
   4  -6   8   -1.90    1.20
  -4  -6  -8   -0.80    1.00
  -4  -6  -8   -1.60    1.30
  -4  -6  -8    1.00    1.20
   4   6   8   -0.40    1.30
   4   6   8    0.80    1.20
  -4   6  -8    2.30    1.50
   6  -7  -8   -0.80    1.40
   6  -7  -8    0.80    1.20
  -6  -7   8   -0.70    1.10
  -6  -7   8    0.30    1.20
   6  -7  -8   -1.70    1.00
  -6   7   8    1.10    1.50
   6   7  -8   -1.50    1.20
   6   7  -8   -1.20    1.00
  -6   7   8   -1.10    1.30
   5  -7  -8   12.00    1.90
  -5  -7   8    7.90    1.70
   5  -7  -8    9.60    1.60
   5  -7  -8    8.90    1.80
  -5  -7   8   10.10    1.50
  -5   7   8    7.10    2.10
   5   7  -8    8.50    1.70
  -5   7   8    6.00    1.80
  -4  -7   8   23.80    2.40
   4  -7  -8   25.80    2.50
  -4  -7   8   18.90    2.00
   4  -7  -8   22.80    2.20
  -4   7   8   24.20    2.50
  -4   7   8   19.80    2.40
   4   7  -8   23.00    2.70
   3  -7  -8    3.50    1.50
   3  -7  -8    5.00    1.40
  -3  -7   8    2.50    1.40
  -3  -7   8    5.80    1.40
  -3   7   8    5.50    1.70
  -3   7   8    4.90    1.50
   3   7  -8    4.70    1.60
   2  -7  -8   16.80    1.80
   2  -7  -8   13.40    2.10
   2  -7  -8   13.00    1.80
  -2  -7   8   14.20    1.60
  -2   7   8   13.30    2.00
  -2   7   8   10.30    1.90
   2   7  -8   13.40    1.90
   1  -7  -8    1.80    1.60
   1  -7  -8   -0.30    0.80
  -1  -7   8   -0.10    0.80
   1   7  -8    1.00    1.30
  -1   7   8    0.40    1.10
  -1   7   8    2.50    1.40
   0  -7  -8   -0.10    1.50
   0  -7   8    0.10    0.90
   0  -7   8    1.60    1.20
   0  -7  -8    0.60    1.30
   0   7   8   -0.30    0.70
   0   7  -8    1.30    1.30
   0   7   8    0.00    1.10
  -1  -7  -8   46.50    3.90
   1  -7   8   49.99    2.90
   1  -7   8   46.70    2.90
  -1  -7  -8   47.00    3.30
   1   7   8   48.60    3.30
  -1   7  -8   46.20    3.20
  -1   7  -8   45.50    3.30
  -2  -7  -8    4.40    1.40
  -2  -7  -8    9.50    2.30
   2  -7   8    4.10    1.10
  -2  -7  -8    5.70    1.80
   2   7   8    3.10    1.50
  -2   7  -8    6.10    1.50
  -2   7  -8    6.90    1.50
   3  -7   8    1.20    1.40
  -3  -7  -8    1.00    1.30
  -3  -7  -8    1.70    1.70
  -3  -7  -8    3.00    1.40
  -3   7  -8    3.90    1.30
   3   7   8    1.80    1.40
  -3   7  -8    2.40    1.20
   3   7   8    1.20    1.10
   5  -8  -8    5.50    1.70
   5  -8  -8    2.60    1.40
   5  -8  -8    1.00    1.10
  -5  -8   8    1.50    1.40
  -5  -8   8    0.30    0.90
  -5   8   8    3.20    1.80
  -5   8   8    1.50    1.10
   5   8  -8    2.50    1.20
   4  -8  -8   -0.40    0.90
  -4  -8   8   -1.20    1.10
  -4  -8   8   -0.60    0.80
   4  -8  -8   -0.30    1.30
  -4   8   8   -0.50    0.90
  -4   8   8   -0.50    1.00
   4   8  -8    0.20    1.10
   3  -8  -8    3.70    1.50
  -3  -8   8    5.10    1.50
   3  -8  -8    3.10    1.60
  -3  -8   8    3.30    1.60
   3   8  -8    5.80    1.80
  -3   8   8    6.20    1.70
  -3   8   8    2.30    1.50
   2  -8  -8    1.20    1.40
  -2  -8   8    1.60    1.30
   2  -8  -8   -1.80    1.40
  -2   8   8    1.30    1.00
   2   8  -8    0.50    1.10
  -2   8   8    0.50    1.00
   1  -8  -8    6.20    1.30
   1  -8  -8    5.40    1.60
  -1  -8   8    4.40    1.50
   1  -8  -8    5.10    1.50
  -1   8   8    1.00    1.30
  -1   8   8    4.80    1.70
   1   8  -8    2.40    1.70
   0  -8  -8    3.70    1.50
   0  -8   8    2.30    1.10
   0  -8  -8    2.50    1.50
   0   8   8    3.00    1.60
   0   8  -8    2.00    1.20
   1  -8   8    0.50    0.90
  -1  -8  -8    1.70    1.60
   1  -8   8   -0.80    1.10
  -1  -8  -8   -0.50    1.80
  -1   8  -8    1.30    1.00
   1   8   8   -1.30    1.20
  -1   8  -8    1.30    1.10
   2  -8   8   -0.70    0.80
   2  -8   8   -0.90    0.90
  -2  -8  -8    0.20    1.40
  -2  -8  -8    0.00    1.60
  -2   8  -8   -0.70    1.30
  -2   8  -8    1.00    1.40
   2   8   8   -0.50    0.90
   9   0  -9   64.29    3.90
   9   0  -9   77.89    3.50
  -9   0   9   70.99    3.70
   8   0  -9   18.80    1.70
  -8   0   9   13.70    1.40
  -8   0   9   21.60    2.00
   8   0  -9   22.80    2.50
  -7   0   9    3.10    1.10
  -7   0   9    2.30    0.70
   7   0  -9    8.00    1.60
   7   0  -9    3.70    0.90
  -7   0   9    4.10    0.90
   7   0  -9    4.30    1.00
  -6   0   9   19.40    1.20
   6   0  -9   20.00    2.00
  -6   0   9   16.40    1.60
  -6   0   9   19.40    1.70
   6   0  -9   19.30    1.50
   6   0  -9   18.80    1.50
   5   0  -9   75.19    3.10
   5   0  -9   68.19    2.60
  -5   0   9   70.59    2.10
   5   0  -9   77.09    2.60
  -5   0   9   73.79    2.80
   5   0  -9   66.89    2.40
  -5   0   9   73.59    2.60
   5   0  -9   75.59    2.70
   4   0  -9   17.60    1.30
  -4   0   9   19.80    1.30
   4   0  -9   21.20    1.90
  -4   0   9   21.90    1.30
  -4   0   9   19.50    1.40
   4   0  -9   22.00    1.60
  -4   0   9   18.20    1.00
   4   0  -9   20.90    1.50
   4   0  -9   20.50    1.20
  -3   0   9   58.29    2.10
   3   0  -9   57.89    2.10
   3   0  -9   57.99    2.50
  -3   0   9   54.59    1.70
   3   0  -9   57.59    1.90
   3   0  -9   61.19    2.60
  -3   0   9   58.19    2.00
   3   0  -9   56.49    2.30
   2   0  -9  227.78    5.50
  -2   0   9  247.78    5.80
  -2   0   9  242.48    5.30
   2   0  -9  228.38    5.10
  -2   0   9  243.88    5.50
   2   0  -9  247.78    6.20
   2   0  -9  243.58    5.90
   1   0  -9  381.36    8.20
  -1   0   9  379.76    8.00
  -1   0   9  376.26    7.60
   1   0  -9  373.96    8.50
   1   0  -9  375.26    7.50
  -1   0   9  380.06    8.20
   0   0  -9   11.50    1.30
   0   0   9   12.80    1.20
   0   0   9   10.20    1.10
   0   0   9   11.30    0.80
   0   0  -9   13.70    1.20
   0   0  -9   13.40    1.50
  -1   0  -9    0.20    0.80
  -1   0  -9   -0.30    1.00
   1   0   9    0.30    0.50
  -1   0  -9    0.50    0.40
  -1   0  -9    0.20    0.40
   1   0   9    0.60    0.40
   2   0   9    1.50    0.80
  -2   0  -9    1.60    0.70
  -2   0  -9    1.20    1.10
  -2   0  -9    1.00    0.60
  -3   0  -9   40.40    2.40
  -3   0  -9   41.40    3.00
   3   0   9   41.00    2.30
   3   0   9   40.40    2.40
   4   0   9   15.80    1.70
   4   0   9   13.80    1.70
  -4   0  -9   18.30    2.20
  -4   0  -9   16.10    1.70
  -5   0  -9    0.60    0.90
   5   0   9    0.40    0.90
  -5   0  -9    1.70    1.20
   5   0   9    0.20    1.00
   6   0   9   30.50    2.40
  -6   0  -9   35.20    3.50
   6   0   9   29.10    2.10
  -9  -1   9   34.90    2.60
   9  -1  -9   32.20    2.30
   9  -1  -9   31.70    2.70
   9   1  -9   35.40    2.60
  -9   1   9   35.90    2.60
   8  -1  -9    0.40    0.90
  -8  -1   9    0.80    0.80
  -8  -1   9    1.70    1.20
   8  -1  -9    1.40    1.00
   8  -1  -9    0.40    0.90
  -8   1   9    0.20    1.20
   8   1  -9    0.60    0.90
   8   1  -9    0.50    0.90
  -8   1   9    1.00    0.80
  -7  -1   9    0.10    0.90
   7  -1  -9    0.30    0.80
  -7  -1   9    0.50    0.80
   7  -1  -9    0.10    0.90
   7  -1  -9   -1.00    0.70
   7  -1  -9    0.00    0.70
  -7  -1   9   -0.10    0.40
  -7   1   9    1.30    0.90
  -7   1   9    1.20    1.00
   7   1  -9    1.10    1.20
   7   1  -9   -0.90    0.70
  -6  -1   9    0.70    0.60
   6  -1  -9    2.00    0.90
   6  -1  -9    0.60    0.60
   6  -1  -9    0.90    1.10
  -6  -1   9   -0.20    0.50
  -6  -1   9    1.20    0.80
   6  -1  -9    1.70    0.70
   6   1  -9    0.40    0.80
   6   1  -9    1.60    0.60
  -6   1   9    0.70    0.90
  -6   1   9    2.10    0.70
   6   1  -9    0.20    0.70
  -6   1   9    1.70    0.90
  -5  -1   9   87.19    2.60
   5  -1  -9   82.69    3.10
   5  -1  -9   83.99    3.10
   5  -1  -9   89.99    3.00
   5  -1  -9   85.69    2.70
  -5  -1   9   87.39    3.10
   5  -1  -9   84.39    3.40
  -5  -1   9   93.09    3.10
   5  -1  -9   84.69    3.00
  -5   1   9   83.19    3.30
  -5   1   9   90.09    2.90
  -5   1   9   78.79    2.80
   5   1  -9   83.79    3.10
   5   1  -9   84.79    2.70
   5   1  -9   92.29    3.60
   4  -1  -9  140.79    4.30
   4  -1  -9  142.89    3.80
   4  -1  -9  138.49    4.10
   4  -1  -9  143.99    4.40
  -4  -1   9  136.89    3.50
  -4  -1   9  143.79    3.80
   4  -1  -9  138.39    3.80
   4   1  -9  136.69    3.50
   4   1  -9  141.79    4.20
  -4   1   9  144.69    3.80
   4   1  -9  139.79    3.50
   4   1  -9  145.89    4.40
  -4   1   9  136.59    3.90
  -4   1   9  144.39    4.20
  -3  -1   9   -0.30    0.40
  -3  -1   9    0.00    0.40
   3  -1  -9    0.20    0.60
  -3  -1   9   -0.90    0.50
  -3  -1   9    0.30    0.50
   3  -1  -9    1.10    0.80
   3  -1  -9    1.40    0.80
   3  -1  -9    0.50    0.60
   3  -1  -9   -0.70    0.50
   3   1  -9   -0.10    0.30
  -3   1   9    0.50    0.50
   3   1  -9    0.10    0.70
  -3   1   9    0.40    0.70
   3   1  -9   -0.70    0.80
  -3   1   9    0.90    0.60
   3   1  -9    0.80    0.80
   3   1  -9    0.30    0.40
  -2  -1   9   96.29    2.80
   2  -1  -9   88.59    3.10
  -2  -1   9   91.99    2.70
   2  -1  -9   88.59    3.10
   2  -1  -9   94.19    3.20
  -2  -1   9   93.79    3.00
   2  -1  -9   94.29    2.80
   2   1  -9  101.99    3.20
   2   1  -9   94.39    3.50
   2   1  -9   95.19    3.20
  -2   1   9   98.89    3.10
  -2   1   9   93.09    2.50
   2   1  -9   87.89    2.30
   1  -1  -9  153.58    4.50
  -1  -1   9  154.28    4.10
   1  -1  -9  155.18    4.40
   1  -1  -9  152.88    4.30
   1  -1  -9  148.69    3.70
  -1  -1   9  151.48    3.80
  -1  -1   9  154.18    3.90
   1   1  -9  153.88    4.10
   1   1  -9  150.88    4.50
  -1   1   9  156.28    4.30
  -1   1   9  155.18    4.10
   1   1  -9  144.79    3.20
   0  -1   9    0.30    0.70
   0  -1  -9    0.60    0.60
   0  -1  -9   -0.60    0.70
   0  -1  -9    0.50    0.70
   0  -1   9    1.20    0.50
   0   1  -9    1.30    0.60
   0   1   9    0.90    0.70
   0   1   9    1.00    0.30
   0   1   9    1.50    0.70
   0   1  -9    0.50    0.60
  -1  -1  -9   25.90    1.90
   1  -1   9   30.80    1.50
  -1  -1  -9   30.80    2.00
  -1  -1  -9   30.40    1.70
   1  -1   9   30.10    1.80
  -1   1  -9   30.50    1.40
  -1   1  -9   33.60    2.10
  -1   1  -9   32.40    1.60
   1   1   9   28.80    1.80
   1   1   9   30.60    1.80
  -1   1  -9   29.30    2.40
  -2  -1  -9    1.20    1.00
  -2  -1  -9    1.00    0.70
  -2  -1  -9    1.00    1.10
   2  -1   9    1.40    0.80
   2  -1   9    1.70    0.90
   2  -1   9    1.90    0.60
  -2   1  -9    1.40    1.00
  -2   1  -9    2.30    1.00
  -2   1  -9    2.10    0.70
   2   1   9    1.50    0.70
   3  -1   9   35.70    2.00
   3  -1   9   39.70    2.30
  -3  -1  -9   43.80    2.90
  -3  -1  -9   38.80    2.10
  -3  -1  -9   33.50    1.70
  -3   1  -9   44.00    3.10
  -3   1  -9   36.40    2.30
   3   1   9   39.50    2.10
  -3   1  -9   37.20    2.00
   4  -1   9    0.60    1.00
   4  -1   9    0.00    0.60
  -4  -1  -9    1.20    1.40
  -4  -1  -9   -0.90    0.90
   4   1   9    0.80    0.90
  -4   1  -9    0.10    0.90
  -4   1  -9   -0.20    0.70
  -4   1  -9   -0.30    0.90
   5  -1   9   31.40    2.60
   5  -1   9   32.70    2.50
  -5  -1  -9   38.00    3.30
  -5  -1  -9   30.40    2.40
  -5   1  -9   40.00    3.10
   5   1   9   32.50    2.30
   6  -1   9    3.70    1.40
   6  -1   9    4.50    1.30
  -6  -1  -9    4.40    1.50
   6   1   9    1.90    0.90
  -6   1  -9    2.00    1.30
  -9  -2   9   17.40    1.60
   9  -2  -9   16.10    2.00
  -9  -2   9   21.80    2.30
   9  -2  -9   18.00    2.40
   9   2  -9   18.40    1.90
  -9   2   9   23.40    2.60
   8  -2  -9    5.80    1.30
  -8  -2   9    4.20    1.10
   8  -2  -9    6.00    1.40
  -8  -2   9    8.50    1.40
   8  -2  -9    8.80    1.50
  -8   2   9    5.60    1.50
  -8   2   9    6.60    1.40
   8   2  -9    6.40    1.20
   7  -2  -9    1.90    1.10
  -7  -2   9    3.40    0.80
  -7  -2   9    5.00    1.00
   7  -2  -9    2.90    1.40
   7  -2  -9    2.60    1.00
   7  -2  -9    4.10    1.20
   7   2  -9    2.50    1.30
  -7   2   9    5.00    1.20
  -7   2   9    5.80    1.40
   7   2  -9    2.90    1.00
   7   2  -9    5.90    1.00
   6  -2  -9    8.00    1.30
   6  -2  -9    6.80    1.30
  -6  -2   9    6.10    1.20
   6  -2  -9    6.80    1.20
  -6  -2   9    7.30    1.00
  -6  -2   9    8.70    1.00
   6  -2  -9    6.60    1.20
   6   2  -9    8.80    1.00
  -6   2   9    5.00    1.20
   6   2  -9    7.70    1.50
   6   2  -9    6.30    1.20
  -6   2   9    9.20    1.40
  -6   2   9    8.40    1.20
   5  -2  -9   27.70    1.90
   5  -2  -9   27.30    2.00
  -5  -2   9   34.40    1.90
   5  -2  -9   32.60    2.00
   5  -2  -9   33.50    1.90
  -5  -2   9   31.90    1.70
   5   2  -9   33.20    2.30
  -5   2   9   28.70    1.70
  -5   2   9   30.50    1.90
   5   2  -9   31.60    2.10
   5   2  -9   31.80    1.50
  -5   2   9   29.30    2.20
   4  -2  -9    4.80    0.80
   4  -2  -9    6.10    1.20
  -4  -2   9    9.70    1.10
   4  -2  -9    7.50    1.10
   4  -2  -9    7.80    1.20
   4  -2  -9    5.10    0.90
  -4  -2   9    7.20    0.90
  -4   2   9    5.40    1.10
   4   2  -9    6.50    1.30
   4   2  -9    6.40    1.20
   4   2  -9    7.60    0.80
  -4   2   9    7.80    1.30
  -4   2   9    6.40    0.90
   3  -2  -9    3.70    1.00
   3  -2  -9    5.20    1.00
  -3  -2   9    4.80    0.90
  -3  -2   9    3.70    0.60
  -3  -2   9    3.80    0.80
   3  -2  -9    4.40    0.80
  -3  -2   9    5.00    0.80
   3  -2  -9    4.60    1.10
   3   2  -9    4.10    0.50
   3   2  -9    3.10    1.00
   3   2  -9    5.70    1.10
  -3   2   9    4.30    0.90
  -3   2   9    6.30    1.10
  -3   2   9    4.00    0.70
  -2  -2   9  185.78    4.30
   2  -2  -9  190.88    5.10
  -2  -2   9  192.48    4.70
   2  -2  -9  188.38    4.70
   2  -2  -9  183.18    5.20
  -2  -2   9  195.98    4.80
   2  -2  -9  187.48    5.00
   2   2  -9  194.38    5.50
   2   2  -9  187.68    5.10
   2   2  -9  202.18    5.10
  -2   2   9  194.48    5.20
  -2   2   9  191.38    4.20
  -2   2   9  198.68    5.10
   1  -2  -9  113.39    3.30
  -1  -2   9  117.09    3.40
   1  -2  -9  118.19    3.60
   1  -2  -9  114.89    3.50
   1  -2  -9  114.99    3.60
  -1  -2   9  123.89    3.40
  -1   2   9  114.29    3.60
  -1   2   9  108.29    2.60
   1   2  -9  114.09    3.70
   1   2  -9  116.79    4.00
   0  -2  -9    6.20    1.00
   0  -2  -9    7.70    1.20
   0  -2   9    7.90    1.00
   0  -2   9    9.60    1.10
   0  -2  -9    6.90    1.10
   0   2  -9    8.00    1.30
   0   2   9    7.90    1.20
   0   2  -9    9.20    0.90
   0   2  -9    7.10    1.20
   0   2  -9    7.80    1.10
   0   2   9    8.90    1.20
   1  -2   9    0.60    0.60
  -1  -2  -9   -1.00    0.80
  -1  -2  -9    0.00    0.50
  -1  -2  -9    0.10    0.70
   1  -2   9    0.00    0.40
   1  -2   9    0.40    0.60
   1   2   9    0.00    0.50
   1   2   9    1.00    0.80
  -1   2  -9    0.20    0.60
  -1   2  -9   -0.30    0.60
  -2  -2  -9    7.10    1.40
  -2  -2  -9    5.50    1.40
   2  -2   9    5.50    1.00
   2  -2   9    5.70    1.10
  -2  -2  -9    6.70    1.20
   2  -2   9    5.60    1.00
   2   2   9    7.10    1.20
  -2   2  -9    6.90    1.30
   2   2   9    6.20    1.20
  -2   2  -9    5.50    1.10
  -3  -2  -9   10.60    1.60
   3  -2   9   11.40    1.30
  -3  -2  -9    8.80    1.30
   3  -2   9   11.50    1.40
  -3  -2  -9    9.20    1.50
  -3   2  -9   10.00    1.40
   3   2   9   10.70    1.40
  -3   2  -9   14.10    1.90
   3   2   9   14.20    1.50
  -3   2  -9    8.90    1.30
  -4  -2  -9    9.80    1.60
  -4  -2  -9    9.50    1.30
   4  -2   9   11.00    1.50
   4  -2   9    8.90    1.30
  -4  -2  -9    7.90    1.60
   4   2   9    9.80    1.20
  -4   2  -9   10.20    1.40
  -4   2  -9    9.70    1.50
   4   2   9   11.50    1.60
  -4   2  -9    8.80    1.80
  -5  -2  -9   -1.50    1.60
  -5  -2  -9    0.00    0.80
   5  -2   9   -0.10    1.10
   5  -2   9    0.70    1.10
  -5   2  -9   -0.90    0.60
  -5   2  -9    0.20    1.10
   5   2   9   -0.30    0.60
   6  -2   9   24.40    2.20
  -6  -2  -9   28.20    2.40
   6  -2   9   27.20    2.50
  -6  -2  -9   31.10    3.10
  -6   2  -9   26.70    3.10
   6   2   9   26.80    2.30
  -9  -3   9   24.00    2.40
   9  -3  -9   19.70    2.40
  -9  -3   9   15.70    1.80
   9  -3  -9   19.50    2.10
   9  -3  -9   15.00    2.00
   9   3  -9   21.70    2.10
  -9   3   9   20.50    2.10
   9   3  -9   22.00    2.30
  -9   3   9   18.50    2.40
   8  -3  -9   16.50    2.00
  -8  -3   9   13.80    1.60
   8  -3  -9   14.80    1.90
   8  -3  -9   13.80    1.80
  -8  -3   9   18.90    1.90
  -8   3   9   16.90    1.80
  -8   3   9   13.20    1.90
   8   3  -9   17.80    2.10
   8   3  -9   14.80    1.60
  -7  -3   9   14.30    1.60
   7  -3  -9   20.90    2.30
   7  -3  -9   16.90    2.00
   7  -3  -9   13.90    1.90
   7  -3  -9   20.50    2.10
  -7  -3   9   15.60    1.60
  -7   3   9   16.80    2.00
   7   3  -9   17.90    1.50
  -7   3   9   14.90    2.10
   7   3  -9   15.20    1.80
   6  -3  -9    0.40    0.70
  -6  -3   9    0.10    0.90
   6  -3  -9    1.00    1.00
   6  -3  -9    0.60    0.80
   6  -3  -9    0.80    0.70
  -6  -3   9   -0.60    0.70
  -6   3   9    2.40    1.20
   6   3  -9   -0.50    0.50
  -6   3   9    0.50    0.90
   6   3  -9    0.10    0.90
  -6   3   9    1.40    1.10
   5  -3  -9    2.00    0.80
  -5  -3   9    1.80    0.80
  -5  -3   9    0.70    0.60
   5  -3  -9    1.50    1.10
   5  -3  -9    1.10    0.70
   5  -3  -9    2.90    1.00
  -5   3   9    0.40    0.90
   5   3  -9    2.00    0.60
  -5   3   9    1.90    1.10
   5   3  -9    1.00    1.00
   5   3  -9    2.60    1.10
  -5   3   9    1.00    0.80
   4  -3  -9   12.20    1.40
  -4  -3   9   13.60    1.40
   4  -3  -9   11.60    1.40
   4  -3  -9   12.00    1.60
  -4  -3   9   12.20    1.30
   4  -3  -9   14.50    1.50
  -4   3   9   12.70    1.70
   4   3  -9   14.10    1.60
  -4   3   9   12.90    1.60
   4   3  -9   12.40    1.60
  -4   3   9   12.60    1.10
  -3  -3   9   13.50    1.10
   3  -3  -9   13.70    1.60
   3  -3  -9   13.50    1.60
   3  -3  -9   13.40    1.30
  -3  -3   9   13.60    1.30
   3  -3  -9   13.70    1.50
  -3   3   9   13.80    1.10
  -3   3   9   12.70    1.50
   3   3  -9   15.60    1.70
   3   3  -9   15.60    1.60
  -3   3   9   14.30    1.60
  -2  -3   9    0.50    0.50
  -2  -3   9    0.40    0.60
   2  -3  -9    1.20    0.90
   2  -3  -9    0.50    0.80
  -2  -3   9    0.70    0.60
   2  -3  -9    0.90    0.70
   2  -3  -9    0.60    0.70
   2  -3  -9    0.90    0.60
  -2   3   9    0.70    0.90
   2   3  -9    0.80    0.90
   2   3  -9   -0.10    0.70
  -2   3   9    1.00    0.60
  -1  -3   9   36.00    1.90
   1  -3  -9   33.80    2.10
   1  -3  -9   32.50    1.80
  -1  -3   9   32.80    1.60
   1  -3  -9   28.90    2.00
   1   3  -9   34.50    2.40
  -1   3   9   29.70    1.80
   1   3  -9   31.40    1.70
  -1   3   9   31.90    1.90
   1   3  -9   31.80    2.00
   0  -3   9    2.50    0.90
   0  -3   9    1.50    0.60
   0  -3  -9    3.60    1.10
   0  -3  -9    2.80    0.90
   0  -3  -9    2.00    0.80
   0   3  -9    2.50    0.90
   0   3   9    2.10    1.00
   0   3   9    4.10    0.90
   0   3  -9    3.20    1.00
   0   3  -9    4.30    1.00
   0   3  -9    2.10    0.60
  -1  -3  -9    1.00    1.00
  -1  -3  -9    1.90    0.80
   1  -3   9    1.60    0.80
   1  -3   9    0.50    0.60
  -1  -3  -9    0.80    0.80
   1  -3   9    1.40    0.90
   1   3   9    0.80    0.90
  -1   3  -9    2.30    0.90
  -1   3  -9    1.10    1.00
  -1   3  -9    1.10    1.00
  -2  -3  -9    3.70    1.20
   2  -3   9    4.30    1.10
  -2  -3  -9    4.10    1.30
  -2  -3  -9    1.90    0.80
   2  -3   9    3.40    0.90
  -2   3  -9    2.80    1.10
   2   3   9    2.70    0.90
   2   3   9    2.60    1.00
  -2   3  -9    2.20    1.00
  -2   3  -9    3.20    1.00
  -3  -3  -9    9.40    1.50
  -3  -3  -9   11.00    1.50
   3  -3   9   14.30    1.50
  -3  -3  -9    7.80    1.50
   3  -3   9    9.90    1.30
  -3   3  -9   10.30    1.50
   3   3   9   11.50    1.60
   3   3   9   10.30    1.50
  -3   3  -9   11.60    1.50
   3   3   9    8.50    1.30
  -3   3  -9   10.50    1.50
  -4  -3  -9    2.30    1.20
   4  -3   9    2.90    1.00
  -4  -3  -9    0.30    0.70
   4  -3   9    2.30    1.10
  -4  -3  -9    1.50    1.00
   4   3   9    1.40    1.00
   4   3   9    1.80    1.10
   4   3   9    2.50    0.90
  -4   3  -9    2.10    1.20
  -4   3  -9    2.20    1.20
  -5  -3  -9   21.10    2.20
  -5  -3  -9   25.00    2.90
   5  -3   9   23.50    2.40
   5  -3   9   19.10    2.10
   5   3   9   22.90    2.30
  -5   3  -9   22.30    2.20
   5   3   9   20.20    2.00
  -5   3  -9   19.40    2.30
   6  -3   9    4.10    1.50
  -8  -4   9    3.40    1.10
   8  -4  -9    0.20    1.20
  -8  -4   9    0.40    1.10
  -8  -4   9    1.40    1.00
   8  -4  -9    1.70    1.40
   8  -4  -9   -1.00    1.20
  -8   4   9   -0.80    1.30
   8   4  -9    0.30    0.90
   8   4  -9    0.60    1.10
  -7  -4   9   -0.20    1.00
  -7  -4   9    0.70    0.70
   7  -4  -9    1.20    0.90
   7  -4  -9   -0.90    1.00
   7  -4  -9    2.20    1.30
   7   4  -9   -0.60    0.70
   7   4  -9    0.20    1.10
  -7   4   9   -1.50    1.20
   6  -4  -9    9.30    1.60
   6  -4  -9    9.90    1.50
   6  -4  -9    9.40    1.60
  -6  -4   9   10.90    1.40
  -6  -4   9    6.90    1.10
   6  -4  -9    8.70    1.40
   6   4  -9    6.80    1.40
  -6   4   9   12.80    1.80
   6   4  -9   11.10    1.80
  -6   4   9    9.30    2.00
   5  -4  -9    3.50    1.00
  -5  -4   9    4.40    1.10
   5  -4  -9    3.10    1.20
   5  -4  -9    2.50    1.20
   5  -4  -9    2.90    0.90
  -5  -4   9    4.10    0.90
   5   4  -9    2.80    0.80
   5   4  -9    4.20    1.30
  -5   4   9    2.00    1.10
  -5   4   9    3.10    1.10
  -4  -4   9    0.90    0.70
  -4  -4   9    0.40    0.80
   4  -4  -9   -0.20    0.60
   4  -4  -9    1.90    0.90
   4  -4  -9    0.30    0.90
   4  -4  -9   -0.40    0.70
  -4   4   9    0.20    1.10
   4   4  -9    0.70    0.80
  -4   4   9    3.00    1.10
   4   4  -9    0.70    0.70
   3  -4  -9    6.50    1.10
  -3  -4   9    7.20    0.80
   3  -4  -9    7.90    1.10
   3  -4  -9    7.00    1.10
  -3  -4   9    7.70    1.20
   3  -4  -9    6.30    1.40
   3   4  -9    5.70    0.80
   3   4  -9    4.50    1.30
  -3   4   9    5.90    1.30
  -3   4   9    7.80    1.30
   2  -4  -9   97.09    4.00
   2  -4  -9   98.09    3.40
  -2  -4   9   94.79    2.90
   2  -4  -9   94.99    3.70
  -2  -4   9  101.29    3.40
   2  -4  -9   96.49    3.30
  -2   4   9   93.69    3.60
   2   4  -9   93.39    3.60
  -2   4   9   92.79    3.60
   1  -4  -9   46.80    2.60
  -1  -4   9   51.69    2.50
   1  -4  -9   47.60    2.20
  -1  -4   9   52.19    2.20
   1  -4  -9   53.99    2.70
  -1   4   9   47.40    2.40
  -1   4   9   51.49    2.70
   1   4  -9   49.50    2.70
   0  -4   9    6.70    1.10
   0  -4  -9    7.80    1.40
   0  -4   9    5.90    1.00
   0  -4  -9    5.60    1.40
   0  -4  -9    6.10    1.20
   0   4  -9    6.10    1.20
   0   4   9    5.60    1.10
   0   4  -9    4.60    1.20
   0   4   9    7.10    1.30
   1  -4   9   -1.50    0.80
  -1  -4  -9   -0.40    1.00
  -1  -4  -9    0.20    1.10
   1  -4   9    1.50    0.90
  -1  -4  -9   -0.90    0.90
  -1   4  -9    0.70    0.70
   1   4   9   -2.00    0.70
  -1   4  -9    0.90    1.10
   1   4   9    1.40    1.00
  -2  -4  -9    6.50    1.30
  -2  -4  -9    7.40    1.60
   2  -4   9    7.70    1.20
  -2  -4  -9    5.40    1.40
   2   4   9    8.20    1.50
  -2   4  -9    7.60    1.30
  -2   4  -9    8.20    1.30
   2   4   9    6.20    1.10
   3  -4   9    5.10    1.30
   3  -4   9    3.40    1.00
  -3  -4  -9    3.70    1.50
  -3  -4  -9    4.80    1.50
  -3  -4  -9    5.60    1.30
   3   4   9    4.60    1.10
   3   4   9    3.80    1.00
  -3   4  -9    3.50    1.00
  -3   4  -9    0.90    1.10
  -4  -4  -9    2.00    1.00
  -4  -4  -9    1.70    1.40
   4  -4   9    3.50    1.40
  -4  -4  -9    4.10    1.70
   4  -4   9    2.70    1.10
   4   4   9    4.60    1.20
  -4   4  -9    1.00    1.10
  -4   4  -9    3.30    1.10
   4   4   9    2.70    1.20
  -5  -4  -9    2.00    1.30
  -5  -4  -9    0.40    1.00
   5  -4   9    0.10    0.90
  -5  -4  -9   -0.40    1.20
   5  -4   9    2.90    1.30
  -5   4  -9    0.40    1.40
   5   4   9   -0.80    1.10
  -5   4  -9    0.20    1.10
   5   4   9   -1.20    1.10
  -8  -5   9    0.50    1.30
   8  -5  -9    2.20    1.30
   8  -5  -9    0.80    1.00
   8  -5  -9    0.50    1.40
  -8  -5   9    0.10    1.10
  -8  -5   9    2.70    1.10
   8   5  -9   -1.80    0.70
   8   5  -9   -2.40    1.00
  -8   5   9    0.20    1.50
   7  -5  -9    1.80    1.30
  -7  -5   9    1.20    0.90
   7  -5  -9    1.30    1.20
   7  -5  -9    0.30    0.80
  -7  -5   9    2.50    1.00
   7   5  -9    0.60    1.30
  -7   5   9    1.80    1.20
   7   5  -9    1.20    0.80
   6  -5  -9    1.60    1.30
  -6  -5   9    0.00    1.10
  -6  -5   9    0.90    1.00
   6  -5  -9    3.80    1.40
   6  -5  -9    1.70    1.10
   6   5  -9    1.00    1.00
   6   5  -9    0.80    1.00
  -6   5   9    4.90    1.60
  -6   5   9    0.20    1.20
  -5  -5   9   20.60    2.00
   5  -5  -9   23.20    2.30
   5  -5  -9   24.30    2.20
  -5  -5   9   23.60    2.10
  -5   5   9   18.60    2.10
  -5   5   9   23.60    2.40
   5   5  -9   25.70    2.00
   5   5  -9   29.40    2.70
   4  -5  -9   21.50    2.20
   4  -5  -9   22.00    1.70
   4  -5  -9   16.10    2.00
  -4  -5   9   23.00    2.00
   4  -5  -9   18.70    1.80
  -4  -5   9   20.70    1.90
   4   5  -9   25.20    2.50
   4   5  -9   19.60    1.60
  -4   5   9   16.10    2.10
  -4   5   9   19.80    2.10
   3  -5  -9    1.60    1.10
   3  -5  -9    3.30    1.30
   3  -5  -9    2.10    0.90
   3  -5  -9    1.00    1.00
  -3  -5   9    0.80    0.90
  -3   5   9    2.70    1.30
  -3   5   9    3.10    1.20
   3   5  -9    2.00    1.20
   2  -5  -9    5.70    1.50
  -2  -5   9    7.30    1.20
   2  -5  -9    5.60    1.30
   2  -5  -9    5.90    1.10
   2  -5  -9    5.70    1.40
  -2  -5   9    7.50    1.00
  -2   5   9    6.30    1.20
  -2   5   9    8.00    1.50
   2   5  -9    5.30    1.20
  -1  -5   9   27.70    2.20
   1  -5  -9   30.30    2.20
   1  -5  -9   29.60    2.30
  -1  -5   9   30.30    1.70
  -1   5   9   30.20    2.40
  -1   5   9   26.00    2.30
   1   5  -9   25.10    2.40
   0  -5   9    3.20    1.20
   0  -5  -9    3.40    1.10
   0  -5   9    1.00    0.90
   0  -5  -9    3.80    1.40
   0  -5  -9    2.20    0.90
   0   5   9    1.50    1.00
   0   5  -9    1.60    0.90
   0   5  -9    2.40    1.20
   0   5   9    1.40    0.80
   1  -5   9   18.20    1.90
   1  -5   9   13.80    1.60
  -1  -5  -9   14.00    1.70
  -1  -5  -9   15.20    1.70
  -1  -5  -9   15.80    2.10
   1   5   9   16.00    1.80
   1   5   9   14.20    1.90
  -1   5  -9   15.10    1.70
  -1   5  -9   13.60    1.90
  -2  -5  -9    1.80    1.30
   2  -5   9   -1.10    0.90
  -2  -5  -9   -0.50    0.80
  -2  -5  -9    0.00    1.10
   2   5   9    0.30    1.10
   2   5   9    0.20    0.60
  -2   5  -9    0.80    1.10
  -2   5  -9   -0.60    0.60
  -3  -5  -9    7.20    1.60
  -3  -5  -9    7.20    1.50
  -3  -5  -9    5.40    1.60
   3  -5   9    6.90    1.50
  -3   5  -9    6.80    1.60
  -3   5  -9    6.20    1.50
   3   5   9    3.60    1.40
   3   5   9    6.10    1.50
  -4  -5  -9   -0.70    1.40
   4  -5   9   -0.40    1.30
  -4  -5  -9   -0.30    1.40
  -4  -5  -9    0.10    1.10
   4   5   9   -1.00    0.80
  -4   5  -9    0.40    0.80
  -4   5  -9    1.50    1.30
   4   5   9   -1.20    1.10
  -7  -6   9    2.70    1.30
   7  -6  -9    0.10    0.90
   7  -6  -9    1.30    1.20
   7  -6  -9    0.60    0.90
  -7  -6   9    0.40    1.20
   7   6  -9    0.40    1.30
  -7   6   9    0.50    1.10
   7   6  -9    2.40    1.30
   6  -6  -9   -0.80    1.20
  -6  -6   9   -0.50    0.70
  -6  -6   9   -0.80    0.70
   6  -6  -9    4.90    1.50
   6  -6  -9   -0.30    0.80
   6   6  -9    1.40    0.80
  -6   6   9   -1.10    1.00
  -6   6   9    0.20    1.20
   6   6  -9    3.70    1.60
   5  -6  -9    5.00    1.50
  -5  -6   9    5.50    1.40
   5  -6  -9    5.30    1.50
  -5  -6   9    4.80    1.10
   5   6  -9    4.40    1.60
  -5   6   9    6.10    1.40
  -5   6   9    0.80    1.40
  -4  -6   9    2.70    0.90
   4  -6  -9    3.10    1.10
   4  -6  -9    3.70    1.30
  -4  -6   9    3.30    1.20
  -4   6   9    3.10    1.20
  -4   6   9    2.50    1.30
   4   6  -9    2.30    1.10
   3  -6  -9    2.50    1.20
   3  -6  -9    2.20    1.40
  -3  -6   9    4.20    1.00
  -3  -6   9    1.90    1.20
   3  -6  -9    3.90    0.90
  -3   6   9    4.20    1.40
   3   6  -9    1.60    1.30
  -3   6   9    2.70    1.10
  -2  -6   9   28.90    2.30
   2  -6  -9   30.20    2.40
   2  -6  -9   29.30    2.40
   2  -6  -9   26.10    1.90
  -2   6   9   32.60    2.80
   2   6  -9   28.10    2.50
  -2   6   9   22.70    2.40
   1  -6  -9   45.20    2.90
  -1  -6   9   38.50    2.00
   1  -6  -9   43.30    3.30
  -1  -6   9   45.90    2.90
  -1   6   9   40.60    2.90
  -1   6   9   39.70    2.90
   1   6  -9   40.80    2.80
   0  -6  -9    0.90    1.50
   0  -6   9    0.10    0.80
   0  -6  -9    0.70    0.90
   0  -6   9    0.40    0.90
   0   6  -9    1.50    1.30
   0   6   9    1.10    1.10
   0   6   9    1.00    0.90
  -1  -6  -9   -0.30    0.90
   1  -6   9   -1.00    1.00
   1  -6   9   -1.40    1.10
  -1  -6  -9    0.10    1.50
  -1  -6  -9    0.20    1.00
   1   6   9   -1.40    1.10
  -1   6  -9   -0.90    0.70
   1   6   9   -0.40    0.80
  -1   6  -9    0.70    0.80
  -2  -6  -9    0.80    1.10
   2  -6   9    1.30    1.20
   2  -6   9   -1.00    1.00
  -2  -6  -9   -1.10    1.10
  -2  -6  -9   -2.10    1.30
  -2   6  -9   -0.20    1.20
   2   6   9   -0.90    0.80
  -2   6  -9   -0.30    0.90
   3  -6   9    2.40    1.40
  -3  -6  -9    2.50    1.50
  -3  -6  -9    4.50    1.70
  -3  -6  -9   -0.10    1.20
  -3   6  -9    2.90    1.50
   3   6   9    1.90    1.30
  -3   6  -9    4.20    1.50
   4  -6   9   -0.50    1.30
  -4  -6  -9    2.00    1.70
  -4  -6  -9    1.60    1.80
  -4  -6  -9    1.50    1.20
  -4   6  -9    2.10    1.50
   4   6   9    2.90    1.50
   4   6   9    0.60    1.40
  -6  -7   9    0.40    1.20
   6  -7  -9   -0.60    1.20
   6  -7  -9    0.50    1.50
  -6  -7   9    1.60    1.10
   6  -7  -9    1.30    1.30
  -6   7   9   -0.90    1.50
  -6   7   9    1.70    1.50
   6   7  -9   -2.00    1.30
   5  -7  -9   12.80    2.00
  -5  -7   9    9.40    1.60
   5  -7  -9   11.20    2.20
  -5  -7   9   12.60    2.00
   5  -7  -9   10.40    1.70
  -5   7   9    9.80    2.30
   5   7  -9   12.00    2.20
  -5   7   9   11.20    2.10
   4  -7  -9   20.60    2.40
  -4  -7   9   13.80    1.70
  -4  -7   9   14.70    1.80
   4  -7  -9   12.60    1.90
  -4   7   9   14.60    2.10
   4   7  -9   11.30    2.20
  -4   7   9   17.60    2.30
  -3  -7   9    5.30    1.50
   3  -7  -9    6.30    1.70
  -3  -7   9    4.10    1.40
   3  -7  -9    7.10    1.60
  -3   7   9    5.40    1.60
   3   7  -9    3.40    1.30
  -3   7   9    3.10    1.50
  -2  -7   9    2.10    1.20
   2  -7  -9    1.80    1.30
   2  -7  -9    0.50    1.20
   2  -7  -9    1.30    1.50
   2   7  -9    1.60    1.10
  -2   7   9    1.10    1.30
  -2   7   9    3.50    1.50
   1  -7  -9    8.10    1.70
   1  -7  -9   12.70    2.20
  -1  -7   9   11.00    1.60
   1   7  -9   10.80    2.10
  -1   7   9   12.90    2.00
  -1   7   9   10.60    1.70
   0  -7   9    3.20    1.50
   0  -7   9    0.70    1.00
   0  -7  -9    4.60    1.60
   0  -7  -9    1.60    1.60
   0   7   9    1.30    0.80
   0   7   9    1.40    1.00
   0   7  -9    1.60    1.40
   1  -7   9   10.10    1.50
  -1  -7  -9   14.60    2.50
  -1  -7  -9   11.20    2.00
   1  -7   9   10.90    1.90
  -1   7  -9   10.10    2.00
   1   7   9    8.80    1.60
  -1   7  -9   11.20    2.00
   2  -7   9   -0.40    1.10
  -2  -7  -9   -1.30    1.60
   2  -7   9   -0.10    1.30
  -2  -7  -9   -0.70    1.10
  -2   7  -9    1.10    1.20
   2   7   9   -1.90    1.20
  -2   7  -9   -1.40    1.20
   4  -8  -9    0.90    1.30
  -4  -8   9   -1.50    0.70
   4  -8  -9   -0.40    0.90
  -4  -8   9    0.70    1.40
  -4   8   9    0.50    1.50
  -4   8   9   -0.20    1.50
   4   8  -9    1.10    1.60
  -3  -8   9   -0.70    0.70
  -3  -8   9   -1.30    1.20
   3  -8  -9   -1.00    0.80
   3  -8  -9   -0.70    1.30
  -3   8   9    1.70    1.50
  -3   8   9   -0.30    1.40
   3   8  -9   -1.80    1.40
  -2  -8   9    4.20    1.50
   2  -8  -9    3.80    1.90
   2  -8  -9    5.50    1.30
  -2   8   9    6.50    1.80
  -2   8   9    4.70    1.40
   2   8  -9    5.80    1.60
  -1  -8   9    4.40    1.50
   1  -8  -9    7.40    1.40
   1  -8  -9   10.20    1.90
   1  -8  -9    7.90    2.10
   1   8  -9    3.50    1.70
  -1   8   9    9.40    2.00
  -1   8   9    5.40    1.60
   0  -8  -9    1.90    1.50
   0  -8  -9   -0.90    1.60
   0  -8   9   -0.40    1.20
   0   8  -9    0.20    1.40
   0   8   9   -0.10    1.30
   9   0 -10    1.40    1.20
  -9   0  10    4.40    1.30
   9   0 -10    6.00    1.90
  -8   0  10    3.30    1.40
   8   0 -10    4.20    1.20
   8   0 -10    3.50    1.60
  -7   0  10   -0.30    0.90
  -7   0  10    1.10    0.80
   7   0 -10    1.20    1.00
   7   0 -10    2.00    0.90
  -6   0  10   -1.00    0.80
  -6   0  10   -0.10    0.80
   6   0 -10    0.20    0.70
   6   0 -10   -0.60    1.00
  -5   0  10   15.90    1.50
   5   0 -10   15.70    1.50
   5   0 -10   16.70    1.90
   5   0 -10   16.60    1.40
  -5   0  10   19.50    1.60
   4   0 -10    3.10    0.70
  -4   0  10    3.20    0.70
   4   0 -10    3.60    1.20
   4   0 -10    3.50    0.90
   4   0 -10    2.80    0.80
  -4   0  10    3.00    1.00
   4   0 -10    3.30    0.70
  -4   0  10    2.70    0.70
   3   0 -10   16.60    1.50
   3   0 -10   11.70    1.00
  -3   0  10   12.90    1.00
  -3   0  10   11.60    1.20
   3   0 -10   14.80    1.60
   3   0 -10   12.80    1.50
   3   0 -10   12.80    1.10
  -3   0  10   13.70    1.20
  -2   0  10    0.00    0.60
   2   0 -10    0.00    0.90
   2   0 -10    0.50    0.40
  -2   0  10   -0.60    0.40
   2   0 -10    0.10    0.40
  -2   0  10    0.20    0.30
   2   0 -10    0.10    0.50
  -1   0  10   90.79    3.10
   1   0 -10   84.99    2.90
   1   0 -10   86.89    3.30
  -1   0  10   91.19    3.00
   1   0 -10   84.19    2.40
   0   0 -10   52.29    2.20
   0   0 -10   45.80    2.80
   0   0  10   51.39    2.40
   0   0 -10   45.80    2.40
   0   0  10   50.79    2.20
   0   0  10   48.30    1.70
  -1   0 -10   18.10    1.20
  -1   0 -10   19.00    2.00
  -1   0 -10   19.60    1.80
   1   0  10   18.00    1.70
  -2   0 -10   10.50    1.90
  -2   0 -10   16.80    1.80
   2   0  10   15.30    1.50
  -3   0 -10    4.10    1.20
   3   0  10    2.60    1.10
  -3   0 -10    1.00    1.40
  -4   0 -10   34.70    2.50
   4   0  10   31.10    2.10
  -4   0 -10   38.90    3.50
   5   0  10    2.60    1.00
  -5   0 -10   -0.60    1.70
  -5   0 -10    0.90    0.80
  -9  -1  10   26.00    2.50
   9  -1 -10   20.30    2.60
   9  -1 -10   28.60    2.40
   9   1 -10   22.70    2.80
  -9   1  10   27.60    2.80
   9   1 -10   26.10    2.30
  -8  -1  10   28.20    2.30
   8  -1 -10   23.60    2.70
   8  -1 -10   24.20    1.80
  -8   1  10   28.10    2.50
   8   1 -10   30.40    3.00
   8   1 -10   23.40    1.90
  -8   1  10   30.90    2.70
   7  -1 -10    2.00    1.30
   7  -1 -10    0.70    0.60
   7  -1 -10   -0.20    0.60
  -7  -1  10    2.10    1.00
  -7  -1  10    1.50    0.90
  -7  -1  10    0.40    0.70
   7   1 -10    1.10    0.60
   7   1 -10    1.10    1.30
  -7   1  10   -0.30    1.00
  -7   1  10    2.10    1.10
   6  -1 -10    5.40    1.10
  -6  -1  10    5.20    1.00
  -6  -1  10    3.40    0.70
   6  -1 -10    6.20    0.90
   6  -1 -10    5.70    1.40
  -6  -1  10    5.80    1.10
   6   1 -10    4.20    0.90
   6   1 -10    6.10    1.50
   6   1 -10    5.90    1.10
  -6   1  10    3.90    0.90
  -6   1  10    3.20    1.20
   5  -1 -10    6.10    1.00
   5  -1 -10    4.60    0.90
  -5  -1  10    5.10    0.80
   5  -1 -10    3.10    0.90
  -5  -1  10    4.40    1.00
   5  -1 -10    4.10    1.10
   5  -1 -10    3.60    1.20
  -5  -1  10    3.30    1.00
   5  -1 -10    4.70    1.00
  -5   1  10    4.40    0.90
  -5   1  10    3.00    0.90
  -5   1  10    5.50    0.90
   5   1 -10    3.70    0.80
   5   1 -10    5.20    0.80
   5   1 -10    4.60    1.10
   4  -1 -10   29.60    1.70
   4  -1 -10   29.80    2.10
   4  -1 -10   30.50    1.70
  -4  -1  10   31.30    1.70
   4  -1 -10   30.90    2.00
  -4  -1  10   33.80    1.50
   4  -1 -10   32.30    1.90
   4   1 -10   31.20    2.00
   4   1 -10   31.00    2.40
  -4   1  10   30.80    1.80
   4   1 -10   30.80    1.40
  -4   1  10   31.20    2.10
   4   1 -10   31.70    2.00
  -4   1  10   32.70    1.70
   3  -1 -10    5.30    0.90
   3  -1 -10    4.00    0.90
  -3  -1  10    3.10    0.70
  -3  -1  10    3.60    0.70
   3  -1 -10    4.40    1.00
   3  -1 -10    4.90    0.80
  -3  -1  10    3.90    0.70
   3  -1 -10    5.20    1.00
  -3  -1  10    2.50    0.80
  -3   1  10    3.10    1.00
   3   1 -10    3.50    0.60
  -3   1  10    2.90    0.80
   3   1 -10    3.30    1.20
   3   1 -10    3.00    0.80
   3   1 -10    5.10    1.10
  -3   1  10    2.90    0.70
   2  -1 -10    3.90    0.90
   2  -1 -10    3.80    0.90
  -2  -1  10    3.80    0.70
   2  -1 -10    6.20    1.20
  -2  -1  10    5.10    0.90
   2  -1 -10    4.00    0.70
  -2  -1  10    5.10    0.80
  -2   1  10    6.70    0.80
   2   1 -10    5.20    1.00
  -2   1  10    6.70    1.10
   2   1 -10    4.90    1.00
   2   1 -10    4.40    1.10
   1  -1 -10    7.10    1.30
   1  -1 -10    5.90    1.10
  -1  -1  10    7.00    0.80
   1  -1 -10    6.60    0.80
   1  -1 -10    6.90    1.30
  -1  -1  10    6.10    0.90
  -1  -1  10    7.40    1.00
   1   1 -10    8.00    1.10
  -1   1  10    5.90    0.60
   1   1 -10    7.90    1.30
  -1   1  10    4.40    0.90
  -1   1  10    8.00    1.20
   1   1 -10    6.90    1.40
   0  -1 -10    0.00    1.00
   0  -1 -10    0.40    0.70
   0  -1 -10    1.50    1.00
   0  -1  10    0.40    0.50
   0  -1  10    0.10    0.70
   0   1  10    0.80    0.80
   0   1 -10    0.00    0.90
   0   1 -10    0.40    0.60
   0   1  10    0.20    0.80
  -1  -1 -10   18.20    1.90
  -1  -1 -10   18.50    1.90
  -1  -1 -10   18.70    1.60
   1  -1  10   21.00    1.70
   1  -1  10   17.10    1.20
  -1   1 -10   21.50    2.00
  -1   1 -10   16.20    1.20
  -1   1 -10   18.50    1.30
   1   1  10   18.20    1.70
   1   1  10   19.60    1.80
  -2  -1 -10    2.50    1.30
  -2  -1 -10    0.20    1.00
  -2  -1 -10    0.70    0.50
   2  -1  10   -0.40    0.90
  -2   1 -10    0.10    0.90
   2   1  10    0.80    0.70
   2   1  10    0.60    0.70
  -2   1 -10    0.00    0.90
   3  -1  10   -0.30    0.90
  -3  -1 -10   -0.70    0.70
   3  -1  10    1.00    0.90
  -3  -1 -10    0.60    1.40
  -3   1 -10   -0.60    0.60
  -3   1 -10   -0.40    0.90
   3   1  10    0.40    0.90
  -4  -1 -10   45.60    3.70
   4  -1  10   44.50    2.80
   4  -1  10   45.20    2.80
  -4  -1 -10   46.70    2.90
  -4   1 -10   43.60    2.70
   4   1  10   43.00    2.50
  -5  -1 -10   -0.90    1.00
   5  -1  10   -0.80    1.00
  -5  -1 -10    0.00    1.70
   5  -1  10   -1.20    0.60
  -5   1 -10    0.10    1.70
   5   1  10    1.10    0.80
  -9  -2  10    3.20    1.50
   9  -2 -10    5.20    1.40
  -9  -2  10    2.20    1.00
   9  -2 -10    3.40    1.60
  -9   2  10    2.40    1.50
   9   2 -10    1.90    1.10
  -9   2  10    3.10    2.40
  -8  -2  10   17.80    1.70
   8  -2 -10   20.90    2.50
  -8  -2  10   20.20    2.10
   8  -2 -10   26.20    2.30
  -8   2  10   21.50    2.30
  -8   2  10   26.10    2.60
   8   2 -10   22.10    1.70
   7  -2 -10   21.60    2.10
   7  -2 -10   26.40    2.50
  -7  -2  10   23.20    2.10
   7  -2 -10   23.50    2.10
   7  -2 -10   18.00    1.90
  -7  -2  10   22.00    1.70
   7   2 -10   25.70    1.70
   7   2 -10   22.20    2.00
  -7   2  10   20.90    2.10
   7   2 -10   26.10    2.60
  -7   2  10   22.60    2.40
   6  -2 -10    1.00    0.80
   6  -2 -10    0.40    0.80
  -6  -2  10   -0.40    0.50
   6  -2 -10   -0.50    0.50
   6  -2 -10    0.80    0.70
  -6  -2  10    0.40    0.70
  -6  -2  10    2.00    1.00
   6   2 -10    1.40    1.20
  -6   2  10    1.00    0.80
  -6   2  10    1.20    0.70
   6   2 -10    0.80    0.90
  -6   2  10    0.10    0.80
   6   2 -10    0.00    0.60
  -5  -2  10    8.90    1.20
  -5  -2  10    7.80    0.90
   5  -2 -10    4.90    1.10
   5  -2 -10    5.70    1.20
   5  -2 -10    6.40    1.10
   5  -2 -10    8.10    1.20
  -5   2  10    8.30    1.50
   5   2 -10    7.90    1.20
   5   2 -10    7.20    0.80
  -5   2  10    4.10    1.00
  -5   2  10    7.50    1.20
   5   2 -10    8.00    1.50
   4  -2 -10   37.70    2.10
   4  -2 -10   38.70    2.20
   4  -2 -10   42.00    2.10
   4  -2 -10   40.80    2.40
  -4  -2  10   42.20    2.10
  -4  -2  10   40.30    1.80
   4  -2 -10   39.30    1.90
  -4   2  10   39.90    2.20
   4   2 -10   36.20    2.20
  -4   2  10   41.40    2.50
  -4   2  10   40.60    1.80
   4   2 -10   36.70    2.20
  -3  -2  10    1.50    0.70
   3  -2 -10    2.20    0.80
  -3  -2  10    1.60    0.70
   3  -2 -10    1.70    0.80
   3  -2 -10    1.50    0.80
  -3  -2  10    1.20    0.60
   3  -2 -10    1.20    0.70
   3   2 -10    2.00    0.80
  -3   2  10    1.20    0.50
  -3   2  10    1.70    1.00
  -3   2  10    1.00    0.80
   3   2 -10    1.30    0.80
  -2  -2  10   47.20    2.10
  -2  -2  10   44.70    1.80
  -2  -2  10   48.00    2.20
   2  -2 -10   46.80    2.30
   2  -2 -10   48.90    2.50
   2  -2 -10   46.20    2.10
   2  -2 -10   45.80    2.40
  -2   2  10   49.10    2.40
   2   2 -10   49.99    2.80
   2   2 -10   50.99    2.30
  -2   2  10   47.90    1.70
   2   2 -10   40.90    2.40
  -2   2  10   49.70    2.40
  -1  -2  10   16.40    1.30
   1  -2 -10   17.30    1.70
  -1  -2  10   17.30    1.20
   1  -2 -10   15.60    1.70
  -1  -2  10   16.60    1.20
   1  -2 -10   17.70    1.40
   1  -2 -10   18.50    1.70
  -1   2  10   16.50    1.60
   1   2 -10   18.40    1.40
   1   2 -10   16.00    1.60
   1   2 -10   15.80    1.80
   0  -2 -10   61.49    2.90
   0  -2 -10   61.19    2.80
   0  -2  10   63.99    2.60
   0  -2 -10   55.49    2.60
   0  -2  10   60.09    2.30
   0   2  10   56.89    2.70
   0   2  10   60.09    2.70
   0   2 -10   61.19    3.00
   0   2 -10   58.69    2.80
   0   2 -10   58.89    2.30
  -1  -2 -10    0.20    1.10
  -1  -2 -10   -0.60    0.80
  -1  -2 -10   -0.90    0.90
   1  -2  10    0.60    0.60
   1  -2  10   -0.10    0.60
  -1   2 -10    0.50    1.00
   1   2  10    0.30    0.60
   1   2  10   -0.20    0.80
  -1   2 -10    0.60    0.70
   2  -2  10   22.10    1.50
   2  -2  10   19.70    1.80
  -2  -2 -10   22.70    2.20
  -2  -2 -10   21.50    1.80
  -2  -2 -10   19.30    2.00
   2  -2  10   21.50    1.70
   2   2  10   18.60    1.70
  -2   2 -10   22.90    1.60
  -2   2 -10   23.90    2.20
   2   2  10   24.10    2.10
   3  -2  10    4.80    1.30
  -3  -2 -10    4.20    1.40
   3  -2  10    5.40    1.20
  -3  -2 -10    4.30    1.10
  -3  -2 -10    1.10    1.40
   3   2  10    7.70    1.40
  -3   2 -10    5.00    1.10
   3   2  10    4.30    1.20
  -3   2 -10    4.40    1.20
  -4  -2 -10   40.70    2.90
   4  -2  10   37.40    2.60
  -4  -2 -10   42.30    3.10
   4  -2  10   40.20    2.50
  -4   2 -10   38.50    3.60
   4   2  10   39.70    2.70
   4   2  10   40.30    2.70
  -4   2 -10   44.80    2.70
   5  -2  10    0.90    1.20
   5  -2  10    1.60    1.30
  -5  -2 -10   -0.10    0.80
  -5  -2 -10    1.30    1.70
   5   2  10    1.10    1.10
   5   2  10    0.70    1.20
  -5   2 -10   -0.20    1.20
   8  -3 -10    5.30    1.50
   8  -3 -10    2.30    1.40
  -8  -3  10    5.30    1.20
   8  -3 -10    5.00    1.10
  -8  -3  10    3.90    0.90
  -8   3  10    6.00    1.70
   8   3 -10    4.80    1.30
   7  -3 -10    6.50    1.80
   7  -3 -10    7.50    1.50
  -7  -3  10    8.00    1.30
  -7  -3  10    9.90    1.70
   7  -3 -10    9.30    1.60
  -7   3  10    5.80    1.20
   7   3 -10    8.20    1.60
  -7   3  10    6.00    1.50
  -7   3  10    7.60    1.80
   6  -3 -10   12.80    1.80
   6  -3 -10   17.70    1.70
   6  -3 -10   14.40    1.70
   6  -3 -10   14.60    1.80
  -6  -3  10   12.90    1.40
  -6  -3  10   16.30    1.70
  -6   3  10   16.00    1.80
  -6   3  10   16.30    1.80
  -6   3  10   12.70    1.90
   6   3 -10   14.30    1.80
   6   3 -10   14.60    1.80
   5  -3 -10   24.60    2.00
   5  -3 -10   24.50    2.00
   5  -3 -10   23.70    1.90
   5  -3 -10   25.90    2.40
  -5  -3  10   25.80    2.10
  -5  -3  10   26.40    1.70
   5   3 -10   29.80    2.50
   5   3 -10   27.60    2.40
  -5   3  10   24.50    2.10
  -5   3  10   28.50    1.90
  -5   3  10   27.20    2.50
  -4  -3  10    2.60    0.80
   4  -3 -10    2.00    0.90
  -4  -3  10    1.30    0.70
   4  -3 -10    1.00    0.90
   4  -3 -10    3.40    1.20
   4  -3 -10    1.30    1.00
  -4   3  10    3.40    1.10
  -4   3  10    3.70    1.20
   4   3 -10    1.30    1.00
  -4   3  10    1.20    0.70
   4   3 -10    3.80    1.20
  -3  -3  10   16.40    1.50
  -3  -3  10   16.40    1.30
   3  -3 -10   15.60    1.80
   3  -3 -10   15.30    1.70
  -3  -3  10   16.00    1.50
   3  -3 -10   15.80    1.50
   3  -3 -10   16.10    1.80
  -3   3  10   16.50    1.80
   3   3 -10   16.80    1.70
  -3   3  10   17.60    1.80
   3   3 -10   16.30    1.70
   2  -3 -10   13.40    1.70
   2  -3 -10   12.60    1.50
  -2  -3  10   15.30    1.50
   2  -3 -10   16.40    1.70
   2  -3 -10   15.50    1.50
  -2  -3  10   16.20    1.30
   2   3 -10   16.60    1.70
  -2   3  10   14.60    1.60
   2   3 -10   16.60    1.60
  -2   3  10   12.70    1.60
  -1  -3  10    1.80    0.90
   1  -3 -10    2.80    0.90
   1  -3 -10    2.70    1.10
   1  -3 -10    2.90    0.90
  -1  -3  10    3.10    0.80
   1  -3 -10    1.70    0.90
   1   3 -10    2.50    1.20
   1   3 -10    3.80    0.80
  -1   3  10    1.90    0.80
   1   3 -10    2.60    1.10
  -1   3  10    3.90    1.00
   0  -3 -10   16.20    1.70
   0  -3 -10   11.40    1.40
   0  -3  10   14.00    1.50
   0  -3  10   12.90    1.40
   0  -3 -10   17.40    1.90
   0   3 -10   14.70    1.70
   0   3  10   12.80    1.50
   0   3  10   15.80    1.60
   0   3 -10   16.70    1.80
   1  -3  10    9.20    1.40
  -1  -3 -10    9.50    1.50
  -1  -3 -10   10.30    1.40
   1  -3  10   10.20    1.20
  -1  -3 -10   10.70    1.50
  -1   3 -10    9.50    1.60
  -1   3 -10    9.10    1.30
  -1   3 -10   10.50    1.60
   1   3  10    8.90    1.40
  -2  -3 -10    4.50    1.50
   2  -3  10    4.10    1.00
   2  -3  10    6.00    1.10
   2  -3  10    4.40    1.20
  -2  -3 -10    5.40    1.50
  -2  -3 -10    4.00    1.30
   2   3  10    4.00    1.00
  -2   3 -10    6.50    1.50
   2   3  10    4.40    1.00
  -2   3 -10    5.30    1.10
  -2   3 -10    3.50    1.10
  -3  -3 -10    0.60    1.10
   3  -3  10    1.10    0.90
   3  -3  10    1.80    1.10
  -3  -3 -10    1.30    1.30
  -3  -3 -10    2.30    1.50
   3   3  10    0.40    1.10
  -3   3 -10    2.80    1.30
   3   3  10    0.90    1.00
  -3   3 -10    3.40    1.10
  -3   3 -10    2.60    1.10
   4  -3  10   33.40    2.50
  -4  -3 -10   30.40    3.10
  -4  -3 -10   33.20    2.80
   4  -3  10   33.50    2.70
   4   3  10   30.90    2.60
   4   3  10   38.70    2.70
  -4   3 -10   31.90    2.30
  -4   3 -10   33.00    2.90
   5  -3  10   -0.20    1.30
   5  -3  10    0.80    1.10
  -5  -3 -10   -0.10    1.00
  -5  -3 -10   -1.70    1.70
  -5   3 -10   -0.10    1.30
   5   3  10    0.70    1.00
   5   3  10   -0.60    1.20
   8  -4 -10    6.60    1.60
   8  -4 -10    8.10    1.50
   8  -4 -10    8.10    1.60
  -8  -4  10    7.90    1.60
  -8  -4  10    7.90    1.40
  -8   4  10   10.50    2.10
   8   4 -10    6.80    1.60
   8   4 -10    7.80    1.70
   7  -4 -10   26.80    2.40
  -7  -4  10   25.80    2.30
  -7  -4  10   21.10    2.00
   7  -4 -10   17.00    2.10
   7  -4 -10   23.20    2.50
   7   4 -10   23.70    2.20
  -7   4  10   20.70    2.00
   7   4 -10   21.90    2.30
  -7   4  10   23.10    2.80
   6  -4 -10    3.60    1.30
   6  -4 -10    3.00    1.30
  -6  -4  10    1.70    0.70
  -6  -4  10    3.90    1.00
   6  -4 -10    3.30    1.40
   6   4 -10    1.70    0.70
   6   4 -10    1.60    1.00
  -6   4  10    0.70    1.30
  -6   4  10    3.30    1.30
   5  -4 -10    3.20    1.10
   5  -4 -10    0.70    1.00
   5  -4 -10    3.70    1.00
   5  -4 -10    3.00    0.90
  -5  -4  10    2.60    1.20
  -5  -4  10    2.10    1.00
   5   4 -10    3.50    1.30
  -5   4  10    5.10    1.20
  -5   4  10    5.20    1.30
   5   4 -10    5.10    1.10
   4  -4 -10   26.20    2.10
   4  -4 -10   25.00    1.80
  -4  -4  10   27.70    2.10
   4  -4 -10   29.30    2.10
  -4  -4  10   31.00    2.10
   4  -4 -10   24.30    2.20
  -4   4  10   30.80    2.50
   4   4 -10   27.60    1.70
  -4   4  10   27.00    2.50
   4   4 -10   24.50    2.30
   3  -4 -10   -0.80    0.80
   3  -4 -10    3.00    1.10
  -3  -4  10    0.00    0.60
   3  -4 -10    0.40    0.90
  -3  -4  10    0.20    0.60
   3  -4 -10    0.70    0.80
  -3   4  10    0.60    1.20
  -3   4  10    3.50    1.20
   3   4 -10    1.50    0.80
  -2  -4  10   39.40    2.30
   2  -4 -10   40.10    2.40
   2  -4 -10   37.50    2.40
   2  -4 -10   37.00    2.50
  -2  -4  10   39.00    1.80
   2  -4 -10   40.90    2.30
   2   4 -10   39.90    2.70
  -2   4  10   40.80    2.40
  -2   4  10   39.80    2.60
  -1  -4  10    2.30    0.90
   1  -4 -10    2.50    1.20
   1  -4 -10    1.40    1.10
  -1  -4  10    0.80    0.80
  -1   4  10    0.70    1.00
   1   4 -10    1.90    0.80
  -1   4  10    2.20    1.10
   0  -4 -10   29.20    2.40
   0  -4  10   29.90    2.10
   0  -4  10   30.10    2.10
   0  -4 -10   28.70    2.10
   0  -4 -10   28.20    2.50
   0   4 -10   27.70    2.40
   0   4  10   28.80    2.30
   0   4  10   31.10    2.20
   1  -4  10    0.40    0.90
  -1  -4 -10   -0.80    0.70
   1  -4  10   -0.20    0.60
  -1  -4 -10    0.20    1.20
  -1  -4 -10   -0.10    1.10
   1   4  10   -0.60    0.80
  -1   4 -10    1.40    1.10
  -1   4 -10   -0.40    0.80
   1   4  10   -1.10    0.80
   2  -4  10   11.70    1.40
  -2  -4 -10   10.00    1.60
   2  -4  10    8.30    1.30
  -2  -4 -10   11.50    1.80
  -2  -4 -10    9.10    1.70
   2   4  10   10.30    1.50
  -2   4 -10    8.70    1.40
  -2   4 -10    7.70    1.60
   2   4  10   11.10    1.50
   3  -4  10    2.70    1.30
  -3  -4 -10    2.30    1.30
  -3  -4 -10    4.00    1.70
  -3  -4 -10    4.70    1.60
  -3   4 -10    3.00    1.30
  -3   4 -10    1.00    1.30
   3   4  10    2.30    1.30
  -4  -4 -10   25.90    2.90
   4  -4  10   22.60    2.40
  -4  -4 -10   18.40    2.20
  -4  -4 -10   21.80    2.40
  -4   4 -10   24.50    2.40
  -4   4 -10   24.60    2.50
   4   4  10   23.70    2.40
  -7  -5  10   -1.50    0.90
   7  -5 -10    0.60    1.40
   7  -5 -10    0.90    1.30
   7  -5 -10   -1.90    1.10
  -7  -5  10    0.60    0.90
   7   5 -10   -0.10    1.00
   7   5 -10   -0.30    0.80
  -7   5  10    0.90    1.40
  -7   5  10    1.10    1.20
  -6  -5  10   -0.90    1.00
   6  -5 -10    0.00    1.20
  -6  -5  10   -0.40    0.70
   6  -5 -10   -0.60    0.90
   6  -5 -10    2.10    1.30
  -6   5  10   -0.60    1.20
   6   5 -10    0.60    0.90
   6   5 -10   -1.40    1.20
  -6   5  10   -1.00    1.30
  -5  -5  10   11.40    1.40
  -5  -5  10   13.90    1.70
   5  -5 -10   13.80    2.00
   5  -5 -10   15.40    1.70
  -5   5  10   10.20    1.70
   5   5 -10   13.30    2.10
  -5   5  10   14.60    1.90
   4  -5 -10   17.10    2.20
   4  -5 -10   16.50    1.70
  -4  -5  10   18.50    1.90
   4  -5 -10   16.90    1.90
  -4  -5  10   18.30    1.90
   4   5 -10   20.60    2.40
  -4   5  10   15.90    2.20
  -4   5  10   18.00    2.00
   3  -5 -10    1.00    0.80
   3  -5 -10    0.70    1.00
   3  -5 -10    1.80    1.30
   3  -5 -10   -0.60    1.20
  -3  -5  10    2.00    0.80
   3   5 -10    2.40    1.20
  -3   5  10    1.00    0.90
  -3   5  10    1.60    1.20
   2  -5 -10    6.50    1.20
   2  -5 -10    5.80    1.30
   2  -5 -10    6.20    1.50
  -2  -5  10    7.50    1.30
   2  -5 -10    5.90    1.30
  -2  -5  10    6.60    1.00
   2   5 -10    6.50    1.60
  -2   5  10    6.90    1.40
  -2   5  10    6.60    1.50
   1  -5 -10    2.90    1.50
   1  -5 -10    1.90    1.30
  -1  -5  10    1.30    0.80
  -1  -5  10    2.10    0.90
  -1   5  10    0.70    1.20
  -1   5  10    3.20    1.30
   1   5 -10    4.40    1.40
   0  -5  10    0.50    1.10
   0  -5  10    2.10    1.00
   0  -5 -10    1.20    1.30
   0  -5 -10   -0.70    0.80
   0   5 -10    0.90    1.20
   0   5  10    0.10    0.80
   0   5  10    0.50    1.00
  -1  -5 -10    2.00    1.20
  -1  -5 -10    2.50    1.10
   1  -5  10    3.20    1.20
   1  -5  10    2.30    0.90
  -1  -5 -10    1.60    1.40
   1   5  10    1.70    0.80
  -1   5 -10    4.10    1.40
  -1   5 -10    3.50    1.10
   1   5  10    4.00    1.40
  -2  -5 -10   -0.60    1.40
   2  -5  10    0.20    0.80
  -2  -5 -10    0.40    1.30
  -2  -5 -10    0.30    1.30
   2  -5  10   -0.20    0.80
  -2   5 -10    2.00    1.00
   2   5  10    0.00    0.80
  -2   5 -10    0.80    0.80
   3  -5  10    0.10    1.20
  -3  -5 -10   -0.80    1.40
  -3  -5 -10   -0.20    1.40
  -3  -5 -10   -0.40    1.30
  -3   5 -10   -0.70    1.20
   3   5  10   -0.90    1.20
  -3   5 -10    0.50    0.90
  -4  -5 -10   14.60    2.30
  -4  -5 -10   12.90    1.90
   4  -5  10   12.50    2.00
  -4  -5 -10   11.30    2.30
  -4   5 -10   18.40    2.40
   4   5  10   11.10    1.80
  -4   5 -10   11.20    1.70
  -6  -6  10    0.80    1.10
  -6  -6  10   -1.10    0.70
   6  -6 -10    0.30    1.30
   6  -6 -10    2.90    1.20
   6  -6 -10    2.60    1.50
  -6   6  10    2.50    1.40
   6   6 -10    0.30    1.30
  -6   6  10    0.70    1.50
  -5  -6  10    2.90    1.00
  -5  -6  10    1.00    0.80
   5  -6 -10    0.10    1.30
   5  -6 -10    0.10    1.30
  -5   6  10    3.80    1.70
   5   6 -10   -1.40    1.20
  -5   6  10    1.00    0.90
   4  -6 -10    3.20    1.50
   4  -6 -10   -0.30    0.80
  -4  -6  10   -0.80    1.10
  -4  -6  10   -0.80    1.00
  -4   6  10   -1.40    0.80
  -4   6  10   -1.50    1.10
   4   6 -10   -0.10    0.90
   3  -6 -10   -1.30    1.10
   3  -6 -10   -0.10    1.00
  -3  -6  10    1.50    1.10
  -3  -6  10    0.40    1.20
   3  -6 -10   -1.30    0.80
   3   6 -10   -1.50    1.20
  -3   6  10    2.10    1.10
  -3   6  10    0.80    1.30
   2  -6 -10    5.10    1.20
   2  -6 -10    2.90    1.60
  -2  -6  10    3.70    1.30
   2  -6 -10    4.10    1.40
  -2   6  10    5.50    1.60
   2   6 -10    2.90    1.50
  -2   6  10    3.60    1.50
   1  -6 -10    0.30    1.20
   1  -6 -10    2.30    1.20
  -1  -6  10    1.20    0.90
   1  -6 -10    1.20    1.30
  -1  -6  10    0.80    0.80
  -1   6  10    2.20    1.40
  -1   6  10    0.20    0.90
   1   6 -10    2.00    1.40
   0  -6 -10    5.50    1.60
   0  -6  10    3.50    1.20
   0  -6 -10    5.90    1.50
   0  -6  10    5.30    1.50
   0   6  10    5.80    1.30
   0   6 -10    1.90    1.40
   0   6  10    5.80    1.50
   1  -6  10    1.30    0.90
  -1  -6 -10    1.60    1.50
   1  -6  10    0.50    1.10
  -1  -6 -10    1.00    1.50
   1   6  10    0.70    1.10
   1   6  10    2.80    1.50
  -1   6 -10    1.70    1.30
  -1   6 -10    1.30    1.30
   2  -6  10    1.50    1.30
  -2  -6 -10    2.20    1.40
  -2  -6 -10    1.10    1.20
  -2  -6 -10    0.00    1.50
   2  -6  10    2.50    1.00
  -2   6 -10    1.50    1.00
  -2   6 -10    3.70    1.60
   2   6  10   -0.40    1.20
  -3  -6 -10   -0.40    1.40
   3  -6  10   -0.50    0.90
  -3  -6 -10    0.60    1.40
  -3  -6 -10    1.30    1.70
   3  -6  10    0.00    0.90
  -3   6 -10    0.30    1.40
   3   6  10    1.20    1.10
  -3   6 -10   -1.00    1.20
   5  -7 -10    1.00    1.30
  -5  -7  10    4.10    1.50
  -5  -7  10    1.40    1.20
   5  -7 -10    3.20    1.50
  -5   7  10    2.40    1.70
  -5   7  10   -0.80    1.50
   5   7 -10    0.90    1.60
  -4  -7  10    4.70    1.50
  -4  -7  10    3.50    1.10
   4  -7 -10    4.90    1.70
   4  -7 -10    4.90    1.30
   4   7 -10    4.20    1.70
  -4   7  10    7.50    1.70
  -4   7  10    7.50    1.90
  -3  -7  10    4.60    1.50
   3  -7 -10    2.60    1.10
  -3  -7  10    1.70    1.30
   3  -7 -10    4.10    1.70
   3   7 -10    4.20    1.70
  -3   7  10    3.60    1.50
  -3   7  10    3.30    1.60
   2  -7 -10    0.30    0.90
   2  -7 -10    0.60    1.20
   2  -7 -10    1.20    1.10
  -2  -7  10    0.10    1.20
  -2   7  10    2.20    1.20
  -2   7  10    2.20    1.60
   2   7 -10    2.80    1.60
   1  -7 -10    3.00    1.80
   1  -7 -10    1.50    1.10
   1  -7 -10    4.70    1.60
  -1  -7  10    0.90    1.30
  -1   7  10    1.70    1.40
   1   7 -10    4.50    1.70
  -1   7  10    0.90    1.30
   0  -7  10    0.70    1.00
   0  -7 -10    0.10    1.50
   0  -7 -10    0.90    1.10
   0  -7  10    0.90    1.00
   0   7 -10   -0.20    1.40
   0   7  10   -0.50    0.70
   0   7  10    2.00    1.40
  -1  -7 -10   -2.30    1.40
   1  -7  10    0.30    1.20
   1  -7  10    0.40    1.30
  -1  -7 -10    1.70    1.80
  -1   7 -10    0.20    1.00
  -1   7 -10    1.90    1.40
   1   7  10    0.70    1.40
   9   0 -11    2.80    1.30
  -9   0  11   -1.20    1.10
   9   0 -11    1.20    0.80
   8   0 -11   52.69    3.70
  -8   0  11   58.39    3.30
   8   0 -11   53.99    2.80
  -7   0  11   22.80    2.30
   7   0 -11   27.30    2.80
  -7   0  11   23.30    2.00
   7   0 -11   20.90    1.80
  -6   0  11   28.40    2.30
   6   0 -11   22.60    1.70
  -6   0  11   28.80    2.20
   6   0 -11   30.60    2.70
   5   0 -11    1.60    0.80
   5   0 -11    2.90    1.20
   5   0 -11    1.50    0.70
  -5   0  11    1.40    1.00
  -5   0  11    0.00    0.50
  -4   0  11   41.00    2.00
   4   0 -11   40.90    2.30
   4   0 -11   37.70    2.70
  -4   0  11   38.80    2.40
   4   0 -11   38.20    2.50
  -4   0  11   35.30    1.90
   4   0 -11   38.50    1.70
   3   0 -11   47.30    1.80
  -3   0  11   54.89    2.10
   3   0 -11   50.19    2.90
   3   0 -11   44.00    2.40
  -3   0  11   49.20    2.20
   3   0 -11   50.59    2.50
  -2   0  11   73.49    3.00
   2   0 -11   66.99    2.80
  -2   0  11   68.39    2.20
   2   0 -11   67.69    2.80
  -2   0  11   65.09    2.70
   2   0 -11   72.59    3.20
   1   0 -11   10.70    1.20
  -1   0  11   10.60    1.00
   1   0 -11   13.40    1.60
  -1   0  11   15.70    1.50
  -1   0  11   14.40    1.60
   0   0  11   16.30    1.60
   0   0  11   14.10    1.50
   0   0 -11   15.10    1.70
   1   0  11    2.00    1.00
  -1   0 -11    1.50    1.40
   1   0  11    0.20    0.90
  -1   0 -11    0.40    0.80
  -1   0 -11    0.30    0.50
   2   0  11    5.90    1.30
  -2   0 -11    1.40    1.20
  -2   0 -11    5.30    1.70
  -3   0 -11    7.60    1.70
   3   0  11    7.40    1.40
  -3   0 -11    8.20    1.40
  -4   0 -11    3.80    1.90
   4   0  11    2.50    1.30
  -4   0 -11    1.90    0.90
  -5   0 -11    0.60    2.00
   5   0  11    4.50    1.50
   8  -1 -11    4.40    1.50
   8  -1 -11    5.60    1.30
  -8  -1  11    6.00    1.60
  -8   1  11    5.40    1.30
   8   1 -11    5.20    1.80
  -8   1  11    4.00    1.40
   8   1 -11    3.20    1.10
   7  -1 -11    2.20    0.90
   7  -1 -11    5.50    1.60
  -7  -1  11    5.80    1.30
  -7  -1  11    2.90    0.90
  -7   1  11    5.10    1.10
   7   1 -11    3.60    1.60
   7   1 -11    4.50    0.90
  -7   1  11    6.60    1.50
  -6  -1  11   11.70    1.50
   6  -1 -11    9.00    1.20
   6  -1 -11   10.20    1.90
  -6  -1  11    9.30    1.50
   6   1 -11    9.60    1.60
   6   1 -11    8.50    1.40
   6   1 -11    8.50    1.10
  -6   1  11   11.30    1.70
  -6   1  11   10.50    1.30
  -5  -1  11    0.40    0.80
   5  -1 -11    0.20    0.70
   5  -1 -11    0.40    0.80
   5  -1 -11    0.90    1.00
   5  -1 -11    0.00    0.80
  -5  -1  11    1.80    0.90
   5   1 -11    0.30    0.50
  -5   1  11    0.20    0.70
  -5   1  11    0.70    0.60
  -5   1  11    0.60    1.00
   5   1 -11    0.00    0.80
   5   1 -11    0.70    0.80
   4  -1 -11   26.90    2.20
   4  -1 -11   26.30    2.30
   4  -1 -11   26.30    1.80
   4  -1 -11   24.50    2.00
  -4  -1  11   20.90    1.60
  -4   1  11   24.20    1.60
  -4   1  11   18.60    1.60
   4   1 -11   25.90    2.00
   4   1 -11   28.40    2.50
   4   1 -11   21.20    2.00
  -4   1  11   24.20    1.90
   3  -1 -11   14.10    1.20
  -3  -1  11   13.90    1.10
   3  -1 -11   15.60    1.60
   3  -1 -11   14.70    1.30
  -3  -1  11   15.20    1.30
   3  -1 -11   16.80    1.90
   3  -1 -11   14.90    1.70
  -3  -1  11   13.30    1.20
  -3   1  11   14.60    1.60
   3   1 -11   14.80    1.60
  -3   1  11   17.20    1.80
   3   1 -11   13.90    1.50
   3   1 -11   16.50    2.00
  -3   1  11   15.20    1.20
  -2  -1  11   13.00    1.20
  -2  -1  11   17.00    1.40
   2  -1 -11   10.50    1.50
   2  -1 -11   14.70    1.40
   2  -1 -11   12.30    1.10
  -2  -1  11   13.80    1.40
   2  -1 -11   12.20    1.50
   2   1 -11   13.10    1.50
   2   1 -11   11.60    1.60
  -2   1  11   13.90    1.00
  -2   1  11   12.30    1.30
   2   1 -11   15.60    1.70
  -1  -1  11   23.00    1.40
  -1  -1  11   22.30    1.60
   1  -1 -11   24.90    1.40
   1  -1 -11   26.20    2.20
   1  -1 -11   24.40    1.90
  -1  -1  11   24.50    1.70
   1   1 -11   25.70    2.20
   1   1 -11   25.00    2.10
  -1   1  11   26.80    2.10
   1   1 -11   27.60    1.80
  -1   1  11   26.20    1.90
   0  -1 -11    0.80    0.70
   0  -1 -11   -0.10    0.70
   0  -1 -11   -0.10    0.50
   0  -1  11    0.50    0.50
   0  -1 -11   -0.40    0.70
   0  -1  11    0.40    0.70
   0  -1  11    0.70    0.90
   0   1 -11   -1.30    0.50
   0   1  11    2.10    0.90
   0   1  11    0.00    0.90
   0   1 -11    1.00    1.10
  -1  -1 -11    2.10    0.90
  -1  -1 -11    1.80    0.80
  -1  -1 -11    2.60    1.40
   1  -1  11    1.80    0.80
  -1   1 -11    2.40    1.20
   1   1  11    2.30    0.80
   1   1  11    0.60    0.90
   2  -1  11   -0.40    0.60
  -2  -1 -11    0.20    1.30
  -2  -1 -11    0.20    1.10
  -2   1 -11   -1.10    1.10
  -2   1 -11   -0.30    1.40
   2   1  11    0.00    0.90
   2   1  11   -0.50    0.90
  -3  -1 -11   10.50    2.10
  -3  -1 -11   11.70    1.60
   3  -1  11   15.40    1.90
  -3   1 -11   15.20    2.00
  -3   1 -11   12.50    2.30
   3   1  11   10.30    1.40
   3   1  11   15.70    1.90
  -4  -1 -11    0.00    1.20
   4  -1  11   -0.10    0.80
  -4  -1 -11   -0.10    0.90
   4   1  11    0.00    1.10
  -4   1 -11    1.00    1.20
  -4   1 -11    0.60    1.20
   4   1  11   -0.10    1.10
  -8  -2  11   28.10    2.50
   8  -2 -11   27.70    2.40
   8  -2 -11   27.10    2.70
   8   2 -11   33.40    3.40
  -8   2  11   29.30    2.70
  -8   2  11   22.70    2.60
  -7  -2  11   44.50    2.70
  -7  -2  11   42.00    2.20
   7  -2 -11   42.20    2.60
   7  -2 -11   38.00    2.80
  -7   2  11   34.90    3.00
   7   2 -11   45.70    3.40
  -7   2  11   40.00    2.70
  -6  -2  11    0.00    0.90
  -6  -2  11    0.30    0.70
   6  -2 -11    1.50    1.00
  -6  -2  11    0.40    0.70
   6  -2 -11   -0.40    0.80
   6  -2 -11   -0.20    0.90
   6  -2 -11    0.90    0.90
   6  -2 -11    0.50    0.60
   6   2 -11    0.50    1.00
  -6   2  11   -1.40    0.50
  -6   2  11    0.40    0.80
   6   2 -11    1.10    1.30
  -6   2  11    2.10    1.00
  -5  -2  11    9.30    1.20
   5  -2 -11   10.60    1.40
   5  -2 -11   11.30    1.80
  -5  -2  11    9.50    1.00
   5  -2 -11    7.10    1.30
   5  -2 -11   10.30    1.40
  -5   2  11   12.20    1.60
  -5   2  11   10.60    1.40
  -5   2  11   10.70    1.30
   5   2 -11    9.70    1.60
   5   2 -11    8.60    1.70
   4  -2 -11    7.30    1.30
   4  -2 -11    6.70    1.50
   4  -2 -11    6.80    1.10
   4  -2 -11    4.50    0.90
  -4  -2  11    5.60    0.90
  -4  -2  11    7.20    1.00
   4  -2 -11    4.60    1.00
   4   2 -11    8.50    1.30
  -4   2  11    6.50    1.00
  -4   2  11    6.60    1.30
  -4   2  11    7.70    1.40
   4   2 -11    9.30    1.60
   3  -2 -11    1.40    0.80
  -3  -2  11    1.20    0.80
   3  -2 -11    1.50    0.80
   3  -2 -11    0.90    0.80
   3  -2 -11    1.70    0.90
  -3  -2  11    2.00    0.70
  -3  -2  11    1.60    0.80
   3   2 -11   -0.10    0.70
   3   2 -11    1.20    0.90
  -3   2  11    0.70    0.80
  -3   2  11    3.30    1.00
   2  -2 -11   33.60    1.80
  -2  -2  11   31.10    1.60
  -2  -2  11   29.30    2.00
  -2  -2  11   32.10    1.80
   2  -2 -11   30.70    2.20
   2  -2 -11   38.00    2.50
   2  -2 -11   30.90    2.00
  -2   2  11   31.90    2.10
  -2   2  11   33.10    2.20
   2   2 -11   38.20    2.70
   2   2 -11   31.20    2.10
   2   2 -11   33.10    1.90
   1  -2 -11    0.80    0.70
   1  -2 -11    0.20    0.80
  -1  -2  11   -0.30    0.70
  -1  -2  11    0.00    0.60
   1  -2 -11    0.70    0.70
   1  -2 -11   -1.10    0.80
  -1  -2  11    0.10    0.70
  -1   2  11    1.40    0.90
   1   2 -11    0.10    0.60
   1   2 -11    0.60    1.10
   1   2 -11   -0.30    0.90
   0  -2  11   -0.30    0.60
   0  -2 -11    1.80    1.10
   0  -2  11    0.80    0.90
   0  -2 -11    0.80    1.10
   0  -2 -11   -0.20    0.80
   0   2  11    0.50    0.70
   0   2  11    0.10    0.90
   0   2 -11   -0.40    0.90
   0   2 -11    0.30    0.80
  -1  -2 -11   -0.20    1.10
   1  -2  11   -0.10    0.60
  -1  -2 -11    1.00    1.20
   1  -2  11    0.10    0.90
  -1  -2 -11    1.90    1.00
   1   2  11    0.70    1.00
  -1   2 -11    0.70    0.70
  -1   2 -11    0.10    0.80
   1   2  11    0.50    1.00
  -1   2 -11    0.00    1.00
  -2  -2 -11    9.70    1.40
  -2  -2 -11   13.70    1.90
  -2  -2 -11   10.80    1.70
   2  -2  11   10.00    1.60
   2   2  11   11.50    1.50
   2   2  11   10.40    1.70
  -2   2 -11   14.70    2.00
  -3  -2 -11    2.50    1.40
   3  -2  11    2.10    1.00
  -3  -2 -11    2.80    1.70
   3   2  11    3.00    1.30
  -3   2 -11    4.50    1.30
   3   2  11    1.60    1.20
   4  -2  11    2.80    1.00
   4  -2  11    4.40    1.30
  -4  -2 -11   -0.30    1.30
  -4  -2 -11    1.10    1.20
   4   2  11    3.60    1.30
   4   2  11    2.90    1.10
   8  -3 -11    0.40    1.20
   8  -3 -11    0.20    1.40
  -8  -3  11    2.10    1.30
  -8  -3  11    1.10    0.70
   8   3 -11    0.80    0.90
  -8   3  11    0.90    1.40
  -7  -3  11    5.90    1.20
   7  -3 -11    3.70    1.60
   7  -3 -11    4.60    1.40
   7  -3 -11    4.90    1.30
  -7  -3  11    6.60    1.50
  -7   3  11    4.70    1.70
   7   3 -11    3.70    1.30
  -7   3  11    5.90    1.50
   6  -3 -11    2.20    0.90
   6  -3 -11    1.00    1.00
  -6  -3  11    2.50    1.00
   6  -3 -11    2.90    1.20
   6  -3 -11    3.10    0.90
  -6  -3  11    2.70    1.20
  -6   3  11    4.00    1.40
   6   3 -11    4.30    1.40
   6   3 -11    2.90    1.50
  -6   3  11    1.20    1.00
  -6   3  11    2.60    1.10
  -5  -3  11   17.60    1.60
  -5  -3  11   22.50    2.00
   5  -3 -11   23.30    2.50
   5  -3 -11   16.90    1.80
   5  -3 -11   18.00    2.00
   5  -3 -11   18.00    1.90
  -5   3  11   18.60    1.70
  -5   3  11   17.00    1.80
  -5   3  11   19.30    2.20
   5   3 -11   21.20    2.20
   5   3 -11   22.90    2.40
   4  -3 -11   68.09    3.00
   4  -3 -11   68.49    3.50
   4  -3 -11   59.69    3.10
  -4  -3  11   58.59    2.60
   4  -3 -11   65.19    2.70
  -4  -3  11   66.89    2.90
   4   3 -11   63.19    3.10
   4   3 -11   70.19    3.40
  -4   3  11   62.89    3.20
  -4   3  11   60.19    3.10
   3  -3 -11    5.70    1.10
   3  -3 -11    5.40    1.30
   3  -3 -11    7.40    1.50
  -3  -3  11    5.00    1.10
  -3  -3  11    6.20    1.10
  -3  -3  11    5.50    1.00
   3  -3 -11    7.40    1.30
   3   3 -11    6.30    1.40
   3   3 -11    6.70    1.10
  -3   3  11    5.60    1.30
  -3   3  11    5.60    1.40
   2  -3 -11    3.80    1.20
   2  -3 -11    3.40    1.00
   2  -3 -11    3.00    1.10
  -2  -3  11    2.90    0.90
   2  -3 -11    3.20    1.00
  -2  -3  11    2.40    0.90
   2   3 -11    2.70    0.90
   2   3 -11    3.50    1.00
  -2   3  11    3.30    1.20
  -2   3  11    1.30    1.10
  -1  -3  11    2.20    0.80
   1  -3 -11    0.00    0.80
  -1  -3  11    0.90    0.80
   1  -3 -11   -1.60    0.60
   1  -3 -11   -0.10    0.50
   1  -3 -11   -0.70    0.70
   1   3 -11   -1.90    1.10
  -1   3  11   -0.30    0.90
  -1   3  11    0.50    0.70
   1   3 -11    1.10    1.00
   0  -3 -11    1.30    0.80
   0  -3 -11    0.50    1.00
   0  -3 -11    1.60    1.20
   0  -3  11    0.20    0.80
   0  -3  11    2.80    1.00
   0   3  11    0.50    0.90
   0   3  11    0.50    1.10
   0   3 -11   -1.00    0.90
   0   3 -11    1.70    0.90
  -1  -3 -11    4.20    1.20
   1  -3  11    4.10    1.20
   1  -3  11    1.20    0.90
  -1  -3 -11    1.50    1.20
  -1  -3 -11    3.40    1.20
  -1   3 -11    5.00    1.10
  -1   3 -11    2.90    1.30
  -1   3 -11    3.90    1.10
   1   3  11    6.10    1.40
   1   3  11    2.70    1.10
  -2  -3 -11    0.70    1.10
  -2  -3 -11    1.80    1.40
  -2  -3 -11    1.40    0.90
   2  -3  11    1.70    0.70
   2  -3  11    1.80    0.90
  -2   3 -11    1.50    1.00
   2   3  11    2.50    1.20
  -2   3 -11    1.90    1.10
  -2   3 -11    1.90    1.30
  -3  -3 -11   10.50    1.90
   3  -3  11    8.10    1.70
  -3  -3 -11    4.50    1.30
  -3  -3 -11    4.20    1.80
  -3   3 -11    5.30    1.40
   3   3  11    6.90    1.60
  -3   3 -11    7.80    1.80
   3   3  11    6.40    1.30
  -4  -3 -11   -1.50    1.30
   4  -3  11    1.70    1.30
  -4  -3 -11   -0.70    1.70
  -4   3 -11   -0.20    1.30
   4   3  11   -1.10    1.00
   4   3  11    1.30    1.30
   7  -4 -11   13.60    2.00
   7  -4 -11   20.80    2.50
  -7  -4  11   19.80    2.20
  -7  -4  11   20.60    2.00
   7  -4 -11   13.70    2.00
  -7   4  11   18.90    2.00
   7   4 -11   17.00    2.00
  -7   4  11   16.80    2.60
   7   4 -11   18.60    2.30
  -6  -4  11    0.60    0.90
   6  -4 -11    3.20    1.30
  -6  -4  11   -0.40    1.10
   6  -4 -11    1.60    1.40
   6  -4 -11    0.00    0.70
  -6   4  11    0.30    0.90
   6   4 -11    1.00    1.00
  -6   4  11    3.90    1.40
   6   4 -11    0.10    0.90
   5  -4 -11   13.70    1.60
   5  -4 -11   18.70    2.30
  -5  -4  11   13.50    1.60
  -5  -4  11   13.60    1.60
   5  -4 -11   11.80    1.50
   5   4 -11   15.50    2.20
  -5   4  11   12.20    2.00
  -5   4  11   11.40    1.70
   4  -4 -11    5.70    1.50
  -4  -4  11    4.10    1.00
   4  -4 -11    6.10    1.30
  -4  -4  11    6.30    1.20
   4  -4 -11    2.70    1.20
   4  -4 -11    4.60    1.10
  -4   4  11    5.70    1.50
  -4   4  11    6.40    1.40
   4   4 -11    5.50    1.60
  -3  -4  11    0.10    0.60
   3  -4 -11    1.70    1.20
   3  -4 -11    1.20    1.00
   3  -4 -11   -0.20    0.90
   3  -4 -11    0.30    1.00
  -3  -4  11    1.80    0.90
   3   4 -11    0.90    1.20
  -3   4  11    0.00    0.70
  -3   4  11   -0.20    0.70
  -2  -4  11   11.90    1.30
   2  -4 -11   12.00    1.60
   2  -4 -11   11.40    1.80
   2  -4 -11   10.10    1.50
   2  -4 -11   10.70    1.80
  -2  -4  11   11.50    1.30
   2   4 -11    9.70    1.50
  -2   4  11   10.40    1.70
  -2   4  11   11.90    1.70
   1  -4 -11    1.20    1.00
  -1  -4  11    1.70    1.00
   1  -4 -11   -0.10    0.80
  -1  -4  11    1.20    0.90
   1  -4 -11    1.20    1.20
  -1   4  11   -0.40    1.00
   1   4 -11   -0.60    1.10
  -1   4  11    1.00    1.10
   0  -4 -11   -0.20    0.90
   0  -4  11   -0.60    0.90
   0  -4 -11    0.60    1.10
   0  -4  11    1.40    1.00
   0  -4 -11   -0.60    1.20
   0   4 -11   -0.30    0.80
   0   4  11    1.00    1.10
   0   4  11   -0.10    0.90
   1  -4  11   -0.30    0.90
  -1  -4 -11   -1.70    1.00
  -1  -4 -11    2.00    1.40
   1  -4  11    0.40    1.10
  -1  -4 -11    0.20    1.10
  -1   4 -11    1.30    1.30
   1   4  11    0.00    1.10
  -1   4 -11    0.30    1.00
   1   4  11    0.10    1.00
  -2  -4 -11   12.10    1.80
  -2  -4 -11   10.80    2.00
   2  -4  11   12.50    1.70
  -2  -4 -11   11.10    1.80
   2  -4  11    9.30    1.70
   2   4  11   14.80    2.00
  -2   4 -11   11.00    1.50
  -2   4 -11   15.30    2.10
   2   4  11    9.20    1.40
  -3  -4 -11    4.20    1.70
   3  -4  11    1.90    1.00
  -3  -4 -11    1.40    1.30
  -3  -4 -11    0.60    1.20
   3  -4  11    0.50    0.90
  -3   4 -11    1.10    0.90
  -3   4 -11    1.40    1.10
   3   4  11    3.10    1.50
   7  -5 -11    0.80    1.40
   7  -5 -11    0.00    1.40
  -7  -5  11    0.00    1.10
  -7  -5  11    0.10    0.90
   7  -5 -11   -1.10    1.20
   7   5 -11   -0.70    1.70
   7   5 -11    0.70    1.00
  -7   5  11   -1.40    1.40
  -7   5  11    1.10    1.30
   6  -5 -11   -0.20    1.10
   6  -5 -11    0.30    1.40
  -6  -5  11   -0.10    0.70
  -6  -5  11    0.80    0.90
   6  -5 -11   -2.20    1.10
   6   5 -11   -0.60    1.20
  -6   5  11   -2.30    1.10
  -6   5  11    0.10    1.50
  -5  -5  11   -0.50    0.70
  -5  -5  11    1.00    0.70
   5  -5 -11   -0.70    1.30
   5  -5 -11    1.00    1.20
   5   5 -11    0.10    1.30
  -5   5  11    0.50    0.90
  -5   5  11   -0.80    0.90
   4  -5 -11   10.00    1.50
  -4  -5  11    9.90    1.40
   4  -5 -11   10.40    1.90
  -4  -5  11   12.30    1.70
   4  -5 -11   13.10    1.80
   4   5 -11   12.50    2.10
  -4   5  11    8.60    1.70
  -4   5  11   13.50    2.00
  -3  -5  11    5.90    1.20
   3  -5 -11    3.60    1.60
   3  -5 -11    4.90    1.40
  -3  -5  11    5.40    1.30
   3  -5 -11    6.40    1.50
   3   5 -11    5.60    1.60
  -3   5  11    3.70    1.50
  -3   5  11    4.40    1.20
   2  -5 -11    0.20    1.20
  -2  -5  11    1.60    1.00
   2  -5 -11    2.00    1.30
   2  -5 -11   -0.40    1.00
   2   5 -11    0.90    0.90
  -2   5  11    1.40    1.00
  -2   5  11    0.60    1.30
   1  -5 -11    4.80    1.30
  -1  -5  11    3.00    1.00
  -1  -5  11    2.20    1.20
   1  -5 -11    2.20    1.10
   1  -5 -11    2.50    1.30
   1   5 -11    3.50    1.20
  -1   5  11    2.10    1.30
  -1   5  11    2.50    1.30
   0  -5  11    0.10    0.80
   0  -5  11    0.40    1.00
   0  -5 -11    0.80    1.40
   0  -5 -11   -1.80    1.20
   0   5 -11    1.50    1.30
   0   5  11    0.50    0.80
   0   5  11    0.60    1.00
  -1  -5 -11    0.20    1.30
   1  -5  11    0.50    0.80
  -1  -5 -11   -0.90    1.30
  -1  -5 -11   -0.20    0.80
   1  -5  11    0.50    0.70
   1   5  11    1.00    1.10
   1   5  11    1.70    1.10
  -1   5 -11   -0.30    0.70
  -1   5 -11    0.40    0.90
  -2  -5 -11    1.30    1.50
  -2  -5 -11    1.10    1.10
   2  -5  11    0.60    0.90
  -2  -5 -11   -0.80    1.40
   2  -5  11    0.50    1.20
  -2   5 -11    1.40    1.10
   2   5  11    0.80    1.40
  -2   5 -11    2.20    1.20
   3  -5  11    3.80    1.20
  -3  -5 -11    3.70    1.80
  -3  -5 -11    6.00    1.70
   3  -5  11    7.40    1.50
  -3  -5 -11    4.50    1.80
  -3   5 -11    4.70    1.40
  -3   5 -11    3.40    1.60
   3   5  11    5.20    1.80
  -5  -6  11    0.20    1.20
   5  -6 -11    0.80    1.40
  -5  -6  11    0.50    0.80
   5  -6 -11    2.40    1.60
  -5   6  11    1.40    1.20
  -5   6  11    1.10    1.40
   5   6 -11    1.90    1.60
   4  -6 -11    5.60    1.50
  -4  -6  11    3.30    1.30
  -4  -6  11    3.40    1.40
   4  -6 -11    5.60    1.70
  -4   6  11    4.70    1.50
   4   6 -11    2.10    1.40
  -4   6  11    4.70    1.30
  -3  -6  11    5.70    1.50
  -3  -6  11    2.80    1.00
   3  -6 -11    2.70    1.30
   3  -6 -11    2.60    1.30
   3  -6 -11    5.20    1.40
  -3   6  11    3.10    1.60
  -3   6  11    2.60    1.50
   3   6 -11    1.30    1.10
   2  -6 -11    7.50    1.70
   2  -6 -11    7.00    1.60
  -2  -6  11    8.30    1.60
   2  -6 -11    9.30    2.00
   2   6 -11    9.00    1.90
  -2   6  11    5.80    1.70
  -2   6  11    6.60    1.50
   1  -6 -11    1.10    1.30
   1  -6 -11    2.50    1.40
   1  -6 -11    4.90    1.80
  -1  -6  11    4.80    1.40
  -1   6  11    0.60    0.80
  -1   6  11    1.80    1.10
   1   6 -11    2.60    1.30
   0  -6 -11    1.50    1.50
   0  -6  11    2.30    1.10
   0  -6 -11    1.90    1.70
   0  -6  11    1.20    1.00
   0   6 -11    2.00    1.50
   0   6  11    1.60    1.20
   0   6  11    1.10    1.30
  -1  -6 -11    2.30    1.60
  -1  -6 -11    0.70    1.50
   1  -6  11   -1.20    0.70
   1  -6  11    1.20    1.20
  -1   6 -11   -0.40    1.40
   1   6  11    0.90    1.00
   3  -7 -11    0.30    1.60
   3  -7 -11    0.70    1.30
  -3  -7  11    1.70    1.30
  -3  -7  11    0.50    1.30
  -3   7  11    1.10    1.50
   3   7 -11    1.50    1.50
  -3   7  11   -0.10    1.50
   2  -7 -11    1.50    1.60
   2  -7 -11    3.10    1.40
   2  -7 -11    0.70    1.00
  -2  -7  11   -2.00    1.20
  -2   7  11    2.50    1.60
  -2   7  11    3.40    1.60
   2   7 -11    1.70    1.60
   1  -7 -11    1.50    1.10
   1  -7 -11    1.10    1.70
   1  -7 -11    0.10    1.00
  -1  -7  11    2.50    1.40
  -1   7  11    0.40    0.90
  -1   7  11   -0.70    1.30
   1   7 -11    0.80    1.10
   8   0 -12   62.99    3.80
  -8   0  12   56.49    3.30
   8   0 -12   58.89    3.00
   7   0 -12    9.60    1.30
  -7   0  12    9.80    1.70
  -7   0  12    8.30    1.30
   7   0 -12   11.50    2.10
  -6   0  12    3.90    1.10
  -6   0  12    3.20    1.10
   6   0 -12    3.50    0.90
   6   0 -12    4.40    1.50
  -5   0  12   26.10    2.30
   5   0 -12   26.30    2.60
  -5   0  12   25.10    1.90
   5   0 -12   22.50    2.00
   5   0 -12   24.90    2.30
   4   0 -12   22.10    2.10
  -4   0  12   20.80    1.40
   4   0 -12   20.30    2.00
  -4   0  12   23.90    2.20
   4   0 -12   25.60    2.50
  -3   0  12    0.40    0.80
   3   0 -12    1.00    0.90
  -3   0  12    0.10    0.60
   3   0 -12    2.10    0.80
   3   0 -12    2.50    1.10
  -2   0  12   30.40    2.30
   2   0 -12   36.70    2.80
  -2   0  12   33.00    2.10
  -2   0  12   28.80    1.50
   2   0 -12   38.70    2.50
   2   0 -12   27.90    1.90
   1   0 -12    2.30    1.30
  -1   0  12    0.80    1.00
   1   0 -12    1.10    0.90
  -1   0  12    1.60    0.90
   0   0  12    5.10    1.30
   0   0 -12    4.40    0.80
   0   0  12    4.70    1.00
   0   0 -12    6.00    1.50
   1   0  12    7.50    1.30
  -1   0 -12    6.00    1.60
   1   0  12    5.10    1.30
   2   0  12   13.90    1.70
   2   0  12   16.10    1.80
  -2   0 -12   14.90    2.00
  -2   0 -12    9.80    2.20
  -3   0 -12   11.30    2.40
   3   0  12   16.50    2.00
  -3   0 -12   19.00    2.20
  -4   0 -12    4.50    1.60
  -4   0 -12    8.30    2.10
   4   0  12   10.20    1.80
   8  -1 -12   15.70    2.30
  -8  -1  12   15.20    2.00
   8  -1 -12   11.00    1.40
  -8   1  12   10.60    1.90
  -8   1  12    9.30    1.60
   8   1 -12   13.20    2.50
  -7  -1  12    5.50    1.20
   7  -1 -12    2.30    1.10
   7  -1 -12    5.20    1.80
  -7  -1  12    4.50    1.40
  -7   1  12    2.60    1.40
  -7   1  12    5.40    1.10
   7   1 -12    2.90    1.70
   6  -1 -12   18.50    2.40
  -6  -1  12   16.40    1.80
   6  -1 -12   15.80    1.60
  -6  -1  12   15.00    1.70
   6   1 -12   14.10    2.00
   6   1 -12   17.80    2.20
  -6   1  12   16.00    1.90
  -6   1  12   16.30    1.70
   5  -1 -12    2.40    1.40
   5  -1 -12    5.00    1.00
  -5  -1  12    4.20    0.90
  -5  -1  12    4.20    1.30
   5  -1 -12    5.40    1.50
  -5   1  12    3.20    1.10
   5   1 -12    3.20    1.10
   5   1 -12    3.50    1.20
  -5   1  12    4.00    1.00
   4  -1 -12   -0.50    0.70
  -4  -1  12   -0.70    0.70
   4  -1 -12   -0.30    0.70
   4  -1 -12    0.20    0.60
   4  -1 -12    0.30    0.50
  -4   1  12   -0.10    0.80
  -4   1  12   -1.00    0.60
  -4   1  12   -1.20    0.70
   4   1 -12   -0.40    1.00
   4   1 -12   -0.40    1.00
   4   1 -12    0.30    1.20
   3  -1 -12   25.20    2.20
   3  -1 -12   25.00    2.40
  -3  -1  12   21.40    1.60
   3  -1 -12   22.20    1.50
   3  -1 -12   23.70    2.00
   3   1 -12   25.00    2.20
  -3   1  12   23.20    1.90
   3   1 -12   25.10    2.50
  -3   1  12   23.30    1.80
   3   1 -12   26.20    2.10
  -3   1  12   22.70    2.20
   2  -1 -12   -0.30    0.80
  -2  -1  12    0.20    0.70
   2  -1 -12   -1.40    0.70
  -2  -1  12    0.90    0.60
  -2  -1  12    0.30    0.60
   2   1 -12    0.30    0.60
  -2   1  12    0.30    0.80
   2   1 -12    0.20    0.90
   2   1 -12    0.40    1.10
  -1  -1  12   -0.60    0.50
   1  -1 -12    0.00    0.80
  -1  -1  12    0.60    0.80
   1  -1 -12   -1.20    0.80
  -1  -1  12    0.30    0.90
   1   1 -12    0.60    0.80
  -1   1  12    1.00    1.00
   1   1 -12    0.20    0.80
   1   1 -12    1.00    0.80
  -1   1  12    0.20    0.60
   0  -1  12    0.30    0.80
   0  -1  12    0.70    0.70
   0  -1 -12    0.60    1.20
   0  -1 -12   -0.20    0.70
   0  -1 -12    1.20    1.20
   0   1  12    0.20    0.90
   0   1  12    0.20    1.00
   0   1 -12    1.40    1.20
   1  -1  12   35.30    2.30
  -1  -1 -12   34.40    2.80
   1  -1  12   35.20    2.60
  -1  -1 -12   35.70    2.20
  -1   1 -12   40.90    2.90
   1   1  12   42.70    2.80
   1   1  12   40.30    2.60
  -2  -1 -12   31.00    3.00
   2  -1  12   36.40    2.80
  -2  -1 -12   32.80    2.50
  -2   1 -12   31.40    2.40
   2   1  12   34.00    2.50
   2   1  12   33.10    2.70
   3  -1  12   14.30    1.80
  -3  -1 -12   12.60    2.00
  -3  -1 -12    8.00    2.20
   3   1  12   13.10    1.90
   3   1  12    9.60    1.50
  -3   1 -12    8.40    1.70
  -4  -1 -12    1.90    1.40
   4  -1  12    1.30    0.90
  -4   1 -12    0.70    1.70
   4   1  12    0.10    1.10
   8  -2 -12   28.10    2.80
   8  -2 -12   28.70    2.50
  -8  -2  12   24.40    2.40
   8   2 -12   25.50    2.80
  -8   2  12   22.90    2.50
  -8   2  12   23.00    2.30
   7  -2 -12   -0.20    1.00
  -7  -2  12    0.40    0.80
   7  -2 -12    1.60    1.10
   7   2 -12   -0.30    1.00
  -7   2  12   -0.50    1.20
  -7   2  12    2.50    1.30
  -6  -2  12    0.00    1.00
   6  -2 -12    2.00    1.50
   6  -2 -12    0.60    1.00
   6  -2 -12   -0.10    0.70
  -6  -2  12   -0.20    1.00
   6   2 -12    1.50    1.10
   6   2 -12   -0.70    1.20
  -6   2  12    1.40    1.40
  -6   2  12    0.60    0.60
   5  -2 -12   56.89    3.10
   5  -2 -12   61.99    3.30
   5  -2 -12   62.09    2.80
  -5  -2  12   56.39    2.90
  -5   2  12   58.69    3.40
  -5   2  12   56.19    2.90
   5   2 -12   59.99    3.40
   5   2 -12   56.29    3.20
   4  -2 -12    1.10    1.20
  -4  -2  12   -0.30    0.80
   4  -2 -12   -1.00    0.50
   4  -2 -12    0.00    0.50
   4  -2 -12   -0.80    1.10
   4   2 -12    0.70    0.80
   4   2 -12   -0.20    0.70
  -4   2  12    0.00    0.90
  -4   2  12    0.00    0.80
   3  -2 -12    0.20    0.80
  -3  -2  12    0.50    0.60
   3  -2 -12   -0.40    0.70
   3  -2 -12    0.00    0.70
  -3  -2  12   -0.70    0.60
  -3  -2  12    0.20    0.70
  -3   2  12   -1.50    0.80
   3   2 -12    0.40    1.10
  -3   2  12    0.80    0.90
   3   2 -12    0.00    0.90
  -2  -2  12    5.30    1.10
  -2  -2  12    3.30    0.80
   2  -2 -12    4.00    1.20
   2  -2 -12    4.60    1.20
   2  -2 -12    6.50    1.50
   2  -2 -12    4.20    0.90
   2   2 -12    1.20    1.30
  -2   2  12    3.90    1.20
   2   2 -12    3.20    1.00
   2   2 -12    4.00    1.10
  -2   2  12    4.90    1.30
   1  -2 -12   10.90    1.20
   1  -2 -12   11.40    1.80
  -1  -2  12    8.40    1.20
  -1  -2  12    9.00    1.20
   1  -2 -12   11.40    1.60
  -1  -2  12    9.60    1.20
   1   2 -12   11.60    1.70
  -1   2  12    9.70    1.60
   1   2 -12    9.00    1.40
   1   2 -12   12.70    1.60
   0  -2 -12    2.60    1.10
   0  -2  12    3.00    0.80
   0  -2  12    3.60    1.00
   0  -2 -12    1.30    1.00
   0  -2 -12    2.70    1.30
   0  -2  12    4.70    1.10
   0   2 -12    4.30    1.20
   0   2  12    1.80    1.20
   0   2 -12    4.90    1.10
  -1  -2 -12    0.00    0.90
  -1  -2 -12    1.60    1.10
   1  -2  12    1.90    1.20
  -1  -2 -12   -0.10    1.30
  -1   2 -12    0.50    0.90
   1   2  12    0.50    1.10
  -1   2 -12   -0.50    1.10
   1   2  12    2.80    1.20
   2  -2  12    7.00    1.50
  -2  -2 -12    4.20    1.50
  -2  -2 -12    7.10    1.80
   2   2  12    3.70    1.10
   2   2  12    5.90    1.60
  -2   2 -12    7.50    1.80
  -2   2 -12    5.30    1.50
   3  -2  12    9.50    1.60
  -3  -2 -12   10.10    2.00
  -3  -2 -12    8.60    2.20
   3   2  12   10.80    1.60
  -3   2 -12    7.10    1.60
   3   2  12   13.50    1.70
   7  -3 -12    3.10    1.70
  -7  -3  12    5.50    1.30
   7  -3 -12    6.80    1.50
  -7   3  12    7.00    1.50
  -7   3  12    3.40    1.60
   7   3 -12    5.20    1.60
   6  -3 -12   26.30    3.10
   6  -3 -12   44.80    2.70
  -6  -3  12   40.10    2.70
   6  -3 -12   39.80    3.40
  -6   3  12   37.60    3.20
   6   3 -12   49.99    3.40
   6   3 -12   42.40    3.10
  -6   3  12   40.20    2.70
   5  -3 -12   16.90    2.10
  -5  -3  12   10.80    1.40
   5  -3 -12   12.30    1.60
   5  -3 -12   11.30    1.60
   5  -3 -12   13.90    1.90
  -5  -3  12   15.30    1.80
   5   3 -12   14.20    2.00
   5   3 -12   16.40    2.10
  -5   3  12   12.80    1.60
  -5   3  12   15.80    2.10
  -4  -3  12    2.40    0.90
  -4  -3  12    1.60    1.10
   4  -3 -12    1.90    1.30
   4  -3 -12    3.70    1.20
   4  -3 -12    3.30    1.10
   4  -3 -12   -0.10    1.20
  -4   3  12    4.20    1.50
   4   3 -12    2.80    1.40
   4   3 -12    1.50    0.90
  -4   3  12    3.00    1.30
   3  -3 -12    0.60    1.20
   3  -3 -12    1.20    0.90
  -3  -3  12    0.60    0.80
   3  -3 -12   -0.20    0.90
  -3  -3  12    1.70    0.80
   3  -3 -12    1.30    0.90
  -3  -3  12    1.20    0.90
  -3   3  12   -0.40    1.10
   3   3 -12    2.00    1.00
   3   3 -12    1.10    1.20
  -3   3  12    1.70    0.90
   2  -3 -12    2.30    1.20
   2  -3 -12    3.60    1.10
  -2  -3  12    2.40    1.00
   2  -3 -12    6.30    1.50
   2  -3 -12    3.30    1.20
  -2  -3  12    1.80    0.90
  -2   3  12    4.70    1.40
   2   3 -12    1.90    1.00
   2   3 -12    4.00    1.10
  -2   3  12    5.70    1.50
  -1  -3  12    2.80    1.00
   1  -3 -12    0.30    1.30
   1  -3 -12    2.20    1.20
   1  -3 -12    2.10    0.90
  -1  -3  12    3.00    1.00
   1   3 -12    0.80    1.40
  -1   3  12    1.60    1.20
  -1   3  12    1.30    0.90
   1   3 -12    2.90    1.40
   0  -3  12    3.00    0.90
   0  -3  12    2.30    0.90
   0  -3 -12    1.40    1.00
   0  -3 -12    1.10    1.10
   0  -3 -12    1.30    0.90
   0   3  12    2.60    1.30
   0   3 -12    1.80    1.00
   0   3 -12    0.10    1.30
   0   3  12    2.00    0.90
  -1  -3 -12   20.90    2.40
   1  -3  12   25.20    2.30
   1  -3  12   21.40    1.90
  -1  -3 -12   22.80    2.30
  -1  -3 -12   19.80    2.10
   1   3  12   18.00    1.90
  -1   3 -12   19.10    2.30
   1   3  12   23.90    2.30
  -1   3 -12   22.90    2.40
   2  -3  12   33.30    2.40
  -2  -3 -12   32.20    2.90
  -2  -3 -12   34.30    3.10
  -2   3 -12   30.80    2.70
  -2   3 -12   35.80    2.90
   2   3  12   27.60    2.60
   2   3  12   34.60    2.60
   3  -3  12   12.70    2.00
  -3  -3 -12   11.60    2.30
  -3  -3 -12   15.90    2.40
   3   3  12   13.60    2.10
  -3   3 -12    7.30    2.00
   7  -4 -12   -0.10    0.90
  -7  -4  12    0.40    1.30
   7  -4 -12    0.70    1.20
  -7  -4  12    1.30    1.00
   7  -4 -12    1.10    1.10
  -7   4  12   -2.10    1.50
   7   4 -12   -0.50    1.30
   7   4 -12    0.70    1.30
   6  -4 -12   -0.10    1.00
  -6  -4  12    0.70    0.70
  -6  -4  12    3.30    1.30
   6  -4 -12   -0.50    1.00
   6  -4 -12    0.50    1.10
  -6   4  12    1.90    1.30
  -6   4  12    1.70    1.10
   6   4 -12   -0.20    0.90
   5  -4 -12   29.40    2.90
   5  -4 -12   21.60    2.20
  -5  -4  12   21.50    1.80
  -5  -4  12   21.60    2.10
   5  -4 -12   23.10    2.20
  -5   4  12   24.20    2.40
  -5   4  12   24.60    2.70
   5   4 -12   27.20    2.80
   4  -4 -12    0.50    0.90
  -4  -4  12    0.40    0.60
   4  -4 -12   -0.20    1.00
   4  -4 -12   -0.20    1.40
  -4  -4  12    0.80    0.80
  -4   4  12    0.90    1.30
   4   4 -12   -0.30    1.30
  -4   4  12    1.50    1.20
   3  -4 -12    0.10    0.70
  -3  -4  12    0.00    0.70
   3  -4 -12   -0.70    0.90
  -3  -4  12    0.40    0.60
   3  -4 -12    0.60    0.80
  -3   4  12    0.30    1.30
  -3   4  12    0.30    0.80
   3   4 -12    0.50    0.90
   2  -4 -12    1.00    1.00
   2  -4 -12    3.30    1.20
   2  -4 -12    2.20    1.30
  -2  -4  12    1.90    0.90
  -2  -4  12    1.00    1.00
  -2   4  12    2.40    1.00
   2   4 -12    0.90    1.40
  -2   4  12    3.40    1.40
   1  -4 -12    3.60    1.20
   1  -4 -12    4.60    1.60
  -1  -4  12    5.10    1.20
   1  -4 -12    6.00    1.30
  -1  -4  12    3.60    1.20
  -1   4  12    5.40    1.50
   1   4 -12    4.50    1.50
  -1   4  12    4.80    1.20
   0  -4  12    2.40    1.10
   0  -4 -12    2.60    1.30
   0  -4  12    2.20    1.00
   0  -4 -12    4.20    1.60
   0   4  12    5.00    1.40
   0   4 -12    4.80    1.50
   0   4  12    5.30    1.50
  -1  -4 -12   -2.90    1.20
  -1  -4 -12   -0.20    1.30
   1  -4  12    0.00    1.00
  -1  -4 -12   -0.50    0.80
   1  -4  12   -0.80    1.10
   1   4  12    0.30    1.10
  -1   4 -12   -1.70    0.80
   1   4  12    0.00    0.80
  -2  -4 -12    0.80    1.10
  -2  -4 -12    3.50    1.60
  -2  -4 -12    1.40    0.90
   2  -4  12    1.70    1.40
   2  -4  12    2.90    1.20
  -2   4 -12    0.80    1.10
   2   4  12    0.00    1.20
  -2   4 -12    0.90    0.90
   2   4  12    3.30    1.50
   6  -5 -12    5.70    1.60
  -6  -5  12    7.50    1.60
   6  -5 -12    4.00    1.50
   6  -5 -12    4.80    1.80
  -6  -5  12    3.90    1.00
  -6   5  12    3.00    1.70
   6   5 -12    2.40    1.20
  -6   5  12    4.60    1.30
  -5  -5  12    1.00    1.20
   5  -5 -12    1.70    1.30
   5  -5 -12    0.40    1.10
  -5  -5  12    0.80    1.10
  -5   5  12    1.80    1.60
   5   5 -12    3.00    1.20
  -5   5  12    1.10    1.30
  -4  -5  12   -1.30    0.90
   4  -5 -12   -0.20    1.10
   4  -5 -12   -1.20    1.00
  -4  -5  12    1.00    1.10
   4  -5 -12    0.30    1.40
   4   5 -12    0.10    1.40
  -4   5  12   -0.50    1.40
  -4   5  12    1.00    0.90
   3  -5 -12    1.80    1.10
   3  -5 -12    2.90    1.20
   3  -5 -12    1.80    1.30
  -3  -5  12    0.60    0.90
  -3  -5  12    0.70    0.70
   3   5 -12    0.40    1.30
  -3   5  12    0.70    1.00
  -3   5  12   -0.60    0.70
   2  -5 -12   -2.30    1.20
   2  -5 -12    1.30    1.50
   2  -5 -12    0.60    1.10
  -2  -5  12    1.70    1.20
  -2   5  12   -0.80    0.70
  -2   5  12   -0.50    1.30
   2   5 -12   -0.70    1.20
   1  -5 -12    0.10    1.30
  -1  -5  12    0.90    0.90
   1  -5 -12   -0.80    0.90
   1  -5 -12   -0.60    1.00
  -1  -5  12    0.30    0.80
  -1   5  12   -1.30    1.10
  -1   5  12    1.40    1.20
   1   5 -12    0.60    1.30
   0  -5  12    1.00    1.10
   0  -5  12   -0.60    1.00
   0  -5 -12    3.00    1.50
   0  -5 -12    1.10    1.00
   0   5 -12    2.50    1.50
   0   5  12   -0.20    1.20
   0   5  12   -0.10    1.20
  -1  -5 -12   10.10    2.10
  -1  -5 -12   10.30    1.70
   1  -5  12   11.90    1.70
   1  -5  12   11.00    1.70
   1   5  12   10.60    2.10
  -1   5 -12   12.80    2.20
   1   5  12    9.80    1.70
   4  -6 -12    2.20    1.10
   4  -6 -12    5.80    1.80
  -4  -6  12    2.90    1.40
  -4  -6  12    1.90    1.30
   4   6 -12    6.60    2.00
  -4   6  12    3.80    1.80
  -4   6  12    1.00    1.50
  -3  -6  12    1.50    1.20
   3  -6 -12    1.00    1.10
  -3  -6  12   -0.40    1.10
   3  -6 -12    0.20    1.00
   3  -6 -12   -0.20    1.20
  -3   6  12   -0.50    0.90
   3   6 -12    0.60    1.60
  -3   6  12   -0.20    1.00
   2  -6 -12    2.60    1.40
   2  -6 -12    6.10    1.70
   2  -6 -12    1.90    1.30
  -2  -6  12    4.00    1.10
   2   6 -12    4.80    1.80
  -2   6  12    4.80    1.70
  -2   6  12    4.70    1.80
   1  -6 -12    2.00    1.50
   1  -6 -12   -0.70    1.00
  -1  -6  12    0.40    1.20
   1  -6 -12    2.80    1.40
  -1   6  12   -0.70    0.90
   1   6 -12   -0.50    1.40
  -1   6  12    0.60    0.90
   0  -6 -12    0.10    1.50
   0  -6  12    0.40    1.20
   0  -6 -12    3.80    1.80
   0  -6  12    0.60    1.10
   0   6  12    2.10    1.40
   0   6 -12   -0.80    1.40
   0   6  12    0.00    1.00
  -7   0  13   12.50    1.80
   7   0 -13   17.70    2.60
  -7   0  13   12.10    2.00
   6   0 -13    7.90    1.90
  -6   0  13    6.80    1.40
  -6   0  13    6.20    1.30
   5   0 -13    0.30    1.00
  -5   0  13    1.30    1.20
  -5   0  13    1.20    0.70
   5   0 -13    1.60    1.30
   4   0 -13   56.99    3.10
  -4   0  13   57.39    2.50
   4   0 -13   51.79    3.20
   4   0 -13   62.19    3.40
  -4   0  13   52.19    2.90
   3   0 -13   17.80    2.00
   3   0 -13   23.40    2.60
   3   0 -13   19.80    2.10
  -3   0  13   17.70    1.70
   2   0 -13    0.90    1.30
   2   0 -13   -0.50    1.00
   2   0 -13    0.90    0.70
  -2   0  13    1.20    0.90
  -1   0  13   29.90    2.50
   1   0 -13   30.00    2.20
   1   0 -13   31.90    2.50
  -1   0  13   30.20    2.00
   0   0 -13   32.10    2.90
   0   0  13   30.50    2.30
   0   0  13   30.20    2.30
   1   0  13    0.70    1.20
  -1   0 -13    1.00    1.50
   1   0  13    5.10    1.40
   2   0  13    7.50    1.40
   2   0  13   10.70    1.80
  -2   0 -13   10.20    1.90
  -7  -1  13    7.00    1.60
  -7  -1  13    6.60    1.50
   7  -1 -13    6.40    1.30
   7  -1 -13    7.80    2.00
  -7   1  13    4.80    1.30
  -7   1  13    7.00    1.50
   7   1 -13    8.10    2.00
   6  -1 -13    1.60    1.20
  -6  -1  13    3.50    1.10
  -6  -1  13    0.50    1.00
   6  -1 -13    0.10    0.80
   6   1 -13    0.90    1.40
  -6   1  13    3.40    1.20
  -6   1  13    2.60    1.10
  -5  -1  13    5.50    1.20
   5  -1 -13    4.80    1.60
   5  -1 -13    3.40    1.50
  -5  -1  13    6.20    1.50
   5   1 -13    2.40    1.40
  -5   1  13    5.80    1.40
   5   1 -13    5.70    1.50
  -5   1  13    4.40    1.00
   4  -1 -13   21.60    2.50
   4  -1 -13   25.60    2.20
   4  -1 -13   27.00    2.60
  -4  -1  13   22.30    1.80
   4   1 -13   24.60    2.40
   4   1 -13   28.10    2.50
  -4   1  13   26.50    2.60
   4   1 -13   26.70    2.80
  -4   1  13   25.30    2.20
   3  -1 -13   29.50    2.70
   3  -1 -13   28.90    2.50
  -3  -1  13   31.70    1.70
   3  -1 -13   34.20    2.20
   3   1 -13   33.20    2.70
  -3   1  13   30.90    2.30
   3   1 -13   31.70    2.40
   3   1 -13   31.50    2.60
  -3   1  13   32.50    2.30
  -2  -1  13    0.30    0.60
   2  -1 -13    1.10    1.00
  -2  -1  13   -0.60    0.60
  -2  -1  13   -1.00    0.70
   2  -1 -13    0.20    1.00
   2   1 -13    0.40    0.60
   2   1 -13    0.70    0.80
  -2   1  13    0.90    1.00
   2   1 -13   -0.70    1.30
  -1  -1  13    1.70    1.20
   1  -1 -13    1.70    1.40
  -1  -1  13    3.50    1.10
   1  -1 -13    3.50    1.10
   1   1 -13    3.30    1.30
  -1   1  13    2.20    0.90
   1   1 -13    1.20    1.40
   1   1 -13    2.70    0.80
   0  -1  13   11.80    1.60
   0  -1 -13   13.90    1.90
   0  -1  13   13.50    1.80
   0  -1 -13   12.40    1.40
   0   1 -13   16.80    2.30
   0   1  13   10.90    1.90
   0   1 -13   12.80    1.80
   0   1  13   14.20    1.90
   1  -1  13   11.60    1.60
  -1  -1 -13    9.10    1.60
  -1  -1 -13   11.60    2.10
   1  -1  13    8.80    1.70
  -1   1 -13   12.80    2.10
   1   1  13   11.30    1.70
   1   1  13    8.80    1.70
   2  -1  13    4.20    1.10
   2  -1  13    4.50    1.50
  -2  -1 -13    6.30    1.70
  -2  -1 -13    3.80    1.70
   2   1  13    6.10    1.40
   2   1  13    6.30    1.40
  -2   1 -13    3.70    1.60
  -7  -2  13   14.00    1.90
   7  -2 -13   13.50    1.50
   7  -2 -13   16.40    2.50
  -7   2  13   13.60    1.90
   7   2 -13   15.80    2.20
  -7   2  13   18.00    2.20
   6  -2 -13    0.10    0.70
  -6  -2  13    0.80    1.10
   6  -2 -13    0.30    0.80
  -6  -2  13    1.30    1.10
   6  -2 -13    0.50    1.00
   6   2 -13   -1.00    0.70
  -6   2  13    0.80    1.00
   6   2 -13    2.70    1.50
   5  -2 -13    3.50    0.90
   5  -2 -13    5.20    1.50
  -5  -2  13    6.00    1.30
   5  -2 -13    7.60    1.90
   5   2 -13    2.70    1.30
  -5   2  13    3.40    1.50
   5   2 -13    1.50    1.30
   4  -2 -13   29.90    2.70
  -4  -2  13   27.50    2.10
   4  -2 -13   30.60    2.80
   4  -2 -13   29.20    2.00
   4   2 -13   30.00    2.60
  -4   2  13   31.00    2.50
  -4   2  13   30.00    2.50
   4   2 -13   32.70    2.60
   3  -2 -13    0.00    0.90
   3  -2 -13   -0.70    0.70
   3  -2 -13   -1.10    0.90
  -3  -2  13    0.80    0.70
  -3  -2  13    0.50    0.60
   3  -2 -13    0.40    1.00
  -3   2  13    0.20    1.20
   3   2 -13   -0.20    0.90
   3   2 -13    1.20    1.10
  -3   2  13    3.40    1.30
   2  -2 -13    1.40    1.40
   2  -2 -13    3.90    1.10
  -2  -2  13    3.30    1.00
  -2  -2  13    3.30    1.00
   2   2 -13    4.40    1.50
   2   2 -13    3.80    1.30
  -2   2  13    4.10    1.00
   2   2 -13    4.60    1.10
  -2   2  13    3.40    1.10
   1  -2 -13   14.40    1.90
   1  -2 -13   15.80    2.00
  -1  -2  13   14.50    1.40
  -1  -2  13   15.80    1.80
   1   2 -13   15.10    2.10
  -1   2  13   15.50    1.80
   1   2 -13   15.40    2.20
   0  -2 -13    9.40    1.80
   0  -2  13    6.70    1.30
   0  -2 -13    5.00    1.00
   0  -2 -13   13.30    2.10
   0  -2  13    7.50    1.60
   0   2 -13    8.00    1.80
   0   2 -13   10.70    2.00
   0   2  13    5.90    1.50
  -1  -2 -13    2.10    1.20
   1  -2  13    1.80    1.10
  -1  -2 -13    3.70    1.70
  -1  -2 -13    0.30    0.60
   1  -2  13    0.90    1.20
   1   2  13    2.10    1.30
  -1   2 -13   -0.60    1.20
  -1   2 -13    0.70    1.00
   1   2  13    1.60    1.30
  -2  -2 -13    7.20    1.90
  -2  -2 -13    8.00    1.70
   2  -2  13   11.10    2.00
  -2   2 -13   13.50    2.20
   2   2  13    8.70    1.90
   2   2  13   11.50    1.90
  -2   2 -13    9.70    2.00
  -6  -3  13   -0.50    1.10
   6  -3 -13   -0.20    1.10
   6  -3 -13   -0.80    0.70
  -6   3  13   -1.20    1.30
   6   3 -13   -0.30    1.30
   6   3 -13    1.00    1.40
   5  -3 -13    0.20    1.10
  -5  -3  13    0.40    0.70
   5  -3 -13    1.10    1.10
   5  -3 -13    2.20    1.50
  -5   3  13   -1.30    1.00
  -5   3  13    0.80    1.10
   5   3 -13   -1.50    1.00
   5   3 -13    1.30    1.40
   4  -3 -13    2.10    1.20
   4  -3 -13    0.90    1.40
   4  -3 -13    1.20    1.00
  -4  -3  13    2.30    1.10
  -4   3  13    1.90    1.40
   4   3 -13    0.80    1.10
   4   3 -13    3.00    1.50
  -4   3  13   -0.30    1.10
   3  -3 -13   12.80    1.60
   3  -3 -13   13.10    1.80
   3  -3 -13   13.70    1.90
  -3  -3  13   14.50    1.60
  -3  -3  13   12.80    1.60
   3   3 -13   16.70    2.30
  -3   3  13   17.20    2.20
   3   3 -13   16.10    1.90
  -3   3  13   13.00    1.90
   2  -3 -13    3.00    1.50
  -2  -3  13    0.40    0.90
   2  -3 -13    1.90    1.00
  -2  -3  13    1.80    0.90
   2  -3 -13    1.20    0.90
   2   3 -13    2.60    1.40
  -2   3  13    0.60    0.80
  -2   3  13    1.20    1.00
   1  -3 -13   -0.80    0.90
  -1  -3  13   -0.90    0.80
   1  -3 -13    1.90    1.10
   1  -3 -13    0.40    1.10
  -1  -3  13    0.30    1.00
  -1   3  13   -0.10    1.20
  -1   3  13    0.50    1.20
   1   3 -13    0.80    1.30
   0  -3 -13    4.10    1.40
   0  -3  13    8.90    1.40
   0  -3  13    6.40    1.20
   0  -3 -13    7.00    1.80
   0   3  13    9.30    1.70
   0   3 -13    7.70    1.80
   0   3  13    6.20    1.30
   0   3 -13    9.80    1.80
  -1  -3 -13    0.90    1.50
  -1  -3 -13    3.20    1.30
  -1  -3 -13    2.60    1.20
   1  -3  13    0.60    1.30
   1   3  13    3.30    1.20
  -1   3 -13    0.20    1.30
   1   3  13    3.10    1.30
  -1   3 -13    1.10    1.50
  -2  -3 -13    4.70    1.80
  -2  -3 -13   -0.20    1.60
   2  -3  13    0.60    1.30
   2   3  13    2.20    1.20
  -2   3 -13   -1.50    1.40
  -2   3 -13    1.60    1.00
   2   3  13   -0.70    1.20
  -6   4  13   -0.60    1.10
  -5  -4  13    3.50    1.10
   5  -4 -13    1.80    1.20
   5  -4 -13    0.80    2.00
  -5  -4  13    5.40    1.40
   5  -4 -13    5.60    1.60
   5   4 -13    2.00    1.50
  -5   4  13    3.00    1.70
  -5   4  13    5.70    1.60
  -4  -4  13   19.60    2.00
   4  -4 -13   17.20    2.00
   4  -4 -13   17.00    2.40
  -4  -4  13   19.60    1.90
   4  -4 -13   17.60    1.90
  -4   4  13   18.40    2.30
   4   4 -13   24.30    2.80
  -4   4  13   17.30    2.50
   3  -4 -13    1.50    1.40
  -3  -4  13    0.10    1.00
  -3  -4  13    1.60    1.10
   3  -4 -13   -0.10    1.40
   3  -4 -13   -1.50    0.90
  -3   4  13    0.40    0.80
  -3   4  13   -0.50    1.30
   3   4 -13   -1.50    0.70
   2  -4 -13    4.10    1.60
   2  -4 -13    2.80    1.00
  -2  -4  13    5.00    1.00
  -2  -4  13    5.90    1.40
   2  -4 -13    6.30    1.70
  -2   4  13    5.30    1.30
   2   4 -13    3.40    1.20
  -2   4  13    4.40    1.20
  -1  -4  13    9.50    1.50
   1  -4 -13    9.50    2.00
   1  -4 -13    8.30    1.40
   1  -4 -13    8.50    1.80
  -1  -4  13    6.50    1.40
  -1   4  13    9.00    1.90
   1   4 -13    9.50    1.70
  -1   4  13   10.00    1.90
   0  -4 -13    6.20    1.80
   0  -4  13   -0.20    1.00
   0  -4  13    3.40    1.30
   0  -4 -13    3.60    1.30
   0  -4 -13    2.00    1.30
   0   4 -13    3.60    1.60
   0   4  13    0.20    1.20
   0   4  13    3.10    1.20
  -1  -4 -13    1.00    0.90
   1  -4  13    0.60    1.20
  -1  -4 -13    1.60    1.60
   1   4  13    0.50    1.20
   1   4  13    0.10    1.30
  -1   4 -13    2.70    1.50
   4  -5 -13    3.70    1.50
   4  -5 -13    3.50    1.80
  -4  -5  13    2.50    1.10
   4  -5 -13    3.40    1.50
  -4  -5  13    6.90    1.60
   4   5 -13    6.00    1.70
  -4   5  13    3.00    1.50
  -4   5  13    2.40    1.70
   3  -5 -13    5.90    1.90
   3  -5 -13    9.30    1.60
   3  -5 -13    6.80    1.50
  -3  -5  13    5.50    1.40
  -3  -5  13    6.80    1.50
   3   5 -13    6.90    2.00
  -3   5  13    6.70    1.90
  -3   5  13    6.80    1.90
  -2  -5  13   -1.50    1.00
   2  -5 -13    0.40    1.00
   2  -5 -13    0.80    1.60
   2  -5 -13   -2.20    1.00
   2   5 -13    1.10    1.40
  -2   5  13    0.40    1.40
  -2   5  13   -0.50    1.40
   1  -5 -13    2.50    1.60
  -1  -5  13    0.00    1.10
   1  -5 -13    0.00    1.50
   1  -5 -13    1.10    1.10
  -1  -5  13    1.70    1.20
   1   5 -13    0.80    1.10
  -1   5  13    0.90    1.40
  -1   5  13    0.70    1.30
   6   0 -14    9.40    1.80
  -6   0  14    8.90    1.60
  -6   0  14    7.90    1.50
   5   0 -14    2.90    1.20
  -5   0  14    1.80    0.90
  -5   0  14    3.20    1.20
   4   0 -14    0.90    0.90
   4   0 -14   -0.10    1.40
   4   0 -14   -0.20    1.20
  -4   0  14    2.40    1.40
   3   0 -14    2.10    1.70
   3   0 -14    4.60    1.50
   3   0 -14    6.40    1.50
   2   0 -14   36.30    2.90
  -2   0  14   35.40    2.40
   2   0 -14   37.40    2.60
  -1   0  14   -0.80    0.90
  -1   0  14   -0.30    1.20
   1   0 -14    1.10    1.30
   1   0 -14    0.80    1.10
   0   0  14    2.00    1.00
   0   0 -14    1.60    1.20
   0   0  14    1.20    1.00
   1   0  14    4.00    1.30
   1   0  14    3.30    1.50
  -1   0 -14    0.90    1.10
   6  -1 -14    1.70    1.60
  -6  -1  14    0.50    0.90
  -6  -1  14   -0.70    1.00
   6   1 -14    0.60    1.50
  -6   1  14    0.70    1.30
   5  -1 -14    2.30    1.50
  -5  -1  14    2.10    1.00
   5  -1 -14    0.40    1.00
  -5  -1  14    0.80    0.90
   5   1 -14    1.70    1.40
  -5   1  14    0.50    1.00
   5   1 -14    1.80    1.10
  -4  -1  14   51.19    2.60
   4  -1 -14   48.70    2.70
   4  -1 -14   54.29    3.50
   4  -1 -14   50.69    3.70
   4   1 -14   52.59    3.20
  -4   1  14   49.40    3.40
   4   1 -14   43.00    2.80
   3  -1 -14    0.60    1.00
   3  -1 -14    1.70    1.20
   3  -1 -14   -1.00    1.10
  -3   1  14    2.60    1.40
   3   1 -14    1.00    0.90
   3   1 -14    1.60    1.60
   3   1 -14    0.70    0.80
  -3   1  14   -0.50    0.90
   2  -1 -14    6.50    1.60
  -2  -1  14    7.20    1.40
   2  -1 -14    8.60    1.70
   2  -1 -14    6.70    1.50
  -2   1  14    8.40    1.40
   2   1 -14    5.10    1.10
   2   1 -14    8.30    1.80
   2   1 -14    8.30    1.70
   1  -1 -14    2.20    1.10
   1  -1 -14    3.70    1.70
  -1  -1  14    2.80    1.10
  -1  -1  14    1.90    1.20
  -1   1  14    1.80    0.90
   1   1 -14   -0.60    1.40
   1   1 -14    2.10    1.40
   0  -1 -14    4.10    1.80
   0  -1  14    3.60    1.10
   0  -1  14    3.50    1.00
   0   1 -14    2.30    1.10
   0   1  14    4.30    1.50
   0   1 -14    1.70    1.50
   0   1  14    1.30    1.20
  -1  -1 -14    0.80    1.50
   1  -1  14   -0.20    0.80
   1  -1  14   -0.20    1.20
  -1   1 -14   -0.50    1.30
  -1   1 -14   -0.90    0.80
   1   1  14    0.40    1.20
   1   1  14    0.90    0.90
   6  -2 -14    9.00    1.90
  -6  -2  14   14.10    1.90
  -6  -2  14   12.10    1.90
   6  -2 -14   14.70    2.50
  -6   2  14   13.10    2.10
   6   2 -14   10.50    2.00
   6   2 -14   14.50    2.30
   5  -2 -14   -0.10    0.90
   5  -2 -14   -0.20    1.40
  -5  -2  14   -0.40    0.70
   5   2 -14    0.20    0.90
   5   2 -14    1.40    1.30
  -5   2  14    0.20    1.30
  -4  -2  14    7.90    1.30
   4  -2 -14    8.30    1.90
   4  -2 -14    8.80    1.70
  -4   2  14    3.30    1.30
   4   2 -14    7.30    1.40
   4   2 -14    4.50    1.40
  -4   2  14   10.30    1.70
   3  -2 -14    3.60    1.40
   3  -2 -14    2.10    0.90
  -3  -2  14    1.10    1.00
   3  -2 -14    3.80    1.50
  -3   2  14    2.30    1.20
   3   2 -14    1.60    1.20
  -3   2  14    3.90    1.20
   3   2 -14    1.20    1.40
   2  -2 -14   51.09    3.30
  -2  -2  14   48.40    3.00
   2  -2 -14   50.89    3.30
   2   2 -14   60.09    4.10
  -2   2  14   53.89    3.50
   2   2 -14   45.80    3.00
  -1  -2  14    2.40    1.10
   1  -2 -14    2.80    1.10
   1  -2 -14    1.80    1.60
   1   2 -14    1.50    1.70
  -1   2  14    2.60    1.10
  -1   2  14    4.20    1.20
   1   2 -14    2.30    1.50
   0  -2 -14    0.10    0.70
   0  -2  14    1.00    1.10
   0  -2 -14    0.20    1.50
   0  -2  14   -0.40    1.10
   0   2 -14   -0.90    1.30
   0   2 -14    0.50    1.40
   0   2  14   -0.70    1.20
  -1  -2 -14    1.30    1.60
   1  -2  14    1.10    1.00
  -1  -2 -14   -0.60    1.40
  -1   2 -14    0.50    1.50
  -5  -3  14    8.00    1.30
   5  -3 -14    8.00    1.90
   5  -3 -14   10.90    2.20
   5  -3 -14    7.90    1.40
  -5   3  14    5.60    1.50
  -5   3  14    8.90    2.10
   5   3 -14   13.40    2.10
   5   3 -14    8.80    1.90
   4  -3 -14   30.20    3.00
  -4  -3  14   33.20    2.50
   4  -3 -14   31.70    3.10
   4  -3 -14   28.10    2.50
  -4   3  14   25.70    2.70
   4   3 -14   33.00    3.10
  -4   3  14   29.60    2.70
   4   3 -14   33.10    2.80
   3  -3 -14    2.70    1.50
  -3  -3  14    1.10    1.00
   3  -3 -14    1.60    1.10
  -3   3  14    0.30    1.10
  -3   3  14    2.80    1.40
   3   3 -14    2.40    1.50
  -2  -3  14    7.50    1.50
   2  -3 -14    8.70    1.80
  -2  -3  14    8.20    1.40
   2  -3 -14    8.60    1.90
  -2   3  14   14.90    2.30
   2   3 -14   13.60    2.20
  -2   3  14   12.10    1.90
  -1  -3  14    5.40    1.40
   1  -3 -14    2.50    1.70
   1  -3 -14    4.10    1.20
  -1   3  14    3.30    1.20
  -1   3  14    2.60    1.10
   1   3 -14    3.60    1.60
   0  -3 -14   -2.90    1.30
   0  -3 -14    0.10    1.00
   0  -3  14   -0.80    1.10
   0   3 -14    2.10    1.60
   0   3 -14    0.70    1.40
   0   3  14   -0.40    0.80
   0   3  14    1.40    1.40
   3  -4 -14   -1.30    1.30
  -3  -4  14    0.20    1.00
   3  -4 -14   -0.10    1.50
   3  -4 -14   -0.40    1.00
   3   4 -14    1.70    1.20
  -3   4  14   -1.40    1.30
  -3   4  14    0.30    1.20
  -2  -4  14   26.70    2.30
   2  -4 -14   25.40    2.60
   2  -4 -14   27.50    2.90
   2  -4 -14   25.50    2.50
  -2   4  14   27.10    2.80
  -2   4  14   28.40    2.90
   2   4 -14   26.50    2.70
   4   0 -15    3.80    1.50
   4   0 -15    5.40    1.40
   4   0 -15    2.70    1.30
  -4   0  15    0.70    1.00
   3   0 -15   44.40    3.40
   3   0 -15   43.90    3.20
   2   0 -15   16.80    2.00
   2   0 -15   24.00    2.90
   2   0 -15   17.50    2.30
  -1   0  15    1.30    1.10
   1   0 -15    0.40    1.10
   1   0 -15    1.70    1.60
   4  -1 -15    2.30    1.40
   4  -1 -15    1.30    1.40
   4   1 -15    1.40    1.40
  -4   1  15    2.10    1.20
   4   1 -15    2.80    1.30
   3  -1 -15    9.40    1.90
   3  -1 -15    9.30    1.60
   3  -1 -15    9.10    1.80
   3   1 -15    7.90    2.20
   3   1 -15    9.00    1.80
  -3   1  15    7.60    1.60
   3   1 -15    8.70    1.50
   2  -1 -15    7.30    1.80
   2  -1 -15    8.40    1.70
   2  -1 -15    6.70    1.70
  -2   1  15    4.10    1.40
   2   1 -15    7.60    1.90
   2   1 -15    6.80    2.10
  -2   1  15    4.40    1.70
  -1  -1  15   10.20    1.70
   1  -1 -15   11.10    2.00
   1   1 -15    8.40    2.20
   3  -2 -15   23.10    2.70
  -2  -2  15    6.20    1.50
   0   0   0    0.00    0.00

_computing_structure_solution     'SHELXT 2014/5 (Sheldrick, 2014)'
;
loop_
_space_group_symop_operation_xyz
'x, y, z'
'-x, y+1/2, -z'
'-x, -y, -z'
'x, -y-1/2, z'
loop_
_atom_site_label
_atom_site_type_symbol
_atom_site_fract_x
_atom_site_fract_y
_atom_site_fract_z
_atom_site_U_iso_or_equiv
_atom_site_adp_type
_atom_site_occupancy
_atom_site_site_symmetry_order
_atom_site_calc_flag
_atom_site_refinement_flags_posn
_atom_site_refinement_flags_adp
_atom_site_refinement_flags_occupancy
_atom_site_disorder_assembly
_atom_site_disorder_group
F1 F 0.43896(17) 0.2500 0.08691(10) 0.0588(4) Uani 1 2 d S T P . .
F2 F 0.67754(12) 0.40673(15) 0.23115(9) 0.0573(3) Uani 1 1 d . . . . .
O1 O 0.85926(15) 0.2500 0.52269(12) 0.0416(3) Uani 1 2 d S T P . .
O2 O 0.70241(15) 0.2500 0.69374(10) 0.0336(2) Uani 1 2 d S T P . .
N1 N 0.16706(17) 0.2500 0.39173(13) 0.0314(3) Uani 1 2 d S T P . .
N2 N 0.23079(17) 0.2500 0.27439(13) 0.0319(3) Uani 1 2 d S T P . .
C3 C 0.43220(19) 0.2500 0.32107(13) 0.0263(2) Uani 1 2 d S T P . .
C4 C 0.49813(18) 0.2500 0.46784(13) 0.0235(2) Uani 1 2 d S T P . .
C5 C 0.31902(19) 0.2500 0.50850(14) 0.0272(3) Uani 1 2 d S T P . .
H5 H 0.3066 0.2500 0.6015 0.033 Uiso 1 2 calc R U P . .
C6 C 0.70491(19) 0.2500 0.56073(14) 0.0265(3) Uani 1 2 d S T P . .
C7 C 0.8989(2) 0.2500 0.79805(16) 0.0369(3) Uani 1 2 d S T P . .
H7A H 0.9783 0.3688 0.7875 0.044 Uiso 1 1 d R U . . .
C8 C 0.8546(3) 0.2500 0.93749(18) 0.0520(5) Uani 1 2 d S T P . .
H8A H 0.9829 0.2500 1.0112 0.078 Uiso 1 2 d R U P . .
H8B H 0.7758 0.1318 0.9463 0.078 Uiso 1 1 d R U . . .
C9 C 0.5551(2) 0.2500 0.21712(15) 0.0363(3) Uani 1 2 d S T P . .
H1N H 0.041(3) 0.2500 0.387(2) 0.042(5) Uiso 1 2 d S . P . .
loop_
_atom_site_aniso_label
_atom_site_aniso_U_11
_atom_site_aniso_U_22
_atom_site_aniso_U_33
_atom_site_aniso_U_23
_atom_site_aniso_U_13
_atom_site_aniso_U_12
F1 0.0439(6) 0.1082(11) 0.0249(4) 0.000 0.0099(4) 0.000
F2 0.0538(4) 0.0765(6) 0.0515(4) -0.0006(4) 0.0311(4) -0.0230(4)
O1 0.0214(4) 0.0703(8) 0.0351(5) 0.000 0.0109(4) 0.000
O2 0.0229(4) 0.0531(7) 0.0239(4) 0.000 0.0048(3) 0.000
N1 0.0187(4) 0.0442(7) 0.0329(6) 0.000 0.0093(4) 0.000
N2 0.0226(5) 0.0444(7) 0.0284(5) 0.000 0.0062(4) 0.000
C3 0.0213(5) 0.0336(6) 0.0251(5) 0.000 0.0081(4) 0.000
C4 0.0200(5) 0.0272(6) 0.0246(5) 0.000 0.0080(4) 0.000
C5 0.0225(5) 0.0334(6) 0.0281(6) 0.000 0.0108(4) 0.000
C6 0.0215(5) 0.0317(6) 0.0266(6) 0.000 0.0068(4) 0.000
C7 0.0251(6) 0.0507(9) 0.0301(6) 0.000 -0.0008(5) 0.000
C8 0.0455(9) 0.0783(14) 0.0265(7) 0.000 -0.0001(6) 0.000
C9 0.0298(6) 0.0544(9) 0.0271(6) 0.000 0.0116(5) 0.000
loop_
_atom_type_symbol
_atom_type_description
_atom_type_scat_dispersion_real
_atom_type_scat_dispersion_imag
_atom_type_scat_source
C C 0.0033 0.0016 'International Tables Vol C Tables 4.2.6.8 and 6.1.1.4'
H H 0.0000 0.0000 'International Tables Vol C Tables 4.2.6.8 and 6.1.1.4'
N N 0.0061 0.0033 'International Tables Vol C Tables 4.2.6.8 and 6.1.1.4'
O O 0.0106 0.0060 'International Tables Vol C Tables 4.2.6.8 and 6.1.1.4'
F F 0.0171 0.0103 'International Tables Vol C Tables 4.2.6.8 and 6.1.1.4'
loop_
_geom_angle_atom_site_label_1
_geom_angle_atom_site_label_2
_geom_angle_atom_site_label_3
_geom_angle
_geom_angle_site_symmetry_1
_geom_angle_site_symmetry_3
C6 O2 C7 117.11(11) . .
C5 N1 N2 113.50(11) . .
C5 N1 H1N 126.2(15) . .
N2 N1 H1N 120.3(15) . .
C3 N2 N1 103.79(11) . .
N2 C3 C4 112.20(11) . .
N2 C3 C9 118.44(12) . .
C4 C3 C9 129.35(12) . .
C5 C4 C3 103.86(11) . .
C5 C4 C6 126.21(12) . .
C3 C4 C6 129.93(11) . .
N1 C5 C4 106.64(11) . .
N1 C5 H5 126.7 . .
C4 C5 H5 126.7 . .
O1 C6 O2 123.69(12) . .
O1 C6 C4 125.01(12) . .
O2 C6 C4 111.30(11) . .
O2 C7 C8 106.59(13) . .
O2 C7 H7A 110.4 . .
C8 C7 H7A 110.4 . .
C7 C8 H8A 109.5 . .
C7 C8 H8B 109.5 . .
H8A C8 H8B 109.5 . .
F1 C9 F2 107.24(9) . .
F1 C9 F2 107.24(9) . 4_565
F2 C9 F2 105.43(13) . 4_565
F1 C9 C3 112.13(12) . .
F2 C9 C3 112.19(8) . .
F2 C9 C3 112.19(8) 4_565 .
loop_
_geom_bond_atom_site_label_1
_geom_bond_atom_site_label_2
_geom_bond_distance
_geom_bond_site_symmetry_2
F1 C9 1.3249(18) .
F2 C9 1.3336(12) .
O1 C6 1.2077(15) .
O2 C6 1.3261(16) .
O2 C7 1.4583(17) .
N1 C5 1.3335(17) .
N1 N2 1.3477(17) .
N1 H1N 0.85(2) .
N2 C3 1.3257(17) .
C3 C4 1.4070(18) .
C3 C9 1.4921(19) .
C4 C5 1.3829(16) .
C4 C6 1.4640(17) .
C5 H5 0.9500 .
C7 C8 1.494(2) .
C7 H7A 0.9900 .
C8 H8A 0.9800 .
C8 H8B 0.9800 .
C9 F2 1.3336(12) 4_565
