#------------------------------------------------------------------------------
#$Date: 2022-05-16 12:12:19 +0300 (Mon, 16 May 2022) $
#$Revision: 275449 $
#$URL: file:///home/coder/svn-repositories/cod/cif/8/10/52/8105271.cif $
#------------------------------------------------------------------------------
#
# This file is available in the Crystallography Open Database (COD),
# http://www.crystallography.net/
#
# All data on this site have been placed in the public domain by the
# contributors.
#
data_8105271
loop_
_publ_author_name
'Li, Shu-Jing'
'Li, Ke'
'Li, Yi-Wen'
_publ_section_title
;
 The crystal structure of 3-bromoisonicotinic acid, C6H4BrNO2
;
_journal_issue                   3
_journal_name_full
'Zeitschrift f\"ur Kristallographie - New Crystal Structures'
_journal_page_first              731
_journal_page_last               732
_journal_paper_doi               10.1515/ncrs-2019-0933
_journal_volume                  235
_journal_year                    2020
_chemical_formula_moiety         'C6 H4 Br N O2'
_chemical_formula_sum            'C6 H4 Br N O2'
_chemical_formula_weight         202.00
_space_group_crystal_system      triclinic
_space_group_IT_number           2
_space_group_name_Hall           '-P 1'
_space_group_name_H-M_alt        'P -1'
_atom_sites_solution_hydrogens   mixed
_cell_angle_alpha                65.065(4)
_cell_angle_beta                 68.858(4)
_cell_angle_gamma                64.919(4)
_cell_formula_units_Z            2
_cell_length_a                   7.2512(6)
_cell_length_b                   7.3916(6)
_cell_length_c                   7.4920(7)
_cell_measurement_reflns_used    3527
_cell_measurement_temperature    150(2)
_cell_measurement_theta_max      26.44
_cell_measurement_theta_min      3.18
_cell_volume                     321.60(5)
_computing_cell_refinement       'SAINT v8.37A (Bruker, 2015) [1]'
_computing_data_collection       'Bruker APEX-II'
_computing_data_reduction        'SAINT v8.37A (Bruker, 2015) [1]'
_computing_molecular_graphics    'Olex2 (Dolomanov et al., 2009) [4]'
_computing_publication_material  'Olex2 (Dolomanov et al., 2009) [4]'
_computing_structure_refinement  'olex2.refine (Bourhis et al., 2015) [3]'
_computing_structure_solution    'ShelXT (Sheldrick, 2015) [2]'
_diffrn_ambient_temperature      150.0
_diffrn_measured_fraction_theta_full 1.000
_diffrn_measured_fraction_theta_max 1.000
_diffrn_measurement_device       'Bruker APEX-II diffractometer'
_diffrn_measurement_device_type  'Bruker APEX-II CCD'
_diffrn_measurement_method       '\f and \w scans'
_diffrn_radiation_type           MoK\a
_diffrn_radiation_wavelength     0.71073
_diffrn_reflns_av_R_equivalents  0.0607
_diffrn_reflns_av_unetI/netI     0.0416
_diffrn_reflns_Laue_measured_fraction_full 1.000
_diffrn_reflns_Laue_measured_fraction_max 1.000
_diffrn_reflns_limit_h_max       8
_diffrn_reflns_limit_h_min       -8
_diffrn_reflns_limit_k_max       9
_diffrn_reflns_limit_k_min       -9
_diffrn_reflns_limit_l_max       9
_diffrn_reflns_limit_l_min       -9
_diffrn_reflns_number            7419
_diffrn_reflns_point_group_measured_fraction_full 1.000
_diffrn_reflns_point_group_measured_fraction_max 1.000
_diffrn_reflns_theta_full        25.242
_diffrn_reflns_theta_max         26.017
_diffrn_reflns_theta_min         3.075
_diffrn_standards_number         0
_exptl_absorpt_coefficient_mu    6.316
_exptl_absorpt_correction_T_max  0.7454
_exptl_absorpt_correction_T_min  0.4575
_exptl_absorpt_correction_type   multi-scan
_exptl_absorpt_process_details
;
SADABS-2016/2 (Bruker,2016/2) was used for absorption correction.
wR2(int) was 0.1011 before and 0.0737 after correction.
The Ratio of minimum to maximum transmission is 0.6138.
The \l/2 correction factor is Not present.
;
_exptl_crystal_colour            colorless
_exptl_crystal_density_diffrn    2.086
_exptl_crystal_density_method    'not measured'
_exptl_crystal_description       block
_exptl_crystal_F_000             196
_exptl_crystal_size_max          0.25
_exptl_crystal_size_mid          0.15
_exptl_crystal_size_min          0.1
_refine_diff_density_max         0.710
_refine_diff_density_min         -0.850
_refine_diff_density_rms         0.153
_refine_ls_extinction_coef       .
_refine_ls_extinction_method     none
_refine_ls_goodness_of_fit_ref   1.091
_refine_ls_hydrogen_treatment    mixed
_refine_ls_matrix_type           full
_refine_ls_number_parameters     95
_refine_ls_number_reflns         1263
_refine_ls_number_restraints     0
_refine_ls_restrained_S_all      1.091
_refine_ls_R_factor_all          0.0447
_refine_ls_R_factor_gt           0.0369
_refine_ls_shift/su_max          0.001
_refine_ls_shift/su_mean         0.000
_refine_ls_structure_factor_coef Fsqd
_refine_ls_weighting_details
'w=1/[\s^2^(Fo^2^)+(0.0675P)^2^] where P=(Fo^2^+2Fc^2^)/3'
_refine_ls_weighting_scheme      calc
_refine_ls_wR_factor_gt          0.0973
_refine_ls_wR_factor_ref         0.1017
_reflns_Friedel_coverage         0.000
_reflns_Friedel_fraction_full    .
_reflns_Friedel_fraction_max     .
_reflns_number_gt                1119
_reflns_number_total             1263
_reflns_threshold_expression     'I > 2\s(I)'
_cod_data_source_file            suppl_ncrs-2019-0933_suppl.cif
_cod_data_source_block           1
_cod_database_code               8105271
_shelx_space_group_comment
;
The symmetry employed for this shelxl refinement is uniquely defined
by the following loop, which should always be used as a source of
symmetry information in preference to the above space-group names.
They are only intended as comments.
;
_shelx_estimated_absorpt_t_max   0.571
_shelx_estimated_absorpt_t_min   0.301
_olex2_refinement_description
;
1. Fixed Uiso
 At 1.2 times of:
  All C(H) groups
2.a Aromatic/amide H refined with riding coordinates:
 C4(H4), C5(H5), C6(H6)
;
_shelx_res_file
;
TITL 1.res in P-1
    1.res
    created by SHELXL-2018/3 at 11:21:41 on 24-Dec-2019
CELL 0.71073 7.2512 7.3916 7.492 65.065 68.858 64.919
ZERR 2 0.0006 0.0006 0.0007 0.004 0.004 0.004
LATT 1
SFAC C H Br O N
UNIT 12 8 2 4 2

L.S. 10
PLAN  20
SIZE 0.25 0.15 0.1
TEMP -123.15
BOND $H
fmap 2
acta
REM <olex2.extras>
REM <HklSrc "%.\\1.hkl">
REM </olex2.extras>

WGHT    0.067500
FVAR       0.84214
BR1   3    0.314427    0.079988    0.772198    11.00000    0.04701    0.01328 =
         0.02019   -0.00353   -0.00795   -0.01111
C1    1    0.243389    0.489421    0.902093    11.00000    0.01841    0.01549 =
         0.01267   -0.00520   -0.00336   -0.00457
C2    1    0.240557    0.526344    0.689109    11.00000    0.01721    0.01478 =
         0.01403   -0.00698   -0.00212   -0.00538
C3    1    0.268427    0.366664    0.615973    11.00000    0.01841    0.01348 =
         0.01129   -0.00408   -0.00174   -0.00705
C4    1    0.266630    0.415341    0.419263    11.00000    0.02324    0.01686 =
         0.01880   -0.01078   -0.00367   -0.00696
AFIX  43
H4    2    0.286606    0.305172    0.373367    11.00000   -1.20000
AFIX   0
C5    1    0.210512    0.765705    0.353383    11.00000    0.02495    0.01564 =
         0.01881   -0.00522   -0.00811   -0.00543
AFIX  43
H5    2    0.189642    0.905180    0.261850    11.00000   -1.20000
AFIX   0
C6    1    0.211557    0.728413    0.550460    11.00000    0.01907    0.01592 =
         0.01844   -0.00732   -0.00547   -0.00446
AFIX  43
H6    2    0.192299    0.841823    0.591350    11.00000   -1.20000
AFIX   0
H1    2    0.273965    0.632746    1.046370    11.00000    0.05620
N1    5    0.238074    0.610857    0.287826    11.00000    0.02239    0.01965 =
         0.01623   -0.00832   -0.00415   -0.00601
O1    4    0.262257    0.651123    0.916238    11.00000    0.04609    0.02335 =
         0.01644   -0.00653   -0.00691   -0.01883
O2    4    0.227828    0.331374    1.040507    11.00000    0.03817    0.01753 =
         0.01570   -0.00337   -0.00559   -0.01197
HKLF 4




REM  1.res in P-1
REM wR2 = 0.1017, GooF = S = 1.091, Restrained GooF = 1.091 for all data
REM R1 = 0.0369 for 1119 Fo > 4sig(Fo) and 0.0447 for all 1263 data
REM 95 parameters refined using 0 restraints

END

WGHT      0.0675      0.0000

REM Highest difference peak  0.710,  deepest hole -0.850,  1-sigma level  0.153
Q1    1   0.3418 -0.0035  0.6383  11.00000  0.05    0.71
Q2    1   0.4108 -0.0023  0.6350  11.00000  0.05    0.69
Q3    1   0.2816  0.1578  0.9039  11.00000  0.05    0.68
Q4    1   0.3011 -0.1014  0.9234  11.00000  0.05    0.67
Q5    1   0.1938  0.1547  0.9115  11.00000  0.05    0.66
Q6    1   0.4995  0.1519  0.4241  11.00000  0.05    0.55
Q7    1   0.4483  0.2896  0.4735  11.00000  0.05    0.54
Q8    1   0.2759  0.2608  0.6281  11.00000  0.05    0.50
Q9    1   0.0874  0.3657  0.9659  11.00000  0.05    0.47
Q10   1   0.4973  0.6512  0.9735  11.00000  0.05    0.46
Q11   1   0.0207  0.3533  0.6863  11.00000  0.05    0.46
Q12   1   0.2677  0.5000  0.7902  11.00000  0.05    0.44
Q13   1   0.4542  0.2083  0.6583  11.00000  0.05    0.44
Q14   1   0.2566  0.4180  0.5475  11.00000  0.05    0.42
Q15   1   0.0774  0.4545  1.0379  11.00000  0.05    0.41
Q16   1   0.5013  0.1572  0.7983  11.00000  0.05    0.41
Q17   1   0.4478  0.5577  0.9580  11.00000  0.05    0.40
Q18   1   0.4073  0.2552  1.1143  11.00000  0.05    0.39
Q19   1   0.1616  0.6740  1.0672  11.00000  0.05    0.39
Q20   1   0.4002  0.6806  1.0011  11.00000  0.05    0.39
;
_shelx_hkl_file
;
  -1   0   0  285.27   16.30
  -1   0   0  267.77   15.90
  -1   0   0  261.47   16.30
   1   0   0  290.47   18.50
   1   0   0  264.57   15.90
   1   0   0  266.17   16.30
  -2   0   0 9182.28  533.65
  -2   0   0 9394.06  533.65
  -2   0   0 9762.52  534.55
   2   0   0 9123.19  533.65
   2   0   0 9999.00  534.65
  -3   0   0  623.94   40.20
  -3   0   0  637.54   38.10
  -3   0   0  642.04   39.70
  -3   0   0  647.54   38.30
   3   0   0  647.64   39.60
   3   0   0  670.13   38.40
  -4   0   0  949.60   56.09
  -4   0   0  974.00   59.09
  -4   0   0  934.61   56.49
  -4   0   0  908.11   57.99
   4   0   0  995.50   56.69
   4   0   0  971.80   58.39
  -5   0   0  168.58   19.10
  -5   0   0  168.18   13.40
  -5   0   0  151.88   17.90
   5   0   0  103.79   25.50
   5   0   0  123.39   17.80
   5   0   0  131.69   14.70
  -6   0   0   11.50   14.90
  -6   0   0   10.70    9.80
   6   0   0    5.20    5.60
   6   0   0   12.20    8.00
   6   0   0   10.20   21.50
  -7   0   0   -4.20    7.10
  -7   0   0    9.10    5.90
  -7   0   0   -6.00   10.10
  -7   0   0    5.80   17.70
  -7   0   0   10.60   15.90
  -7   0   0    6.40    5.80
   7   0   0  -14.00    7.40
   7   0   0    4.20    6.10
   7   0   0   13.40   23.70
   7  -1   0   35.90   28.50
   7  -1   0   17.90   11.80
   7  -1   0   27.70   10.00
  -7   1   0   63.29   20.90
  -7   1   0   37.50   10.60
  -7   1   0   59.59   20.30
  -7   1   0   35.00    9.10
   6  -1   0   73.39   11.50
   6  -1   0   79.19   28.40
  -6   1   0   91.09   17.60
  -6   1   0   66.79   11.90
  -6   1   0  100.69   14.90
  -6   1   0   70.99    9.60
   5  -1   0  381.76   27.00
   5  -1   0  423.76   26.70
  -5   1   0  371.66   27.40
  -5   1   0  366.96   31.30
   4  -1   0   -1.50    4.90
   4  -1   0    4.50   16.30
   4  -1   0   -2.00    4.60
  -4   1   0    3.60    5.40
  -4   1   0    7.00    5.30
  -4   1   0    5.40    7.60
   3  -1   0  782.82   52.29
   3  -1   0  726.23   42.80
  -3   1   0  693.83   44.70
  -3   1   0  702.73   43.00
  -3   1   0  696.13   44.00
  -3   1   0  699.43   43.00
   2  -1   0   99.09    8.70
   2  -1   0  108.19   10.60
   2  -1   0   96.89    8.90
  -2   1   0  108.39    9.60
  -2   1   0  109.19    9.10
  -2   1   0  107.29   10.30
  -2   1   0  101.29    9.00
   1  -1   0   58.59    6.40
   1  -1   0   56.39    5.90
   1  -1   0   53.29    5.50
  -1   1   0   59.09    5.90
  -1   1   0   58.99    5.90
  -1   1   0   49.70    5.60
  -1   1   0   57.39    6.30
   0  -1   0   38.70    4.30
   0  -1   0   34.10    4.30
   0  -1   0   36.20    4.10
   0   1   0   37.20    4.20
   0   1   0   39.60    4.20
   0   1   0   40.10    3.70
   0   1   0   44.60    4.20
  -1  -1   0  785.52   45.40
  -1  -1   0  808.32   45.50
  -1  -1   0  793.32   45.80
  -1  -1   0  778.62   45.70
   1   1   0  800.32   45.50
   1   1   0  807.12   45.70
   1   1   0  769.02   45.30
   1   1   0  821.52   45.80
  -2  -1   0 1469.75   85.89
  -2  -1   0 1561.14   85.79
  -2  -1   0 1280.97   85.69
  -2  -1   0 1466.55   84.99
   2   1   0 1485.85   85.89
   2   1   0 1685.43   88.09
   2   1   0 1506.35   85.89
   2   1   0 1537.95   85.59
   2   1   0 1532.05   85.09
  -3  -1   0  943.61   54.39
  -3  -1   0  928.81   53.19
  -3  -1   0  899.91   55.09
  -3  -1   0  862.31   54.49
   3   1   0  917.31   54.89
   3   1   0  902.71   58.19
   3   1   0  970.10   55.39
   3   1   0 1027.80   54.49
  -4  -1   0 2042.80  112.99
  -4  -1   0 1990.10  112.09
  -4  -1   0 2016.20  114.89
   4   1   0 2003.50  114.79
   4   1   0 1928.21  119.09
   4   1   0 2152.98  113.69
   4   1   0 1700.73  113.39
  -5  -1   0  160.38   16.60
  -5  -1   0  136.49    9.90
  -5  -1   0   98.59   14.20
  -5  -1   0  127.49   11.50
   5   1   0  128.99   11.00
   5   1   0  153.08   12.90
   5   1   0  126.79   21.20
  -6  -1   0 1038.00   58.99
  -6  -1   0  981.60   63.59
  -6  -1   0 1005.60   65.19
  -6  -1   0  992.90   57.49
  -6  -1   0  942.51   60.39
   6   1   0 1038.60   58.89
   6   1   0 1059.29   71.79
   6   1   0  956.20   64.79
   6   1   0  966.40   58.09
  -7  -1   0    1.00   14.10
  -7  -1   0   -9.10   16.70
  -7  -1   0   -5.70    7.00
  -7  -1   0    0.40    3.00
   7   1   0   -1.90   21.80
   7   1   0   -1.10    3.00
   7   1   0   -3.30    4.00
  -8  -1   0  194.78   29.70
  -8  -1   0  153.18   12.60
  -8  -1   0  158.18   27.60
  -8  -1   0  184.98   11.70
   8   1   0  245.08   40.30
   7  -2   0   47.70   33.10
   7  -2   0   84.29   15.70
  -7   2   0   73.99   24.80
  -7   2   0   58.59   13.60
  -7   2   0   76.59   16.70
  -7   2   0   78.09   15.50
  -7   2   0   48.90   23.90
   6  -2   0    1.70    9.90
   6  -2   0   -5.20   24.30
   6  -2   0    7.60   10.00
  -6   2   0   14.60   17.10
  -6   2   0   -4.50    8.80
  -6   2   0   46.10   16.60
  -6   2   0    0.00   10.00
  -6   2   0   14.30   10.80
   5  -2   0  225.98   40.00
   5  -2   0  287.17   25.10
   5  -2   0  310.27   25.10
  -5   2   0  332.17   23.90
  -5   2   0  318.87   25.60
  -5   2   0  326.57   30.50
  -5   2   0  345.97   36.30
  -5   2   0  331.97   25.80
   4  -2   0  329.07   38.80
   4  -2   0  368.16   26.10
  -4   2   0  363.46   26.60
  -4   2   0  355.76   25.00
  -4   2   0  364.06   29.70
  -4   2   0  383.86   28.40
   3  -2   0  126.49   13.70
   3  -2   0  129.39   13.70
   3  -2   0  119.79   15.50
  -3   2   0  143.49   14.00
  -3   2   0  143.89   14.60
  -3   2   0  144.69   15.60
  -3   2   0  126.69   13.60
   2  -2   0 1152.58   67.39
   2  -2   0 1184.68   68.29
   2  -2   0 1113.09   67.29
  -2   2   0 1144.09   68.19
  -2   2   0 1142.49   67.39
  -2   2   0 1137.09   67.29
  -2   2   0 1104.09   67.29
   1  -2   0  355.76   23.40
   1  -2   0  364.16   23.30
   1  -2   0  368.06   23.60
  -1   2   0  337.67   22.60
  -1   2   0  340.87   23.20
  -1   2   0  369.36   23.40
  -1   2   0  363.46   23.60
   0  -2   0  409.86   25.50
   0  -2   0  412.66   26.00
   0  -2   0  388.76   25.60
   0   2   0  404.16   25.80
   0   2   0  420.26   25.90
   0   2   0  415.96   25.60
   0   2   0  406.96   25.00
  -1  -2   0 2396.86  135.19
  -1  -2   0 2372.66  135.19
  -1  -2   0 2345.87  134.39
  -1  -2   0 2362.76  135.09
   1   2   0 2323.57  134.39
   1   2   0 2420.86  135.29
   1   2   0 2351.46  135.09
  -2  -2   0  224.48   14.40
  -2  -2   0  223.58   15.70
  -2  -2   0  235.28   15.60
   2   2   0  210.68   14.60
   2   2   0  236.38   15.70
   2   2   0  220.08   14.50
   2   2   0  227.18   15.40
   2   2   0  235.68   14.80
  -3  -2   0 1175.48   68.59
  -3  -2   0 1192.58   69.69
  -3  -2   0 1236.08   70.19
   3   2   0 1215.08   68.79
   3   2   0 1206.78   69.79
   3   2   0 1178.18   70.19
   3   2   0 1183.98   69.49
  -4  -2   0  602.24   36.50
  -4  -2   0  597.94   37.60
  -4  -2   0  582.64   34.80
   4   2   0  589.74   37.30
   4   2   0  606.04   36.00
   4   2   0  585.14   37.60
  -5  -2   0   58.59    6.00
  -5  -2   0   67.99    8.80
  -5  -2   0   28.90    8.90
   5   2   0   30.20    8.50
   5   2   0   47.10    6.50
   5   2   0   62.39   14.90
  -6  -2   0  136.39   13.70
  -6  -2   0  112.49    8.70
   6   2   0  120.19   11.10
   6   2   0  105.69   11.00
   6   2   0  136.79   23.00
   6   2   0  141.59   18.60
  -7  -2   0   19.10    6.40
  -7  -2   0   -9.90   13.00
   7   2   0   14.50    4.40
   7   2   0   16.50   18.50
   7   2   0   14.80    3.90
   7   2   0    6.00   11.80
  -8  -2   0    2.20    3.50
  -8  -2   0   -3.30    4.00
  -8  -2   0  -18.80   21.70
   6  -3   0   35.20   14.00
   6  -3   0   55.09   34.10
   6  -3   0   44.10   14.40
  -6   3   0   29.30   15.20
  -6   3   0   31.40   20.50
  -6   3   0   51.79   21.30
  -6   3   0   37.20   13.20
  -6   3   0   11.10   14.00
   5  -3   0   20.70   25.80
   5  -3   0   39.20   12.50
  -5   3   0   41.60   12.70
  -5   3   0   36.70   10.90
  -5   3   0   66.79   15.00
  -5   3   0   20.80   15.90
  -5   3   0   24.40   12.30
   4  -3   0  503.15   34.00
  -4   3   0  468.85   32.50
  -4   3   0  418.66   34.40
  -4   3   0  420.76   33.30
  -4   3   0  477.45   33.90
   3  -3   0   84.89   13.10
   3  -3   0   79.89   12.20
   3  -3   0   69.89   10.90
  -3   3   0   63.99   12.40
  -3   3   0   71.29   11.30
  -3   3   0   94.29   11.00
  -3   3   0   65.99   11.30
   2  -3   0  998.50   62.09
   2  -3   0  983.70   61.69
   2  -3   0  982.50   61.39
  -2   3   0  991.60   60.49
  -2   3   0 1037.30   61.79
  -2   3   0 1066.69   62.39
  -2   3   0 1002.10   60.89
  -2   3   0  998.00   61.59
   1  -3   0 1404.46   86.19
   1  -3   0 1451.55   86.29
   1  -3   0 1489.55   86.29
  -1   3   0 1503.05   86.39
  -1   3   0 1411.86   86.09
  -1   3   0 1464.25   86.19
  -1   3   0 1491.55   85.29
   0  -3   0  310.27   22.30
   0  -3   0  315.87   21.60
   0  -3   0  295.87   21.60
   0   3   0  317.27   22.10
   0   3   0  298.77   20.60
   0   3   0  280.97   21.20
   0   3   0  311.27   22.10
  -1  -3   0 2301.37  132.79
  -1  -3   0 2348.76  132.59
  -1  -3   0 2258.27  132.29
   1   3   0 2253.07  132.49
   1   3   0 2274.97  131.59
   1   3   0 2403.46  132.89
   1   3   0 2252.87  132.29
  -2  -3   0  145.89   14.10
  -2  -3   0  146.59   12.80
  -2  -3   0  139.19   11.30
  -2  -3   0  151.18   13.40
   2   3   0  138.89   12.70
   2   3   0  144.09   11.00
   2   3   0  145.69   13.10
   2   3   0  138.99   11.50
  -3  -3   0  367.76   23.00
  -3  -3   0  375.06   24.70
  -3  -3   0  345.37   24.50
   3   3   0  366.16   23.70
   3   3   0  365.86   25.10
   3   3   0  367.46   24.50
   3   3   0  349.57   23.20
   3   3   0  365.26   23.30
  -4  -3   0  369.56   26.00
  -4  -3   0  376.86   26.70
  -4  -3   0  387.66   24.00
   4   3   0  391.26   24.40
   4   3   0  381.56   25.70
   4   3   0  366.16   26.00
   4   3   0  392.86   26.80
   4   3   0  388.36   25.70
  -5  -3   0   39.00    7.90
  -5  -3   0   35.90    9.00
  -5  -3   0   40.10    5.40
   5   3   0   48.40    9.60
   5   3   0   38.30    8.60
   5   3   0   48.80    9.30
   5   3   0   37.00    7.10
  -6  -3   0   63.29    7.60
  -6  -3   0   67.99   10.00
   6   3   0   61.39    8.50
   6   3   0   84.09   12.70
  -7  -3   0  144.19   16.90
  -7  -3   0   99.99   14.10
   7   3   0  112.79   16.40
   7   3   0   99.39   12.90
   7   3   0  115.19   12.30
  -8  -3   0    8.10    6.30
  -8  -3   0    0.80    6.20
   8   3   0    8.10   15.90
   5  -4   0   20.70   14.60
   5  -4   0   23.50   32.00
  -5   4   0   27.50   14.70
  -5   4   0    6.50   18.50
  -5   4   0   32.30   17.70
  -5   4   0   21.60   13.50
  -5   4   0   12.00   15.10
   4  -4   0  143.29   18.80
  -4   4   0  118.99   17.70
  -4   4   0  130.59   16.10
  -4   4   0  131.39   18.20
  -4   4   0  124.39   20.30
   3  -4   0  427.96   32.00
   3  -4   0  386.46   32.50
  -3   4   0  389.76   31.70
  -3   4   0  372.36   29.60
  -3   4   0  383.96   31.40
   2  -4   0   37.50   10.50
   2  -4   0   27.40   10.90
   2  -4   0   25.80   10.60
  -2   4   0   39.60    9.30
  -2   4   0   25.00    8.90
  -2   4   0   38.80   10.80
  -2   4   0   38.00   10.30
  -2   4   0   33.90   10.50
   1  -4   0 1213.38   74.49
   1  -4   0 1230.98   73.99
   1  -4   0 1162.38   73.79
  -1   4   0 1247.28   74.19
  -1   4   0 1160.58   73.69
  -1   4   0 1247.08   72.89
   0  -4   0  399.26   28.70
   0  -4   0  409.46   28.90
   0  -4   0  417.76   29.80
   0   4   0  413.06   29.20
   0   4   0  401.66   27.50
   0   4   0  391.26   28.80
   0   4   0  380.66   28.80
  -1  -4   0  646.64   40.30
  -1  -4   0  603.64   39.70
  -1  -4   0  613.94   40.70
   1   4   0  619.14   39.50
   1   4   0  598.64   38.50
   1   4   0  637.94   40.30
   1   4   0  567.74   39.90
  -2  -4   0 1438.56   86.29
  -2  -4   0 1458.85   86.59
  -2  -4   0 1497.55   86.69
   2   4   0 1410.16   83.59
   2   4   0 1405.96   85.99
   2   4   0 1439.86   84.79
   2   4   0 1490.05   86.49
  -3  -4   0   40.60    7.00
  -3  -4   0   46.50    9.00
  -3  -4   0   40.40   10.20
  -3  -4   0   48.50    9.50
   3   4   0   50.29    9.00
   3   4   0   43.80    7.20
   3   4   0   52.89    7.70
   3   4   0   36.00    8.50
  -4  -4   0  630.24   41.50
  -4  -4   0  564.84   41.00
  -4  -4   0  674.13   39.00
   4   4   0  639.44   40.90
   4   4   0  626.54   39.30
   4   4   0  661.73   41.80
   4   4   0  617.94   39.50
   4   4   0  645.44   40.00
  -5  -4   0  517.25   34.80
  -5  -4   0  501.75   31.80
   5   4   0  521.95   34.30
   5   4   0  517.45   32.80
   5   4   0  509.65   34.10
   5   4   0  511.05   34.20
   5   4   0  442.96   37.10
  -6  -4   0   21.50    9.30
  -6  -4   0    5.20   10.30
   6   4   0   18.90   10.80
   6   4   0   24.20   11.00
   6   4   0   16.10    9.20
   6   4   0   12.50    7.90
  -7  -4   0  235.38   28.40
  -7  -4   0  281.37   23.70
   7   4   0  252.17   26.90
   7   4   0  211.38   28.60
  -8  -4   0   15.40    9.30
  -8  -4   0   -7.50   16.70
   8   4   0   24.80    8.40
   8   4   0   32.30   16.00
   4  -5   0  114.89   22.10
   4  -5   0  137.89   25.10
  -4   5   0  112.99   21.00
  -4   5   0  114.19   19.70
  -4   5   0  107.29   22.50
  -4   5   0  127.69   18.80
  -4   5   0  126.29   20.80
   3  -5   0  133.19   20.00
   3  -5   0  120.29   21.40
  -3   5   0  156.08   21.60
  -3   5   0  165.48   18.70
  -3   5   0  139.39   18.30
  -3   5   0  118.09   19.00
  -3   5   0  176.78   23.50
   2  -5   0   12.10   12.20
  -2   5   0   13.30   11.60
  -2   5   0   -2.40   11.00
  -2   5   0   -0.60   10.70
  -2   5   0    7.40   10.50
  -2   5   0   -3.00    9.40
   1  -5   0  279.07   36.30
  -1   5   0  306.77   27.80
  -1   5   0  358.86   28.80
  -1   5   0  308.87   27.50
   0  -5   0  619.24   44.20
   0  -5   0  591.84   42.00
   0   5   0  578.14   42.40
   0   5   0  607.14   43.20
   0   5   0  658.13   41.50
   0   5   0  648.54   42.30
  -1  -5   0    3.20   10.10
  -1  -5   0    4.80    8.70
   1   5   0    5.60    7.60
   1   5   0    4.60    9.10
  -2  -5   0 1277.07   79.09
  -2  -5   0 1370.96   78.69
  -2  -5   0 1322.87   78.99
   2   5   0 1279.87   78.69
   2   5   0 1260.97   78.49
   2   5   0 1220.48   76.59
   2   5   0 1236.68   74.79
  -3  -5   0  322.67   28.40
  -3  -5   0  302.07   27.20
  -3  -5   0  302.17   26.30
   3   5   0  336.97   24.70
   3   5   0  289.87   25.30
   3   5   0  297.57   21.80
   3   5   0  324.27   26.60
  -4  -5   0  394.16   30.70
  -4  -5   0  398.86   30.10
  -4  -5   0  390.16   34.50
   4   5   0  387.96   30.60
   4   5   0  374.56   26.40
   4   5   0  395.56   28.40
   4   5   0  371.46   27.10
   4   5   0  374.76   29.60
  -5  -5   0  367.56   30.30
  -5  -5   0  386.36   30.50
   5   5   0  345.97   29.20
   5   5   0  381.36   30.40
   5   5   0  376.76   26.70
   5   5   0  344.47   27.10
   5   5   0  351.36   26.90
  -6  -5   0    7.40   11.10
  -6  -5   0  -15.10   11.90
   6   5   0   16.30   10.00
   6   5   0    1.10   10.80
   6   5   0    4.10    9.60
   6   5   0   -0.10    8.80
   6   5   0   11.60   11.80
  -7  -5   0   44.90   16.70
  -7  -5   0   35.20   12.70
   7   5   0   40.00   15.30
   7   5   0   23.90   12.30
   3  -6   0  161.48   26.80
   3  -6   0  184.38   29.70
   3  -6   0  193.48   30.30
  -3   6   0  200.18   25.20
  -3   6   0  146.79   26.30
  -3   6   0  178.58   25.40
  -3   6   0  171.68   26.10
  -3   6   0  170.98   22.70
   2  -6   0   74.69   19.40
   2  -6   0   36.50   17.80
   2  -6   0   79.09   19.70
  -2   6   0   90.79   18.00
  -2   6   0   70.99   18.60
  -2   6   0   72.09   16.80
  -2   6   0   68.89   14.90
  -2   6   0   69.89   18.80
   1  -6   0  120.99   20.00
   1  -6   0  132.79   20.00
   1  -6   0   97.69   19.60
  -1   6   0  118.59   18.90
  -1   6   0  124.69   19.30
  -1   6   0  104.79   18.80
  -1   6   0  146.59   18.40
  -1   6   0  115.99   14.90
   0  -6   0  480.05   39.90
   0  -6   0  483.45   39.40
   0  -6   0  519.25   41.30
   0   6   0  530.25   38.60
   0   6   0  483.35   39.50
   0   6   0  478.65   39.30
  -1  -6   0   38.90   13.30
  -1  -6   0   55.89   14.90
   1   6   0   61.99   14.00
   1   6   0   46.00   14.10
   1   6   0   47.00   12.70
   1   6   0   70.39   12.80
  -2  -6   0  306.67   31.80
  -2  -6   0  312.47   30.40
   2   6   0  305.57   28.60
   2   6   0  272.57   21.50
   2   6   0  302.67   27.00
   2   6   0  306.77   28.30
  -3  -6   0  497.95   40.60
  -3  -6   0  512.05   40.30
  -3  -6   0  479.35   39.10
   3   6   0  481.85   41.90
   3   6   0  485.05   32.40
  -4  -6   0   13.20   12.20
  -4  -6   0    2.40   12.90
   4   6   0   17.80   11.80
   4   6   0   15.80    6.90
   4   6   0    9.90    9.90
   4   6   0    5.80    8.50
  -5  -6   0  332.47   32.00
  -5  -6   0  284.07   31.50
  -5  -6   0  272.07   34.20
   5   6   0  326.37   24.60
   5   6   0  358.66   26.50
   5   6   0  282.27   28.00
   5   6   0  342.67   32.10
  -6  -6   0  182.28   26.30
  -6  -6   0   78.99   22.30
  -6  -6   0  122.39   20.20
   6   6   0  141.29   18.00
   6   6   0  195.38   24.40
   6   6   0  147.09   17.40
   6   6   0  124.39   19.00
  -7  -6   0   14.30   17.50
  -7  -6   0   19.40   15.50
   7   6   0   24.70   14.40
   7   6   0   14.30   16.20
   7   6   0   19.30   16.80
   7   6   0   15.90   14.60
   7   6   0    9.30   13.30
   1  -7   0   -6.90   20.30
   1  -7   0   -0.10   21.30
   1  -7   0   -5.20   19.30
  -1   7   0   24.30   17.50
  -1   7   0    9.00   16.50
  -1   7   0    2.00   17.90
  -1   7   0   28.80   18.20
  -1   7   0   24.20   13.20
   0  -7   0  613.74   49.50
   0  -7   0  604.44   52.59
   0  -7   0  676.93   52.79
   0   7   0  618.14   48.50
   0   7   0  595.04   47.30
   0   7   0  621.34   49.30
   0   7   0  596.64   49.90
   0   7   0  678.83   43.10
  -1  -7   0  151.08   22.30
  -1  -7   0  173.58   24.50
  -1  -7   0  135.89   24.70
   1   7   0  170.38   22.70
   1   7   0  142.69   22.90
   1   7   0  185.28   27.50
   1   7   0  210.18   25.30
  -2  -7   0  142.29   23.20
  -2  -7   0  159.18   24.10
  -2  -7   0  144.49   22.00
   2   7   0  175.58   26.30
   2   7   0  181.18   26.80
   2   7   0  213.08   26.70
   2   7   0  148.79   16.70
  -3  -7   0  397.16   37.50
  -3  -7   0  391.26   37.20
  -3  -7   0  368.46   40.10
   3   7   0  446.46   37.00
   3   7   0  377.56   35.70
   3   7   0  384.86   28.50
  -4  -7   0   41.40   19.40
  -4  -7   0   52.99   19.90
  -4  -7   0   59.99   18.40
   4   7   0   48.70    9.20
   4   7   0   33.40   15.90
   4   7   0   53.89   15.60
   4   7   0   65.59   11.90
  -5  -7   0  115.59   23.50
  -5  -7   0   91.99   21.50
  -5  -7   0   89.59   21.00
   5   7   0   88.69   19.30
   5   7   0   97.09   14.90
   5   7   0  127.99   16.50
  -6  -7   0   88.19   26.50
  -6  -7   0  158.28   25.60
  -6  -7   0  164.68   24.90
   6   7   0  183.88   23.20
   6   7   0  156.48   22.60
   6   7   0  161.98   23.40
   6   7   0  199.58   23.20
  -1  -8   0  368.56   44.40
  -1  -8   0  282.87   42.40
  -1  -8   0  369.06   46.30
   1   8   0  312.67   39.80
   1   8   0  309.37   40.60
   1   8   0  273.77   40.90
   1   8   0  300.47   25.40
   1   8   0  305.87   34.30
  -2  -8   0   31.70   21.00
  -2  -8   0   24.60   22.00
  -2  -8   0   40.50   25.30
   2   8   0   48.70   20.40
   2   8   0   42.00   11.40
   2   8   0   26.30   20.90
   2   8   0   39.20   20.00
  -3  -8   0  219.88   32.80
  -3  -8   0  229.08   31.80
  -3  -8   0  193.88   30.60
   3   8   0  250.47   37.10
   3   8   0  284.07   38.70
   3   8   0  274.27   36.50
   3   8   0  250.27   22.80
  -4  -8   0  287.27   34.50
  -4  -8   0  248.58   34.80
  -4  -8   0  329.77   40.70
   4   8   0  258.47   23.30
   4   8   0  281.27   35.20
   4   8   0  240.08   37.80
   4   8   0  313.77   39.90
   4   8   0  282.77   25.10
   5   7  -1   89.89   22.00
   5   7  -1   63.19   13.90
   5   7  -1   57.69   13.70
   5   7  -1   32.50   20.30
  -5  -7   1   43.20   25.10
  -5  -7   1   23.30   25.50
  -5  -7   1   46.40   22.20
   4   7  -1  390.26   34.00
   4   7  -1  379.76   40.30
   4   7  -1  345.77   27.10
  -4  -7   1  352.76   45.10
  -4  -7   1  329.77   39.70
  -4  -7   1  345.87   43.40
   3   7  -1   10.20    8.40
   3   7  -1   -8.20   16.60
   3   7  -1    2.10   17.00
   3   7  -1   11.00   15.50
  -3  -7   1  -14.50   19.70
  -3  -7   1    2.90   18.90
  -3  -7   1  -26.80   20.10
   2   7  -1  402.26   39.60
   2   7  -1  344.47   39.00
   2   7  -1  347.37   25.80
   2   7  -1  364.36   37.60
  -2  -7   1  384.76   43.80
  -2  -7   1  365.86   39.50
  -2  -7   1  381.16   41.50
   1   7  -1  309.57   21.90
   1   7  -1  319.37   36.10
   1   7  -1  296.47   34.80
   1   7  -1  370.56   35.10
  -1  -7   1  298.97   38.00
  -1  -7   1  240.28   33.30
  -1  -7   1  242.18   36.80
   0   7  -1   23.50   18.90
   0   7  -1   27.00   18.30
   0   7  -1    9.70   17.50
   0   7  -1   -6.50   16.60
   0  -7   1    6.40   20.50
   0  -7   1   14.80   20.20
   0  -7   1   17.00   23.20
  -1   7  -1  287.87   37.70
  -1   7  -1  278.67   38.50
  -1   7  -1  298.47   38.40
  -1   7  -1  265.37   32.10
   1  -7   1  323.37   46.60
   1  -7   1  278.57   42.50
   1  -7   1  254.67   34.20
   6   6  -1  230.28   27.00
   6   6  -1  166.48   24.20
   6   6  -1  132.89   23.30
   6   6  -1  165.48   19.10
  -6  -6   1  168.38   26.00
  -6  -6   1   85.19   27.30
  -6  -6   1  154.38   25.40
   5   6  -1    1.70    9.60
   5   6  -1    4.30   14.50
   5   6  -1   18.10   12.50
   5   6  -1   17.90   11.00
  -5  -6   1   25.30   20.80
  -5  -6   1    2.30   16.40
  -5  -6   1   -3.10   17.00
   4   6  -1  597.94   38.70
  -4  -6   1  662.93   48.10
  -4  -6   1  566.44   47.10
  -4  -6   1  512.35   49.80
   3   6  -1  178.78   15.80
   3   6  -1  147.59   18.50
   3   6  -1  169.08   25.50
  -3  -6   1  182.88   27.90
  -3  -6   1  191.48   28.30
  -3  -6   1  147.79   23.80
   2   6  -1  333.67   29.40
   2   6  -1  355.46   32.50
   2   6  -1  346.97   32.60
   2   6  -1  332.07   23.20
  -2  -6   1  356.06   33.50
  -2  -6   1  334.17   34.90
  -2  -6   1  287.47   37.90
   1   6  -1  537.15   46.80
   1   6  -1  603.54   45.20
   1   6  -1  589.54   35.90
  -1  -6   1  553.54   47.10
  -1  -6   1  579.94   46.40
  -1  -6   1  585.94   45.10
   0   6  -1   -5.70   12.60
   0   6  -1  -19.80   12.20
   0   6  -1   -5.00   12.30
   0  -6   1    3.60   16.10
   0  -6   1   -9.20   13.90
   0  -6   1  -14.20   13.60
  -1   6  -1  207.28   28.50
  -1   6  -1  200.08   24.20
  -1   6  -1  222.18   29.30
  -1   6  -1  242.18   28.10
   1  -6   1  257.27   30.60
   1  -6   1  196.58   31.10
   1  -6   1  228.68   33.00
  -2   6  -1  157.58   23.10
  -2   6  -1  135.39   23.20
  -2   6  -1  184.28   24.10
  -2   6  -1  185.38   25.00
   2  -6   1  188.88   31.10
   2  -6   1  161.38   25.80
   2  -6   1  161.08   25.60
  -3   6  -1   -0.30   19.00
  -3   6  -1   29.10   19.20
  -3   6  -1    4.00   18.00
  -3   6  -1  -22.30   16.80
  -3   6  -1    6.90   18.80
   3  -6   1   46.60   27.00
   3  -6   1  -18.40   21.00
   3  -6   1   22.10   23.00
   7   5  -1    3.20   14.70
   7   5  -1   -0.10   15.10
   7   5  -1    6.80   18.20
  -7  -5   1   10.60   20.90
  -7  -5   1   19.10   16.60
   6   5  -1   84.39   12.10
   6   5  -1   44.90   16.20
  -6  -5   1   91.29   18.00
  -6  -5   1   85.79   18.30
   5   5  -1   41.50   13.70
   5   5  -1   35.20   10.80
   5   5  -1   49.90   10.10
   5   5  -1   43.70   11.50
  -5  -5   1   42.90   15.00
  -5  -5   1   41.60   18.40
  -5  -5   1   88.49   16.50
   4   5  -1  126.09   14.80
   4   5  -1  124.99   16.70
   4   5  -1  145.29   20.40
   4   5  -1  117.19   17.40
  -4  -5   1  163.68   23.70
  -4  -5   1  103.79   19.50
  -4  -5   1   86.99   19.70
   3   5  -1  648.44   41.60
   3   5  -1  604.24   38.70
   3   5  -1  659.23   44.80
  -3  -5   1  608.74   44.40
  -3  -5   1  619.64   47.30
  -3  -5   1  604.64   45.50
   2   5  -1   43.10    6.90
   2   5  -1   40.10   10.20
   2   5  -1   39.70   11.90
  -2  -5   1   28.20   13.10
  -2  -5   1   34.30   12.20
  -2  -5   1   39.50   12.80
   1   5  -1  840.52   55.49
   1   5  -1  826.52   49.80
   1   5  -1  866.51   56.19
   1   5  -1  857.61   53.99
   1   5  -1  829.32   55.69
  -1  -5   1  868.11   56.59
  -1  -5   1  827.82   57.09
  -1  -5   1  844.12   56.59
   0   5  -1  654.83   46.40
   0   5  -1  564.34   51.59
   0   5  -1  653.53   45.90
   0   5  -1  676.03   46.10
   0  -5   1  713.23   48.40
   0  -5   1  663.43   46.90
  -1   5  -1  113.99   17.10
   1  -5   1  118.19   17.70
   1  -5   1  108.99   18.70
  -2   5  -1  624.94   46.70
  -2   5  -1  630.24   45.20
  -2   5  -1  589.84   45.60
  -2   5  -1  691.23   47.20
  -3   5  -1   20.80   14.00
  -3   5  -1   36.00   15.30
  -3   5  -1   19.60   13.20
  -3   5  -1    6.80   15.60
   3  -5   1   30.10   16.20
   3  -5   1   14.70   15.70
  -4   5  -1  116.69   19.30
  -4   5  -1   86.59   21.90
  -4   5  -1   80.99   19.10
  -4   5  -1   88.09   20.60
  -4   5  -1   74.79   19.60
   4  -5   1  104.69   22.30
   4  -5   1   86.49   23.30
   7   4  -1  -25.00   12.10
   7   4  -1  -25.10   14.40
   7   4  -1    5.90   13.80
  -7  -4   1   10.50   13.40
  -7  -4   1   22.10   18.50
   6   4  -1  339.37   33.80
   6   4  -1  356.96   30.30
   6   4  -1  318.97   34.20
  -6  -4   1  379.06   34.50
  -6  -4   1  342.07   31.50
   5   4  -1   60.19    8.40
   5   4  -1   30.50   11.20
   5   4  -1   52.49   13.60
  -5  -4   1   70.99   14.00
  -5  -4   1   39.60   12.40
   4   4  -1  160.38   19.40
   4   4  -1  177.08   15.50
   4   4  -1  143.49   18.20
   4   4  -1  139.49   16.00
   4   4  -1  152.78   14.70
  -4  -4   1  127.39   19.80
  -4  -4   1  134.79   19.90
   3   4  -1  493.05   31.40
   3   4  -1  500.35   35.30
   3   4  -1  491.45   35.80
   3   4  -1  494.25   32.40
  -3  -4   1  596.54   35.40
  -3  -4   1  462.95   35.80
  -3  -4   1  414.36   37.60
   2   4  -1  185.98   16.90
   2   4  -1  175.48   13.80
   2   4  -1  190.08   18.70
   2   4  -1  198.28   19.30
  -2  -4   1  198.18   20.40
  -2  -4   1  195.38   22.50
  -2  -4   1  165.68   18.40
   1   4  -1  233.88   18.90
   1   4  -1  243.28   20.90
   1   4  -1  216.98   15.20
   1   4  -1  237.98   21.10
  -1  -4   1  202.98   21.40
  -1  -4   1  211.18   21.40
  -1  -4   1  240.88   22.10
   0   4  -1 1232.98   71.09
   0   4  -1 1054.29   70.39
   0   4  -1 1171.18   69.89
   0   4  -1 1169.08   71.09
   0  -4   1 1138.29   71.59
   0  -4   1 1122.39   70.89
   0  -4   1 1179.48   71.19
  -1   4  -1   72.89   12.10
  -1   4  -1   72.89   11.20
   1  -4   1   55.49   12.20
   1  -4   1   57.49   11.80
   1  -4   1   60.59   12.90
  -2   4  -1  627.54   42.90
  -2   4  -1  660.33   42.80
  -2   4  -1  614.54   41.70
  -2   4  -1  600.14   43.00
   2  -4   1  610.04   42.90
   2  -4   1  561.44   46.30
   2  -4   1  614.14   45.70
  -3   4  -1  385.26   31.40
  -3   4  -1  379.06   33.10
  -3   4  -1  376.66   31.10
  -3   4  -1  400.86   30.40
  -3   4  -1  278.67   40.00
   3  -4   1  332.17   31.70
   3  -4   1  401.76   32.80
  -4   4  -1   33.80   13.10
  -4   4  -1   37.50   12.90
  -4   4  -1   28.50   13.60
  -4   4  -1    1.10   14.60
   4  -4   1   37.50   13.10
   4  -4   1   25.30   13.90
  -5   4  -1   93.29   21.80
  -5   4  -1  126.69   24.70
  -5   4  -1  144.49   21.30
  -5   4  -1  201.68   27.30
  -5   4  -1  159.88   20.40
   5  -4   1  145.19   21.70
   5  -4   1  160.78   21.50
   5  -4   1  154.78   25.10
   5  -4   1  141.79   43.20
   7   3  -1   82.59   16.90
   7   3  -1   75.89   13.50
  -7  -3   1   87.19   15.50
  -7  -3   1  105.79   18.10
   6   3  -1   24.50   12.20
   6   3  -1   23.40   13.40
  -6  -3   1   23.20   13.20
  -6  -3   1   52.99   12.20
   5   3  -1  763.12   52.19
   5   3  -1  651.33   45.80
   5   3  -1  907.91   50.99
   5   3  -1  883.41   50.09
  -5  -3   1  792.62   51.09
  -5  -3   1  702.93   51.89
   4   3  -1   30.70    9.00
   4   3  -1   28.50    8.10
   4   3  -1   24.50    7.70
   4   3  -1   15.50    8.20
   4   3  -1   21.20    4.90
  -4  -3   1   29.00    9.00
   3   3  -1 1711.53  100.29
   3   3  -1 1710.03   97.99
   3   3  -1 1664.73   98.19
   3   3  -1 1707.83  100.89
  -3  -3   1 1745.43  100.89
  -3  -3   1 1666.43  100.59
   2   3  -1  765.32   44.50
   2   3  -1  776.32   47.70
   2   3  -1  780.22   47.50
   2   3  -1  781.22   45.40
  -2  -3   1  703.53   49.30
  -2  -3   1  725.73   47.30
  -2  -3   1  742.13   47.60
   1   3  -1  663.33   41.70
   1   3  -1  641.84   41.40
   1   3  -1  634.44   39.80
  -1  -3   1  653.33   42.00
  -1  -3   1  641.84   41.60
  -1  -3   1  666.93   41.80
   0   3  -1 1073.79   63.29
   0   3  -1 1024.10   62.79
   0   3  -1 1002.80   62.89
   0   3  -1 1081.39   61.99
   0  -3   1 1024.20   62.99
   0  -3   1 1064.29   63.09
   0  -3   1  988.70   63.09
  -1   3  -1   41.00    8.70
  -1   3  -1   52.49    8.90
  -1   3  -1   45.70    8.90
   1  -3   1   57.29    9.70
   1  -3   1   39.80    8.60
   1  -3   1   52.09    9.30
  -2   3  -1  111.39   14.10
   2  -3   1  102.29   15.00
   2  -3   1  117.39   15.80
   2  -3   1  120.99   15.70
  -3   3  -1  304.67   25.60
  -3   3  -1  315.37   24.80
  -3   3  -1  293.97   24.40
  -3   3  -1  314.57   26.00
   3  -3   1  296.27   25.10
   3  -3   1  303.77   24.60
   3  -3   1  263.47   25.90
  -4   3  -1   80.69   12.40
  -4   3  -1   78.29   13.00
  -4   3  -1   47.20   21.20
  -4   3  -1   78.89   14.30
   4  -3   1   64.09   22.30
   4  -3   1   61.29   12.50
   4  -3   1   64.09   14.50
   4  -3   1   58.59   12.60
  -5   3  -1   62.99   13.60
  -5   3  -1   64.59   17.50
  -5   3  -1   67.79   16.40
  -5   3  -1   52.39   12.70
  -5   3  -1   49.10   12.90
   5  -3   1   53.29   26.90
   5  -3   1   59.19   13.10
  -6   3  -1   76.59   15.60
  -6   3  -1   90.09   23.70
  -6   3  -1   81.99   22.50
  -6   3  -1   79.49   16.90
  -6   3  -1   83.49   16.30
   6  -3   1   81.19   16.10
   6  -3   1   53.59   36.90
   7   2  -1   63.99   13.70
   7   2  -1   49.20   15.30
  -7  -2   1   82.09   15.30
   6   2  -1   -4.80   11.00
   6   2  -1   29.40    8.90
   6   2  -1    2.30    9.10
  -6  -2   1    8.30   10.80
  -6  -2   1   -2.00   10.30
   5   2  -1  354.86   27.60
   5   2  -1  313.87   27.20
   5   2  -1  363.86   27.30
  -5  -2   1  358.96   28.30
   4   2  -1  348.67   25.50
   4   2  -1  425.56   27.20
   4   2  -1  307.87   27.20
  -4  -2   1  411.76   27.60
  -4  -2   1  319.27   27.50
   3   2  -1  122.79   11.80
   3   2  -1  136.69   13.40
   3   2  -1  107.49   10.50
   3   2  -1  110.29    8.60
   3   2  -1   91.29   13.10
  -3  -2   1   93.69   12.80
  -3  -2   1  128.39   13.70
   2   2  -1 1844.62  102.29
   2   2  -1 1768.52  103.99
   2   2  -1 1792.52  102.09
   2   2  -1 1780.32  104.19
  -2  -2   1 1820.32  104.19
  -2  -2   1 1730.93  103.99
   1   2  -1  713.63   40.80
   1   2  -1  730.13   43.40
   1   2  -1  679.83   41.70
   1   2  -1  685.93   43.10
  -1  -2   1  691.63   43.20
  -1  -2   1  701.43   43.40
  -1  -2   1  753.72   44.30
   0   2  -1 1092.49   64.39
   0   2  -1 1137.69   64.69
   0   2  -1 1080.69   64.39
   0  -2   1 1072.79   64.49
   0  -2   1 1066.69   64.39
   0  -2   1 1082.89   64.59
  -1   2  -1 2754.02  161.98
  -1   2  -1 2792.02  162.18
  -1   2  -1 2901.11  162.28
   1  -2   1 2837.02  162.18
   1  -2   1 2859.31  162.18
  -2   2  -1    3.70    5.00
  -2   2  -1    3.80    6.00
  -2   2  -1    5.50    5.10
   2  -2   1   12.50    5.90
   2  -2   1    4.30    5.70
   2  -2   1    4.40    5.20
  -3   2  -1 1475.15   87.19
  -3   2  -1 1519.65   87.79
  -3   2  -1 1457.55   86.99
  -3   2  -1 1487.45   88.49
   3  -2   1 1455.65   88.39
   3  -2   1 1474.25   86.99
   3  -2   1 1468.85   86.99
  -4   2  -1  341.87   25.50
  -4   2  -1  356.56   28.30
  -4   2  -1  326.07   28.10
   4  -2   1  336.87   28.60
   4  -2   1  360.86   40.20
   4  -2   1  336.27   25.70
   4  -2   1  363.26   25.60
  -5   2  -1  209.28   19.50
  -5   2  -1  179.58   24.80
  -5   2  -1  200.08   29.30
  -5   2  -1  185.08   19.10
   5  -2   1  195.28   19.10
   5  -2   1  135.39   32.50
  -6   2  -1  226.08   30.60
  -6   2  -1  206.28   24.70
  -6   2  -1  202.38   21.10
  -6   2  -1  173.88   21.00
   6  -2   1  104.49   35.90
   6  -2   1  198.28   21.40
   6  -2   1  178.98   20.90
  -7   2  -1   -1.10   12.30
  -7   2  -1   -6.50   12.80
  -7   2  -1    7.10   23.10
  -7   2  -1    8.20   21.30
  -7   2  -1  -10.30   11.10
   7  -2   1   -7.30   15.00
   7   1  -1   95.19   17.70
   7   1  -1  125.29   15.90
   7   1  -1  110.99   23.10
  -7  -1   1   83.39   22.30
  -7  -1   1   83.99   15.30
   6   1  -1    9.10   11.00
   6   1  -1   -1.00    9.60
   6   1  -1   10.00   14.40
  -6  -1   1    4.90   11.20
   5   1  -1  211.38   20.60
   5   1  -1  195.38   23.10
   5   1  -1  214.48   16.90
   5   1  -1  167.38   20.40
  -5  -1   1  142.09   20.40
   4   1  -1  223.98   22.70
   4   1  -1  313.17   21.90
   4   1  -1  311.47   24.70
   4   1  -1  287.47   22.00
  -4  -1   1  307.57   22.70
   3   1  -1    6.70    4.90
   3   1  -1    9.10    5.90
   3   1  -1    0.80    6.00
   3   1  -1   -2.80    5.00
  -3  -1   1   -5.20    5.50
  -3  -1   1   -0.20    5.30
   2   1  -1 1178.98   66.79
   2   1  -1 1113.79   65.59
   2   1  -1 1165.28   63.79
  -2  -1   1 1039.30   66.39
   1   1  -1 1509.05   85.59
   1   1  -1 1449.95   85.59
  -1  -1   1 1483.75   85.59
  -1  -1   1 1471.45   85.69
   0   1  -1  624.24   37.80
   0   1  -1  642.14   38.10
   0   1  -1  637.14   38.00
   0   1  -1  656.73   35.90
   0  -1   1  607.64   37.90
   0  -1   1  621.94   38.00
   0  -1   1  659.23   38.10
  -1   1  -1 2183.08  121.89
  -1   1  -1 2077.09  121.69
  -1   1  -1 2187.88  122.09
   1  -1   1 2102.19  121.89
   1  -1   1 2147.69  121.79
   1  -1   1 2100.29  121.79
  -2   1  -1   19.00    4.30
  -2   1  -1   18.80    4.40
  -2   1  -1   14.10    4.80
   2  -1   1   14.50    4.10
   2  -1   1   15.20    4.90
   2  -1   1   21.70    4.30
  -3   1  -1  260.57   18.20
  -3   1  -1  265.57   19.80
  -3   1  -1  263.17   18.30
  -3   1  -1  254.57   19.90
   3  -1   1  261.37   18.20
   3  -1   1  309.47   30.10
   3  -1   1  262.37   18.10
   3  -1   1  256.97   20.00
  -4   1  -1  181.48   18.30
  -4   1  -1  188.48   15.20
  -4   1  -1  175.98   14.90
  -4   1  -1  171.38   17.80
   4  -1   1  199.78   14.90
   4  -1   1  178.38   14.80
   4  -1   1  196.08   29.90
  -5   1  -1   58.29   13.10
  -5   1  -1   49.10    8.10
   5  -1   1    9.20   21.60
  -6   1  -1   41.60   15.40
  -6   1  -1   24.70    7.60
   6  -1   1   36.00    7.90
   6  -1   1   18.60    7.70
   6  -1   1    7.50   23.60
  -7   1  -1  122.49   18.00
  -7   1  -1  152.48   24.80
  -7   1  -1  133.69   16.10
  -7   1  -1  140.79   23.00
   7  -1   1  129.29   17.00
   7  -1   1  116.29   15.00
   7  -1   1   54.29   33.30
   7   0  -1   29.50   13.40
   7   0  -1   32.20   10.60
   7   0  -1   49.20   24.70
  -7   0   1   45.50   19.20
  -7   0   1   37.80   10.50
  -7   0   1   40.00   19.80
  -7   0   1   15.70   18.20
   6   0  -1  162.98   17.30
   6   0  -1  116.89   25.80
   6   0  -1  151.58   21.70
   6   0  -1  111.99   18.00
  -6   0   1  146.09   16.70
  -6   0   1  156.48   22.60
   5   0  -1    5.20    6.00
   5   0  -1   28.20    9.60
   5   0  -1    3.40    8.40
   5   0  -1   15.50   14.50
  -5   0   1    1.90   11.10
  -5   0   1   21.50    9.30
  -5   0   1   16.20   11.90
   4   0  -1  704.53   54.49
   4   0  -1  875.51   49.40
   4   0  -1  736.63   49.00
   4   0  -1  813.72   47.60
  -4   0   1  767.82   49.00
  -4   0   1  772.72   44.50
  -4   0   1  804.32   49.40
  -4   0   1  793.72   44.60
   3   0  -1  367.26   22.90
   3   0  -1  353.56   23.80
   3   0  -1  349.67   28.90
   3   0  -1  318.97   23.80
  -3   0   1  324.37   23.60
  -3   0   1  361.86   23.30
  -3   0   1  339.37   23.80
   2   0  -1  947.11   56.99
   2   0  -1  945.21   57.49
   2   0  -1 1026.80   57.09
   2   0  -1  949.90   59.09
  -2   0   1 1019.30   57.29
  -2   0   1  941.51   57.29
   1   0  -1 2518.35  131.89
   1   0  -1 2228.48  132.29
   1   0  -1 2014.90  131.49
   1   0  -1 2633.24  132.59
   1   0  -1 2075.99  130.49
  -1   0   1 2279.97  132.29
  -1   0   1 2512.15  132.59
   0   0  -1    6.60    2.70
   0   0  -1    5.60    2.60
   0   0  -1   11.00    2.60
   0   0   1    6.90    2.20
   0   0   1    2.90    2.60
   0   0   1   10.90    2.80
  -1   0  -1 2027.70  115.99
  -1   0  -1 2028.30  115.99
  -1   0  -1 2058.29  115.49
  -1   0  -1 2015.10  115.99
   1   0   1 1982.60  115.99
   1   0   1 2135.99  115.59
   1   0   1 2015.80  115.99
   1   0   1 2126.89  118.79
  -2   0  -1 1522.15   85.69
  -2   0  -1 1385.26   84.69
  -2   0  -1 1558.34   84.69
   2   0   1 1505.35   85.69
   2   0   1 1470.95   84.59
   2   0   1 1506.05   90.59
  -3   0  -1   52.39    7.20
  -3   0  -1   49.20    6.40
  -3   0  -1   49.00    7.20
  -3   0  -1   62.69    5.70
   3   0   1   60.29   15.60
   3   0   1   56.69    5.40
   3   0   1   47.00    6.20
  -4   0  -1 1039.50   61.49
  -4   0  -1 1011.60   61.09
  -4   0  -1  988.90   58.29
  -4   0  -1 1048.40   58.39
   4   0   1  973.40   58.09
   4   0   1  994.10   58.09
  -5   0  -1  117.69   16.20
  -5   0  -1  110.39   10.40
  -5   0  -1  104.69    9.90
   5   0   1  104.49    9.30
   5   0   1  106.49   10.10
  -6   0  -1  135.19   17.70
  -6   0  -1  119.29   11.30
  -6   0  -1  134.59   17.80
  -6   0  -1  117.49   12.80
   6   0   1   53.49   26.90
   6   0   1  130.89   10.10
  -7   0  -1   57.39   17.60
  -7   0  -1   58.79   17.20
  -7   0  -1   59.59    9.00
   7   0   1   73.69   31.10
  -8   0  -1   18.80   10.50
  -8   0  -1    3.10   22.30
  -8   0  -1  -18.40   23.30
   8   0   1  -12.40   32.80
   7  -1  -1   38.90   27.40
  -7   1   1    9.50   14.70
  -7   1   1   13.10    5.00
  -7   1   1    5.50    5.10
  -7   1   1   26.00   21.50
  -7   1   1    7.80   19.10
  -7   1   1   21.70   11.80
   6  -1  -1  242.78   41.00
   6  -1  -1  279.87   26.80
   6  -1  -1  293.97   23.50
  -6   1   1  289.77   27.10
  -6   1   1  298.67   32.60
  -6   1   1  271.17   34.40
  -6   1   1  272.57   18.90
   5  -1  -1   10.30   10.10
   5  -1  -1   -9.00   17.90
   5  -1  -1   -1.20    8.10
   5  -1  -1    6.00    6.90
  -5   1   1    4.70    7.10
  -5   1   1    1.00   11.10
  -5   1   1    1.00    8.60
  -5   1   1   -3.60    4.20
   4  -1  -1  777.62   45.20
   4  -1  -1  760.52   45.70
   4  -1  -1  652.93   53.99
  -4   1   1  735.73   42.60
  -4   1   1  585.34   47.30
  -4   1   1  725.83   46.50
  -4   1   1  761.72   45.50
  -4   1   1  760.82   45.90
   3  -1  -1  449.26   26.90
   3  -1  -1  424.96   27.60
   3  -1  -1  421.46   27.10
   3  -1  -1  324.57   32.80
  -3   1   1  412.86   24.60
  -3   1   1  411.16   26.90
  -3   1   1  382.56   27.40
  -3   1   1  395.56   27.00
  -3   1   1  417.86   28.80
   2  -1  -1  242.48   17.20
   2  -1  -1  250.37   17.40
   2  -1  -1  241.98   16.90
  -2   1   1  236.78   15.30
  -2   1   1  245.48   17.30
  -2   1   1  249.18   18.20
  -2   1   1  242.38   17.30
  -2   1   1  262.97   17.50
   1  -1  -1 1104.79   62.79
   1  -1  -1 1115.09   63.49
   1  -1  -1 1080.29   63.79
   1  -1  -1 1098.29   63.79
  -1   1   1 1083.19   62.69
  -1   1   1 1109.79   63.89
  -1   1   1 1133.19   64.09
  -1   1   1 1116.49   63.89
  -1   1   1 1065.09   63.39
   0  -1  -1 1121.19   61.79
   0  -1  -1 1028.80   60.99
   0  -1  -1 1033.10   61.09
   0   1   1 1067.89   61.19
   0   1   1 1123.19   61.79
   0   1   1 1058.29   61.19
   0   1   1 1086.39   61.79
  -1  -1  -1  101.39    7.30
  -1  -1  -1  102.69    7.10
   1   1   1  107.89    7.50
   1   1   1  108.49    7.10
  -2  -1  -1 3215.28  183.48
  -2  -1  -1 3310.77  184.68
  -2  -1  -1 3426.86  184.68
   2   1   1 2916.71  187.28
   2   1   1 3452.95  184.88
  -3  -1  -1  377.36   25.30
  -3  -1  -1  413.66   24.80
   3   1   1  416.96   25.40
  -4  -1  -1 1224.08   69.69
  -4  -1  -1 1206.88   70.99
  -4  -1  -1 1097.69   67.39
  -4  -1  -1 1253.07   71.29
   4   1   1 1219.58   70.69
  -5  -1  -1  566.14   33.70
  -5  -1  -1  574.54   31.00
  -5  -1  -1  553.84   37.00
  -5  -1  -1  508.45   36.50
  -5  -1  -1  527.65   30.90
   5   1   1  465.25   45.30
  -6  -1  -1  105.99   15.10
  -6  -1  -1   74.39    9.20
   6   1   1   58.49   23.90
  -7  -1  -1  164.18   21.30
  -7  -1  -1  147.49   16.10
  -7  -1  -1  237.38   25.80
   7   1   1  128.09   32.40
  -8  -1  -1    4.00    7.80
  -8  -1  -1   15.50   19.40
  -8  -1  -1   11.70   19.00
   8   1   1   10.00   29.90
   6  -2  -1   41.40   25.80
   6  -2  -1   23.70   11.70
  -6   2   1   51.19   14.20
  -6   2   1   41.00   17.00
  -6   2   1   19.10    8.40
  -6   2   1   17.40   11.70
  -6   2   1   34.00   18.30
   5  -2  -1   58.99   24.50
   5  -2  -1   55.59   11.60
   5  -2  -1   56.29   10.50
  -5   2   1   57.49    8.60
  -5   2   1   45.60   11.60
  -5   2   1   53.59   11.40
  -5   2   1   69.89   15.90
   4  -2  -1   21.20    7.80
   4  -2  -1   11.60    8.20
   4  -2  -1   16.10   17.40
  -4   2   1   16.30    8.10
  -4   2   1   13.90    5.80
  -4   2   1    1.10    9.30
  -4   2   1   13.90    9.70
   3  -2  -1  681.53   42.60
   3  -2  -1  711.43   42.90
   3  -2  -1  663.93   42.80
  -3   2   1  675.73   40.80
  -3   2   1  623.34   42.50
  -3   2   1  686.93   42.90
  -3   2   1  686.93   42.90
  -3   2   1  671.13   44.00
   2  -2  -1  363.76   23.90
   2  -2  -1  349.96   24.20
   2  -2  -1  359.46   24.10
  -2   2   1  349.07   24.30
  -2   2   1  376.86   25.20
  -2   2   1  355.66   22.80
  -2   2   1  367.96   24.10
  -2   2   1  338.57   24.20
   1  -2  -1  962.20   56.39
   1  -2  -1 1029.20   57.59
   1  -2  -1  989.50   56.59
   1  -2  -1  913.41   57.29
  -1   2   1  983.20   56.39
  -1   2   1  966.70   56.59
  -1   2   1  938.31   57.39
  -1   2   1  989.20   57.59
  -1   2   1  956.60   57.49
   0  -2  -1 2311.27  133.79
   0  -2  -1 2389.16  134.49
   0  -2  -1 2316.67  134.49
   0  -2  -1 2337.67  133.99
   0   2   1 2320.77  133.19
   0   2   1 2303.27  133.89
   0   2   1 2356.66  134.49
   0   2   1 2419.46  134.59
   0   2   1 2441.56  133.89
  -1  -2  -1   17.50    3.80
  -1  -2  -1   19.30    3.80
  -1  -2  -1   19.80    3.50
  -1  -2  -1   22.00    3.10
   1   2   1   22.80    3.90
   1   2   1   18.70    3.50
   1   2   1   32.90    4.20
   1   2   1   20.50    4.00
  -2  -2  -1 1368.46   75.69
  -2  -2  -1 1302.87   75.59
  -2  -2  -1 1314.77   74.99
  -2  -2  -1 1283.77   75.59
   2   2   1 1312.87   74.99
   2   2   1 1352.46   75.69
   2   2   1 1250.07   75.59
   2   2   1 1289.87   75.49
   2   2   1 1402.46   75.89
  -3  -2  -1  467.25   28.80
  -3  -2  -1  479.45   29.10
  -3  -2  -1  482.25   28.30
   3   2   1  483.15   29.10
   3   2   1  489.65   29.30
   3   2   1  468.85   28.00
   3   2   1  478.15   29.50
  -4  -2  -1    4.90    3.50
  -4  -2  -1    0.50    5.00
  -4  -2  -1   -1.30    2.90
  -4  -2  -1   -0.30    2.20
   4   2   1    1.50    1.80
   4   2   1    0.50    5.70
   4   2   1    0.20    4.80
   4   2   1    5.50    2.50
   4   2   1    2.00   10.00
  -5  -2  -1  393.26   24.80
  -5  -2  -1  360.66   27.80
  -5  -2  -1  391.46   22.90
   5   2   1  429.36   35.50
   5   2   1  403.66   27.30
   5   2   1  376.36   27.40
  -6  -2  -1  297.57   21.10
  -6  -2  -1  308.77   26.80
   6   2   1  360.96   37.90
  -7  -2  -1   27.00   13.40
  -7  -2  -1   25.30    6.70
  -7  -2  -1   40.50   16.00
   7   2   1   32.90   21.90
  -8  -2  -1  262.27   19.20
  -8  -2  -1  259.57   34.00
  -8  -2  -1  272.17   34.00
   8   2   1  252.07   42.70
   6  -3  -1   41.40   31.60
   6  -3  -1   57.19   15.80
   6  -3  -1   23.30   15.10
  -6   3   1   21.40   20.20
  -6   3   1   37.30   12.60
  -6   3   1   67.09   22.50
  -6   3   1   40.10   15.20
  -6   3   1   58.39   17.40
   5  -3  -1  148.19   17.70
   5  -3  -1   84.39   29.00
  -5   3   1  132.39   21.10
  -5   3   1  154.88   22.20
  -5   3   1  112.09   14.10
  -5   3   1  164.78   20.60
  -5   3   1  103.79   17.00
   4  -3  -1    4.10    9.70
   4  -3  -1   -2.70    8.70
  -4   3   1    4.80    7.70
  -4   3   1    1.60    9.10
  -4   3   1   -9.30   10.80
  -4   3   1  -11.20    9.00
  -4   3   1   -3.50   11.50
   3  -3  -1  607.94   40.10
  -3   3   1  558.34   40.10
  -3   3   1  633.64   41.90
  -3   3   1  649.43   40.80
  -3   3   1  578.14   38.20
  -3   3   1  583.14   40.00
   2  -3  -1  754.02   48.30
   2  -3  -1  744.33   47.60
   2  -3  -1  757.92   47.50
  -2   3   1  767.52   46.20
  -2   3   1  774.12   47.90
  -2   3   1  747.23   46.70
  -2   3   1  736.63   48.20
  -2   3   1  759.92   47.80
   1  -3  -1  333.07   23.70
   1  -3  -1  323.07   23.70
   1  -3  -1  323.07   23.80
  -1   3   1  349.87   22.80
  -1   3   1  335.47   23.80
  -1   3   1  338.87   23.90
  -1   3   1  343.37   22.10
  -1   3   1  340.07   24.30
   0  -3  -1 2639.44  152.18
   0  -3  -1 2728.53  151.78
   0  -3  -1 2683.93  152.38
   0  -3  -1 2754.72  151.48
   0   3   1 2565.74  151.58
   0   3   1 2597.64  151.28
   0   3   1 2604.34  150.18
   0   3   1 2632.64  152.28
   0   3   1 2646.54  152.18
  -1  -3  -1  105.49   11.30
  -1  -3  -1   92.09    9.70
  -1  -3  -1  106.29   10.50
  -1  -3  -1  112.29    9.60
   1   3   1  107.09   10.50
   1   3   1  107.49    9.80
   1   3   1  111.49   10.00
   1   3   1  114.99   10.80
  -2  -3  -1 1345.27   80.29
  -2  -3  -1 1340.37   79.69
  -2  -3  -1 1410.46   79.89
  -2  -3  -1 1411.46   80.39
   2   3   1 1392.16   79.89
   2   3   1 1336.77   80.09
   2   3   1 1406.86   80.39
   2   3   1 1392.96   78.19
  -3  -3  -1  800.62   47.30
  -3  -3  -1  797.22   47.20
  -3  -3  -1  772.32   46.80
   3   3   1  810.52   46.20
   3   3   1  798.72   47.10
   3   3   1  766.92   47.10
   3   3   1  772.12   47.00
   3   3   1  807.42   47.30
  -4  -3  -1    3.90    4.10
  -4  -3  -1    2.30    4.00
  -4  -3  -1    7.30    4.90
  -4  -3  -1    7.30    4.50
   4   3   1   14.00    6.30
   4   3   1    7.70    3.90
   4   3   1   10.40    4.20
   4   3   1    6.10    4.80
   4   3   1    5.50    4.50
  -5  -3  -1  332.77   21.60
  -5  -3  -1  326.67   21.50
  -5  -3  -1  322.37   23.50
   5   3   1  333.47   20.80
   5   3   1  314.47   23.60
   5   3   1  333.17   24.30
  -6  -3  -1  117.19   15.50
  -6  -3  -1  109.89    9.80
  -6  -3  -1  131.69   11.60
  -6  -3  -1  115.79   11.30
   6   3   1  103.99    8.00
   6   3   1   92.99   14.00
   6   3   1  108.09    7.80
  -7  -3  -1   10.00   11.90
  -7  -3  -1    6.10    5.80
  -8  -3  -1   57.69   19.60
  -8  -3  -1   24.10    6.40
  -8  -3  -1   32.20   18.10
   5  -4  -1  326.67   31.80
   5  -4  -1  271.17   32.90
   5  -4  -1  226.68   44.00
  -5   4   1  312.67   32.30
  -5   4   1  234.28   35.30
  -5   4   1  304.67   28.70
  -5   4   1  292.67   33.70
  -5   4   1  255.17   33.50
   4  -4  -1   50.19   13.70
  -4   4   1   80.29   13.20
  -4   4   1   59.79   14.60
  -4   4   1   42.80   14.10
  -4   4   1   42.00   16.00
   3  -4  -1  377.16   31.10
   3  -4  -1  330.57   29.40
   3  -4  -1  326.17   28.10
  -3   4   1  321.97   27.10
  -3   4   1  360.76   26.80
  -3   4   1  309.17   28.90
  -3   4   1  332.37   41.80
   2  -4  -1  513.75   35.60
   2  -4  -1  479.75   36.00
   2  -4  -1  508.55   36.30
  -2   4   1  465.85   35.90
  -2   4   1  491.05   35.90
  -2   4   1  524.45   34.10
  -2   4   1  473.75   35.30
  -2   4   1  521.25   34.10
   1  -4  -1    3.50    7.60
   1  -4  -1   -2.50    7.10
   1  -4  -1   -4.30    7.70
  -1   4   1   -7.20    6.70
  -1   4   1    8.00    7.60
  -1   4   1   10.90    6.60
  -1   4   1    0.30    5.20
   0  -4  -1  495.95   34.60
   0  -4  -1  515.45   33.90
   0  -4  -1  534.65   35.30
   0   4   1  519.15   34.00
   0   4   1  522.85   34.80
   0   4   1  510.35   31.60
   0   4   1  554.34   33.50
   0   4   1  482.35   34.60
  -1  -4  -1  943.31   61.59
  -1  -4  -1 1025.60   60.79
  -1  -4  -1 1016.40   61.09
  -1  -4  -1 1052.49   62.39
   1   4   1 1025.50   61.99
   1   4   1 1015.80   60.89
   1   4   1 1039.90   61.09
   1   4   1 1030.90   61.99
  -2  -4  -1    6.90    5.00
  -2  -4  -1    1.60    5.40
  -2  -4  -1   -1.90    6.10
  -2  -4  -1   -0.20    4.70
   2   4   1    6.40    5.20
   2   4   1   -4.00    5.20
   2   4   1   -2.60    5.50
  -3  -4  -1 1339.57   79.79
  -3  -4  -1 1336.47   78.99
  -3  -4  -1 1412.46   80.09
  -3  -4  -1 1358.76   80.09
   3   4   1 1301.67   78.59
   3   4   1 1350.76   79.69
   3   4   1 1307.27   78.89
   3   4   1 1332.87   77.19
   3   4   1 1399.36   79.99
  -4  -4  -1  430.16   29.40
  -4  -4  -1  432.26   29.60
  -4  -4  -1  452.75   28.50
   4   4   1  447.26   29.20
   4   4   1  451.95   29.50
   4   4   1  421.46   28.80
   4   4   1  436.06   27.70
   4   4   1  443.86   29.10
  -5  -4  -1  217.08   19.00
  -5  -4  -1  230.18   17.80
  -5  -4  -1  233.88   19.00
   5   4   1  232.08   18.50
   5   4   1  249.48   19.60
   5   4   1  240.58   20.20
   5   4   1  229.98   18.10
   5   4   1  229.48   18.80
  -6  -4  -1  305.37   23.40
  -6  -4  -1  329.37   22.10
   6   4   1  276.17   23.80
   6   4   1  315.97   25.50
   6   4   1  306.97   21.50
  -7  -4  -1    0.50    6.30
  -7  -4  -1    3.00    6.00
   7   4   1   -2.70    4.30
   7   4   1  -19.90    9.60
   7   4   1   -1.50    5.10
   7   4   1    3.20   11.80
  -8  -4  -1   28.70    7.30
  -4   5   1   14.30   16.00
  -4   5   1   32.90   17.20
  -4   5   1   25.00   13.50
  -4   5   1   22.00   15.10
  -4   5   1    3.90   18.10
   3  -5  -1   47.00   16.90
   3  -5  -1   37.10   14.10
  -3   5   1   67.19   13.30
  -3   5   1   33.00   15.10
  -3   5   1   71.39   16.60
  -3   5   1   35.90   14.00
  -3   5   1   28.90   12.60
   2  -5  -1  205.48   25.00
  -2   5   1  229.48   21.70
  -2   5   1  197.38   21.10
  -2   5   1  241.88   24.40
  -2   5   1  212.68   24.90
  -2   5   1  134.19   28.20
   1  -5  -1  843.42   57.59
   1  -5  -1  834.22   55.89
   1  -5  -1  907.61   56.29
  -1   5   1  831.62   56.29
  -1   5   1  883.61   54.39
  -1   5   1  877.11   56.49
  -1   5   1  852.71   55.89
  -1   5   1  845.42   52.89
   0  -5  -1   49.60   10.60
   0  -5  -1   55.89   12.20
   0   5   1   45.90    7.30
   0   5   1   43.40   11.20
   0   5   1   47.00    9.80
  -1  -5  -1 2191.08  131.29
  -1  -5  -1 2191.78  130.69
  -1  -5  -1 2250.37  130.09
   1   5   1 2228.68  129.59
   1   5   1 2200.88  130.99
   1   5   1 2242.28  131.09
   1   5   1 2273.97  130.19
  -2  -5  -1  271.47   24.90
  -2  -5  -1  311.67   23.20
   2   5   1  323.57   22.90
   2   5   1  260.57   23.90
   2   5   1  298.17   23.70
   2   5   1  286.37   23.90
  -3  -5  -1 1232.28   74.49
  -3  -5  -1 1255.17   75.69
  -3  -5  -1 1294.77   76.39
   3   5   1 1203.88   73.79
   3   5   1 1211.98   71.79
   3   5   1 1284.47   76.09
   3   5   1 1285.77   76.29
   3   5   1 1247.98   74.99
  -4  -5  -1  940.11   59.39
  -4  -5  -1  943.61   56.79
  -4  -5  -1 1048.40   58.39
  -4  -5  -1  941.61   58.89
   4   5   1  896.01   54.89
   4   5   1  947.01   58.69
   4   5   1  926.21   57.19
   4   5   1  852.91   56.59
   4   5   1  924.21   58.09
  -5  -5  -1   59.69   10.60
  -5  -5  -1   53.09    9.00
  -5  -5  -1   62.39   11.00
   5   5   1   69.69   11.10
   5   5   1   54.29   10.80
   5   5   1   49.80   10.10
   5   5   1   63.79    8.50
   5   5   1   56.49   10.10
  -6  -5  -1  395.56   28.00
  -6  -5  -1  406.66   31.30
  -6  -5  -1  402.86   30.10
   6   5   1  401.36   30.20
   6   5   1  425.86   29.40
   6   5   1  402.06   29.00
   6   5   1  377.56   31.10
   6   5   1  411.36   31.00
  -7  -5  -1   19.90    8.20
  -7  -5  -1   28.80   10.20
  -7  -5  -1   26.90   12.10
   7   5   1   41.00   11.20
   7   5   1   22.90   13.50
   7   5   1   31.80   12.20
   7   5   1    6.10   17.60
  -8  -5  -1   31.90    8.80
  -8  -5  -1   27.80    9.30
   8   5   1   25.60    6.30
   8   5   1   33.90    7.70
   3  -6  -1    1.20   19.00
   3  -6  -1   -7.90   17.10
   3  -6  -1   11.60   18.80
  -3   6   1    3.00   16.30
  -3   6   1   11.70   18.50
  -3   6   1   10.10   15.10
  -3   6   1   18.00   18.20
   2  -6  -1  671.93   51.69
   2  -6  -1  732.03   52.79
  -2   6   1  697.03   51.39
  -2   6   1  691.63   52.89
  -2   6   1  694.53   48.30
  -2   6   1  626.04   50.59
   1  -6  -1  134.69   19.50
   1  -6  -1  113.09   19.50
   1  -6  -1  136.89   20.30
  -1   6   1  118.49   18.30
  -1   6   1  134.69   17.70
  -1   6   1  135.89   17.40
  -1   6   1  109.59   18.20
   0  -6  -1  267.47   29.30
   0  -6  -1  270.47   30.60
   0  -6  -1  259.57   27.80
   0   6   1  267.87   25.40
   0   6   1  277.97   25.20
   0   6   1  292.67   21.40
   0   6   1  273.17   29.40
  -1  -6  -1  109.99   17.90
  -1  -6  -1  116.99   16.00
  -1  -6  -1  139.49   20.40
   1   6   1  137.99   19.10
   1   6   1  113.89   16.40
  -2  -6  -1    5.20   11.90
  -2  -6  -1   20.10   10.50
  -2  -6  -1   30.00   11.30
   2   6   1    6.10   14.40
  -3  -6  -1   60.49   12.20
  -3  -6  -1   55.99   13.80
  -3  -6  -1   68.59   11.00
  -3  -6  -1   54.89   11.80
   3   6   1   53.59   11.60
   3   6   1   55.19    9.90
   3   6   1   75.69   13.20
  -4  -6  -1   85.49   15.60
  -4  -6  -1  102.59   15.60
  -4  -6  -1  101.69   15.50
  -4  -6  -1  146.69   16.70
   4   6   1   99.29   15.00
   4   6   1  132.69   17.20
   4   6   1   98.39   14.90
   4   6   1  116.89   14.80
   4   6   1  106.29   10.40
  -5  -6  -1  592.84   41.70
  -5  -6  -1  578.84   38.50
  -5  -6  -1  587.54   43.30
  -5  -6  -1  562.04   42.10
   5   6   1  562.44   38.40
   5   6   1  561.24   40.60
   5   6   1  574.74   40.00
   5   6   1  546.55   35.90
   5   6   1  589.14   41.20
  -6  -6  -1    6.30   11.40
  -6  -6  -1    6.90   11.10
   6   6   1    0.30    7.20
   6   6   1   15.80   11.60
   6   6   1    6.90   10.50
   6   6   1   -4.80   10.20
  -7  -6  -1  459.45   36.00
  -7  -6  -1  474.55   38.80
   7   6   1  350.66   37.00
   7   6   1  476.45   33.80
   7   6   1  494.35   37.00
   2  -7  -1   -0.30   21.90
   2  -7  -1   23.60   22.50
   2  -7  -1   18.50   22.30
  -2   7   1  -11.70   17.80
  -2   7   1   -2.40   17.10
  -2   7   1   13.10   18.80
  -2   7   1   -2.60   20.00
   1  -7  -1  484.25   45.20
   1  -7  -1  539.15   45.20
   1  -7  -1  470.25   43.50
  -1   7   1  466.25   36.70
  -1   7   1  464.75   44.70
  -1   7   1  445.06   41.20
  -1   7   1  517.35   44.60
  -1   7   1  509.25   41.00
   0  -7  -1  398.56   39.00
   0  -7  -1  403.76   38.60
   0  -7  -1  438.06   42.30
   0   7   1  406.46   38.50
   0   7   1  416.56   37.90
   0   7   1  416.86   38.10
   0   7   1  418.06   35.80
   0   7   1  400.16   29.90
  -1  -7  -1  402.06   37.20
  -1  -7  -1  419.66   39.90
  -1  -7  -1  411.96   38.20
   1   7   1  473.75   38.60
   1   7   1  428.06   37.30
   1   7   1  424.56   28.70
   1   7   1  404.06   35.90
  -2  -7  -1 1442.96   88.39
  -2  -7  -1 1299.07   84.59
  -2  -7  -1 1358.46   86.89
   2   7   1 1376.66   86.59
   2   7   1 1236.08   96.19
   2   7   1 1389.76   86.49
  -3  -7  -1    6.70   13.70
  -3  -7  -1   31.90   15.90
  -3  -7  -1   20.80   13.70
   3   7   1   23.50    9.40
   3   7   1    1.40   12.30
  -4  -7  -1 1001.30   65.29
  -4  -7  -1  927.11   64.69
  -4  -7  -1  996.30   65.09
   4   7   1  924.21   59.09
   4   7   1  938.71   55.79
  -5  -7  -1   26.30   15.70
  -5  -7  -1   38.00   16.50
  -5  -7  -1   24.60   16.20
   5   7   1   66.49   15.80
   5   7   1   35.00    7.10
   5   7   1   40.00   15.90
   5   7   1   52.89   13.20
   5   7   1   46.00   15.10
  -6  -7  -1  136.59   23.40
  -6  -7  -1  163.98   22.70
  -6  -7  -1  148.49   22.30
   6   7   1  184.88   26.20
   6   7   1  144.59   20.90
   6   7   1  149.59   19.50
   6   7   1  211.18   28.40
   6   7   1  133.39   16.60
  -7  -7  -1   10.30   16.50
  -7  -7  -1    8.10   21.40
  -7  -7  -1   17.60   19.00
   7   7   1   24.40   16.60
   7   7   1   49.60   16.90
   7   7   1   21.30   14.00
   7   7   1   -0.60   14.80
   0  -8  -1  222.38   35.40
   0  -8  -1  275.97   34.80
   0  -8  -1  301.87   38.10
   0   8   1  306.67   41.20
   0   8   1  292.37   37.90
   0   8   1  225.08   29.90
   0   8   1  246.18   26.40
   0   8   1  217.58   29.00
  -1  -8  -1   31.70   20.50
  -1  -8  -1   -5.80   17.70
  -1  -8  -1  -10.20   21.60
   1   8   1  -20.10   17.60
   1   8   1    0.10    8.60
   1   8   1   12.60   18.00
   1   8   1   -4.40   17.00
   1   8   1   -3.30   16.00
  -2  -8  -1  452.85   44.20
  -2  -8  -1  371.36   41.60
  -2  -8  -1  408.56   40.80
   2   8   1  404.16   27.50
   2   8   1  451.15   39.30
   2   8   1  427.76   41.90
   2   8   1  376.26   41.30
  -3  -8  -1  195.38   28.40
  -3  -8  -1  229.58   30.80
  -3  -8  -1  165.88   25.90
   3   8   1  204.68   20.90
   3   8   1  219.28   25.30
   3   8   1  142.39   24.80
   3   8   1  220.98   33.20
  -4  -8  -1   61.69   22.20
  -4  -8  -1   38.60   18.40
  -4  -8  -1   69.19   21.00
   4   8   1   52.59    6.20
   4   8   1   47.50   18.50
   4   8   1   50.09   19.00
   4   8   1   70.39   14.30
  -5  -8  -1  346.27   40.10
  -5  -8  -1  320.87   37.70
   5   8   1  324.97   33.80
   5   8   1  260.77   20.00
   5   8   1  276.17   34.80
   5   8   1  281.97   27.70
   5   8   1  357.56   37.50
   3   7  -2  295.47   38.50
   3   7  -2  209.68   32.30
   3   7  -2  282.37   35.80
  -3  -7   2  243.68   33.90
  -3  -7   2  300.07   38.20
  -3  -7   2  349.37   49.90
   2   7  -2   78.69   22.00
   2   7  -2   89.79   10.80
   2   7  -2  110.59   25.50
   2   7  -2  123.69   24.90
  -2  -7   2   90.89   28.80
  -2  -7   2   32.30   27.00
  -2  -7   2   69.49   25.80
   1   7  -2   44.90   24.60
   1   7  -2   75.69   23.50
   1   7  -2   64.49   22.80
  -1  -7   2  103.09   29.50
  -1  -7   2   82.99   25.90
  -1  -7   2   43.20   26.70
   0   7  -2  276.67   41.00
   0   7  -2  242.48   34.30
   0   7  -2  232.68   33.30
   0  -7   2  265.17   36.20
   0  -7   2  269.27   38.10
   0  -7   2  259.07   36.40
   5   6  -2  122.69   22.60
   5   6  -2  173.78   21.90
   5   6  -2  140.29   25.60
  -5  -6   2   92.79   29.70
  -5  -6   2  108.69   25.20
   4   6  -2  184.88   26.50
   4   6  -2  156.38   20.40
   4   6  -2  209.88   27.10
  -4  -6   2  163.68   26.90
  -4  -6   2  222.98   30.80
   3   6  -2  158.78   15.40
   3   6  -2  153.08   23.80
  -3  -6   2  141.39   24.30
  -3  -6   2  165.48   26.30
  -3  -6   2  128.09   26.90
   2   6  -2  881.31   54.49
   2   6  -2  964.90   66.39
   2   6  -2  840.32   64.29
  -2  -6   2  972.30   66.09
  -2  -6   2  967.80   68.79
  -2  -6   2  925.31   66.79
   1   6  -2   12.00   14.50
   1   6  -2    1.90   14.80
   1   6  -2    6.40    5.60
   1   6  -2    4.60   14.70
  -1  -6   2   10.00   17.80
  -1  -6   2   17.30   18.70
  -1  -6   2   32.20   19.40
   0   6  -2  921.21   62.59
   0   6  -2  883.91   62.09
   0   6  -2  813.12   60.99
   0   6  -2  847.42   61.29
   0  -6   2  832.42   63.89
   0  -6   2  866.11   63.69
   0  -6   2  859.21   63.69
  -1   6  -2  191.08   25.70
  -1   6  -2  276.97   32.00
  -1   6  -2  182.98   25.90
  -1   6  -2  254.57   33.20
  -1   6  -2  168.28   16.30
   1  -6   2  252.27   34.10
   1  -6   2  230.78   34.60
   1  -6   2  184.08   28.80
  -2   6  -2   84.79   24.00
  -2   6  -2  142.19   25.00
  -2   6  -2  124.29   22.80
  -2   6  -2  116.99   23.60
   2  -6   2  193.58   28.60
   2  -6   2  123.29   26.20
   2  -6   2  126.79   27.20
   6   5  -2   25.50   18.40
   6   5  -2   10.90    9.70
   6   5  -2   -3.40   15.00
   6   5  -2   35.80   19.30
  -6  -5   2    7.20   20.30
  -6  -5   2   12.20   21.40
   5   5  -2  358.26   32.50
   5   5  -2  309.37   27.40
   5   5  -2  433.46   38.80
   5   5  -2  330.67   34.30
  -5  -5   2  252.77   34.40
  -5  -5   2  336.37   45.10
  -5  -5   2  299.47   39.60
   4   5  -2   33.90   10.90
  -4  -5   2   21.30   19.00
  -4  -5   2   48.20   16.70
  -4  -5   2   27.70   17.50
   3   5  -2   82.19   13.10
   3   5  -2   97.49   11.90
  -3  -5   2   69.39   18.70
  -3  -5   2   84.79   17.20
  -3  -5   2   63.59   19.90
   2   5  -2  203.48   15.90
   2   5  -2  199.68   23.30
   2   5  -2  204.98   25.40
   2   5  -2  192.08   26.10
  -2  -5   2  238.28   31.00
  -2  -5   2  216.58   30.20
  -2  -5   2  269.27   30.60
   1   5  -2  142.69   18.90
   1   5  -2  104.89   16.10
   1   5  -2  108.49    9.90
   1   5  -2   95.89   17.10
  -1  -5   2  123.69   20.20
  -1  -5   2  105.79   17.80
  -1  -5   2  119.39   25.80
   0   5  -2   34.50   13.40
   0   5  -2   34.50   19.20
   0   5  -2   24.30   12.90
   0   5  -2   17.40   14.10
   0  -5   2   30.70   14.70
   0  -5   2   25.20   15.50
  -1   5  -2  410.56   49.60
  -1   5  -2  446.96   37.50
  -1   5  -2  431.36   36.50
   1  -5   2  463.15   39.50
   1  -5   2  455.15   39.20
  -2   5  -2  155.08   21.60
  -2   5  -2  156.28   20.60
  -2   5  -2   92.19   17.80
  -2   5  -2  111.59   19.40
   2  -5   2  139.39   21.60
  -3   5  -2  138.69   22.70
  -3   5  -2  186.08   24.80
  -3   5  -2  152.38   22.50
  -3   5  -2  205.48   23.90
   3  -5   2  142.29   24.30
   3  -5   2  153.98   24.20
   3  -5   2  172.38   25.50
  -4   5  -2  256.97   34.10
  -4   5  -2  217.68   32.80
  -4   5  -2  228.88   30.80
  -4   5  -2  207.68   28.50
  -4   5  -2  259.17   37.10
   4  -5   2  291.87   37.90
   4  -5   2  325.87   55.19
   4  -5   2  219.78   29.80
   4  -5   2  267.37   34.10
   7   4  -2   75.59   20.40
   7   4  -2   58.09   21.80
   7   4  -2   26.70   18.20
  -7  -4   2   49.10   21.60
  -7  -4   2   67.79   25.80
   6   4  -2  118.99   18.80
   6   4  -2   92.59   19.30
   6   4  -2   77.69   20.70
  -6  -4   2  105.09   21.50
  -6  -4   2   97.39   21.20
   5   4  -2   65.49   15.30
   5   4  -2   90.69   17.20
   5   4  -2   48.80    8.40
  -5  -4   2   60.79   18.00
  -5  -4   2   29.40   14.70
   4   4  -2  759.82   46.20
   4   4  -2  663.53   50.89
   4   4  -2  798.82   52.39
   4   4  -2  712.83   49.20
  -4  -4   2  756.52   53.29
   3   4  -2   71.79   13.90
   3   4  -2   42.20    8.70
  -3  -4   2   53.99   13.60
  -3  -4   2   45.50   14.40
  -3  -4   2   57.79   17.00
   2   4  -2  927.81   60.99
   2   4  -2  956.10   60.29
   2   4  -2  947.61   57.39
   2   4  -2  909.21   54.29
  -2  -4   2  926.41   60.39
  -2  -4   2  882.71   62.49
  -2  -4   2  920.51   61.19
   1   4  -2  876.91   54.89
   1   4  -2  786.02   56.39
  -1  -4   2  994.50   57.29
  -1  -4   2  845.52   57.69
  -1  -4   2  856.41   58.29
   0   4  -2  132.99   17.50
   0   4  -2   91.89   14.00
   0   4  -2   80.69   13.50
   0   4  -2   77.39    6.90
   0   4  -2  100.59   13.70
   0  -4   2   81.89   14.40
   0  -4   2   71.79   14.60
  -1   4  -2  858.11   57.29
  -1   4  -2  823.42   57.19
  -1   4  -2  845.12   57.09
   1  -4   2  851.81   58.29
   1  -4   2 1019.50   57.39
   1  -4   2  843.42   58.19
  -2   4  -2  124.19   17.30
   2  -4   2  160.38   22.00
  -3   4  -2  123.39   17.40
  -3   4  -2  118.79   17.00
  -3   4  -2  111.39   18.50
   3  -4   2  122.99   18.00
  -4   4  -2  229.88   26.90
  -4   4  -2  173.88   25.40
  -4   4  -2  160.88   24.00
  -4   4  -2  146.09   21.00
  -4   4  -2  219.78   26.20
   4  -4   2  223.48   28.60
   4  -4   2  150.48   23.40
   4  -4   2  175.68   38.70
   4  -4   2  178.98   23.10
  -5   4  -2   14.20   16.00
  -5   4  -2  -10.80   15.80
  -5   4  -2  -33.60   19.00
  -5   4  -2   -3.60   15.40
  -5   4  -2   15.30   19.00
   5  -4   2   14.80   17.10
   5  -4   2   -4.40   31.50
   5  -4   2    6.10   17.40
   5  -4   2   20.00   21.70
   7   3  -2   81.59   19.90
   7   3  -2   71.89   18.90
   7   3  -2   60.09   18.50
  -7  -3   2   53.19   22.80
  -7  -3   2   84.89   21.00
   6   3  -2  167.28   23.60
   6   3  -2  208.68   26.50
  -6  -3   2  176.38   25.10
  -6  -3   2  200.98   30.20
   5   3  -2    3.00   10.30
   5   3  -2   12.70   13.80
   5   3  -2    9.60    3.90
   5   3  -2   16.40   12.70
  -5  -3   2    6.80   14.40
   4   3  -2  813.42   49.10
   4   3  -2  779.62   52.09
   4   3  -2  703.13   45.10
  -4  -3   2  747.23   52.59
   3   3  -2  204.18   21.60
   3   3  -2  196.68   16.40
   3   3  -2  256.87   23.40
  -3  -3   2  216.08   23.80
   2   3  -2  509.65   31.40
   2   3  -2  483.85   34.70
   2   3  -2  511.55   35.10
  -2  -3   2  510.65   36.00
  -2  -3   2  387.96   36.10
   1   3  -2  857.21   49.99
   1   3  -2  880.21   55.09
   1   3  -2  880.41   55.39
  -1  -3   2  866.01   56.29
  -1  -3   2  882.31   55.39
  -1  -3   2  848.82   55.49
   0   3  -2   20.60    8.10
   0   3  -2   14.80    7.70
   0   3  -2   14.70    7.90
   0   3  -2   19.30    2.50
   0  -3   2   31.70    9.80
   0  -3   2   27.30    9.40
   0  -3   2   15.00    8.60
  -1   3  -2  454.55   27.60
  -1   3  -2  324.07   27.10
   1  -3   2  350.46   28.10
   1  -3   2  347.47   27.80
   1  -3   2  355.76   28.60
  -2   3  -2  571.94   33.90
  -2   3  -2  529.05   33.50
  -2   3  -2  425.66   33.40
   2  -3   2  446.26   34.00
   2  -3   2  433.36   33.80
   2  -3   2  432.66   34.00
  -3   3  -2   14.40    9.00
  -3   3  -2    7.40   10.00
  -3   3  -2    6.80    8.30
   3  -3   2    0.10    9.30
   3  -3   2   13.70    9.90
   3  -3   2    4.60   10.20
  -4   3  -2  223.98   25.90
  -4   3  -2  217.68   27.40
  -4   3  -2  194.88   21.70
  -4   3  -2  171.78   24.50
   4  -3   2  197.28   23.60
   4  -3   2  191.98   35.30
   4  -3   2  217.88   23.10
  -5   3  -2  127.29   17.80
  -5   3  -2  143.69   21.90
  -5   3  -2  162.38   22.30
  -5   3  -2  137.19   20.50
   5  -3   2  120.79   34.60
   5  -3   2  101.09   17.00
   5  -3   2  134.99   22.10
  -6   3  -2   -7.80   19.80
  -6   3  -2   16.00   21.20
  -6   3  -2    8.10   13.60
  -6   3  -2    8.30   13.90
   6  -3   2  -11.40   14.30
   6  -3   2   22.50   34.50
   6  -3   2    3.00   14.00
   7   2  -2    7.50   13.00
   7   2  -2   13.80   16.20
   7   2  -2   26.20   15.50
  -7  -2   2   -8.10   16.60
  -7  -2   2   16.70   18.20
   6   2  -2   36.40   16.10
   6   2  -2   68.59   15.10
   6   2  -2   61.29   14.70
  -6  -2   2   74.59   17.30
  -6  -2   2   21.40   16.70
   5   2  -2   54.29   13.70
   5   2  -2   27.90   10.60
   5   2  -2   67.39   15.20
  -5  -2   2   25.00   13.50
  -5  -2   2   60.79   15.40
   4   2  -2   45.60   12.30
   4   2  -2   36.50   11.60
  -4  -2   2   43.00   13.20
   3   2  -2  923.01   53.89
   3   2  -2  944.41   57.29
   3   2  -2  947.11   59.39
  -3  -2   2  905.61   59.59
   2   2  -2  337.67   21.60
   2   2  -2  348.57   25.80
   2   2  -2  321.57   25.30
  -2  -2   2  343.37   26.40
  -2  -2   2  320.77   25.30
   1   2  -2 1829.92  101.59
   1   2  -2 1816.52  101.59
  -1  -2   2 1749.03  101.69
  -1  -2   2 1749.03  101.39
  -1  -2   2 1435.66  101.39
   0   2  -2 2503.85  148.19
   0   2  -2 2648.14  148.59
   0  -2   2 2546.55  148.29
   0  -2   2 2462.85  148.39
   0  -2   2 2657.93  148.69
  -1   2  -2  422.26   28.40
  -1   2  -2  401.86   28.30
  -1   2  -2  418.26   23.40
  -1   2  -2  398.66   28.10
   1  -2   2  413.86   28.60
   1  -2   2  401.46   28.40
   1  -2   2  419.06   28.30
  -2   2  -2 2316.87  128.09
  -2   2  -2 2184.08  127.59
  -2   2  -2 2182.18  128.09
   2  -2   2 2179.08  127.79
   2  -2   2 2240.48  127.89
   2  -2   2 2077.69  127.89
  -3   2  -2   44.10    8.90
   3  -2   2   43.30    9.10
   3  -2   2   41.90    8.90
   3  -2   2   59.89   19.90
   3  -2   2   55.59   10.80
  -4   2  -2  354.86   27.40
  -4   2  -2  409.06   28.10
  -4   2  -2  400.66   30.40
   4  -2   2  354.06   27.80
   4  -2   2  402.46   43.50
   4  -2   2  370.56   28.10
   4  -2   2  372.56   30.20
  -5   2  -2  139.99   17.20
  -5   2  -2  127.09   18.50
  -5   2  -2  149.99   17.60
   5  -2   2  120.59   31.30
   5  -2   2  140.69   19.80
   5  -2   2  132.19   17.70
  -6   2  -2    0.10   15.70
  -6   2  -2    0.60   15.80
  -6   2  -2   17.50   10.20
  -6   2  -2    4.20   10.20
   6  -2   2   14.70   10.10
   6  -2   2   18.20   23.70
  -7   2  -2   13.70   22.30
  -7   2  -2    8.40   12.70
  -7   2  -2  -43.30   21.60
  -7   2  -2   25.40   12.50
   7  -2   2   60.89   35.80
   7  -2   2    8.50   13.00
   7   1  -2   33.10   17.40
   7   1  -2   -4.70   14.60
   7   1  -2    0.20   10.60
  -7  -1   2   19.90   13.50
  -7  -1   2  -12.90   17.80
   6   1  -2  234.68   26.70
   6   1  -2  153.48   22.50
   6   1  -2  251.57   23.30
  -6  -1   2  205.48   30.20
   5   1  -2  221.28   22.20
   5   1  -2  250.77   23.50
   5   1  -2  205.98   26.50
  -5  -1   2  188.18   26.60
  -5  -1   2  222.88   24.90
   4   1  -2  193.98   22.30
   4   1  -2  274.87   19.50
   4   1  -2  225.78   24.10
  -4  -1   2  178.88   23.30
   3   1  -2  768.42   52.29
   3   1  -2  741.13   51.69
   3   1  -2  947.51   50.59
  -3  -1   2  787.12   52.29
  -3  -1   2  798.82   52.49
   2   1  -2   49.40    9.70
   2   1  -2   57.39    9.70
  -2  -1   2   60.69    9.70
  -2  -1   2   48.10    9.80
   1   1  -2  586.94   35.80
   1   1  -2  495.55   34.90
  -1  -1   2  568.94   35.80
  -1  -1   2  510.45   34.90
   0   1  -2 1202.38   68.09
   0   1  -2 1116.99   67.59
   0  -1   2 1164.98   64.39
   0  -1   2 1108.99   67.59
   0  -1   2 1142.99   67.99
   0  -1   2 1088.79   67.49
  -1   1  -2   78.69   10.10
  -1   1  -2   94.29    9.40
  -1   1  -2   70.79    9.50
   1  -1   2   93.29    9.60
   1  -1   2   96.79   10.00
   1  -1   2   85.79   10.10
  -2   1  -2  639.74   40.50
  -2   1  -2  658.33   40.70
  -2   1  -2  649.93   40.30
   2  -1   2  637.54   40.40
   2  -1   2  618.34   40.50
   2  -1   2  675.93   40.60
   2  -1   2  753.42   47.80
  -3   1  -2  812.02   51.89
  -3   1  -2  853.11   51.19
  -3   1  -2  809.62   50.79
   3  -1   2  859.81   51.09
   3  -1   2  937.71   60.59
   3  -1   2  817.42   51.89
   3  -1   2  853.01   50.89
  -4   1  -2    0.80    5.20
  -4   1  -2    6.40    5.40
  -4   1  -2   12.80    7.30
   4  -1   2   -8.70    6.80
   4  -1   2    6.00    5.60
   4  -1   2   33.20   16.90
   4  -1   2    4.30    5.40
  -5   1  -2  460.65   32.00
  -5   1  -2  350.86   27.00
  -5   1  -2  409.36   27.40
   5  -1   2  412.96   27.10
   5  -1   2  368.96   45.60
  -6   1  -2  118.39   18.20
  -6   1  -2   63.69    9.80
   6  -1   2   69.59   10.00
   6  -1   2   76.49   30.50
  -7   1  -2    3.70   17.60
  -7   1  -2   32.30    9.00
  -7   1  -2   33.80   19.40
  -7   1  -2   34.60    8.90
   7  -1   2   31.90   32.00
   7  -1   2   26.30    8.60
   7  -1   2   41.80    8.30
   7   0  -2    2.80   11.00
   7   0  -2   12.90   16.40
   7   0  -2    1.10   19.50
   7   0  -2  -14.50   16.10
  -7   0   2   -3.90   12.90
  -7   0   2   47.20   25.90
  -7   0   2    4.80   17.90
   6   0  -2   41.30   17.70
   6   0  -2   35.80   10.40
   6   0  -2   48.10   15.40
   6   0  -2   39.90   13.90
  -6   0   2   54.89   12.50
  -6   0   2   16.20   17.90
  -6   0   2   38.90   15.90
   5   0  -2  237.48   20.50
   5   0  -2  211.18   26.00
   5   0  -2  202.48   24.80
  -5   0   2  165.48   23.40
   4   0  -2   16.20    7.40
   4   0  -2    7.40    8.60
   4   0  -2   10.80   10.50
   4   0  -2   -0.70    7.20
  -4   0   2    5.00    8.80
   3   0  -2  409.96   26.20
   3   0  -2  300.97   25.00
   3   0  -2  285.87   25.30
   3   0  -2  383.56   24.90
  -3   0   2  399.86   26.70
  -3   0   2  301.97   25.60
   2   0  -2  610.34   33.70
   2   0  -2  680.03   38.80
   2   0  -2  556.94   35.80
   2   0  -2  613.94   37.10
  -2   0   2  475.95   37.50
  -2   0   2  625.04   38.90
   1   0  -2   13.90    5.40
   1   0  -2    9.90    5.40
  -1   0   2    6.20    4.80
  -1   0   2   -0.40    5.10
   0   0  -2  939.41   55.29
   0   0  -2  908.91   55.19
   0   0   2  876.51   55.09
   0   0   2  950.90   55.39
  -1   0  -2 1419.16   89.69
  -1   0  -2 1676.33   89.09
  -1   0  -2 1633.54   90.19
   1   0   2 1316.47   89.59
   1   0   2 1663.73   89.09
   1   0   2 1644.84   90.19
   1   0   2 1503.55   91.59
  -2   0  -2   74.39    8.00
  -2   0  -2   81.99    8.30
  -2   0  -2   78.69    7.90
   2   0   2   79.29    7.90
   2   0   2   75.29   14.40
   2   0   2   80.89    8.50
   2   0   2   83.59    7.00
   2   0   2   75.29    8.00
  -3   0  -2 1878.71  106.09
  -3   0  -2 1829.02  104.89
  -3   0  -2 1898.61  105.19
   3   0   2 1911.71  105.39
   3   0   2 1794.82  105.99
   3   0   2 1850.01  104.79
   3   0   2 1666.23  113.59
  -4   0  -2  222.18   17.60
  -4   0  -2  194.28   13.80
  -4   0  -2  175.78   16.00
  -4   0  -2  199.78   17.50
   4   0   2  194.88   29.40
   4   0   2  196.38   14.10
   4   0   2  181.28   16.80
   4   0   2  174.68   13.10
  -5   0  -2  370.76   24.90
  -5   0  -2  399.66   25.20
  -5   0  -2  481.15   29.40
  -5   0  -2  400.86   31.00
   5   0   2  420.06   25.40
   5   0   2  314.07   42.50
  -6   0  -2  234.18   15.90
  -6   0  -2  216.98   15.40
  -6   0  -2  183.48   23.90
  -6   0  -2  226.38   24.10
  -7   0  -2    8.70   15.30
  -7   0  -2   -1.10   15.90
   7   0   2   -8.20   25.30
  -8   0  -2   27.80   23.00
  -8   0  -2   -5.10   21.70
  -8   0  -2   42.50   14.20
   8   0   2   80.39   45.10
   6  -1  -2    8.20   18.40
   6  -1  -2  -11.70    9.90
   6  -1  -2   -6.10   12.70
  -6   1   2  -17.80   13.40
  -6   1   2  -10.20   10.80
  -6   1   2    4.20   18.00
   5  -1  -2  301.97   37.60
   5  -1  -2  414.06   31.40
   5  -1  -2  273.17   32.30
   5  -1  -2  373.86   28.30
  -5   1   2  386.66   29.40
  -5   1   2  402.16   34.70
  -5   1   2  374.96   31.30
   4  -1  -2  412.06   29.80
   4  -1  -2  374.96   27.60
   4  -1  -2  386.36   35.40
   4  -1  -2  405.86   28.80
  -4   1   2  363.46   29.80
  -4   1   2  375.26   22.60
  -4   1   2  360.56   29.40
  -4   1   2  379.76   31.10
   3  -1  -2  412.56   32.70
   3  -1  -2  393.26   27.40
   3  -1  -2  392.26   27.10
   3  -1  -2  387.46   27.80
  -3   1   2  376.36   22.90
  -3   1   2  385.76   27.60
  -3   1   2  356.56   27.20
   2  -1  -2 2431.36  135.59
   2  -1  -2 2306.27  134.99
   2  -1  -2 2342.27  135.69
   2  -1  -2 2339.17  132.89
  -2   1   2 2436.06  135.89
  -2   1   2 2269.07  132.89
  -2   1   2 2321.57  135.79
   1  -1  -2    6.00    3.90
   1  -1  -2    9.40    2.40
   1  -1  -2   16.20    5.20
   1  -1  -2   15.50    4.90
  -1   1   2    7.40    2.60
  -1   1   2    7.60    4.90
  -1   1   2   12.10    5.00
   0  -1  -2 2980.50  171.88
   0  -1  -2 3044.50  171.98
   0  -1  -2 3122.59  170.88
   0   1   2 3090.79  172.18
   0   1   2 2903.51  170.78
   0   1   2 2968.90  171.88
  -1  -1  -2  879.31   52.89
  -1  -1  -2  936.31   53.09
  -1  -1  -2  873.91   52.69
   1   1   2  960.90   53.19
   1   1   2  865.11   52.89
  -2  -1  -2  309.37   18.10
  -2  -1  -2  281.67   17.20
   2   1   2  307.77   18.00
   2   1   2  282.87   17.20
   2   1   2  225.08   21.90
  -3  -1  -2  534.95   30.60
  -3  -1  -2  532.35   30.30
  -3  -1  -2  510.45   31.40
   3   1   2  488.95   30.00
   3   1   2  527.55   30.20
   3   1   2  537.25   31.80
  -4  -1  -2  172.98   15.40
  -4  -1  -2  184.48   14.90
   4   1   2  174.18   15.20
  -5  -1  -2    8.20    7.80
  -5  -1  -2   -4.10    6.10
   5   1   2  -20.10   16.00
   5   1   2   11.40    7.90
   6   1   2  118.59   30.10
  -7  -1  -2   70.49   15.40
  -7  -1  -2   73.59   16.40
  -7  -1  -2   56.99   11.40
   7   1   2   26.00   28.90
  -8  -1  -2   32.20   20.50
  -8  -1  -2   10.80   19.00
   8   1   2   41.40   35.60
   6  -2  -2   19.10   23.30
   6  -2  -2   -1.30   14.00
   6  -2  -2   31.70   12.60
  -6   2   2   13.60    6.20
  -6   2   2   20.50   13.40
  -6   2   2   18.00   15.80
  -6   2   2   15.10   20.30
  -6   2   2   22.00   18.00
   5  -2  -2    4.50    9.40
   5  -2  -2   -1.90   10.70
   5  -2  -2   -3.50   19.80
  -5   2   2   16.60    5.80
  -5   2   2   21.00   10.40
  -5   2   2   20.80   13.20
  -5   2   2    7.20   12.10
  -5   2   2   -0.70   14.20
   4  -2  -2  297.37   24.10
   4  -2  -2  298.67   25.70
   4  -2  -2  268.27   24.90
   4  -2  -2  305.17   33.70
  -4   2   2  288.67   28.60
  -4   2   2  339.27   26.10
  -4   2   2  280.97   19.90
  -4   2   2  291.37   26.10
   3  -2  -2  180.38   16.70
   3  -2  -2  141.39   16.60
  -3   2   2  154.68   16.20
  -3   2   2  148.19   12.10
  -3   2   2  145.79   17.20
   2  -2  -2  799.22   48.60
   2  -2  -2  809.32   49.00
   2  -2  -2  770.42   47.90
  -2   2   2  772.42   46.20
  -2   2   2  763.92   48.00
  -2   2   2  794.32   49.10
  -2   2   2  806.42   49.40
  -2   2   2  765.12   48.60
   1  -2  -2 2018.60  117.09
   1  -2  -2 2032.00  115.99
   1  -2  -2 2072.39  117.19
   1  -2  -2 1986.30  115.29
  -1   2   2 1993.20  115.99
  -1   2   2 2091.39  117.39
  -1   2   2 1997.10  115.39
  -1   2   2 1989.00  116.69
  -1   2   2 2029.30  117.19
   0  -2  -2  169.58   13.20
   0  -2  -2  168.58   13.10
   0  -2  -2  153.78   11.20
   0  -2  -2  155.28   11.40
   0   2   2  160.48   12.00
   0   2   2  181.68   13.40
   0   2   2  157.18   11.50
   0   2   2  164.78   13.20
  -1  -2  -2 3629.24  201.18
  -1  -2  -2 3627.84  201.48
   1   2   2 3588.44  201.48
   1   2   2 3504.95  201.48
   1   2   2 3397.86  199.98
   1   2   2 3550.54  201.08
  -2  -2  -2  462.05   29.10
  -2  -2  -2  477.25   28.70
   2   2   2  474.85   28.70
   2   2   2  480.45   29.30
   2   2   2  482.65   28.70
  -3  -2  -2  924.61   53.99
  -3  -2  -2  818.92   53.49
  -3  -2  -2  967.30   54.69
  -3  -2  -2  925.31   53.09
   3   2   2  890.21   53.89
   3   2   2  969.00   54.49
   3   2   2  946.21   53.09
   3   2   2  973.00   60.29
  -4  -2  -2  917.71   53.19
  -4  -2  -2  904.11   52.79
  -4  -2  -2  911.71   53.09
   4   2   2  898.01   53.59
   4   2   2  809.12   59.79
  -5  -2  -2   -1.70    6.40
  -5  -2  -2   -1.10    5.30
  -5  -2  -2    6.30    7.10
   5   2   2    1.30    7.10
   5   2   2    0.90   12.90
  -6  -2  -2  233.58   19.20
  -6  -2  -2  233.88   21.80
  -6  -2  -2  234.48   22.10
   6   2   2  238.58   21.50
   6   2   2  201.68   33.10
  -7  -2  -2   60.19   15.40
  -7  -2  -2  106.09   16.00
  -7  -2  -2   76.49   10.80
   7   2   2   67.79   26.80
  -8  -2  -2   -4.10    8.50
  -8  -2  -2  -25.10   16.10
  -8  -2  -2   21.50   15.80
   8   2   2   23.80   28.50
   6  -3  -2   27.90   17.70
   6  -3  -2   62.79   31.60
   6  -3  -2   46.40   16.40
  -6   3   2   31.90   21.40
  -6   3   2   44.20   10.80
  -6   3   2   37.10   19.00
  -6   3   2   48.20   16.70
  -6   3   2   86.59   24.60
   5  -3  -2   47.00   26.60
   5  -3  -2   77.59   15.70
   5  -3  -2   60.89   13.90
  -5   3   2   61.69   15.60
  -5   3   2   74.39   10.40
  -5   3   2   72.89   19.10
  -5   3   2   68.69   16.90
  -5   3   2   46.20   16.20
   4  -3  -2  301.97   25.50
   4  -3  -2  238.88   24.00
  -4   3   2  282.67   29.30
  -4   3   2  224.88   24.50
  -4   3   2  276.47   26.50
  -4   3   2  223.98   19.90
  -4   3   2  235.28   25.30
   3  -3  -2    9.90    8.50
   3  -3  -2   -7.10    8.50
  -3   3   2    8.00    8.40
  -3   3   2   20.60    9.40
  -3   3   2   14.90   10.10
  -3   3   2    6.50    9.20
  -3   3   2   10.10    6.10
   2  -3  -2  131.69   13.00
   2  -3  -2  142.49   14.90
  -2   3   2  116.99   12.20
  -2   3   2  135.69   16.20
  -2   3   2   98.69   13.70
  -2   3   2  103.69   14.50
   1  -3  -2  462.25   31.20
   1  -3  -2  460.05   29.40
   1  -3  -2  489.05   29.60
  -1   3   2  451.55   29.30
  -1   3   2  468.05   31.50
  -1   3   2  465.35   29.30
  -1   3   2  452.95   30.90
  -1   3   2  465.15   31.60
   0  -3  -2  514.55   29.70
   0  -3  -2  462.85   32.00
   0  -3  -2  491.75   32.00
   0  -3  -2  480.35   30.50
   0  -3  -2  468.45   30.70
   0   3   2  508.95   32.20
   0   3   2  498.35   32.30
   0   3   2  508.65   31.00
   0   3   2  511.15   30.80
   0   3   2  487.75   29.70
  -1  -3  -2  443.66   29.10
  -1  -3  -2  458.75   26.00
  -1  -3  -2  435.36   27.30
  -1  -3  -2  466.85   29.10
  -1  -3  -2  453.15   28.10
   1   3   2  433.86   27.30
   1   3   2  487.15   29.30
   1   3   2  448.56   28.90
   1   3   2  428.96   28.20
  -2  -3  -2 3004.30  167.28
  -2  -3  -2 2902.61  165.78
  -2  -3  -2 2919.71  167.28
  -2  -3  -2 2883.31  166.98
   2   3   2 2971.50  167.28
   2   3   2 2923.31  167.08
   2   3   2 2920.51  167.18
  -3  -3  -2   10.90    4.20
  -3  -3  -2    8.50    4.50
  -3  -3  -2    7.80    2.90
  -3  -3  -2    7.80    3.90
   3   3   2   11.50    4.10
   3   3   2    4.10    4.80
   3   3   2   11.10    4.90
   3   3   2    7.20    3.70
  -4  -3  -2 1988.20  112.39
  -4  -3  -2 1934.01  113.39
  -4  -3  -2 1963.40  112.99
   4   3   2 2064.39  114.19
   4   3   2 1963.20  112.19
   4   3   2 1908.41  113.79
  -5  -3  -2  340.17   24.10
  -5  -3  -2  345.47   21.00
  -5  -3  -2  333.27   23.10
   5   3   2  340.27   24.90
  -6  -3  -2  298.77   21.00
  -6  -3  -2  265.77   22.80
   6   3   2  264.97   23.40
  -7  -3  -2  213.68   24.70
  -7  -3  -2  214.88   18.30
   7   3   2  176.18   22.50
  -8  -3  -2    5.60   17.80
  -8  -3  -2    7.20   15.00
   5  -4  -2    5.30   15.60
   5  -4  -2   44.00   30.90
   5  -4  -2   15.90   17.00
  -5   4   2    2.90   16.10
  -5   4   2   24.60   18.60
  -5   4   2    5.80   19.50
  -5   4   2   10.60   11.60
  -5   4   2   19.30   19.00
   4  -4  -2  247.98   26.00
   4  -4  -2  261.67   26.70
  -4   4   2  234.58   28.10
  -4   4   2  239.98   23.00
  -4   4   2  272.47   28.50
  -4   4   2  184.38   28.90
   3  -4  -2  325.47   28.80
  -3   4   2  352.76   30.50
  -3   4   2  323.67   28.20
  -3   4   2  342.97   34.50
  -3   4   2  333.17   25.90
  -3   4   2  322.57   30.40
   2  -4  -2   76.59   12.40
  -2   4   2   61.29   12.30
  -2   4   2   76.59   10.60
  -2   4   2   61.09   10.20
  -2   4   2   76.19   12.70
  -2   4   2   41.40   11.60
   1  -4  -2 1021.40   65.09
   1  -4  -2 1071.39   63.79
   1  -4  -2 1103.69   65.99
   1  -4  -2 1028.00   65.89
  -1   4   2 1033.70   65.69
  -1   4   2 1113.79   63.99
  -1   4   2 1087.19   65.19
  -1   4   2 1082.49   63.29
  -1   4   2 1033.00   65.69
   0  -4  -2  186.38   17.20
   0  -4  -2  181.18   15.60
   0  -4  -2  166.38   17.00
   0  -4  -2  187.48   16.50
   0   4   2  169.38   16.00
   0   4   2  203.88   15.90
   0   4   2  173.68   17.40
   0   4   2  195.48   18.00
   0   4   2  184.58   13.60
  -1  -4  -2  522.55   33.30
  -1  -4  -2  495.85   33.30
  -1  -4  -2  527.45   34.90
  -1  -4  -2  530.65   34.80
   1   4   2  547.95   35.30
   1   4   2  545.25   33.40
   1   4   2  555.74   35.00
   1   4   2  511.75   33.60
  -2  -4  -2  637.14   41.90
  -2  -4  -2  685.83   41.20
  -2  -4  -2  670.63   42.00
  -2  -4  -2  671.03   40.30
   2   4   2  655.33   41.30
   2   4   2  689.13   40.70
   2   4   2  659.43   41.80
   2   4   2  681.13   42.20
  -3  -4  -2   14.30    5.80
  -3  -4  -2   15.10    4.60
  -3  -4  -2   19.40    6.40
  -3  -4  -2   13.60    5.90
   3   4   2   21.80    6.30
   3   4   2   25.20    6.40
   3   4   2   22.80    6.70
   3   4   2   12.60    5.50
  -4  -4  -2  128.29   13.20
  -4  -4  -2  136.39   13.20
  -4  -4  -2  141.69   12.80
   4   4   2  142.29   12.90
   4   4   2  131.59   13.50
   4   4   2  133.89   12.70
   4   4   2  137.49   13.50
  -5  -4  -2  232.78   18.90
  -5  -4  -2  246.28   18.70
  -5  -4  -2  256.77   18.20
  -5  -4  -2  240.68   18.30
   5   4   2  252.77   20.40
   5   4   2  250.97   17.80
   5   4   2  280.87   20.70
  -6  -4  -2   30.40    5.50
  -6  -4  -2   37.00    7.70
  -6  -4  -2   30.50    8.80
  -6  -4  -2   32.70    7.10
   6   4   2   34.40   10.60
   6   4   2   27.00    4.20
   6   4   2   16.60    5.60
  -7  -4  -2   60.59   12.40
  -7  -4  -2   71.69   10.10
   7   4   2   58.69   14.60
  -8  -4  -2  133.09   16.60
  -8  -4  -2  144.39   21.60
  -8  -4  -2   77.79   16.70
   8   4   2   63.09   17.10
   4  -5  -2   -0.90   16.50
  -4   5   2    9.70   13.10
  -4   5   2  -18.40   18.20
  -4   5   2   -8.60   15.60
  -4   5   2    6.00   18.60
  -4   5   2    4.50   16.50
  -3   5   2  524.15   38.50
  -3   5   2  470.95   41.20
  -3   5   2  464.95   40.70
  -3   5   2  472.85   36.60
  -3   5   2  505.75   41.10
   2  -5  -2  225.88   25.40
  -2   5   2  200.28   24.50
  -2   5   2  233.48   23.20
  -2   5   2  206.08   21.70
  -2   5   2  233.78   26.10
   1  -5  -2  536.15   40.80
   1  -5  -2  564.54   39.30
  -1   5   2  577.34   40.60
  -1   5   2  531.65   36.20
  -1   5   2  574.14   38.00
  -1   5   2  561.14   39.60
  -1   5   2  569.24   40.70
   0  -5  -2 1326.27   74.09
   0  -5  -2 1206.18   74.49
   0  -5  -2 1206.18   72.79
   0  -5  -2 1119.59   71.69
   0   5   2 1160.18   73.99
   0   5   2 1105.09   72.29
   0   5   2 1249.88   72.49
   0   5   2 1207.68   69.99
  -1  -5  -2    1.10    8.70
  -1  -5  -2   -6.00    5.70
   1   5   2   -6.70    6.10
   1   5   2    8.60    6.70
   1   5   2    2.30    3.10
   1   5   2   11.70    7.90
   1   5   2    6.50    8.00
  -2  -5  -2 1211.08   69.99
  -2  -5  -2 1105.19   71.39
  -2  -5  -2 1114.09   69.59
  -2  -5  -2 1320.87   71.69
   2   5   2 1183.68   70.19
   2   5   2 1124.89   71.49
   2   5   2 1159.08   71.49
   2   5   2 1159.38   70.49
  -3  -5  -2  697.63   43.70
  -3  -5  -2  648.14   42.80
  -3  -5  -2  693.03   45.20
  -3  -5  -2  732.73   44.60
   3   5   2  719.43   45.10
   3   5   2  676.43   43.90
   3   5   2  691.13   44.70
  -4  -5  -2   90.19   12.60
  -4  -5  -2   83.69   11.90
  -4  -5  -2  114.19   13.10
   4   5   2  101.89   13.70
   4   5   2   93.39   13.30
   4   5   2   71.69   10.80
   4   5   2   80.99   11.50
  -5  -5  -2  838.92   52.59
  -5  -5  -2  803.32   51.59
  -5  -5  -2  877.11   51.19
   5   5   2  811.82   51.99
   5   5   2  822.22   51.09
   5   5   2  852.21   51.79
   5   5   2  775.32   51.59
  -6  -5  -2   72.99   10.30
   6   5   2   61.49   11.60
   6   5   2   65.39   13.00
   6   5   2   60.09    9.00
  -7  -5  -2  199.78   17.50
  -7  -5  -2  226.78   18.30
   7   5   2  213.58   15.60
   7   5   2  217.78   23.60
   7   5   2  155.98   18.30
   8   5   2   52.69   15.90
   3  -6  -2   96.89   24.70
  -3   6   2   90.59   21.60
  -3   6   2   94.49   22.90
  -3   6   2   48.90   17.70
  -3   6   2  100.69   19.00
  -3   6   2   93.59   20.40
   2  -6  -2   55.59   17.70
   2  -6  -2   45.30   17.20
   2  -6  -2   39.10   16.90
  -2   6   2   49.30   16.40
  -2   6   2   47.00   14.40
  -2   6   2   71.59   17.60
  -2   6   2   66.39   17.10
  -2   6   2   64.99   13.70
   1  -6  -2   15.90   14.00
   1  -6  -2    5.80   12.60
   1  -6  -2   -0.30   12.00
  -1   6   2    2.10    8.00
  -1   6   2    7.50   11.80
  -1   6   2   10.00   11.50
  -1   6   2   -1.60   12.20
   0  -6  -2  392.26   34.10
   0  -6  -2  409.86   33.00
   0  -6  -2  411.56   31.40
   0   6   2  338.87   35.90
   0   6   2  381.16   26.20
   0   6   2  423.76   33.60
   0   6   2  363.26   30.90
   0   6   2  349.67   30.10
  -1  -6  -2  383.06   30.10
  -1  -6  -2  348.47   31.10
  -1  -6  -2  381.56   27.60
  -1  -6  -2  369.96   28.80
   1   6   2  347.47   22.50
   1   6   2  342.27   30.00
   1   6   2  337.77   30.40
   1   6   2  261.57   37.20
  -2  -6  -2  129.29   17.00
  -2  -6  -2  159.68   18.00
  -2  -6  -2  175.98   21.50
  -2  -6  -2  163.18   20.00
   2   6   2  181.18   21.00
   2   6   2  143.39   18.10
   2   6   2  156.28   17.60
  -3  -6  -2  864.21   56.99
  -3  -6  -2  917.61   59.69
  -3  -6  -2  907.61   56.99
  -3  -6  -2  913.71   59.19
   3   6   2  911.31   59.39
   3   6   2  959.50   57.99
   3   6   2  951.80   59.79
  -4  -6  -2   56.09   10.30
  -4  -6  -2   47.00   10.20
  -4  -6  -2   44.50   11.00
  -4  -6  -2   55.69   12.20
   4   6   2   59.79   11.40
   4   6   2   58.19   11.00
   4   6   2   43.40   11.30
  -5  -6  -2  348.17   26.80
  -5  -6  -2  338.87   27.70
  -5  -6  -2  360.86   28.70
  -5  -6  -2  351.96   27.80
   5   6   2  321.77   26.10
   5   6   2  300.27   29.40
   5   6   2  373.96   28.20
   5   6   2  308.47   28.40
  -6  -6  -2  257.27   28.90
  -6  -6  -2  259.37   22.80
  -6  -6  -2  232.98   24.10
  -6  -6  -2  225.28   26.00
   6   6   2  294.87   26.20
   6   6   2  261.87   23.40
   6   6   2  244.18   23.80
   6   6   2  234.08   24.40
  -7  -6  -2  -12.60    9.80
  -7  -6  -2  -14.90   11.00
  -7  -6  -2   24.90   10.50
   7   6   2    3.70    9.20
   7   6   2    8.00   13.10
   7   6   2   18.10   13.20
  -8  -6  -2  108.89   12.90
  -8  -6  -2   34.40   16.50
  -8  -6  -2   85.79   13.60
   8   6   2   54.69   17.10
   8   6   2   74.99   13.10
   2  -7  -2  172.08   28.70
   2  -7  -2  223.68   30.70
   2  -7  -2  260.07   36.80
  -2   7   2  244.98   36.00
  -2   7   2  200.58   25.60
  -2   7   2  217.78   28.40
  -2   7   2  174.78   22.70
  -2   7   2  253.57   37.50
   1  -7  -2   54.09   19.90
   1  -7  -2   39.60   17.90
   1  -7  -2   46.50   20.00
  -1   7   2   48.50   17.30
  -1   7   2   46.90   17.30
  -1   7   2   47.20   16.30
  -1   7   2   62.79   12.60
  -1   7   2   44.70   19.10
   0  -7  -2  422.16   39.60
   0  -7  -2  398.46   38.80
   0  -7  -2  419.86   35.70
   0   7   2  451.35   38.30
   0   7   2  389.86   38.10
   0   7   2  429.16   34.90
   0   7   2  389.46   35.90
   0   7   2  403.36   29.00
  -1  -7  -2  583.84   44.60
  -1  -7  -2  539.45   42.10
  -1  -7  -2  544.25   45.10
   1   7   2  547.05   34.20
   1   7   2  533.65   40.50
   1   7   2  563.64   43.60
   1   7   2  570.34   43.90
  -2  -7  -2   50.19   12.60
  -2  -7  -2   60.69   14.80
  -2  -7  -2   48.20   12.10
   2   7   2   59.79   15.50
   2   7   2   43.10   11.90
   2   7   2   54.39   15.40
  -3  -7  -2  557.34   41.10
  -3  -7  -2  607.94   43.80
  -3  -7  -2  576.34   41.30
  -3  -7  -2  577.74   44.50
  -4  -7  -2   83.09   15.60
  -4  -7  -2  103.29   17.90
  -4  -7  -2   84.79   13.90
  -4  -7  -2   70.29   13.80
   4   7   2   78.69   13.50
   4   7   2   77.59   15.10
  -5  -7  -2   27.50   14.30
  -5  -7  -2   24.00   12.40
  -5  -7  -2   66.89   12.80
  -5  -7  -2   41.40   13.10
   5   7   2   47.10   12.60
   5   7   2   65.99   17.10
   5   7   2    5.00   11.00
   5   7   2   58.19   14.60
  -6  -7  -2  149.29   19.10
  -6  -7  -2  108.09   18.40
  -6  -7  -2  128.09   18.60
  -6  -7  -2   77.19   17.20
   6   7   2  168.48   21.70
   6   7   2  101.39   17.40
   6   7   2  108.29   20.80
   6   7   2  117.49   17.60
  -7  -7  -2    8.50   14.30
  -7  -7  -2   44.90   16.10
  -7  -7  -2   28.40   13.50
  -7  -7  -2   48.30   17.40
   7   7   2   23.60   15.40
   7   7   2    7.30   18.60
   7   7   2   18.70   14.60
   7   7   2   37.70   13.80
   0  -8  -2   78.39   26.20
   0  -8  -2   67.19   21.20
   0  -8  -2  107.09   25.10
   0   8   2   60.59   23.00
   0   8   2   77.09   20.30
   0   8   2   80.79   12.70
   0   8   2   72.99   20.50
   0   8   2   91.89   23.20
  -1  -8  -2  273.37   38.50
  -1  -8  -2  304.47   37.00
  -1  -8  -2  336.67   35.30
   1   8   2  325.67   37.20
   1   8   2  271.97   33.20
   1   8   2  255.77   35.90
   1   8   2  269.27   21.30
   1   8   2  291.57   33.10
  -2  -8  -2   61.39   19.10
  -2  -8  -2   67.39   21.60
  -2  -8  -2   83.39   17.00
   2   8   2   83.79   18.30
   2   8   2   72.19   17.00
   2   8   2   62.89   18.60
   2   8   2   60.19   19.10
  -3  -8  -2  168.88   23.20
  -3  -8  -2  110.99   23.60
  -3  -8  -2  108.89   18.40
   3   8   2  152.48   22.60
   3   8   2  146.89   22.90
   3   8   2  127.19   20.10
  -4  -8  -2  476.95   39.00
  -4  -8  -2  431.66   40.80
   4   8   2  554.54   42.30
   4   8   2  422.36   34.90
   4   8   2  493.25   41.20
   4   8   2  471.95   39.80
  -5  -8  -2   -7.50   14.40
  -5  -8  -2   -6.60   17.70
  -5  -8  -2   21.10   13.90
  -5  -8  -2   -6.20   16.50
   5   8   2   -6.10   15.00
   5   8   2    8.20   15.20
   5   8   2    0.80   12.30
  -6  -8  -2  401.96   38.70
  -6  -8  -2  372.56   35.60
  -6  -8  -2  343.77   39.60
  -6  -8  -2  373.06   40.80
   6   8   2  353.26   37.60
   6   8   2  405.66   38.10
   6   8   2  377.36   39.80
   4   6  -3  157.78   32.30
   4   6  -3  202.48   30.50
  -4  -6   3  192.08   37.60
  -4  -6   3  218.88   32.30
  -4  -6   3  208.68   37.20
   3   6  -3  282.97   30.90
   3   6  -3  194.88   30.80
   3   6  -3  238.28   32.90
  -3  -6   3  176.48   35.30
  -3  -6   3  244.78   33.20
  -3  -6   3  285.07   37.20
   2   6  -3   28.70   21.20
   2   6  -3   32.20   20.90
   2   6  -3   46.80   18.90
  -2  -6   3   39.50   23.70
  -2  -6   3   39.00   26.90
  -2  -6   3   50.29   25.90
   1   6  -3  532.05   46.00
   1   6  -3  408.76   45.60
   1   6  -3  460.95   48.70
  -1  -6   3  457.55   50.49
  -1  -6   3  438.26   51.19
  -1  -6   3  521.55   49.99
   0   6  -3  143.29   25.70
   0   6  -3  102.69   24.80
   0   6  -3  127.09   24.50
   0  -6   3  105.19   29.60
   0  -6   3  164.38   30.40
   0  -6   3  125.19   27.60
  -1   6  -3  133.79   27.80
  -1   6  -3  100.89   25.20
  -1   6  -3  100.99   25.90
  -1   6  -3  118.49   24.60
   1  -6   3  190.28   30.00
   1  -6   3  149.09   29.90
   1  -6   3  150.88   31.40
   5   5  -3   17.10   23.10
   5   5  -3   42.60   19.60
   5   5  -3   15.20   12.20
   5   5  -3  -14.50   16.60
  -5  -5   3    9.60   20.50
  -5  -5   3   40.40   28.20
   4   5  -3  161.68   23.60
   4   5  -3  121.59   24.40
   4   5  -3  114.99   16.90
  -4  -5   3  130.69   28.00
  -4  -5   3  104.39   23.10
  -4  -5   3  185.48   30.10
   3   5  -3  162.08   31.70
   3   5  -3  240.48   32.70
   3   5  -3  266.57   33.90
  -3  -5   3  314.27   40.40
  -3  -5   3  234.58   31.80
  -3  -5   3  296.77   35.30
   2   5  -3    6.60   12.70
   2   5  -3    4.50   15.20
   2   5  -3   11.90   17.40
  -2  -5   3   41.30   19.80
  -2  -5   3    2.50   17.00
  -2  -5   3  -13.00   18.30
   1   5  -3  197.18   29.60
   1   5  -3  202.98   30.10
  -1  -5   3  213.58   28.40
  -1  -5   3  207.08   27.10
   0   5  -3  277.47   32.00
   0   5  -3  331.07   34.60
   0   5  -3  365.56   35.10
   0  -5   3  278.67   35.50
   0  -5   3  350.76   37.40
  -1   5  -3    3.90   15.20
  -1   5  -3    5.50   16.10
  -1   5  -3  -10.20   14.00
  -1   5  -3  -14.70   13.90
   1  -5   3  -16.50   19.50
   1  -5   3   -7.30   23.20
   1  -5   3  -19.50   17.90
  -2   5  -3  294.37   34.20
  -2   5  -3  326.47   35.50
  -2   5  -3  320.87   34.80
  -2   5  -3  347.17   36.60
   2  -5   3  306.37   39.80
   2  -5   3  285.97   41.10
   2  -5   3  251.87   33.10
  -3   5  -3  191.48   27.10
  -3   5  -3  134.99   24.40
  -3   5  -3  168.98   25.60
  -3   5  -3  123.39   26.00
   3  -5   3  198.28   29.60
   3  -5   3  150.38   27.30
   3  -5   3  126.39   39.80
   3  -5   3  161.28   27.10
   6   4  -3   23.30   23.50
   6   4  -3   18.00   19.40
   6   4  -3   44.40   22.70
  -6  -4   3   51.79   27.50
  -6  -4   3   18.90   23.40
   5   4  -3  152.58   21.80
   5   4  -3  153.98   16.20
   5   4  -3  137.59   24.80
  -5  -4   3   92.69   22.40
  -5  -4   3  127.69   28.50
   4   4  -3   -0.90   16.10
   4   4  -3    8.00    8.70
  -4  -4   3   10.50   14.80
  -4  -4   3    0.40   19.10
   3   4  -3  498.55   35.00
  -3  -4   3  473.85   41.60
  -3  -4   3  518.45   44.60
  -3  -4   3  518.35   45.60
   2   4  -3  452.05   37.00
   2   4  -3  465.55   33.60
   2   4  -3  414.96   37.70
  -2  -4   3  443.86   40.80
   1   4  -3  208.68   26.20
   1   4  -3  221.28   24.50
   1   4  -3  215.28   30.10
  -1  -4   3  184.08   24.50
  -1  -4   3  226.88   26.80
   0   4  -3  766.02   57.59
   0   4  -3  928.71   59.29
   0  -4   3  837.02   59.39
   0  -4   3  879.41   58.89
  -1   4  -3   33.20   13.40
  -1   4  -3    8.30   12.00
  -1   4  -3   29.10   12.00
   1  -4   3   42.10   13.90
   1  -4   3    7.40   14.30
  -2   4  -3  193.58   25.00
  -2   4  -3  249.97   27.00
  -2   4  -3  178.48   25.90
  -3   4  -3  142.79   20.80
  -3   4  -3  144.59   20.30
  -3   4  -3  131.89   21.90
   3  -4   3  141.59   34.00
   3  -4   3  149.09   22.30
   3  -4   3  159.98   22.80
  -4   4  -3   -0.80   14.80
  -4   4  -3   12.30   15.00
  -4   4  -3   12.70   17.50
   4  -4   3   -3.40   27.80
   4  -4   3   45.90   20.00
   4  -4   3   21.10   17.50
   6   3  -3   18.60   20.40
   6   3  -3   28.00   16.60
   6   3  -3    1.80   20.20
  -6  -3   3   14.80   22.00
  -6  -3   3   23.30   23.30
   5   3  -3  302.77   35.30
   5   3  -3  286.17   31.00
   5   3  -3  339.77   36.40
  -5  -3   3  261.17   38.60
  -5  -3   3  323.27   37.80
   4   3  -3   78.39   17.40
   4   3  -3   77.29    9.10
   4   3  -3   88.49   17.20
  -4  -3   3   85.39   17.20
  -4  -3   3   81.99   20.00
   3   3  -3  238.98   27.30
   3   3  -3  344.27   23.10
  -3  -3   3  389.36   34.10
  -3  -3   3  282.97   29.50
   2   3  -3  911.81   63.59
   2   3  -3 1018.60   59.99
   2   3  -3 1078.19   65.19
  -2  -3   3  987.30   66.29
  -2  -3   3  983.90   65.59
  -2  -3   3  907.51   63.59
   1   3  -3   15.80   11.30
  -1  -3   3   11.40   12.40
  -1  -3   3    9.10   11.50
   0   3  -3 1171.48   75.89
   0   3  -3 1150.18   75.89
   0  -3   3 1215.68   76.79
   0  -3   3 1203.98   76.89
   0  -3   3 1327.97   75.99
  -1   3  -3  519.85   36.60
  -1   3  -3  487.85   37.10
  -1   3  -3  502.65   37.10
   1  -3   3  468.55   37.90
   1  -3   3  514.35   37.70
   1  -3   3  524.55   37.90
  -2   3  -3  178.48   20.70
  -2   3  -3  151.68   20.40
  -2   3  -3  190.98   20.40
   2  -3   3  144.79   20.90
   2  -3   3  171.58   21.50
   2  -3   3  148.29   28.30
  -3   3  -3  516.95   51.99
  -3   3  -3  520.95   38.00
   3  -3   3  487.05   39.20
   3  -3   3  528.15   39.00
   3  -3   3  514.55   49.70
   3  -3   3  490.55   40.10
  -4   3  -3    1.30   13.20
  -4   3  -3   23.00   12.10
  -4   3  -3   14.70   11.80
   4  -3   3   21.50   13.50
   4  -3   3   23.80   26.30
  -5   3  -3   74.59   16.00
  -5   3  -3  109.19   17.40
  -5   3  -3  112.39   20.80
  -5   3  -3   95.29   20.50
   5  -3   3   37.20   31.50
   5  -3   3   81.39   16.90
   5  -3   3   80.79   17.10
   5  -3   3   89.69   20.90
   6   2  -3  -11.40   14.20
   6   2  -3    1.50   18.80
   6   2  -3    4.90   17.60
  -6  -2   3   21.40   21.10
  -6  -2   3  -19.70   20.80
   5   2  -3  210.48   25.70
   5   2  -3  239.68   31.00
  -5  -2   3  167.48   27.30
  -5  -2   3  308.77   34.60
   4   2  -3  116.09    8.40
   4   2  -3   93.49   18.40
   4   2  -3  143.39   17.40
   4   2  -3  149.29   20.50
  -4  -2   3  180.28   23.80
  -4  -2   3   74.79   18.40
   3   2  -3   25.40   12.20
   3   2  -3   22.60   11.20
   3   2  -3   37.20    5.80
  -3  -2   3   18.30   11.50
  -3  -2   3   20.60   12.90
   2   2  -3  336.37   28.10
   2   2  -3  250.37   24.90
  -2  -2   3  313.27   28.20
   1   2  -3  437.76   31.70
   1   2  -3  462.85   32.70
  -1  -2   3  378.56   33.10
  -1  -2   3  400.86   31.60
  -1  -2   3  423.16   32.80
   0   2  -3   43.50   10.00
   0   2  -3   32.70    9.90
   0  -2   3   25.40    9.90
   0  -2   3   28.00    9.80
   0  -2   3   52.29   11.60
  -1   2  -3 1431.76   84.79
  -1   2  -3 1431.36   85.39
  -1   2  -3 1441.86   85.49
   1  -2   3 1392.86   85.39
   1  -2   3 1379.86   85.09
   1  -2   3 1380.46   85.59
  -2   2  -3  324.17   25.70
  -2   2  -3  356.56   25.80
   2  -2   3  309.67   26.50
   2  -2   3  304.27   26.20
   2  -2   3  340.17   26.60
   2  -2   3  361.66   33.60
  -3   2  -3  523.95   38.10
  -3   2  -3  559.14   38.90
   3  -2   3  546.05   39.50
   3  -2   3  581.44   39.20
   3  -2   3  611.84   49.50
   3  -2   3  592.04   39.30
  -4   2  -3  555.64   39.50
  -4   2  -3  632.84   40.70
  -4   2  -3  647.24   42.90
   4  -2   3  517.45   53.29
   4  -2   3  585.24   40.70
   4  -2   3  560.64   50.19
   4  -2   3  549.54   40.40
  -5   2  -3    5.40    9.30
  -5   2  -3   27.70   14.80
  -5   2  -3   17.20   11.60
   5  -2   3   18.00   10.50
   5  -2   3   17.20   20.70
   5  -2   3   18.10   11.00
  -6   2  -3  209.68   25.80
  -6   2  -3  175.88   26.20
  -6   2  -3  191.88   22.70
  -6   2  -3  214.68   24.20
   6  -2   3  130.49   34.50
   6  -2   3  178.18   23.40
   6  -2   3  190.68   26.00
   6   1  -3   19.90   17.30
   6   1  -3   26.20   15.70
   6   1  -3   43.20   15.40
  -6  -1   3   25.50   20.70
  -6  -1   3   26.00   19.00
   5   1  -3   31.20   12.90
   5   1  -3   16.90   13.70
  -5  -1   3   27.50   17.10
  -5  -1   3   43.20   17.20
   4   1  -3  348.47   34.10
   4   1  -3  410.46   30.80
   4   1  -3  437.36   41.90
  -4  -1   3  458.85   36.80
  -4  -1   3  320.37   33.90
   3   1  -3   93.39    8.40
   3   1  -3  109.69    8.00
   3   1  -3   99.09   16.10
   3   1  -3  129.69   13.20
   3   1  -3   99.79   16.50
  -3  -1   3  117.89   17.20
   2   1  -3  702.33   50.49
   2   1  -3  794.42   50.69
  -2  -1   3  717.73   50.79
  -2  -1   3  823.22   51.29
   1   1  -3  884.21   54.59
   1   1  -3  868.61   55.09
  -1  -1   3  829.52   54.99
  -1  -1   3  833.82   54.59
   0   1  -3   63.39   10.90
   0   1  -3   78.49   11.00
   0  -1   3   53.69   10.20
   0  -1   3   84.39   13.20
   0  -1   3   69.49   11.60
   0  -1   3   56.49   10.30
  -1   1  -3 1490.25   90.59
  -1   1  -3 1438.66   90.29
   1  -1   3 1488.35   90.49
   1  -1   3 1535.95   90.09
   1  -1   3 1638.44   93.09
   1  -1   3 1549.54   91.09
  -2   1  -3  359.66   25.90
  -2   1  -3  379.76   26.50
  -2   1  -3  368.96   26.60
   2  -1   3  370.86   27.00
   2  -1   3  357.36   26.00
   2  -1   3  357.96   27.00
   2  -1   3  430.46   33.70
  -3   1  -3  184.48   17.30
  -3   1  -3  187.68   17.40
  -3   1  -3  209.98   17.40
   3  -1   3  189.08   17.40
   3  -1   3  176.58   28.20
   3  -1   3  192.98   17.90
   3  -1   3  186.38   17.60
  -4   1  -3  460.95   34.20
  -4   1  -3  530.05   32.50
  -4   1  -3  420.06   32.30
   4  -1   3  473.95   46.90
   4  -1   3  481.85   32.50
   4  -1   3  514.35   33.20
   4  -1   3  487.35   34.20
  -5   1  -3   27.70   11.30
  -5   1  -3   24.50    7.70
  -5   1  -3   44.50    8.50
   5  -1   3   28.00    8.50
   5  -1   3   36.00    9.30
   5  -1   3   16.70   11.80
   5  -1   3    8.90   23.40
  -6   1  -3   98.39   18.10
  -6   1  -3   70.29   11.20
  -6   1  -3  107.59   13.00
   6  -1   3   58.49   26.40
   6  -1   3   85.59   11.20
  -7   1  -3   68.29   21.20
  -7   1  -3   49.60   10.20
  -7   1  -3   59.59   20.00
   7  -1   3   40.90   35.30
   7  -1   3   43.40   11.00
   7  -1   3   48.70   11.40
   6   0  -3  167.18   24.50
   6   0  -3  168.08   22.90
   6   0  -3  183.08   26.30
   6   0  -3  158.48   24.70
  -6   0   3  163.58   25.00
   5   0  -3  -12.50   11.10
   5   0  -3    1.50   22.60
   5   0  -3    9.60   12.00
   5   0  -3    1.70   11.20
  -5   0   3    6.10   13.60
  -5   0   3  -15.10   13.80
   4   0  -3  695.03   46.60
   4   0  -3  683.83   43.70
   4   0  -3  658.53   48.90
   4   0  -3  786.02   48.70
  -4   0   3  776.82   50.09
  -4   0   3  552.14   48.20
   3   0  -3  188.38   21.80
   3   0  -3  166.48   20.10
   3   0  -3  191.98   13.30
  -3   0   3  125.09   19.60
   2   0  -3  609.14   37.90
   2   0  -3  552.64   37.90
  -2   0   3  471.45   37.30
  -2   0   3  493.45   36.90
   1   0  -3  673.53   43.00
   1   0  -3  678.53   43.10
  -1   0   3  643.84   43.00
  -1   0   3  599.44   42.80
   0   0  -3   15.60    7.00
   0   0  -3   13.60    7.20
   0   0   3   18.10    6.40
   0   0   3   13.90    7.00
   0   0   3   17.00    7.80
  -1   0  -3  119.59   13.50
  -1   0  -3  118.49   14.10
   1   0   3  172.88   15.90
   1   0   3  133.39   14.30
   1   0   3  155.88   15.40
  -2   0  -3  374.56   24.70
  -2   0  -3  292.57   23.70
  -2   0  -3  371.16   23.10
   2   0   3  365.66   23.20
   2   0   3  364.46   24.50
   2   0   3  286.77   28.60
   2   0   3  392.86   21.30
   2   0   3  279.47   24.10
  -3   0  -3  193.88   15.20
  -3   0  -3  189.68   15.80
  -3   0  -3  171.48   15.00
   3   0   3  183.78   15.10
   3   0   3  151.58   24.90
   3   0   3  180.08   16.10
   3   0   3  196.88   14.00
   3   0   3  188.08   15.00
  -4   0  -3  209.08   15.60
  -4   0  -3  179.28   16.40
  -4   0  -3  209.68   17.80
   4   0   3  192.98   17.70
   4   0   3  173.28   30.10
   4   0   3  211.08   15.70
   4   0   3  206.98   17.00
  -5   0  -3  602.24   34.70
  -5   0  -3  536.95   32.70
   5   0   3  482.05   34.50
   5   0   3  363.86   48.90
   5   0   3  518.85   31.00
   5   0   3  430.86   32.60
  -6   0  -3    5.00    6.60
  -6   0  -3    4.40    4.70
  -6   0  -3    3.70   12.60
  -6   0  -3    0.40   11.30
   6   0   3   -3.70    6.10
   6   0   3    9.20   26.40
  -7   0  -3  207.58   30.00
  -7   0  -3  156.18   23.70
  -7   0  -3  216.68   13.50
  -7   0  -3  205.38   15.30
   7   0   3  117.89   40.80
  -8   0  -3   20.70   24.00
  -8   0  -3   31.40   23.40
   8   0   3   25.10   34.40
   6  -1  -3   26.80   13.80
   6  -1  -3   16.10   16.60
   6  -1  -3   10.10   17.90
   6  -1  -3   46.40   17.90
  -6   1   3   63.89   23.60
  -6   1   3   23.70   15.40
  -6   1   3   52.69   18.40
   5  -1  -3   62.69   14.70
   5  -1  -3   39.90   12.10
   5  -1  -3   43.50   16.20
  -5   1   3   65.59   18.70
  -5   1   3   32.30   13.20
  -5   1   3   40.90   15.50
   4  -1  -3   17.20   10.00
   4  -1  -3   22.70   13.40
   4  -1  -3   13.80    9.50
  -4   1   3    6.90   11.70
   3  -1  -3  750.52   48.20
   3  -1  -3  627.34   47.70
   3  -1  -3  779.02   47.00
  -3   1   3  668.73   48.30
  -3   1   3  837.12   49.10
   2  -1  -3  437.76   30.30
   2  -1  -3  460.65   31.60
   2  -1  -3  436.56   26.60
   2  -1  -3  423.56   31.40
  -2   1   3  444.96   32.20
  -2   1   3  472.55   32.40
   1  -1  -3 1632.84   93.59
   1  -1  -3 1484.55   92.99
   1  -1  -3 1701.63   90.39
  -1   1   3 1531.15   93.49
  -1   1   3 1502.35   93.19
   0  -1  -3 3961.30  221.58
   0  -1  -3 3945.51  223.58
   0  -1  -3 3696.13  223.08
   0   1   3 4178.78  224.18
   0   1   3 3745.43  223.18
  -1  -1  -3  407.76   26.50
  -1  -1  -3  377.46   27.20
  -1  -1  -3  432.96   27.90
   1   1   3  384.96   27.50
   1   1   3  461.15   28.50
  -2  -1  -3 3651.93  231.08
  -2  -1  -3 3617.94  230.98
   2   1   3 3873.21  231.38
   2   1   3 4676.63  235.48
   2   1   3 4496.55  231.88
  -3  -1  -3   52.79    7.40
  -3  -1  -3   31.70    6.40
  -3  -1  -3   41.60    5.70
   3   1   3   59.79    7.20
   3   1   3   57.69    8.70
   3   1   3   78.49    9.50
   3   1   3   48.90   14.90
   3   1   3   51.09    7.10
  -4  -1  -3 1220.08   70.09
  -4  -1  -3 1207.88   71.29
   4   1   3 1190.18   69.79
   4   1   3 1085.89   80.89
   4   1   3 1193.88   71.39
   4   1   3 1235.48   71.69
   4   1   3 1342.77   70.99
  -5  -1  -3  211.38   18.30
  -5  -1  -3  204.28   13.20
  -5  -1  -3  218.18   14.20
  -5  -1  -3  189.98   20.60
   5   1   3  211.48   30.00
   5   1   3  193.78   19.10
  -6  -1  -3   18.90   13.60
   6   1   3   -0.60   23.90
  -7  -1  -3   26.70   14.00
  -7  -1  -3   24.50   14.70
  -7  -1  -3   36.10   12.80
   7   1   3   16.70   31.30
  -8  -1  -3   -7.40   17.90
  -8  -1  -3   -1.10   19.30
  -8  -1  -3   30.30   14.90
   8   1   3   13.30   34.90
   6  -2  -3   89.59   21.10
   6  -2  -3   70.99   19.70
   6  -2  -3   86.99   17.90
   6  -2  -3   54.69   24.40
  -6   2   3  108.29   25.80
  -6   2   3   94.19   23.10
  -6   2   3   86.19   19.60
   5  -2  -3  104.09   16.90
   5  -2  -3  161.98   23.70
   5  -2  -3   79.89   22.90
   5  -2  -3   92.59   17.70
  -5   2   3  125.29   22.50
  -5   2   3  115.79   17.50
  -5   2   3  106.09   20.20
   4  -2  -3  103.89   15.10
   4  -2  -3   81.19   20.10
   4  -2  -3   82.09   20.40
   4  -2  -3   87.29   15.00
  -4   2   3   86.59    9.80
  -4   2   3  108.69   17.70
  -4   2   3   58.39   14.80
   3  -2  -3  507.95   35.30
   3  -2  -3  465.75   34.00
   3  -2  -3  499.75   35.70
  -3   2   3  529.85   36.10
  -3   2   3  474.25   35.70
  -3   2   3  471.15   36.20
  -3   2   3  486.15   30.20
   2  -2  -3   37.70    9.30
   2  -2  -3   38.60    7.90
   2  -2  -3   42.10    5.70
   2  -2  -3   49.00    9.50
  -2   2   3   39.90    5.70
  -2   2   3   52.19   10.50
   1  -2  -3  249.48   16.90
   1  -2  -3  256.77   20.30
   1  -2  -3  261.47   20.60
   1  -2  -3  240.58   18.30
  -1   2   3  251.07   17.30
  -1   2   3  271.07   21.20
   0  -2  -3  625.74   40.00
   0  -2  -3  644.04   40.20
   0  -2  -3  659.63   38.40
   0   2   3  635.64   38.30
   0   2   3  609.24   40.20
  -1  -2  -3  208.08   16.20
  -1  -2  -3  210.38   15.50
  -1  -2  -3  224.98   16.80
   1   2   3  220.58   16.80
   1   2   3  211.48   16.60
   1   2   3  204.68   15.30
  -2  -2  -3  316.97   21.60
  -2  -2  -3  314.67   21.60
  -2  -2  -3  345.67   21.50
   2   2   3  323.27   21.40
   2   2   3  299.87   18.50
  -3  -2  -3 1172.48   67.49
  -3  -2  -3 1186.78   68.49
  -3  -2  -3 1135.49   66.89
  -3  -2  -3 1168.68   65.59
   3   2   3 1093.79   67.39
   3   2   3 1161.58   67.49
  -4  -2  -3   38.20    7.70
  -4  -2  -3   28.70    4.80
  -4  -2  -3   27.90    5.00
  -4  -2  -3   36.80    5.10
   4   2   3   41.50    7.80
   4   2   3   15.60   11.00
   4   2   3   33.40    4.70
   4   2   3   34.50    5.00
  -5  -2  -3  569.44   37.50
  -5  -2  -3  626.54   39.50
  -5  -2  -3  616.04   39.50
   5   2   3  612.84   39.10
  -6  -2  -3  261.07   22.20
  -6  -2  -3  285.27   25.00
  -6  -2  -3  304.37   22.60
   6   2   3  180.78   34.80
   6   2   3  282.77   24.60
  -7  -2  -3   32.20   13.80
   7   2   3   45.70   13.50
   7   2   3   30.60   27.60
  -8  -2  -3  114.09   21.50
  -8  -2  -3  112.09   15.60
  -8  -2  -3  100.99   31.00
   8   2   3   90.19   37.30
   5  -3  -3   76.69   27.00
   5  -3  -3   62.49   16.00
   5  -3  -3   75.79   17.40
   5  -3  -3   73.59   17.80
  -5   3   3   76.89   20.50
  -5   3   3   42.50   15.80
  -5   3   3   63.49    9.60
  -5   3   3   47.60   20.30
   4  -3  -3   17.40   11.10
   4  -3  -3   16.30   12.40
  -4   3   3   24.80    7.60
  -4   3   3   22.90   12.80
  -4   3   3   29.10   15.80
  -4   3   3   37.00   14.80
   3  -3  -3  189.88   18.20
   3  -3  -3  151.08   20.00
   3  -3  -3  150.78   19.50
  -3   3   3  116.19   18.10
  -3   3   3  146.79   21.70
  -3   3   3  164.18   20.80
  -3   3   3  140.99   14.30
   2  -3  -3  624.84   43.60
   2  -3  -3  629.94   39.80
   2  -3  -3  659.13   43.50
   2  -3  -3  599.54   41.40
  -2   3   3  660.33   43.90
  -2   3   3  609.24   39.80
  -2   3   3  765.62   43.50
   1  -3  -3   15.00    7.60
   1  -3  -3   16.80    5.40
   1  -3  -3   21.90    6.00
   1  -3  -3   30.70    8.30
  -1   3   3   30.80    7.80
  -1   3   3   19.80    5.50
  -1   3   3   21.00    7.80
  -1   3   3   26.80    8.60
   0  -3  -3 1214.38   70.09
   0  -3  -3 1190.18   72.19
   0  -3  -3 1235.78   72.49
   0  -3  -3 1166.38   70.39
   0   3   3 1209.28   72.59
   0   3   3 1206.48   70.79
   0   3   3 1224.28   72.49
   0   3   3 1191.98   70.59
  -1  -3  -3 1356.66   81.79
  -1  -3  -3 1391.86   80.89
  -1  -3  -3 1400.96   81.79
   1   3   3 1368.66   81.79
   1   3   3 1380.26   80.89
   1   3   3 1410.66   81.99
   1   3   3 1395.96   79.69
  -2  -3  -3  178.18   14.60
  -2  -3  -3  169.68   14.10
  -2  -3  -3  184.08   14.30
   2   3   3  178.08   14.50
   2   3   3  164.78   14.30
   2   3   3  182.28   10.80
   2   3   3  171.58   14.40
  -3  -3  -3 2050.19  119.59
  -3  -3  -3 2086.99  120.29
  -3  -3  -3 2124.79  119.79
   3   3   3 2105.79  119.69
   3   3   3 2083.29  119.59
   3   3   3 2049.49  120.49
  -4  -3  -3  226.98   14.40
  -4  -3  -3  232.98   16.00
  -4  -3  -3  213.88   15.30
  -4  -3  -3  227.88   16.40
  -4  -3  -3  213.48   17.40
   4   3   3  228.48   17.60
   4   3   3  222.28   15.60
  -5  -3  -3  535.25   33.20
  -5  -3  -3  566.74   32.60
  -5  -3  -3  557.54   36.30
  -5  -3  -3  575.64   36.10
  -5  -3  -3  582.74   34.80
   5   3   3  557.34   37.00
  -6  -3  -3  377.86   26.30
  -6  -3  -3  374.86   26.30
  -6  -3  -3  348.27   27.60
   6   3   3  393.16   28.90
   6   3   3  293.77   39.90
   7   3   3  -11.10   21.50
   7   3   3   17.30   12.60
  -8  -3  -3   61.09   16.20
  -8  -3  -3   85.99   16.20
   8   3   3   69.99   34.40
   5  -4  -3   94.49   33.70
   5  -4  -3   89.09   22.20
  -5   4   3   68.39   24.00
  -5   4   3   97.69   21.80
  -5   4   3  110.69   25.80
  -5   4   3   94.99   14.10
   4  -4  -3  149.79   22.00
  -4   4   3  213.98   31.70
  -4   4   3  211.18   26.50
  -4   4   3  153.28   20.20
  -4   4   3  148.79   21.70
  -4   4   3  137.29   23.00
   3  -4  -3  129.09   17.70
   3  -4  -3  188.18   20.30
  -3   4   3  119.19   18.90
  -3   4   3  143.29   21.90
  -3   4   3  123.29   18.70
  -3   4   3  132.99   17.60
  -3   4   3  139.49   16.40
   2  -4  -3  908.41   58.39
  -2   4   3  880.01   55.19
  -2   4   3  926.31   58.49
  -2   4   3  885.51   56.39
  -2   4   3  898.41   59.39
  -2   4   3  905.01   59.19
   1  -4  -3   10.80    8.40
   1  -4  -3    8.90    6.00
   1  -4  -3    8.00    6.20
   1  -4  -3    6.30    8.50
  -1   4   3    2.90    7.30
  -1   4   3    9.10    6.30
  -1   4   3    3.50    8.70
   0  -4  -3  974.60   58.29
   0  -4  -3 1054.39   61.89
   0  -4  -3  938.81   59.49
   0   4   3  992.30   59.99
   0   4   3  998.30   61.99
   0   4   3 1009.70   61.79
   0   4   3  981.20   59.79
  -1  -4  -3  300.47   21.50
  -1  -4  -3  276.47   23.10
  -1  -4  -3  301.67   20.80
  -1  -4  -3  334.37   23.40
  -1  -4  -3  312.97   18.90
   1   4   3  310.27   21.90
   1   4   3  304.87   23.20
   1   4   3  283.67   23.60
   1   4   3  315.47   20.80
  -2  -4  -3   36.70    6.80
  -2  -4  -3   44.80    7.80
  -2  -4  -3   33.70    7.90
  -2  -4  -3   38.70    5.00
  -2  -4  -3   40.10    3.50
   2   4   3   48.10    6.70
   2   4   3   29.10    7.20
   2   4   3   37.20    8.10
   2   4   3   40.40    7.70
  -3  -4  -3  161.78   11.00
  -3  -4  -3  155.38   15.00
  -3  -4  -3  168.98   10.30
  -3  -4  -3  168.68   14.60
  -3  -4  -3  171.78   14.60
   3   4   3  153.18   14.90
   3   4   3  161.98   14.80
   3   4   3  166.58   14.50
  -4  -4  -3  282.77   20.20
  -4  -4  -3  290.67   21.60
  -4  -4  -3  280.87   18.20
  -4  -4  -3  284.67   18.60
   4   4   3  286.07   20.40
   4   4   3  293.97   20.40
   4   4   3  292.77   21.90
   4   4   3  302.27   21.60
  -5  -4  -3   20.00    6.00
  -5  -4  -3   29.10    5.40
  -5  -4  -3   20.90    7.40
   5   4   3   19.10    6.80
   5   4   3   18.90    5.00
   5   4   3   24.00    8.80
   5   4   3   24.30    8.80
  -6  -4  -3  271.97   17.70
  -6  -4  -3  279.37   22.00
  -6  -4  -3  282.97   17.60
   6   4   3  242.68   23.10
  -7  -4  -3  198.18   21.20
  -7  -4  -3  196.98   21.60
   7   4   3  170.18   22.10
  -8  -4  -3   31.60   14.40
  -8  -4  -3   44.30   13.80
   4  -5  -3   77.69   18.70
   4  -5  -3   71.09   21.80
  -4   5   3   64.59   19.30
  -4   5   3   63.49   15.60
  -4   5   3   71.79   22.20
  -4   5   3   57.69   19.40
   3  -5  -3   -4.70   13.00
   3  -5  -3    4.60   13.80
  -3   5   3   -9.80   13.90
  -3   5   3   -2.80   14.60
  -3   5   3   -0.30   14.40
  -3   5   3    4.60   15.80
  -2   5   3  162.38   19.60
  -2   5   3  180.68   24.30
  -2   5   3  145.69   22.90
  -2   5   3  174.08   19.90
  -2   5   3  135.39   20.20
   1  -5  -3  558.64   37.80
   1  -5  -3  601.34   40.50
  -1   5   3  570.64   39.50
  -1   5   3  524.45   36.70
  -1   5   3  573.84   41.30
  -1   5   3  559.74   41.40
  -1   5   3  554.84   38.00
   0  -5  -3    6.10   10.00
   0  -5  -3    6.60    7.60
   0   5   3   -6.70    6.60
   0   5   3   -4.10    7.60
   0   5   3    4.40    9.40
  -1  -5  -3 1422.26   85.49
  -1  -5  -3 1453.75   87.89
   1   5   3 1425.56   85.49
   1   5   3 1438.16   87.79
   1   5   3 1467.85   86.49
   1   5   3 1509.55   88.49
  -2  -5  -3  606.44   45.00
  -2  -5  -3  715.13   46.00
  -2  -5  -3  711.83   43.10
   2   5   3  741.53   43.60
   2   5   3  712.93   45.10
   2   5   3  727.93   46.10
   2   5   3  733.63   46.50
  -3  -5  -3  597.34   40.10
  -3  -5  -3  625.44   37.30
  -3  -5  -3  556.54   39.00
  -3  -5  -3  599.54   39.60
   3   5   3  632.54   40.60
   3   5   3  651.63   40.30
   3   5   3  625.84   40.10
  -4  -5  -3 1130.69   65.19
  -4  -5  -3  927.81   66.89
  -4  -5  -3 1096.89   67.59
   4   5   3 1152.08   67.99
   4   5   3 1168.08   67.59
   4   5   3 1197.38   67.89
   4   5   3 1152.38   67.79
  -5  -5  -3   -2.60    6.60
  -5  -5  -3    2.10    5.40
   5   5   3    6.00    6.30
   5   5   3    9.10    8.50
   5   5   3    5.80    6.00
   5   5   3    3.00    8.40
  -6  -5  -3  310.87   26.60
  -6  -5  -3  300.97   22.20
   6   5   3  317.47   27.30
   6   5   3  285.37   25.10
   6   5   3  312.87   21.30
   6   5   3  266.67   23.20
  -7  -5  -3   44.70   11.20
  -7  -5  -3   55.39   11.40
  -7  -5  -3   65.99    9.20
   7   5   3   47.10   13.70
  -8  -5  -3   -6.10   10.50
  -8  -5  -3   -2.50   12.40
   8   5   3   10.00   13.60
   3  -6  -3   71.19   21.80
   3  -6  -3   66.09   21.30
  -3   6   3   81.19   23.30
  -3   6   3   40.50   21.50
  -3   6   3   56.19   20.50
  -3   6   3   98.59   18.60
  -3   6   3   91.99   17.00
  -2   6   3   81.09   18.10
  -2   6   3   52.29   19.00
  -2   6   3   79.59   15.70
  -2   6   3   61.29   17.80
   1  -6  -3  568.14   45.20
   1  -6  -3  621.54   45.30
  -1   6   3  559.84   45.00
  -1   6   3  625.94   45.40
  -1   6   3  599.94   39.40
  -1   6   3  602.64   42.50
  -1   6   3  512.45   50.49
   0  -6  -3   85.69   13.70
   0  -6  -3   74.39   14.60
   0  -6  -3   50.09   15.10
   0  -6  -3   66.39   11.40
   0   6   3   55.09   12.60
   0   6   3   46.30   14.10
   0   6   3   64.49   12.70
  -1  -6  -3  695.03   45.40
  -1  -6  -3  738.53   48.30
  -1  -6  -3  645.64   48.00
  -1  -6  -3  663.73   45.40
   1   6   3  684.83   48.10
   1   6   3  620.84   50.79
   1   6   3  760.72   44.80
  -2  -6  -3  729.93   50.09
  -2  -6  -3  750.62   49.30
  -2  -6  -3  723.93   47.20
  -2  -6  -3  732.13   46.40
   2   6   3  717.03   49.20
   2   6   3  766.22   47.00
   2   6   3  720.13   48.50
  -3  -6  -3   35.40   11.70
  -3  -6  -3   42.60    8.20
  -3  -6  -3   52.89   10.00
  -3  -6  -3   42.80   10.70
   3   6   3   22.50   10.10
   3   6   3   28.80   11.10
   3   6   3   35.60   10.50
  -4  -6  -3  668.23   44.50
  -4  -6  -3  638.54   40.90
  -4  -6  -3  662.93   43.40
  -4  -6  -3  645.64   43.70
   4   6   3  656.63   43.90
   4   6   3  664.23   43.30
   4   6   3  642.34   44.10
   4   6   3  651.23   43.80
  -5  -6  -3  137.29   15.40
  -5  -6  -3  126.99   17.60
  -5  -6  -3  130.99   16.60
  -5  -6  -3  154.98   19.10
   5   6   3  135.89   18.50
   5   6   3  138.89   21.20
   5   6   3  158.88   17.80
   5   6   3  157.48   17.50
  -6  -6  -3   56.29   10.50
  -6  -6  -3   73.89   12.10
  -6  -6  -3   63.09   11.00
  -6  -6  -3   58.39   11.70
   6   6   3   56.19   13.30
   6   6   3   54.99   10.90
   6   6   3   42.40   12.60
  -7  -6  -3  157.88   20.70
  -7  -6  -3  125.19   17.20
  -7  -6  -3  166.58   18.20
   7   6   3  146.09   19.60
   7   6   3  126.19   18.80
   7   6   3  114.69   18.70
   7   6   3  145.09   16.90
  -8  -6  -3   11.30    9.30
  -8  -6  -3  -13.80   13.60
   8   6   3   25.00   15.50
   2  -7  -3   22.90   20.60
  -2   7   3   -1.20   21.50
  -2   7   3   16.40   15.20
  -2   7   3   26.10   19.70
  -2   7   3   29.60   19.90
  -2   7   3  -12.90   17.20
   1  -7  -3  139.99   24.90
   1  -7  -3  123.59   24.00
   1  -7  -3  141.99   21.80
  -1   7   3  148.49   22.60
  -1   7   3  123.99   22.60
  -1   7   3  141.29   24.00
  -1   7   3  142.59   20.50
  -1   7   3  132.39   20.80
   0  -7  -3  150.78   22.60
   0  -7  -3  105.19   18.70
   0  -7  -3  139.69   22.80
   0   7   3  136.69   22.10
   0   7   3  164.48   22.90
   0   7   3  172.38   19.90
   0   7   3  134.49   18.60
  -1  -7  -3   18.80   14.20
  -1  -7  -3   -1.10   11.60
  -1  -7  -3    9.50   14.40
  -1  -7  -3  -10.70    9.40
   1   7   3   20.90   12.30
   1   7   3    4.20   13.10
   1   7   3   22.50   14.40
   1   7   3    5.60   10.00
  -2  -7  -3  399.26   35.90
  -2  -7  -3  389.66   41.00
  -2  -7  -3  479.55   33.60
  -2  -7  -3  428.96   33.20
   2   7   3  434.36   36.90
   2   7   3  430.46   38.00
   2   7   3  463.05   33.00
  -3  -7  -3  366.26   29.20
  -3  -7  -3  402.46   32.80
  -3  -7  -3  356.26   34.10
  -3  -7  -3  406.16   31.30
  -4  -7  -3  101.59   14.60
  -4  -7  -3  115.39   17.80
  -4  -7  -3   96.69   13.00
  -4  -7  -3  103.09   16.60
   4   7   3  126.39   16.10
   4   7   3  127.89   17.80
  -5  -7  -3  750.32   51.89
  -5  -7  -3  755.82   48.90
  -5  -7  -3  799.42   50.59
  -5  -7  -3  759.42   52.29
   5   7   3  712.33   49.99
   5   7   3  783.62   51.79
  -6  -7  -3   21.60   11.90
  -6  -7  -3   18.50   10.50
  -6  -7  -3   23.10   12.10
  -6  -7  -3   20.10   13.00
   6   7   3   20.90   13.30
   6   7   3   32.30   12.10
  -7  -7  -3  259.17   28.50
  -7  -7  -3  286.87   28.90
  -7  -7  -3  275.37   28.70
  -7  -7  -3  318.37   29.20
   7   7   3  311.17   30.20
   7   7   3  294.57   28.50
   0  -8  -3  208.88   30.20
   0  -8  -3  264.57   32.80
   0  -8  -3  237.18   31.80
   0   8   3  191.08   28.90
   0   8   3  250.27   31.20
   0   8   3  168.78   25.40
   0   8   3  193.18   26.20
  -1  -8  -3  -22.10   18.80
  -1  -8  -3   -0.40   17.50
  -1  -8  -3    0.90   15.50
   1   8   3    7.00   15.20
   1   8   3   -0.30   17.80
   1   8   3  -23.60   16.20
   1   8   3    8.70   16.30
  -2  -8  -3  309.07   31.30
  -2  -8  -3  298.97   36.40
  -2  -8  -3  325.37   29.60
  -2  -8  -3  308.57   35.00
   2   8   3  274.27   31.40
   2   8   3  282.77   36.10
   2   8   3  288.37   36.20
  -3  -8  -3  163.78   24.70
  -3  -8  -3  170.18   25.50
  -3  -8  -3  217.18   29.80
  -3  -8  -3  210.78   24.10
   3   8   3  174.08   22.20
   3   8   3  172.58   24.30
  -4  -8  -3   18.90   11.80
  -4  -8  -3   24.30   13.50
  -4  -8  -3   34.60   18.10
  -4  -8  -3   25.70   15.10
   4   8   3   23.10   15.80
   4   8   3   14.70   13.00
   4   8   3    5.40   14.20
   4   8   3   30.20   14.90
  -5  -8  -3  187.28   24.50
  -5  -8  -3  208.08   28.60
  -5  -8  -3  152.48   23.10
  -5  -8  -3  178.08   21.90
   5   8   3  160.38   23.40
   5   8   3  183.38   26.10
   5   8   3  195.98   23.10
   5   8   3  183.28   28.10
  -6  -8  -3   80.09   16.20
  -6  -8  -3   34.20   13.70
  -6  -8  -3   39.70   15.20
  -6  -8  -3   49.40   18.50
   6   8   3   50.09   15.90
   6   8   3   45.10   18.40
   6   8   3   44.40   17.20
   6   8   3   78.19   16.70
  -7  -8  -3   26.60   15.30
  -7  -8  -3    0.80   17.10
  -7  -8  -3   36.60   15.60
  -7  -8  -3  -19.40   16.30
   7   8   3   17.70   15.80
   7   8   3  -10.40   13.50
   7   8   3   16.80   20.00
   7   8   3   36.00   17.00
  -3  -9  -3  394.46   38.40
  -3  -9  -3  330.97   42.20
  -3  -9  -3  345.27   48.10
   3   9   3  308.57   43.90
   3   9   3  343.47   40.80
   3   9   3  384.06   43.90
  -4  -9  -3    1.00   20.20
  -4  -9  -3   16.70   16.40
  -4  -9  -3  -11.80   22.40
  -4  -9  -3   -0.10   15.20
   4   9   3  -21.60   20.10
   4   9   3  -20.60   18.60
   4   9   3   19.50   21.40
   4   9   3  -14.20   14.90
   3   5  -4   11.10   23.10
   3   5  -4  -20.30   20.10
  -3  -5   4  -12.40   22.30
  -3  -5   4  -29.60   26.90
  -3  -5   4  -49.70   26.20
   2   5  -4  534.35   49.70
   2   5  -4  560.54   51.89
  -2  -5   4  566.14   57.39
  -2  -5   4  545.95   54.99
  -2  -5   4  506.65   52.19
   1   5  -4  159.48   24.20
   1   5  -4  184.38   27.00
   1   5  -4  140.99   26.90
  -1  -5   4  100.89   28.10
  -1  -5   4  133.09   30.10
  -1  -5   4  166.38   28.30
   0   5  -4  161.48   26.30
   0   5  -4  126.59   25.90
   0   5  -4  252.77   34.30
   0  -5   4  152.68   29.80
   0  -5   4  174.98   32.00
  -1   5  -4  329.07   41.80
  -1   5  -4  315.37   40.50
  -1   5  -4  265.97   37.70
   1  -5   4  263.77   35.70
   1  -5   4  308.47   42.80
   1  -5   4  320.47   47.00
  -2   5  -4   10.60   24.00
  -2   5  -4  -17.50   20.50
  -2   5  -4   25.90   20.20
  -2   5  -4   -7.00   20.00
   2  -5   4   16.00   24.50
   2  -5   4    6.50   23.40
   2  -5   4   16.80   26.50
   2  -5   4  -17.10   28.60
   5   4  -4    0.40   24.00
   5   4  -4   40.90   20.60
   5   4  -4   27.50   27.90
   5   4  -4   17.00    9.10
  -5  -4   4   29.80   31.90
  -5  -4   4  -45.80   22.70
   4   4  -4  122.29   15.90
   4   4  -4  156.08   24.50
   4   4  -4  152.38   29.20
  -4  -4   4  180.48   30.40
  -4  -4   4  134.79   25.40
  -4  -4   4  121.99   31.00
   3   4  -4  175.98   27.80
   3   4  -4  174.28   19.10
  -3  -4   4  194.98   31.60
  -3  -4   4  176.28   28.40
  -3  -4   4  137.99   24.50
   2   4  -4   98.29   22.10
   2   4  -4  104.69   24.00
   2   4  -4  133.69   22.70
  -2  -4   4  100.99   21.90
  -2  -4   4  124.49   25.20
   1   4  -4  759.32   56.29
   1   4  -4  702.93   55.19
  -1  -4   4  724.33   58.89
  -1  -4   4  788.32   57.09
   0   4  -4   18.90   15.10
   0   4  -4   28.80   16.70
   0  -4   4   28.40   17.50
   0  -4   4   45.50   20.10
  -1   4  -4  447.06   42.40
  -1   4  -4  480.15   41.40
   1  -4   4  570.14   44.40
   1  -4   4  430.66   44.80
   1  -4   4  420.66   43.50
  -2   4  -4  296.07   46.10
  -2   4  -4  395.56   37.40
  -2   4  -4  395.26   37.90
   2  -4   4  419.06   47.10
   2  -4   4  438.76   40.80
   2  -4   4  389.36   40.20
  -3   4  -4   24.10   17.20
  -3   4  -4    4.40   16.50
  -3   4  -4   21.00   17.90
   3  -4   4   38.70   21.30
   3  -4   4   28.30   20.70
   3  -4   4   15.60   27.10
   3  -4   4   45.70   19.90
  -4   4  -4  195.28   27.40
  -4   4  -4  225.58   29.80
  -4   4  -4  248.78   35.40
   4  -4   4  215.48   32.20
   4  -4   4  204.08   30.30
   5   3  -4   26.80   24.30
   5   3  -4   67.09   19.40
  -5  -3   4   14.10   26.30
  -5  -3   4   57.79   24.40
   4   3  -4  159.18   27.20
   4   3  -4  242.68   19.50
   4   3  -4  210.38   26.00
  -4  -3   4  192.88   31.80
  -4  -3   4  294.97   35.70
   3   3  -4   -2.10   13.30
   3   3  -4   -4.80    8.10
  -3  -3   4   39.90   20.40
  -3  -3   4   23.10   15.60
   2   3  -4   12.30   12.50
   2   3  -4   33.40   15.80
  -2  -3   4    5.80   13.40
  -2  -3   4   27.80   12.20
  -2  -3   4   30.90   18.30
   1   3  -4  171.98   25.60
   1   3  -4  168.58   23.80
  -1  -3   4  163.48   23.90
  -1  -3   4  112.99   21.30
  -1  -3   4  134.49   26.20
   0   3  -4  309.67   32.30
   0   3  -4  343.07   31.10
   0  -3   4  348.17   35.50
   0  -3   4  312.87   32.80
   0  -3   4  370.56   33.80
   0  -3   4  306.07   32.50
  -1   3  -4   30.00   14.00
   1  -3   4   23.60   16.00
   1  -3   4    5.90   16.90
   1  -3   4   22.90   14.00
  -2   3  -4  706.03   55.39
  -2   3  -4  819.52   54.39
  -2   3  -4  785.82   54.09
   2  -3   4  771.52   60.89
   2  -3   4  761.72   54.79
  -3   3  -4   89.09   17.20
  -3   3  -4   93.49   17.50
  -3   3  -4   82.89   17.30
   3  -3   4   93.39   18.70
   3  -3   4   98.99   27.50
  -4   3  -4  250.07   31.60
  -4   3  -4  245.18   28.90
  -4   3  -4  286.77   31.50
   4  -3   4  265.97   32.30
   4  -3   4  258.27   44.10
   4  -3   4  228.68   31.90
   4  -3   4  311.87   33.90
  -5   3  -4  143.69   25.70
  -5   3  -4  128.39   21.20
  -5   3  -4  115.69   19.60
   5  -3   4  141.69   21.80
   5  -3   4  130.99   25.50
   5  -3   4   99.69   21.10
   6   2  -4   61.39   22.80
   6   2  -4   60.29   27.10
  -6  -2   4   53.29   30.30
  -6  -2   4   23.90   28.80
   5   2  -4  168.48   27.80
   5   2  -4  189.58   25.00
  -5  -2   4  186.08   30.00
  -5  -2   4  171.68   29.90
   4   2  -4   79.29   15.70
   4   2  -4   63.39    6.30
   4   2  -4   28.60   16.80
   4   2  -4   40.50    5.80
  -4  -2   4   62.79   20.30
  -4  -2   4   85.09   22.90
   3   2  -4 1070.09   64.69
   3   2  -4  891.31   55.69
  -3  -2   4  955.20   64.29
  -3  -2   4  825.72   65.39
  -2  -2   4   35.50   16.60
  -2  -2   4   48.80   13.50
   1   2  -4  914.21   59.59
  -1  -2   4  911.01   60.79
  -1  -2   4  789.42   57.89
   0   2  -4  556.74   40.20
   0  -2   4  461.55   38.80
   0  -2   4  478.75   40.50
   0  -2   4  556.94   38.70
  -1   2  -4  183.68   21.90
  -1   2  -4  200.98   23.50
   1  -2   4  160.68   21.50
   1  -2   4  223.88   25.30
   1  -2   4  184.48   22.10
   1  -2   4  165.28   23.70
  -2   2  -4  409.76   32.10
  -2   2  -4  417.66   32.50
  -2   2  -4  390.56   31.30
   2  -2   4  387.06   33.10
   2  -2   4  422.46   32.80
   2  -2   4  419.76   40.30
   2  -2   4  409.96   34.00
  -3   2  -4   36.70   11.90
  -3   2  -4   38.30   11.90
  -3   2  -4   52.39   12.20
   3  -2   4   20.00   11.50
   3  -2   4   45.60   14.00
   3  -2   4   25.10   19.30
   3  -2   4   24.40   12.10
  -4   2  -4   11.30   10.50
  -4   2  -4   19.60   10.80
   4  -2   4    4.00   12.70
   4  -2   4  -14.10   21.20
   4  -2   4    4.00   12.10
   4  -2   4    2.80   11.20
  -5   2  -4   72.59   17.80
  -5   2  -4   43.30   12.60
  -5   2  -4   73.59   14.90
   5  -2   4   44.40   29.50
   5  -2   4   29.60   21.30
   5  -2   4   53.59   15.00
  -6   2  -4   59.99   16.10
  -6   2  -4   42.20   19.80
  -6   2  -4   50.59   21.30
  -6   2  -4   53.79   14.10
   6  -2   4   63.29   15.10
   6  -2   4   59.99   20.50
   6  -2   4   60.79   16.10
   6   1  -4  -36.90   20.60
   6   1  -4   -2.00   19.80
   6   1  -4   -4.60   22.60
  -6  -1   4  -37.60   26.80
  -6  -1   4   13.30   25.10
   5   1  -4  168.48   25.70
   5   1  -4  116.39   24.50
   5   1  -4   93.59   19.30
  -5  -1   4  179.78   28.00
  -5  -1   4   92.59   24.40
   4   1  -4   22.10   17.40
   4   1  -4   26.90   12.90
  -4  -1   4   27.50   19.20
  -4  -1   4   55.39   19.20
   3   1  -4  351.16   32.70
   3   1  -4  379.96   26.20
   3   1  -4  468.55   38.60
  -3  -1   4  499.65   39.50
  -3  -1   4  435.06   39.80
   2   1  -4  716.13   49.60
   2   1  -4  713.63   50.49
  -2  -1   4  644.14   49.99
  -2  -1   4  690.93   49.60
   1   1  -4   79.69   14.40
   1   1  -4   61.09   12.80
  -1  -1   4   64.89   14.60
   0   1  -4  834.22   59.09
   0   1  -4  945.11   60.79
   0  -1   4  856.61   59.69
   0  -1   4 1067.19   58.49
   0  -1   4  922.71   61.19
  -1   1  -4  433.06   28.80
  -1   1  -4  376.46   30.50
   1  -1   4  376.86   28.80
   1  -1   4  431.56   31.90
   1  -1   4  343.97   31.30
   1  -1   4  329.77   29.40
  -2   1  -4  437.36   30.20
  -2   1  -4  458.75   32.40
   2  -1   4  399.86   30.10
   2  -1   4  380.46   35.80
   2  -1   4  363.66   30.90
   2  -1   4  454.55   33.50
  -3   1  -4 1156.58   71.79
  -3   1  -4 1304.57   71.99
  -3   1  -4 1201.28   71.19
   3  -1   4 1082.19   71.79
   3  -1   4 1176.18   71.49
   3  -1   4 1175.68   72.29
   3  -1   4 1020.70   78.49
  -4   1  -4   17.10    8.90
  -4   1  -4    4.50    8.10
   4  -1   4   -0.50    9.30
   4  -1   4   -3.20   19.90
   4  -1   4    6.50    9.30
   4  -1   4   12.00   10.20
  -5   1  -4  568.74   37.80
  -5   1  -4  576.54   41.30
  -5   1  -4  580.14   39.40
   5  -1   4  459.15   53.69
   5  -1   4  531.15   39.10
  -6   1  -4   84.59   18.10
  -6   1  -4   87.99   15.30
  -6   1  -4   79.89   18.30
  -6   1  -4   80.19   12.70
   6  -1   4   71.29   33.20
   6  -1   4  100.99   13.10
   6  -1   4   93.59   17.10
  -7   1  -4   94.29   24.00
  -7   1  -4   92.49   23.40
  -7   1  -4   74.49   15.60
  -7   1  -4   80.79   17.10
   7  -1   4   55.89   14.80
   7  -1   4   15.30   33.90
   7  -1   4   71.09   11.50
   6   0  -4   63.99   20.80
   6   0  -4   52.19   23.60
   6   0  -4   67.49   20.60
  -6   0   4   75.89   25.80
   5   0  -4  152.58   22.40
   5   0  -4  172.18   26.10
   5   0  -4  197.38   25.30
  -5   0   4  159.28   26.20
  -5   0   4  190.48   27.60
   4   0  -4   -8.30   11.00
   4   0  -4    2.50   13.60
  -4   0   4   -6.30   14.90
  -4   0   4    1.70   15.30
   3   0  -4  130.69   20.30
   3   0  -4  151.98   10.00
   3   0  -4  179.08   19.90
  -3   0   4  117.29   19.70
  -3   0   4  178.08   25.00
   2   0  -4  232.18   26.00
   2   0  -4  228.38   16.90
   2   0  -4  222.08   24.20
  -2   0   4  222.08   24.90
   1   0  -4   40.20   11.60
   1   0  -4   54.99   12.20
  -1   0   4   35.50   12.00
  -1   0   4   55.39   12.70
   0   0  -4  476.95   35.10
   0   0  -4  460.35   34.40
   0   0   4  477.15   35.20
   0   0   4  464.85   35.20
  -1   0  -4  787.72   49.20
  -1   0  -4  730.63   48.30
   1   0   4  777.42   49.30
   1   0   4  702.03   48.90
   1   0   4  757.72   49.20
   1   0   4  678.33   46.50
  -2   0  -4   18.40    8.50
  -2   0  -4   17.40    7.50
   2   0   4   22.10    5.70
   2   0   4    9.50   11.60
   2   0   4   18.90    9.20
   2   0   4   20.60    7.00
   2   0   4   15.40    8.20
  -3   0  -4  716.23   44.30
  -3   0  -4  686.73   42.80
   3   0   4  732.73   44.70
   3   0   4  632.64   40.40
   3   0   4  587.24   50.39
   3   0   4  692.23   43.00
  -4   0  -4  116.69   14.70
  -4   0  -4  144.59   16.00
   4   0   4  151.08   13.90
   4   0   4  161.88   16.00
   4   0   4  106.39   16.30
   4   0   4  110.59   25.30
   4   0   4  124.99   15.70
  -5   0  -4   26.80    7.50
   5   0   4   32.10    8.00
   5   0   4   22.50    9.50
   5   0   4   45.00   10.30
   5   0   4   40.00   24.40
  -6   0  -4  142.09   18.00
  -6   0  -4  128.59   15.10
  -6   0  -4  102.59   17.90
   6   0   4  128.09   13.20
   6   0   4   94.09   15.80
   6   0   4   97.79   33.50
   6   0   4   97.89   13.90
  -7   0  -4   28.90   18.60
  -7   0  -4   26.80   17.80
  -7   0  -4   37.10    6.90
   7   0   4   36.90   34.00
   5  -1  -4   61.29   14.90
   5  -1  -4   53.09   17.30
   5  -1  -4   30.90   16.50
   5  -1  -4   29.70   18.30
  -5   1   4   16.20   18.90
   4  -1  -4  279.67   27.40
   4  -1  -4  267.27   30.90
   3  -1  -4    6.50   16.60
   3  -1  -4    8.00    8.30
   3  -1  -4  -25.50   10.40
   3  -1  -4    5.40    9.00
   3  -1  -4   -1.30    2.90
  -3   1   4   -4.20   12.10
  -3   1   4  -26.30   10.40
   2  -1  -4  706.73   50.29
   2  -1  -4  934.51   52.89
   2  -1  -4  658.53   48.40
  -2   1   4  744.63   51.39
   1  -1  -4  650.93   42.90
   1  -1  -4  519.45   41.00
   1  -1  -4  706.23   38.30
  -1   1   4  630.94   43.50
  -1   1   4  540.45   41.90
   0  -1  -4  398.76   26.10
   0  -1  -4  391.46   29.70
   0  -1  -4  374.26   28.80
   0   1   4  382.26   29.10
   0   1   4  403.66   30.60
  -1  -1  -4 1376.26   81.09
  -1  -1  -4 1321.77   81.29
  -1  -1  -4 1364.16   79.29
   1   1   4 1284.77   81.39
   1   1   4 1341.97   81.09
  -2  -1  -4   14.70    7.70
  -2  -1  -4    9.80    7.40
   2   1   4    8.30    7.80
   2   1   4   24.30    8.80
   2   1   4   35.70   12.40
   2   1   4   14.80    5.30
  -3  -1  -4  769.32   54.29
  -3  -1  -4  896.41   52.19
   3   1   4  923.21   60.99
   3   1   4  774.92   54.39
   3   1   4  914.91   52.19
   3   1   4  969.80   52.29
  -4  -1  -4  420.66   26.10
  -4  -1  -4  316.17   27.20
  -4  -1  -4  416.06   27.10
   4   1   4  431.56   27.00
   4   1   4  381.06   26.00
   4   1   4  309.67   27.70
   4   1   4  408.96   26.50
   4   1   4  396.06   39.60
  -5  -1  -4    1.30    6.70
  -5  -1  -4   10.50    7.60
   5   1   4   19.50   10.00
   5   1   4   17.60    7.50
   5   1   4   42.70   22.90
   5   1   4   20.70    5.40
   5   1   4   26.60    8.10
  -6  -1  -4  168.48   14.60
  -6  -1  -4  152.98   19.50
  -6  -1  -4  184.98   12.50
   6   1   4  186.38   33.90
   6   1   4  119.89   17.40
  -7  -1  -4   43.00   13.90
  -7  -1  -4   15.70   14.70
   7   1   4   31.20   34.00
  -8  -1  -4   13.00   18.40
  -8  -1  -4   -8.60   18.30
  -8  -1  -4   -2.40   19.90
   5  -2  -4    9.80   16.80
   5  -2  -4   50.39   17.20
   5  -2  -4   15.10   17.90
   5  -2  -4   37.90   15.70
  -5   2   4   36.40   17.30
  -5   2   4   31.50   22.50
  -5   2   4   22.40   19.80
   4  -2  -4  389.56   33.20
   4  -2  -4  303.67   33.00
   4  -2  -4  364.26   32.80
  -4   2   4  312.37   33.90
  -4   2   4  358.36   38.20
  -4   2   4  330.27   34.00
   3  -2  -4    5.50   10.30
   3  -2  -4    0.30    8.70
  -3   2   4   14.10   13.30
   2  -2  -4  577.04   38.90
   2  -2  -4  506.05   38.00
   2  -2  -4  519.75   32.30
  -2   2   4  496.75   39.40
   1  -2  -4  439.26   31.70
   1  -2  -4  438.96   31.60
   1  -2  -4  406.06   27.10
   1  -2  -4  398.46   29.60
  -1   2   4  407.56   31.90
  -1   2   4  450.55   32.60
   0  -2  -4    5.40    5.50
   0  -2  -4   13.30    8.00
   0  -2  -4    4.20    7.20
   0   2   4   16.10    8.50
   0   2   4   16.30    8.90
  -1  -2  -4  537.55   35.40
  -1  -2  -4  481.55   34.70
  -1  -2  -4  529.65   33.80
   1   2   4  495.25   35.20
   1   2   4  577.94   36.40
  -2  -2  -4  835.42   50.89
  -2  -2  -4  762.92   50.79
  -2  -2  -4  860.81   51.39
   2   2   4  958.40   52.19
   2   2   4  771.82   48.10
   2   2   4  766.12   50.99
  -3  -2  -4    2.30    5.80
  -3  -2  -4   10.40    6.50
  -3  -2  -4    3.50    5.80
   3   2   4    4.10    2.80
   3   2   4   11.70    6.50
   3   2   4    4.90    5.90
   3   2   4   -6.60   11.90
  -4  -2  -4 1354.36   72.39
  -4  -2  -4 1208.88   74.69
  -4  -2  -4 1058.29   72.69
  -4  -2  -4 1242.28   70.79
   4   2   4 1306.07   72.69
   4   2   4 1334.27   72.19
   4   2   4 1058.49   72.59
   4   2   4 1227.78   81.99
  -5  -2  -4  200.58   15.20
  -5  -2  -4  204.18   16.40
  -5  -2  -4  197.98   14.50
   5   2   4  192.88   32.20
   5   2   4  242.28   20.30
   5   2   4  202.08   14.30
  -6  -2  -4  423.56   31.50
  -6  -2  -4  353.96   30.90
  -6  -2  -4  378.86   27.40
   6   2   4  368.26   30.20
   6   2   4  366.56   47.00
  -7  -2  -4  219.68   26.70
  -7  -2  -4  208.38   24.90
   7   2   4  181.58   23.20
   7   2   4  125.39   37.90
  -8  -2  -4   55.29   16.20
  -8  -2  -4   28.80   17.40
  -8  -2  -4   38.90   16.40
   8   2   4    7.40   33.20
   5  -3  -4   10.70   17.10
   5  -3  -4  -10.90   20.80
   5  -3  -4   -3.10   19.10
  -5   3   4   -6.70   22.10
  -5   3   4  -11.70   23.10
  -5   3   4   18.80   18.40
   4  -3  -4  103.19   19.60
   4  -3  -4  165.78   20.70
  -4   3   4  129.09   22.90
  -4   3   4  135.59   23.50
  -4   3   4  114.89   21.40
  -4   3   4  157.28   14.90
   3  -3  -4  246.08   26.70
  -3   3   4  220.38   25.60
  -3   3   4  242.28   28.10
  -3   3   4  239.88   26.40
  -3   3   4  211.88   18.70
   2  -3  -4   55.29    7.90
   2  -3  -4   52.99   15.00
   2  -3  -4   60.19   12.40
  -2   3   4   47.70   13.20
  -2   3   4   56.19    8.50
  -2   3   4   62.69   14.50
  -2   3   4   62.99   13.20
   1  -3  -4  898.01   55.59
   1  -3  -4  932.01   57.89
   1  -3  -4  886.91   54.29
   1  -3  -4  933.41   58.49
  -1   3   4  910.71   57.09
  -1   3   4  887.21   58.69
  -1   3   4  900.21   54.69
   0  -3  -4  184.08   18.80
   0  -3  -4  205.38   16.20
   0  -3  -4  215.58   16.50
   0  -3  -4  195.38   19.40
   0   3   4  200.68   16.10
   0   3   4  194.58   19.70
   0   3   4  191.18   16.80
   0   3   4  193.48   19.90
  -1  -3  -4  484.65   31.60
  -1  -3  -4  464.55   33.00
  -1  -3  -4  493.65   33.50
   1   3   4  453.85   31.40
   1   3   4  497.75   33.60
   1   3   4  504.05   30.40
   1   3   4  503.15   33.50
  -2  -3  -4  974.90   57.89
  -2  -3  -4  943.41   57.19
  -2  -3  -4  927.11   57.49
   2   3   4  901.81   56.89
   2   3   4  921.61   57.69
   2   3   4  977.50   57.89
   2   3   4  950.90   53.99
  -3  -3  -4   29.20    7.20
  -3  -3  -4   28.20    7.20
  -3  -3  -4   23.90    6.40
   3   3   4   31.40    6.60
   3   3   4   24.30    6.80
  -4  -3  -4  351.96   24.30
  -4  -3  -4  346.47   26.10
  -4  -3  -4  336.47   23.10
   4   3   4  359.76   24.80
   4   3   4  351.26   23.20
   4   3   4  345.17   24.50
  -5  -3  -4  379.36   23.80
  -5  -3  -4  398.46   23.70
   5   3   4  300.87   24.80
   5   3   4  422.56   27.80
   5   3   4  405.16   23.70
  -6  -3  -4   14.90    6.20
  -6  -3  -4    9.20    8.90
   6   3   4   -3.50    9.60
   6   3   4    7.00   19.70
  -7  -3  -4  203.98   20.00
  -7  -3  -4  169.48   22.90
  -7  -3  -4  218.18   23.10
   7   3   4  119.89   35.20
   7   3   4  200.38   22.70
  -8  -3  -4   94.69   18.40
  -8  -3  -4  110.29   26.20
   8   3   4   80.19   20.00
   8   3   4   53.49   37.20
   4  -4  -4   19.50   15.70
   4  -4  -4   29.90   17.60
   4  -4  -4   -3.90   15.70
  -4   4   4   26.00   21.00
  -4   4   4   26.20   18.60
  -4   4   4   29.60   10.60
  -4   4   4    2.70   17.40
   3  -4  -4  219.98   24.40
  -3   4   4  208.08   19.90
  -3   4   4  247.18   31.60
  -3   4   4  199.58   27.90
  -3   4   4  180.68   28.10
   2  -4  -4   60.69   10.20
   2  -4  -4   87.39   12.20
  -2   4   4   64.39   10.40
  -2   4   4   80.49   15.90
  -2   4   4   71.59   15.80
  -2   4   4   94.69   15.60
   1  -4  -4  519.65   37.90
   1  -4  -4  525.75   33.80
   1  -4  -4  502.65   33.20
  -1   4   4  471.05   33.30
  -1   4   4  504.55   38.00
  -1   4   4  486.15   37.60
   0  -4  -4 1175.88   71.79
   0  -4  -4 1191.68   75.29
   0  -4  -4 1253.37   74.99
   0  -4  -4 1249.18   72.89
   0   4   4 1267.67   75.29
   0   4   4 1194.68   73.19
   0   4   4 1213.18   72.79
   0   4   4 1219.18   75.49
  -1  -4  -4   95.49    9.40
  -1  -4  -4   65.89   11.50
  -1  -4  -4   98.79   14.50
  -1  -4  -4   90.19   10.50
   1   4   4   92.59   10.30
   1   4   4   65.29   10.00
   1   4   4   78.49   12.20
   1   4   4   62.99   11.70
  -2  -4  -4 2005.50  118.09
  -2  -4  -4 2009.80  117.89
  -2  -4  -4 2052.39  117.29
   2   4   4 2000.40  117.99
   2   4   4 2048.30  118.19
   2   4   4 1972.20  114.49
   2   4   4 1997.00  117.29
  -3  -4  -4  161.28   16.30
  -3  -4  -4  190.18   16.50
  -3  -4  -4  195.48   17.40
   3   4   4  195.58   17.30
   3   4   4  169.38   16.10
   3   4   4  182.18   17.10
  -4  -4  -4  664.63   38.20
  -4  -4  -4  571.14   37.00
  -4  -4  -4  577.64   37.50
   4   4   4  553.84   38.50
   4   4   4  589.74   38.30
   4   4   4  574.44   37.10
   4   4   4  573.24   37.40
  -5  -4  -4  332.97   23.30
  -5  -4  -4  341.27   22.70
  -5  -4  -4  350.66   23.70
  -5  -4  -4  325.87   19.70
   5   4   4  327.17   25.90
   5   4   4  342.97   23.40
  -6  -4  -4   -4.00    7.20
  -6  -4  -4    0.60    4.70
  -6  -4  -4    3.70    4.70
  -6  -4  -4    0.30    3.60
  -6  -4  -4    4.60    7.70
   6   4   4    2.20    3.20
   6   4   4   -1.50    9.70
   6   4   4   -3.50    2.60
  -7  -4  -4   62.19   12.80
  -7  -4  -4   71.69   10.50
  -7  -4  -4   76.09   12.60
   7   4   4   60.99   15.50
  -8  -4  -4   22.30   13.70
  -8  -4  -4   24.10   14.10
   3  -5  -4  271.37   30.40
   3  -5  -4  256.17   32.50
  -3   5   4  285.07   32.60
  -3   5   4  238.38   29.50
  -3   5   4  250.17   36.90
  -3   5   4  255.17   29.90
   2  -5  -4   54.79   15.40
   2  -5  -4   73.39   12.10
  -2   5   4   35.80   19.60
  -2   5   4   69.19   16.30
  -2   5   4   38.40   11.30
  -2   5   4   59.19   16.00
   1  -5  -4  165.18   21.60
   1  -5  -4  148.49   16.50
   1  -5  -4  120.59   18.50
   1  -5  -4  142.19   17.40
  -1   5   4  130.79   19.50
  -1   5   4  143.49   17.20
  -1   5   4  169.28   21.70
   0  -5  -4  433.86   33.40
   0  -5  -4  411.96   27.60
   0  -5  -4  402.56   32.80
   0   5   4  426.16   30.00
   0   5   4  390.06   30.20
   0   5   4  401.56   33.60
   0   5   4  428.06   33.50
  -1  -5  -4   89.49    9.60
   1   5   4   92.89   14.20
   1   5   4  101.49   12.70
   1   5   4   89.79   12.30
  -2  -5  -4  219.28   13.40
  -2  -5  -4  224.88   18.60
   2   5   4  211.88   20.70
   2   5   4  205.18   21.20
   2   5   4  194.68   19.50
   2   5   4  198.88   16.00
  -3  -5  -4  877.71   49.80
  -3  -5  -4  751.32   50.19
   3   5   4  791.62   50.29
   3   5   4  751.22   50.49
   3   5   4  796.22   50.69
  -4  -5  -4   42.90    5.10
  -4  -5  -4   18.80    8.60
   4   5   4   34.20    9.80
   4   5   4   37.40    9.20
   4   5   4   53.39    9.40
  -5  -5  -4  494.35   32.30
  -5  -5  -4  492.25   29.10
  -5  -5  -4  473.05   33.20
  -5  -5  -4  441.26   27.80
  -5  -5  -4  451.45   27.00
   5   5   4  476.15   31.80
   5   5   4  503.45   31.80
   5   5   4  454.65   33.20
   5   5   4  433.26   33.80
  -6  -5  -4  311.37   20.70
  -6  -5  -4  324.27   20.70
  -6  -5  -4  312.07   22.80
  -6  -5  -4  317.67   25.30
   6   5   4  305.97   26.90
   6   5   4  300.37   22.90
   6   5   4  314.17   22.60
  -7  -5  -4   40.10    5.80
  -7  -5  -4   26.40    8.10
  -7  -5  -4   32.80    6.00
  -7  -5  -4   29.90   10.00
  -7  -5  -4   37.30   10.60
   7   5   4   33.40   13.70
  -8  -5  -4  132.59   20.90
  -8  -5  -4  171.18   20.30
  -8  -5  -4  161.68   22.40
   8   5   4  125.29   21.10
   2  -6  -4  216.38   32.20
   2  -6  -4  195.28   30.30
  -2   6   4  192.08   27.70
  -2   6   4  196.08   22.50
  -2   6   4  222.48   26.90
  -2   6   4  219.08   31.10
   1  -6  -4   -2.50   16.80
   1  -6  -4   15.80   10.60
   1  -6  -4    6.70   14.10
  -1   6   4    9.60   12.00
  -1   6   4   29.90   15.60
  -1   6   4   12.80   13.80
  -1   6   4   25.60   14.70
   0  -6  -4  448.46   37.70
   0  -6  -4  417.26   35.50
   0   6   4  468.65   42.90
   0   6   4  510.55   39.10
   0   6   4  443.66   34.80
   0   6   4  506.45   35.80
  -1  -6  -4  563.44   39.20
  -1  -6  -4  624.24   42.40
   1   6   4  577.04   40.70
   1   6   4  571.04   42.80
   1   6   4  580.34   38.70
   1   6   4  532.25   42.50
  -2  -6  -4   53.29   11.00
  -2  -6  -4   89.09   12.60
  -2  -6  -4   76.39   14.40
  -2  -6  -4   68.19   13.50
   2   6   4   67.09   20.20
   2   6   4   82.39   10.40
  -3  -6  -4 1067.39   69.29
  -3  -6  -4 1176.28   69.49
  -3  -6  -4 1111.69   68.09
  -3  -6  -4 1055.59   64.79
   3   6   4 1106.39   69.29
  -4  -6  -4  156.68   17.60
  -4  -6  -4  123.69   18.70
  -4  -6  -4  131.59   17.70
  -4  -6  -4  121.79   11.20
   4   6   4  134.99   18.40
   4   6   4   91.99   17.30
  -5  -6  -4  405.76   26.30
  -5  -6  -4  391.86   31.40
  -5  -6  -4  471.45   31.60
   5   6   4  410.36   31.90
   5   6   4  449.16   31.70
   5   6   4  404.26   35.60
   5   6   4  439.86   33.00
  -6  -6  -4  322.17   24.20
  -6  -6  -4  256.97   32.80
  -6  -6  -4  275.27   20.20
   6   6   4  298.17   27.60
   6   6   4  303.17   24.70
   6   6   4  266.57   25.70
   6   6   4  297.67   23.90
  -7  -6  -4   19.70    7.90
  -7  -6  -4    6.00   10.60
  -7  -6  -4   24.70    8.50
  -7  -6  -4   13.70   11.90
   7   6   4   18.00   13.90
   7   6   4    3.80    8.10
   7   6   4   20.50    7.80
  -8  -6  -4   85.69   13.10
  -8  -6  -4   68.69   15.80
  -8  -6  -4   69.19    9.20
   8   6   4   68.29   17.20
   1  -7  -4   54.29   19.10
  -1   7   4   33.20   17.40
  -1   7   4   51.09   20.80
  -1   7   4   36.50   17.80
   0  -7  -4  217.88   25.60
   0  -7  -4  239.68   30.60
   0   7   4  258.37   33.60
   0   7   4  253.97   27.30
   0   7   4  265.97   32.50
   0   7   4  251.87   28.10
  -1  -7  -4  243.08   25.90
  -1  -7  -4  272.07   31.70
  -1  -7  -4  264.97   27.00
  -1  -7  -4  302.07   30.10
   1   7   4  286.17   31.50
   1   7   4  310.27   28.80
   1   7   4  264.57   26.40
   1   7   4  331.67   32.20
  -2  -7  -4   17.90   12.40
  -2  -7  -4   -5.70    9.20
  -2  -7  -4    4.20    9.10
   2   7   4  -10.30   11.80
   2   7   4   -4.30   12.20
   2   7   4   16.30   13.40
  -3  -7  -4  220.18   25.10
  -3  -7  -4  204.88   23.50
  -3  -7  -4  192.18   21.30
  -3  -7  -4  180.88   18.40
   3   7   4  174.48   24.10
   3   7   4  168.08   19.50
  -4  -7  -4  222.38   19.70
  -4  -7  -4  242.48   26.10
  -4  -7  -4  223.68   27.30
  -4  -7  -4  308.97   24.40
   4   7   4  261.17   27.40
  -5  -7  -4   15.40    6.90
  -5  -7  -4   17.20   12.50
  -5  -7  -4    2.70   10.70
  -5  -7  -4   23.30   11.50
   5   7   4   15.10   10.70
   5   7   4   12.20   12.00
  -6  -7  -4  217.68   25.30
  -6  -7  -4  199.88   23.20
  -6  -7  -4  205.08   23.70
  -6  -7  -4  221.98   18.20
   6   7   4  215.78   23.70
   6   7   4  188.88   23.60
  -7  -7  -4  204.98   22.60
  -7  -7  -4  191.08   25.60
  -7  -7  -4  183.78   19.50
   7   7   4  243.48   30.60
   7   7   4  195.78   24.90
   7   7   4  185.78   22.90
  -8  -7  -4   13.40   11.20
  -8  -7  -4   24.40   11.30
  -8  -7  -4   -6.40   14.50
  -8  -7  -4   17.30   12.30
   8   7   4    8.50    9.40
   8   7   4   27.50   16.60
   8   7   4   34.40   12.00
   0  -8  -4    6.30   21.20
   0   8   4   32.80   20.30
   0   8   4   24.30   18.10
   0   8   4    4.00   20.40
   0   8   4   22.10   21.60
  -1  -8  -4  438.26   45.00
  -1  -8  -4  451.85   45.80
  -1  -8  -4  388.46   38.30
  -1  -8  -4  442.96   38.90
   1   8   4  460.15   38.00
   1   8   4  452.15   44.80
   1   8   4  454.55   40.40
   1   8   4  459.65   43.60
  -2  -8  -4  293.47   36.70
  -2  -8  -4  306.37   38.10
  -2  -8  -4  322.37   35.20
  -2  -8  -4  311.37   30.20
   2   8   4  313.17   30.00
   2   8   4  326.27   33.60
   2   8   4  333.97   38.90
   2   8   4  321.87   36.80
  -3  -8  -4  212.88   32.10
  -3  -8  -4  187.68   23.40
  -3  -8  -4  148.79   23.80
  -3  -8  -4  189.78   24.00
   3   8   4  193.68   29.50
   3   8   4  176.48   24.00
   3   8   4  173.28   22.40
  -4  -8  -4  544.95   39.50
  -4  -8  -4  604.54   43.20
  -4  -8  -4  573.14   44.90
  -4  -8  -4  609.74   48.30
   4   8   4  582.74   45.20
   4   8   4  589.94   45.00
   4   8   4  528.45   45.90
  -5  -8  -4   11.60   13.00
  -5  -8  -4   19.30   16.60
  -5  -8  -4   30.40   15.10
  -5  -8  -4    8.50    9.10
   5   8   4   22.00   15.90
   5   8   4   15.80   15.50
   5   8   4    3.50   14.90
  -6  -8  -4  195.08   21.00
  -6  -8  -4  184.68   24.40
  -6  -8  -4  195.88   23.00
  -6  -8  -4  242.78   28.00
   6   8   4  193.88   24.00
   6   8   4  176.38   23.40
   6   8   4  206.08   26.70
   6   8   4  242.48   30.90
  -7  -8  -4   65.99   12.70
  -7  -8  -4   72.89   18.00
  -7  -8  -4   64.89   18.20
  -7  -8  -4   83.09   18.00
   7   8   4   76.49   17.40
   7   8   4   93.99   22.20
   7   8   4   70.19   17.70
   7   8   4   86.09   17.70
  -3  -9  -4    8.60   16.00
  -3  -9  -4   14.00   23.50
  -3  -9  -4    3.00   15.50
  -3  -9  -4  -15.50   20.00
   3   9   4   -3.40   19.90
   3   9   4  -10.30   20.10
   3   9   4   22.50   22.20
  -4  -9  -4  113.49   22.30
  -4  -9  -4  192.98   27.20
  -4  -9  -4  151.18   23.70
  -4  -9  -4  189.78   29.70
   4   9   4  147.39   26.20
   4   9   4  176.28   27.80
   4   9   4  186.18   27.60
  -5  -9  -4   55.29   18.30
  -5  -9  -4   77.39   25.40
  -5  -9  -4   69.79   15.60
  -5  -9  -4   93.09   21.40
   5   9   4   75.59   20.50
   5   9   4   83.89   23.30
   5   9   4   77.49   16.90
   5   9   4   62.89   23.60
   3   4  -5   59.89   17.10
   3   4  -5   68.99   24.10
   3   4  -5   87.69   29.20
  -3  -4   5   43.80   25.70
  -3  -4   5  125.99   30.90
  -3  -4   5   46.00   32.90
   2   4  -5  133.69   25.10
   2   4  -5  119.59   27.40
  -2  -4   5  144.39   24.80
  -2  -4   5   82.69   25.50
  -2  -4   5  166.48   32.10
  -2  -4   5  149.59   33.20
   1   4  -5   -1.70   18.80
   1   4  -5   15.50   20.60
  -1  -4   5  -17.40   20.90
  -1  -4   5   10.10   20.30
  -1  -4   5   25.70   24.10
  -1  -4   5  -18.00   24.50
   0   4  -5  375.16   41.10
   0   4  -5  327.57   41.70
   0  -4   5  350.56   41.80
   0  -4   5  294.47   42.90
   0  -4   5  324.77   44.30
   0  -4   5  290.47   39.10
  -1   4  -5  313.47   41.00
  -1   4  -5  241.08   36.50
   1  -4   5  372.66   47.90
   1  -4   5  302.17   39.90
   1  -4   5  297.27   41.60
   1  -4   5  297.97   43.10
  -2   4  -5   98.19   22.80
  -2   4  -5   44.40   23.00
   2  -4   5   91.79   25.80
   2  -4   5  111.19   32.20
   2  -4   5  107.09   26.80
   2  -4   5   84.29   29.90
  -3   4  -5  429.46   44.90
  -3   4  -5  351.76   43.70
  -3   4  -5  323.37   41.40
   3  -4   5  349.77   50.49
   3  -4   5  292.97   51.19
   3  -4   5  378.86   48.60
   3  -4   5  411.36   53.19
   4   3  -5   56.49   27.50
   4   3  -5   60.69   21.90
   4   3  -5   36.80   10.80
   4   3  -5   94.39   26.10
  -4  -3   5   80.89   26.00
  -4  -3   5  106.29   33.10
   3   3  -5   10.50   20.70
   3   3  -5   -0.30   10.20
   3   3  -5    6.90   17.60
  -3  -3   5   42.70   20.80
  -3  -3   5   16.40   21.80
  -3  -3   5  -15.70   24.00
   2   3  -5  367.76   37.00
   2   3  -5  288.77   38.60
  -2  -3   5  321.97   36.70
  -2  -3   5  241.88   35.30
   1   3  -5  114.79   20.60
   1   3  -5  127.99   23.40
  -1  -3   5   98.59   21.90
  -1  -3   5  177.68   25.00
  -1  -3   5  113.59   25.60
  -1  -3   5  139.29   21.60
   0   3  -5  233.08   33.10
   0   3  -5  204.58   29.40
   0  -3   5  178.58   27.20
   0  -3   5  246.88   37.40
   0  -3   5  274.47   31.40
  -1   3  -5  570.94   46.30
  -1   3  -5  461.55   42.80
   1  -3   5  481.55   45.10
   1  -3   5  518.75   46.90
   1  -3   5  535.35   48.60
  -2   3  -5    0.40   14.40
   2  -3   5    3.50   21.50
   2  -3   5   40.40   17.50
   2  -3   5   37.00   17.70
  -3   3  -5  266.77   32.80
  -3   3  -5  275.17   31.80
  -3   3  -5  259.47   35.60
   3  -3   5  287.47   35.00
   3  -3   5  306.87   35.50
   3  -3   5  270.87   39.30
   3  -3   5  226.78   40.50
  -4   3  -5  191.18   26.30
  -4   3  -5  159.98   25.30
  -4   3  -5  120.09   23.80
   4  -3   5  206.68   28.90
   4  -3   5  166.38   28.20
   4   2  -5  339.07   26.10
   4   2  -5  329.57   38.30
   4   2  -5  433.46   26.30
   4   2  -5  478.25   48.30
   4   2  -5  554.64   46.50
  -4  -2   5  465.95   46.00
  -4  -2   5  460.25   53.59
   3   2  -5   82.39   21.20
   3   2  -5   54.59    9.60
   3   2  -5   41.30   28.60
  -3  -2   5   68.49   21.20
  -3  -2   5   67.19   24.80
   2   2  -5  838.02   61.09
   2   2  -5  836.92   59.29
  -2  -2   5  770.22   58.59
  -2  -2   5  770.82   63.79
   1   2  -5   15.30   12.50
   1   2  -5   -0.80   13.60
  -1  -2   5   11.10   15.40
  -1  -2   5   14.70   10.30
  -1  -2   5   11.80   17.70
   0   2  -5  193.68   25.70
   0   2  -5  215.68   33.90
   0  -2   5  254.27   26.70
   0  -2   5  187.98   28.10
   0  -2   5  276.07   29.70
   0  -2   5  205.88   27.70
  -1   2  -5   73.79   22.30
  -1   2  -5   95.09   18.30
   1  -2   5   91.29   20.40
   1  -2   5   57.39   16.90
   1  -2   5   85.59   20.10
   1  -2   5   92.99   16.50
  -2   2  -5   -1.90   13.80
  -2   2  -5   20.50   12.10
   2  -2   5   21.20   14.20
   2  -2   5   15.50   17.60
  -3   2  -5  -21.10   13.60
  -3   2  -5   -4.00   12.10
  -3   2  -5  -17.30   12.80
   3  -2   5   18.00   13.90
   3  -2   5    4.50   20.80
   3  -2   5    4.80   13.10
  -4   2  -5  143.39   20.20
  -4   2  -5  106.59   19.40
  -4   2  -5  126.99   19.20
   4  -2   5  116.49   20.80
   4  -2   5   94.39   18.70
   4  -2   5   68.09   28.80
  -5   2  -5   90.99   20.90
  -5   2  -5   84.19   17.60
  -5   2  -5   82.49   19.90
   5  -2   5   30.50   30.00
   5  -2   5   84.99   19.40
   5  -2   5   84.99   20.00
   5  -2   5   85.19   21.80
   5   1  -5  -18.90   18.50
   5   1  -5  -29.60   22.70
   5   1  -5   21.80   25.90
  -5  -1   5    1.40   34.30
  -5  -1   5    8.30   26.50
   4   1  -5   32.10   20.30
   4   1  -5   38.70   16.70
   4   1  -5   57.39   23.20
  -4  -1   5   50.49   24.40
  -4  -1   5   24.60   22.00
   3   1  -5  214.08   18.40
   3   1  -5  234.48   34.20
  -3  -1   5  235.28   35.80
  -3  -1   5  225.28   32.70
   2   1  -5   -9.50   13.70
   2   1  -5   -6.40   13.80
  -2  -1   5  -20.20   14.10
  -2  -1   5   -8.80   16.20
   1   1  -5 1207.18   85.59
   1   1  -5 1304.47   81.79
  -1  -1   5 1269.67   81.99
  -1  -1   5 1252.97   83.49
   0   1  -5  412.96   35.00
   0   1  -5  396.66   36.60
   0  -1   5  429.06   38.60
   0  -1   5  414.56   41.90
   0  -1   5  484.75   36.80
  -1   1  -5 1014.90   68.59
  -1   1  -5  881.01   66.49
   1  -1   5 1092.89   67.39
   1  -1   5 1118.99   68.39
   1  -1   5 1023.30   69.59
   1  -1   5 1079.69   67.69
  -2   1  -5  947.11   62.49
   2  -1   5  864.81   62.99
   2  -1   5 1058.29   66.89
  -3   1  -5  312.27   30.50
  -3   1  -5  430.46   33.70
  -3   1  -5  411.16   30.30
   3  -1   5  280.77   29.90
   3  -1   5  408.26   31.80
   3  -1   5  442.06   35.80
   3  -1   5  269.37   36.30
  -4   1  -5  778.92   60.69
  -4   1  -5  981.30   61.49
  -4   1  -5  940.51   60.69
   4  -1   5  978.10   61.09
   4  -1   5  958.50   62.49
  -5   1  -5   18.50   10.90
  -5   1  -5    8.60   12.10
   5  -1   5   12.70   25.80
   5  -1   5   15.30   13.80
   5  -1   5   20.10   14.50
  -6   1  -5   96.39   18.10
  -6   1  -5  107.19   15.60
  -6   1  -5  154.58   22.40
   6  -1   5  109.99   18.90
   6  -1   5  100.29   36.60
   6  -1   5   89.39   15.80
   6  -1   5  152.18   21.50
   5   0  -5   23.00   22.30
   5   0  -5   -2.90   18.50
  -5   0   5  -37.60   25.00
  -5   0   5   40.50   25.70
   4   0  -5  206.38   25.60
   4   0  -5  232.08   32.20
  -4   0   5  174.78   29.70
  -4   0   5  199.98   29.80
   3   0  -5  234.58   26.20
   3   0  -5  206.18   15.50
  -3   0   5  219.48   28.50
  -3   0   5  250.37   33.20
   2   0  -5   43.50    8.40
   2   0  -5   46.90   15.10
  -2   0   5   62.49   17.20
  -2   0   5   17.60   15.70
   1   0  -5  648.54   40.80
   1   0  -5  609.64   46.80
  -1   0   5  628.24   48.00
  -1   0   5  647.24   48.00
   0   0  -5  175.58   23.50
   0   0  -5  185.18   22.00
   0   0   5  158.68   24.00
   0   0   5  202.08   23.20
  -1   0  -5  138.49   20.40
   1   0   5  102.59   17.40
   1   0   5   85.99   13.80
   1   0   5  119.49   17.20
   1   0   5  125.39   18.10
  -2   0  -5  476.85   31.50
  -2   0  -5  338.07   32.40
   2   0   5  449.26   28.80
   2   0   5  392.06   30.10
   2   0   5  310.57   32.70
   2   0   5  412.96   33.10
   2   0   5  394.76   35.50
  -3   0  -5  165.48   21.40
  -3   0  -5  110.49   16.00
   3   0   5  148.99   25.00
   3   0   5  127.29   12.60
   3   0   5  145.09   18.50
   3   0   5  118.59   18.40
   3   0   5  175.98   18.30
  -4   0  -5   66.19   12.70
  -4   0  -5   77.19   13.00
   4   0   5   68.69   14.60
   4   0   5   84.89   24.30
   4   0   5   64.19   11.50
   4   0   5   79.49   14.70
   4   0   5   46.80    9.40
  -5   0  -5  388.76   33.70
  -5   0  -5  455.55   32.30
   5   0   5  454.95   34.40
   5   0   5  505.85   36.30
   5   0   5  338.17   48.40
  -6   0  -5   51.49   14.70
  -6   0  -5   25.50    9.60
  -6   0  -5   49.40   15.10
   6   0   5   45.20   16.30
   6   0   5   16.70   24.50
   6   0   5   25.10   12.10
  -7   0  -5  124.79   22.20
  -7   0  -5  169.98   25.40
  -7   0  -5  237.08   30.40
   7   0   5  140.49   16.60
   5  -1  -5   23.00   18.90
   5  -1  -5   21.30   21.80
  -5   1   5   22.90   25.50
   4  -1  -5   35.00   15.90
   4  -1  -5   17.80   16.90
  -4   1   5   30.00   20.30
  -4   1   5   54.19   21.90
   3  -1  -5  312.57   28.70
   3  -1  -5  203.38   31.90
   3  -1  -5  285.07   17.80
  -3   1   5  232.88   30.30
   2  -1  -5   38.40   13.00
   2  -1  -5   33.10    6.90
  -2   1   5   16.60   13.70
  -2   1   5   33.50   15.10
   1  -1  -5  183.48   16.80
   1  -1  -5  153.28   21.80
  -1   1   5  185.58   24.90
  -1   1   5  157.68   22.70
   0  -1  -5  414.06   31.90
   0  -1  -5  368.46   31.80
   0  -1  -5  379.36   27.30
   0   1   5  327.97   31.50
   0   1   5  445.26   34.10
  -1  -1  -5   54.69    9.40
  -1  -1  -5   58.59   12.40
   1   1   5   45.40   13.00
   1   1   5   46.70   12.50
  -2  -1  -5  477.65   34.20
   2   1   5  463.45   35.00
   2   1   5  365.26   29.50
   2   1   5  407.36   33.80
   2   1   5  502.75   37.10
  -3  -1  -5  702.43   51.39
   3   1   5  828.02   47.50
   3   1   5  846.82   48.40
   3   1   5  817.62   53.79
   3   1   5  834.42   56.99
   3   1   5  631.14   51.49
  -4  -1  -5   35.20   10.60
  -4  -1  -5   10.50    9.20
  -4  -1  -5   12.50    7.00
   4   1   5    6.00    6.70
   4   1   5    3.30    8.00
   4   1   5   12.70   10.60
   4   1   5   24.00   19.10
   4   1   5    8.40   10.80
  -5  -1  -5  586.34   40.10
  -5  -1  -5  637.94   40.50
   5   1   5  652.93   56.59
   5   1   5  632.64   40.30
   5   1   5  600.84   40.10
   5   1   5  547.15   40.00
  -6  -1  -5   45.20   10.40
   6   1   5   50.69   11.30
   6   1   5   30.70   13.30
   6   1   5   65.59   26.40
   6   1   5   56.59    8.50
  -7  -1  -5   78.49   16.50
  -7  -1  -5   77.39   10.00
  -7  -1  -5   48.60   17.70
   7   1   5   55.29   38.30
   4  -2  -5  -13.20   13.20
   4  -2  -5   20.80   16.70
   4  -2  -5   25.30   16.10
   4  -2  -5  -19.20   14.30
  -4   2   5  -17.10   18.00
  -4   2   5   14.80   19.70
   3  -2  -5  484.55   37.20
   3  -2  -5  458.15   28.90
  -3   2   5  413.16   42.40
   2  -2  -5  257.27   25.10
   2  -2  -5  226.28   17.80
   2  -2  -5  179.28   27.60
  -2   2   5  265.67   34.30
  -2   2   5  233.98   29.50
   1  -2  -5  219.98   18.80
   1  -2  -5  233.58   25.20
  -1   2   5  254.87   26.60
  -1   2   5  202.38   25.00
   0  -2  -5 1037.50   61.39
   0  -2  -5 1089.29   64.39
   0  -2  -5  887.81   63.69
   0   2   5 1104.39   65.89
   0   2   5  896.41   63.89
  -1  -2  -5   53.79    9.30
  -1  -2  -5   60.99   11.60
   1   2   5   54.39   13.40
   1   2   5   38.90   11.40
  -2  -2  -5  422.66   30.60
  -2  -2  -5  417.06   29.20
   2   2   5  369.86   30.10
   2   2   5  404.66   26.80
  -3  -2  -5  380.06   31.60
   3   2   5  486.65   34.20
   3   2   5  480.65   28.00
   3   2   5  413.86   32.80
  -4  -2  -5    2.20    8.30
   4   2   5    2.70    8.80
   4   2   5    1.50    4.30
   4   2   5    2.90   16.70
   4   2   5    2.30    7.70
   4   2   5   -1.10    8.50
  -5  -2  -5  188.28   19.00
  -5  -2  -5  193.78   16.20
   5   2   5  126.29   19.20
   5   2   5  178.98   32.30
   5   2   5  217.28   18.80
   5   2   5  174.38   19.30
  -6  -2  -5   85.49   11.40
  -6  -2  -5   79.09   10.70
   6   2   5   88.89   15.90
   6   2   5  110.89   31.50
   6   2   5   83.99    9.60
  -7  -2  -5   -4.90   13.80
   7   2   5    8.40   14.70
   7   2   5  -11.40   30.20
  -8  -2  -5   15.10   19.00
  -8  -2  -5   40.50   19.70
  -8  -2  -5   60.29   16.40
   4  -3  -5   59.99   20.10
   4  -3  -5  102.49   19.50
   4  -3  -5   91.99   21.00
   4  -3  -5   94.99   21.80
  -4   3   5  103.19   23.00
  -4   3   5   69.19   24.00
   3  -3  -5    1.10   14.00
   3  -3  -5    1.70   12.00
  -3   3   5   -2.00   18.10
  -3   3   5   -0.30   15.90
  -3   3   5    6.90   15.20
   2  -3  -5  677.93   44.70
   2  -3  -5  749.03   49.00
   2  -3  -5  829.12   51.59
  -2   3   5  700.03   52.09
  -2   3   5  624.04   52.49
  -2   3   5  743.03   50.89
   1  -3  -5  267.77   24.60
   1  -3  -5  290.47   29.00
   1  -3  -5  295.47   22.40
   1  -3  -5  347.47   28.00
  -1   3   5  292.37   22.60
  -1   3   5  315.27   30.10
   0  -3  -5  942.21   62.59
   0  -3  -5 1053.89   59.89
   0   3   5  981.50   63.39
   0   3   5  912.71   58.99
  -1  -3  -5 1336.07   83.89
  -1  -3  -5 1187.58   83.39
  -1  -3  -5 1541.75   82.79
   1   3   5 1440.66   84.79
  -2  -3  -5  116.39   16.60
  -2  -3  -5  152.98   16.00
   2   3   5  148.09   17.20
  -3  -3  -5 1111.59   69.49
   3   3   5 1152.98   64.19
   3   3   5 1122.79   69.69
  -4  -3  -5   98.69   14.50
   4   3   5   74.29   11.80
   4   3   5  118.29   14.00
  -5  -3  -5  118.69   16.80
  -5  -3  -5  100.79   15.30
   5   3   5  122.79   16.90
   5   3   5  132.99   15.90
  -6  -3  -5  180.98   16.10
  -6  -3  -5  245.68   24.30
  -6  -3  -5  223.78   16.80
  -6  -3  -5  194.98   15.00
   6   3   5  202.38   14.60
   6   3   5  185.98   22.80
   6   3   5  209.78   14.10
   6   3   5  191.98   35.60
  -7  -3  -5   19.40   12.50
  -7  -3  -5   53.89   15.20
  -7  -3  -5   25.00    9.00
   7   3   5   18.60   30.30
   7   3   5   36.50   15.80
  -8  -3  -5   29.30   16.20
  -8  -3  -5   65.99   18.10
   8   3   5    6.30   17.90
   8   3   5   43.70   39.50
   4  -4  -5   26.10   22.20
   4  -4  -5   22.90   18.50
  -4   4   5   66.59   26.90
  -4   4   5   41.00   11.60
  -4   4   5   67.29   23.30
  -4   4   5   55.79   24.70
   3  -4  -5   62.49   18.50
   3  -4  -5   45.30   15.10
   3  -4  -5   49.60   18.30
  -3   4   5   29.10   10.50
  -3   4   5   41.90   21.50
  -3   4   5   43.30   17.90
  -3   4   5   26.40   17.50
   2  -4  -5  234.48   28.10
   2  -4  -5  204.38   23.30
  -2   4   5  192.88   33.90
  -2   4   5  193.38   27.80
  -2   4   5  198.98   27.60
  -2   4   5  183.48   20.00
   1  -4  -5   72.99   14.50
   1  -4  -5   78.09   16.00
  -1   4   5   60.79   12.50
  -1   4   5   63.19   16.80
  -1   4   5   57.89   16.50
  -1   4   5   71.09   11.30
   0  -4  -5   26.00    8.10
   0  -4  -5   18.60   10.20
   0  -4  -5   10.80   10.60
   0   4   5   20.50    8.60
   0   4   5   16.90    8.60
   0   4   5    1.00   11.20
   0   4   5    6.70   11.10
  -1  -4  -5  433.76   33.70
  -1  -4  -5  487.35   36.50
  -1  -4  -5  541.15   33.30
   1   4   5  483.55   36.90
   1   4   5  506.65   37.40
   1   4   5  504.55   34.10
   1   4   5  523.25   32.90
  -2  -4  -5  510.75   36.70
  -2  -4  -5  554.14   36.10
   2   4   5  536.45   37.60
   2   4   5  550.44   37.50
   2   4   5  487.25   31.40
   2   4   5  490.25   35.10
  -3  -4  -5  274.17   23.00
   3   4   5  259.47   22.60
   3   4   5  248.88   22.90
   3   4   5  246.08   22.10
  -4  -4  -5 1359.86   81.29
  -4  -4  -5 1326.27   81.79
   4   4   5 1343.47   81.19
   4   4   5 1365.66   80.69
  -5  -4  -5    2.50    7.30
  -5  -4  -5    6.10    8.80
   5   4   5   -5.20    7.50
   5   4   5    1.90    9.80
   5   4   5    8.60    6.20
  -6  -4  -5  648.24   43.10
  -6  -4  -5  755.12   46.80
   6   4   5  702.63   40.30
   6   4   5  557.54   41.70
   6   4   5  698.43   45.20
  -7  -4  -5  121.99   17.00
  -7  -4  -5   59.99   13.40
  -7  -4  -5  100.39   12.10
   7   4   5   86.39   17.30
  -8  -4  -5  119.99   18.50
  -8  -4  -5  107.29   13.40
  -8  -4  -5   93.99   18.00
   3  -5  -5  -22.80   16.80
   3  -5  -5   19.30   14.60
   3  -5  -5   -2.80   19.00
  -3   5   5    3.50   21.20
  -3   5   5   51.69   21.10
  -3   5   5   21.60   14.70
  -3   5   5   26.70   23.90
   2  -5  -5  173.38   29.00
   2  -5  -5  247.58   30.90
   2  -5  -5  202.68   30.30
   2  -5  -5  257.77   23.90
  -2   5   5  212.88   29.20
  -2   5   5  201.88   28.10
  -2   5   5  214.38   31.80
  -2   5   5  226.48   24.00
   1  -5  -5  264.67   29.40
   1  -5  -5  266.57   29.80
   1  -5  -5  250.87   23.90
  -1   5   5  279.87   25.00
  -1   5   5  278.37   32.10
  -1   5   5  297.47   31.50
  -1   5   5  275.67   28.50
   0  -5  -5   -2.10   11.10
   0  -5  -5    3.80    7.20
   0  -5  -5   19.30    8.80
   0  -5  -5    4.10   12.40
   0   5   5    4.00   11.90
   0   5   5   16.30   16.20
   0   5   5   12.00   10.30
  -1  -5  -5  487.35   33.20
  -1  -5  -5  460.05   29.70
  -1  -5  -5  419.46   35.40
  -1  -5  -5  464.35   35.40
   1   5   5  450.35   31.20
   1   5   5  436.86   36.40
   1   5   5  469.95   33.90
  -2  -5  -5  269.57   18.50
  -2  -5  -5  246.88   24.90
  -2  -5  -5  255.07   24.40
  -2  -5  -5  271.27   22.80
   2   5   5  263.87   24.80
   2   5   5  275.17   25.30
   2   5   5  270.27   18.70
   2   5   5  250.97   23.50
  -3  -5  -5   54.09   11.10
  -3  -5  -5   47.30   11.10
  -3  -5  -5   56.69   10.60
   3   5   5   40.20   11.00
   3   5   5   37.90   10.60
   3   5   5   62.29   12.20
  -4  -5  -5  399.86   29.40
  -4  -5  -5  398.96   28.90
  -4  -5  -5  386.16   29.70
   4   5   5  382.26   30.40
   4   5   5  362.86   28.90
   4   5   5  392.26   30.00
  -5  -5  -5  101.69   14.10
  -5  -5  -5   94.99   11.40
  -5  -5  -5   90.19   12.50
  -5  -5  -5  114.29   14.20
   5   5   5   89.59   12.50
   5   5   5   74.89   11.10
   5   5   5   79.39   14.40
   5   5   5   70.09   15.90
  -6  -5  -5   29.50    8.90
  -6  -5  -5   39.40    7.40
  -6  -5  -5   30.60    8.10
   6   5   5   32.30   12.90
   6   5   5   40.50    9.60
  -7  -5  -5   67.49    9.80
  -7  -5  -5  135.79   16.70
  -7  -5  -5  102.79   13.70
   7   5   5   98.29   17.40
  -8  -5  -5   21.00    7.70
  -8  -5  -5   32.60   15.00
  -8  -5  -5   23.10   13.00
   8   5   5   29.50   16.70
   2  -6  -5  -24.70   17.60
   2  -6  -5   -3.20   19.70
  -2   6   5  -20.60   13.20
  -2   6   5    8.80   22.30
  -2   6   5   20.90   18.30
  -2   6   5   -9.30   19.00
   1  -6  -5  514.65   47.80
   1  -6  -5  608.04   48.10
   1  -6  -5  616.94   43.40
  -1   6   5  649.43   47.30
  -1   6   5  558.24   48.10
  -1   6   5  598.44   44.00
  -1   6   5  634.04   49.70
   0  -6  -5  271.17   28.30
   0  -6  -5  266.27   31.40
   0  -6  -5  291.57   22.90
   0  -6  -5  301.47   31.00
   0   6   5  283.77   33.10
   0   6   5  275.37   27.40
   0   6   5  256.17   26.40
   0   6   5  336.47   33.80
  -1  -6  -5  372.46   35.80
  -1  -6  -5  431.76   28.20
  -1  -6  -5  454.15   35.50
   1   6   5  440.06   31.40
   1   6   5  431.16   37.50
   1   6   5  471.85   34.90
   1   6   5  409.66   37.10
  -2  -6  -5  897.41   58.99
  -2  -6  -5  873.81   58.89
   2   6   5  857.81   53.29
   2   6   5  813.52   61.49
   2   6   5  918.71   56.99
  -3  -6  -5   -9.10   14.00
  -3  -6  -5   -0.80   10.30
   3   6   5   13.90   10.90
   3   6   5    5.00    5.00
   3   6   5   -1.50   18.30
  -4  -6  -5  496.55   37.90
  -4  -6  -5  476.95   36.40
   4   6   5  469.15   36.40
   4   6   5  479.65   35.80
  -5  -6  -5  280.77   25.20
  -5  -6  -5  267.77   23.70
  -5  -6  -5  281.57   24.50
  -5  -6  -5  262.17   16.20
   5   6   5  267.57   24.50
   5   6   5  253.07   25.00
   5   6   5  243.68   24.90
   5   6   5  254.77   26.40
  -6  -6  -5   18.60    9.00
  -6  -6  -5   13.30    5.80
  -6  -6  -5    6.60   10.50
  -6  -6  -5   21.10    9.90
   6   6   5   13.20    9.70
   6   6   5    2.70    8.60
   6   6   5    7.30   12.60
  -7  -6  -5  204.28   19.50
  -7  -6  -5  205.68   25.40
  -7  -6  -5  218.38   19.10
   7   6   5  200.58   19.10
   7   6   5  194.48   26.70
   7   6   5  208.98   20.70
  -8  -6  -5   15.10   11.60
  -8  -6  -5   11.50   13.80
  -8  -6  -5   22.80    5.20
  -8  -6  -5   20.90    5.20
  -8  -6  -5   21.60    5.90
   8   6   5   24.00   16.30
   1  -7  -5   84.19   22.30
   1  -7  -5   61.69   23.70
  -1   7   5   84.39   19.00
  -1   7   5   94.79   24.30
  -1   7   5  144.59   24.00
  -1   7   5  133.29   26.40
   0  -7  -5  163.68   22.90
   0  -7  -5  120.49   17.80
   0  -7  -5  114.59   22.90
   0   7   5  123.29   19.20
   0   7   5  123.39   23.00
   0   7   5  115.09   19.00
   0   7   5  102.39   22.80
  -1  -7  -5   -2.80   14.40
  -1  -7  -5   -0.10   11.60
  -1  -7  -5    0.10   13.80
   1   7   5   -5.50   14.60
   1   7   5    1.70   12.90
   1   7   5   -2.10   15.60
   1   7   5   -3.70   10.40
  -2  -7  -5  315.17   30.60
  -2  -7  -5  265.57   27.40
   2   7   5  289.47   24.80
   2   7   5  318.67   29.50
   2   7   5  263.97   31.30
   2   7   5  315.27   32.80
  -3  -7  -5  261.67   27.80
  -3  -7  -5  282.27   26.40
   3   7   5  271.07   22.70
   3   7   5  348.37   30.20
  -4  -7  -5   29.80   12.40
  -4  -7  -5   38.50   12.20
   4   7   5   16.70   15.10
   4   7   5   27.40   12.80
  -5  -7  -5  469.85   35.00
  -5  -7  -5  475.05   35.10
   5   7   5  427.76   35.10
   5   7   5  355.86   35.00
   5   7   5  426.46   35.00
  -6  -7  -5   50.19   13.50
  -6  -7  -5   42.70   12.00
  -6  -7  -5   47.80   14.10
   6   7   5   62.69   18.10
   6   7   5   56.39   16.60
   6   7   5   81.79   14.00
  -7  -7  -5  122.29   16.40
  -7  -7  -5  115.69   18.10
  -7  -7  -5  135.99   19.80
   7   7   5   99.49   14.50
   7   7   5  121.29   19.90
   7   7   5  101.69   21.40
  -8  -7  -5  117.59   14.50
  -8  -7  -5   88.19   14.10
  -8  -7  -5  109.89   20.20
   8   7   5  110.09   17.80
   8   7   5   92.59   13.40
   8   7   5   86.29   19.70
  -1  -8  -5   99.29   22.70
   1   8   5  117.79   24.80
   1   8   5   97.29   23.60
   1   8   5  113.29   18.40
   1   8   5  126.79   21.60
  -2  -8  -5  214.38   29.70
  -2  -8  -5  256.27   33.20
   2   8   5  234.68   30.00
   2   8   5  292.67   32.80
   2   8   5  213.58   29.50
   2   8   5  290.27   27.20
  -3  -8  -5  428.66   41.40
  -3  -8  -5  456.45   37.90
   3   8   5  463.35   41.60
   3   8   5  462.55   42.60
   3   8   5  509.65   35.20
  -4  -8  -5  -13.50   13.50
  -4  -8  -5   45.50   14.00
   4   8   5   11.10   15.40
   4   8   5   16.40   16.20
   4   8   5    5.50   16.10
  -5  -8  -5  312.87   32.40
  -5  -8  -5  292.17   30.00
  -5  -8  -5  310.97   21.60
   5   8   5  305.47   34.40
   5   8   5  292.47   33.90
   5   8   5  240.98   29.30
  -6  -8  -5   81.79   17.10
  -6  -8  -5   62.39   16.30
   6   8   5   44.40   16.30
   6   8   5   66.29   16.70
   6   8   5   24.00   15.50
   6   8   5   64.69   20.00
  -7  -8  -5   10.10   13.80
  -7  -8  -5   24.20   15.90
  -7  -8  -5  -15.50   15.80
   7   8   5   14.70   15.40
   7   8   5   35.40   14.20
   7   8   5    7.90   15.60
   7   8   5   -1.80   19.70
  -4  -9  -5  108.79   23.40
  -4  -9  -5   84.19   15.10
  -4  -9  -5  102.09   19.90
   4   9   5  114.79   25.00
   4   9   5  106.69   23.00
   4   9   5  106.39   25.40
   2   3  -6   23.30   21.80
   2   3  -6    9.10   24.40
  -2  -3   6    2.60   26.00
  -2  -3   6   28.20   24.90
  -2  -3   6   -1.10   29.40
   1   3  -6  160.28   27.30
   1   3  -6  210.58   32.30
  -1  -3   6  138.09   28.80
  -1  -3   6  210.18   35.40
  -1  -3   6  286.47   34.20
   0   3  -6   78.09   25.50
   0   3  -6  141.49   24.60
   0  -3   6   70.79   31.00
   0  -3   6  103.89   26.50
   0  -3   6  161.08   26.80
  -1   3  -6   30.90   21.50
  -1   3  -6   28.30   18.60
   1  -3   6   16.10   23.20
   1  -3   6   26.80   23.00
   1  -3   6   -3.30   22.60
   1  -3   6    4.00   27.30
  -2   3  -6  225.38   33.60
  -2   3  -6  281.37   37.40
   2  -3   6  179.78   30.80
   2  -3   6  227.68   37.60
   2  -3   6  217.68   32.20
   2  -3   6  252.67   38.00
  -3   3  -6  124.69   24.40
  -3   3  -6  126.29   27.90
   3  -3   6   69.49   33.70
   3  -3   6  133.19   33.30
   3  -3   6  101.79   27.40
   3  -3   6   55.79   30.90
   3   2  -6  142.39   28.80
   3   2  -6  112.89   28.50
   3   2  -6   91.69   13.80
  -3  -2   6  136.29   34.40
  -3  -2   6   88.89   27.30
   2   2  -6  147.69   26.90
   2   2  -6  105.69   24.70
  -2  -2   6  104.39   25.30
  -2  -2   6   45.90   27.40
  -2  -2   6   58.09   24.00
   1   2  -6   55.19   19.50
   1   2  -6   81.89   21.50
  -1  -2   6   49.60   20.90
  -1  -2   6   65.89   25.60
  -1  -2   6  104.59   23.50
   0   2  -6  480.65   43.20
   0   2  -6  444.46   46.50
   0  -2   6  511.15   46.30
   0  -2   6  500.45   47.30
   0  -2   6  561.54   40.70
   0  -2   6  460.95   49.40
  -1   2  -6   26.80   17.50
  -1   2  -6   26.00   15.50
   1  -2   6   26.40   19.00
   1  -2   6   39.10   22.80
  -2   2  -6  247.78   30.50
  -2   2  -6  283.97   41.30
   2  -2   6  282.67   33.90
   2  -2   6  218.88   34.70
   2  -2   6  310.07   37.50
  -3   2  -6  134.79   22.20
  -3   2  -6  211.68   27.90
   3  -2   6  212.68   30.00
   3  -2   6   81.99   23.10
   3  -2   6  113.09   29.10
   3  -2   6  153.78   28.30
  -4   2  -6    7.90   16.40
  -4   2  -6   45.00   19.60
   4  -2   6   -2.60   22.40
   4  -2   6   31.60   19.70
   4  -2   6   21.50   26.80
   4   1  -6   16.30   25.30
   4   1  -6   15.50   28.80
   4   1  -6   -3.90   20.00
  -4  -1   6  -10.50   26.30
  -4  -1   6    4.60   30.20
   3   1  -6   90.49   11.70
   3   1  -6  107.19   25.20
   3   1  -6  119.49   27.20
  -3  -1   6   86.19   25.70
  -3  -1   6  141.79   29.80
   2   1  -6  171.48   27.20
   2   1  -6  224.18   33.50
  -2  -1   6  252.57   36.60
  -2  -1   6  150.68   29.60
   1   1  -6   -0.50   15.30
   1   1  -6    9.00   15.70
  -1  -1   6   17.30   17.40
  -1  -1   6    8.90   19.70
   0   1  -6  339.37   33.90
   0   1  -6  364.76   36.40
   0  -1   6  297.87   41.50
   0  -1   6  320.37   38.90
   0  -1   6  315.27   33.40
  -1   1  -6  247.48   31.30
  -1   1  -6  275.77   29.80
   1  -1   6  239.68   29.50
   1  -1   6  185.78   29.30
   1  -1   6  274.97   29.00
   1  -1   6  246.38   30.90
  -2   1  -6   30.60   16.30
  -2   1  -6   28.30   13.30
   2  -1   6   28.80   17.70
   2  -1   6   19.70   22.30
  -3   1  -6  320.17   36.60
  -3   1  -6  290.87   30.80
   3  -1   6  269.57   36.40
   3  -1   6  341.07   41.10
   3  -1   6  379.46   34.20
   3  -1   6  371.46   32.50
  -4   1  -6   48.50   15.70
  -4   1  -6   75.49   18.80
   4  -1   6   75.19   21.20
   4  -1   6   49.20   16.90
   4  -1   6   61.99   26.10
   4  -1   6   36.20   17.30
  -5   1  -6   47.60   17.40
  -5   1  -6   81.99   18.60
  -5   1  -6   99.69   20.00
   5  -1   6   28.70   28.40
   5  -1   6   58.29   19.20
   5  -1   6   78.39   20.20
   4   0  -6  149.19   29.70
   4   0  -6  187.28   28.30
   4   0  -6  271.77   36.50
  -4   0   6  191.88   34.60
  -4   0   6  255.47   36.50
   3   0  -6   70.29    9.00
   3   0  -6  128.39   24.00
   3   0  -6   54.19   18.20
  -3   0   6   98.39   26.20
  -3   0   6   92.89   25.70
   2   0  -6  835.42   59.69
   2   0  -6  761.12   49.00
   2   0  -6  632.54   62.89
  -2   0   6  723.13   60.29
  -2   0   6  855.61   61.99
   1   0  -6   26.30   15.40
   1   0  -6   16.00   15.70
  -1   0   6   20.60   18.00
  -1   0   6   13.60   17.00
   0   0  -6  585.04   45.00
   0   0   6  511.15   46.80
   0   0   6  575.04   46.20
   0   0   6  566.14   43.90
  -1   0  -6  394.06   36.70
  -1   0  -6  393.96   35.40
   1   0   6  348.97   37.10
   1   0   6  422.46   34.10
   1   0   6  354.26   32.10
  -2   0  -6   -2.50   12.70
   2   0   6    7.50   11.30
   2   0   6  -15.60   14.10
   2   0   6   16.10    7.40
  -3   0  -6  246.18   30.00
  -3   0  -6  301.77   30.40
   3   0   6  296.97   35.50
   3   0   6  342.07   27.90
   3   0   6  341.07   33.50
   3   0   6  242.48   32.50
   3   0   6  226.68   19.50
  -4   0  -6  240.38   29.10
  -4   0  -6  206.08   29.00
   4   0   6  154.08   30.40
   4   0   6  202.28   24.60
   4   0   6  234.98   30.30
  -5   0  -6   25.40   13.20
  -5   0  -6   33.60   14.30
  -5   0  -6   68.19   14.40
   5   0   6   30.70   26.00
   5   0   6   29.10   13.40
   5   0   6   59.29   18.20
  -6   0  -6  201.78   29.90
  -6   0  -6  182.38   24.20
  -6   0  -6  164.98   27.10
   6   0   6  135.79   39.00
   6   0   6  159.98   22.70
   6   0   6  194.48   23.70
   4  -1  -6   15.70   29.90
   4  -1  -6   26.00   22.30
   4  -1  -6   81.69   21.90
  -4   1   6    8.50   26.70
  -4   1   6  -23.50   26.10
   3  -1  -6   19.50   23.70
   3  -1  -6    2.00   17.50
   3  -1  -6   25.80   17.60
   3  -1  -6    2.70    5.50
  -3   1   6   28.50   22.30
  -3   1   6   23.70   22.00
   2  -1  -6   86.29   11.50
   2  -1  -6  162.78   25.30
   2  -1  -6   68.99   17.40
   2  -1  -6  111.79   20.10
  -2   1   6   72.39   22.40
  -2   1   6  101.99   22.20
   1  -1  -6  330.17   26.80
   1  -1  -6  346.67   33.60
   1  -1  -6  386.66   36.60
  -1   1   6  273.07   39.40
   0  -1  -6    3.80   12.40
   0  -1  -6    6.90   12.30
   0   1   6   -2.20   14.50
  -1  -1  -6  788.72   52.09
  -1  -1  -6  672.53   50.69
   1   1   6  641.64   68.59
   1   1   6  712.43   48.30
  -2  -1  -6  363.96   32.80
  -2  -1  -6  375.76   32.70
   2   1   6  379.46   35.30
  -3  -1  -6  183.88   24.10
  -3  -1  -6  169.78   24.00
   3   1   6  184.08   29.70
   3   1   6  145.39   16.80
   3   1   6  201.28   28.10
   3   1   6  186.28   19.40
  -4  -1  -6  614.64   40.80
  -4  -1  -6  374.16   38.70
   4   1   6  512.75   35.10
   4   1   6  417.76   33.30
   4   1   6  458.05   41.00
   4   1   6  622.34   43.50
   4   1   6  552.64   47.50
  -5  -1  -6   25.30   12.50
  -5  -1  -6   18.00    9.90
   5   1   6   15.40   14.50
   5   1   6    5.40   11.00
   5   1   6   23.00   24.30
   5   1   6   24.10   13.70
   5   1   6   11.80    9.60
  -6  -1  -6   73.89   16.30
  -6  -1  -6  106.49   14.50
   6   1   6   81.19   34.20
   6   1   6  128.69   16.20
   6   1   6  115.29   15.20
   6   1   6   56.69   15.30
   6   1   6   92.09   17.20
  -7  -1  -6   80.39   11.60
  -7  -1  -6   44.80   14.00
  -7  -1  -6   77.89   17.60
   7   1   6   72.99   12.80
   4  -2  -6   87.39   25.50
   4  -2  -6  -20.10   22.00
   4  -2  -6   48.00   21.80
  -4   2   6   64.59   28.00
   3  -2  -6   51.49   18.30
   3  -2  -6   20.20   17.70
   3  -2  -6   40.00    7.30
  -3   2   6    2.00   21.40
   2  -2  -6   46.20    9.00
   2  -2  -6   65.49   16.60
   2  -2  -6    7.30   14.90
   2  -2  -6   48.50   19.20
  -2   2   6   17.00   18.00
  -2   2   6   22.70   19.40
   1  -2  -6  398.56   39.50
   1  -2  -6  520.55   42.80
   1  -2  -6  582.54   35.40
   0  -2  -6   27.70   13.30
   0  -2  -6   38.70   13.80
   0   2   6   34.60   14.80
   0   2   6   56.09   17.00
  -1  -2  -6  412.46   34.00
  -1  -2  -6  443.06   35.90
   1   2   6  391.76   37.50
   1   2   6  416.86   35.10
  -2  -2  -6  411.36   31.40
  -2  -2  -6  419.36   33.90
  -2  -2  -6  326.47   33.30
   2   2   6  489.05   30.30
   2   2   6  395.56   37.30
   2   2   6  437.66   35.80
  -3  -2  -6   42.80   11.90
  -3  -2  -6   24.80   11.80
  -3  -2  -6   45.60   12.80
   3   2   6   50.39   14.80
   3   2   6   50.09    8.80
   3   2   6   42.30   15.00
  -4  -2  -6  323.87   30.40
  -4  -2  -6  411.56   32.80
   4   2   6  324.17   33.20
   4   2   6  398.66   33.90
   4   2   6  357.06   24.90
   4   2   6  371.46   39.40
   4   2   6  337.27   26.80
  -5  -2  -6   82.39   14.70
  -5  -2  -6   84.19   16.70
   5   2   6  100.29   16.80
   5   2   6  109.09   13.60
   5   2   6  115.99   16.90
   5   2   6   79.59   26.70
   5   2   6  105.59   15.30
  -6  -2  -6   14.40    9.80
  -6  -2  -6   11.10    8.60
  -6  -2  -6   11.60   10.40
  -6  -2  -6   -6.80   14.50
   6   2   6   14.50    9.90
   6   2   6  -12.60   12.40
   6   2   6   25.40   27.20
  -7  -2  -6  119.79   14.10
  -7  -2  -6  103.39   12.80
  -7  -2  -6   46.70   20.50
   7   2   6  115.69   10.40
   7   2   6   88.09   18.80
   7   2   6  100.29   39.60
   7   2   6  103.79    9.90
   3  -3  -6  287.57   40.50
   3  -3  -6  399.26   39.20
   3  -3  -6  362.26   36.90
   3  -3  -6  271.87   24.30
  -3   3   6  356.26   43.70
  -3   3   6  298.97   43.20
  -3   3   6  445.36   45.10
   2  -3  -6   33.50   28.80
   2  -3  -6   32.00   17.00
   2  -3  -6   39.80    9.20
   2  -3  -6   40.30   15.70
  -2   3   6   47.90   20.50
   1  -3  -6  635.14   40.60
   1  -3  -6  584.74   47.20
   1  -3  -6  606.44   47.40
   1  -3  -6  625.64   44.50
  -1   3   6  569.24   48.50
   0  -3  -6   89.49   16.40
   0  -3  -6   86.69   12.60
   0  -3  -6   70.69   16.50
   0   3   6   75.79   19.00
  -1  -3  -6  155.48   21.90
  -1  -3  -6  139.19   16.60
  -1  -3  -6  159.68   22.80
   1   3   6  171.48   23.20
  -2  -3  -6  403.76   34.00
  -2  -3  -6  353.86   31.20
  -2  -3  -6  469.35   34.80
   2   3   6  428.66   34.40
   2   3   6  516.95   38.50
  -3  -3  -6   73.99   13.80
  -3  -3  -6   76.39   13.60
  -3  -3  -6   91.29   15.20
   3   3   6   75.49   14.40
   3   3   6   90.09   17.20
   3   3   6   99.29   10.20
  -4  -3  -6  201.68   21.20
  -4  -3  -6  117.19   17.90
   4   3   6  162.08   18.20
   4   3   6  207.48   24.00
   4   3   6  175.48   23.30
   4   3   6  189.18   12.40
  -5  -3  -6  328.57   29.00
  -5  -3  -6  363.26   26.70
  -5  -3  -6  215.68   31.70
   5   3   6  316.07   26.90
   5   3   6  333.77   30.70
  -6  -3  -6   -0.20    7.00
  -6  -3  -6  -15.60   13.40
  -6  -3  -6   12.70   10.40
   6   3   6   -2.00   12.40
   6   3   6   -2.60    9.60
   6   3   6   -4.20   24.70
  -7  -3  -6  105.19   21.30
  -7  -3  -6   89.49   11.30
  -7  -3  -6  111.39   15.50
   7   3   6   81.69   35.20
   7   3   6   96.79   19.60
  -8  -3  -6    5.00   20.90
  -8  -3  -6   33.20   11.60
  -8  -3  -6   17.20   18.30
   8   3   6   13.00   36.50
   8   3   6   25.70   23.10
   3  -4  -6   15.20   17.30
   3  -4  -6   15.10   21.10
   3  -4  -6   -8.10   20.50
  -3   4   6  -19.50   25.30
  -3   4   6   10.90   21.80
  -3   4   6   21.10   21.80
   2  -4  -6   86.19   16.10
   2  -4  -6   54.19   18.80
   2  -4  -6   79.29   19.00
  -2   4   6   55.09   23.10
  -2   4   6   45.50   20.20
  -2   4   6   63.49   18.30
   1  -4  -6   12.60   10.80
   1  -4  -6    4.80   14.40
  -1   4   6  -10.50   12.20
  -1   4   6   27.10   16.10
  -1   4   6   -0.50    9.60
  -1   4   6   -4.00   16.30
   0  -4  -6  727.13   50.99
   0  -4  -6  641.84   51.29
   0  -4  -6  798.42   46.80
   0   4   6  749.42   52.49
   0   4   6  643.64   46.80
   0   4   6  710.13   52.99
  -1  -4  -6  434.46   33.20
  -1  -4  -6  437.36   35.50
  -1  -4  -6  437.36   36.30
   1   4   6  457.45   37.60
   1   4   6  454.65   31.60
   1   4   6  418.36   37.70
  -2  -4  -6  841.22   56.99
  -2  -4  -6  819.12   54.99
  -2  -4  -6  844.52   56.69
   2   4   6  869.81   51.59
   2   4   6  893.11   58.59
  -3  -4  -6 1569.64   94.09
  -3  -4  -6 1488.95   94.09
  -3  -4  -6 1525.55   93.29
   3   4   6 1639.94   94.79
   3   4   6 1468.35   95.79
  -4  -4  -6  124.39   17.70
  -4  -4  -6  125.29   15.80
  -4  -4  -6  113.59   15.80
   4   4   6  139.59   18.90
   4   4   6  109.99   15.90
  -5  -4  -6 1236.18   73.19
  -5  -4  -6 1099.09   77.79
   5   4   6 1202.68   74.09
   5   4   6 1236.28   73.19
  -6  -4  -6   17.10    7.50
  -6  -4  -6   24.80   11.50
  -6  -4  -6    6.70   12.80
   6   4   6   29.80   13.70
   6   4   6   24.30   11.80
  -7  -4  -6  342.47   23.10
  -7  -4  -6  312.97   20.90
  -7  -4  -6  303.67   32.70
  -7  -4  -6  280.17   29.20
   7   4   6  265.97   31.60
  -8  -4  -6   51.59   19.80
  -8  -4  -6   37.60    8.60
  -8  -4  -6   36.50   16.50
   8   4   6   64.29   23.70
   2  -5  -6  268.77   26.30
   2  -5  -6  270.97   29.90
   2  -5  -6  209.78   29.80
   2  -5  -6  271.37   37.40
  -2   5   6  180.78   32.20
  -2   5   6  217.68   29.90
  -2   5   6  206.48   28.00
   1  -5  -6  181.98   25.90
   1  -5  -6  194.38   23.80
   1  -5  -6  221.58   23.10
   1  -5  -6  219.38   32.10
  -1   5   6  182.08   26.20
  -1   5   6  162.98   29.20
  -1   5   6  169.58   26.40
   0  -5  -6  618.34   52.89
   0  -5  -6  728.03   52.39
   0  -5  -6  838.92   46.90
   0  -5  -6  661.93   48.00
   0   5   6  716.23   53.69
   0   5   6  695.63   54.89
  -1  -5  -6   26.90   12.00
  -1  -5  -6   29.40    8.40
  -1  -5  -6   23.40   10.40
   1   5   6   19.10    9.00
   1   5   6   -0.40   12.90
   1   5   6   21.90   14.80
  -2  -5  -6  289.67   28.40
  -2  -5  -6  288.27   25.60
   2   5   6  281.07   26.50
   2   5   6  281.67   20.70
  -3  -5  -6   19.20   11.40
  -3  -5  -6    1.60    9.40
  -3  -5  -6   12.00   10.90
   3   5   6   18.70   11.40
   3   5   6   34.40   17.90
   3   5   6    4.50   10.30
  -4  -5  -6   33.30   11.80
  -4  -5  -6   27.50   10.20
   4   5   6   18.60   11.20
   4   5   6   30.20   11.10
  -5  -5  -6   47.30   10.30
  -5  -5  -6   28.90   11.40
  -5  -5  -6   33.40   11.60
   5   5   6   22.60    9.60
   5   5   6   26.30   11.60
   5   5   6   21.00   12.80
  -6  -5  -6  259.47   25.10
  -6  -5  -6  274.17   22.60
  -6  -5  -6  300.57   28.00
   6   5   6  279.37   22.90
   6   5   6  254.57   26.30
  -7  -5  -6  168.18   15.80
  -7  -5  -6  230.28   28.20
  -7  -5  -6  173.68   21.70
  -7  -5  -6  141.39   21.20
   7   5   6  166.78   22.40
   7   5   6  213.48   16.40
   7   5   6  139.29   19.20
  -8  -5  -6  139.19   21.40
  -8  -5  -6  160.18   20.20
   8   5   6  116.69   21.90
   1  -6  -6    8.70   18.20
   1  -6  -6   60.49   15.60
   1  -6  -6   57.09   21.70
   1  -6  -6   67.29   17.80
  -1   6   6   35.60   15.70
  -1   6   6   51.89   23.90
  -1   6   6   51.59   20.70
  -1   6   6   48.10   19.50
   0  -6  -6  123.99   23.00
   0  -6  -6  174.98   22.40
   0  -6  -6  212.78   19.60
   0  -6  -6  167.88   23.70
   0   6   6  116.59   24.40
   0   6   6  145.69   19.40
   0   6   6  176.38   25.40
   0   6   6  147.59   24.50
  -1  -6  -6  702.23   45.40
  -1  -6  -6  591.34   41.00
  -1  -6  -6  605.64   48.90
  -1  -6  -6  646.24   48.40
   1   6   6  630.04   50.39
   1   6   6  687.43   46.70
   1   6   6  637.84   50.29
  -2  -6  -6   -8.70   14.00
  -2  -6  -6    9.00    6.00
  -2  -6  -6   26.60   10.90
  -2  -6  -6   11.40   12.50
   2   6   6   17.00   17.60
   2   6   6   29.10   13.40
   2   6   6   18.00   13.40
   2   6   6   10.00    6.90
  -3  -6  -6  930.01   60.79
  -3  -6  -6  943.71   53.59
  -3  -6  -6  930.21   61.89
  -3  -6  -6  890.11   59.19
   3   6   6  847.72   52.89
   3   6   6  924.81   59.89
  -4  -6  -6  388.66   30.00
  -4  -6  -6  340.07   29.70
  -4  -6  -6  348.17   31.60
   4   6   6  316.07   31.00
  -5  -6  -6  312.87   30.10
  -5  -6  -6  316.87   27.90
  -5  -6  -6  330.67   29.60
   5   6   6  316.67   27.90
  -6  -6  -6  357.06   30.20
  -6  -6  -6  359.66   27.50
  -6  -6  -6  327.27   32.20
  -6  -6  -6  314.37   24.00
   6   6   6  357.56   31.60
   6   6   6  367.96   28.30
   6   6   6  312.97   30.50
  -7  -6  -6   24.80    9.80
  -7  -6  -6   19.60   11.50
  -7  -6  -6   33.60    9.60
  -7  -6  -6   -7.50   13.50
   7   6   6   30.60   15.20
   7   6   6   29.10   12.20
   7   6   6   49.90   19.20
  -8  -6  -6   37.80   16.70
  -8  -6  -6   41.20    9.90
  -8  -6  -6   58.59    8.10
  -8  -6  -6   62.99   14.00
   8   6   6   62.29   18.70
   0  -7  -6   29.90   18.60
   0  -7  -6    0.50   20.00
   0  -7  -6    1.90   14.70
   0   7   6    4.30   17.50
   0   7   6   39.50   20.90
   0   7   6  -22.60   21.30
   0   7   6  -23.60   15.80
  -1  -7  -6  359.86   39.00
  -1  -7  -6  432.46   39.50
  -1  -7  -6  417.46   36.20
   1   7   6  397.36   41.40
   1   7   6  391.46   33.70
   1   7   6  337.17   35.60
   1   7   6  394.76   41.10
  -2  -7  -6  118.39   20.30
  -2  -7  -6  121.69   17.50
  -2  -7  -6   91.79   19.60
   2   7   6  105.09   13.60
   2   7   6   97.29   20.70
   2   7   6   85.79   20.30
   2   7   6  111.49   19.10
  -3  -7  -6  226.68   34.60
  -3  -7  -6  264.97   28.30
  -3  -7  -6  302.87   29.60
   3   7   6  257.27   21.20
   3   7   6  308.27   31.40
   3   7   6  301.47   31.40
  -4  -7  -6  466.85   35.70
  -4  -7  -6  394.16   36.80
  -4  -7  -6  425.76   36.70
   4   7   6  445.46   37.10
  -5  -7  -6  -15.00   11.90
  -5  -7  -6   -8.20   12.40
  -5  -7  -6    2.10   10.80
   5   7   6   -9.40   11.30
   5   7   6   14.80   14.00
   5   7   6   -2.60   13.60
  -6  -7  -6  198.18   25.20
  -6  -7  -6  183.28   22.20
  -6  -7  -6  176.88   23.10
   6   7   6  178.68   24.30
   6   7   6  211.78   25.30
   6   7   6  231.38   25.80
   6   7   6  153.88   23.80
  -7  -7  -6   57.99   14.60
  -7  -7  -6   83.19   17.20
  -7  -7  -6   39.80   12.50
   7   7   6   53.49   14.40
   7   7   6   43.10   17.40
   7   7   6   63.39   13.30
  -1  -8  -6  157.98   25.90
  -1  -8  -6  140.29   21.90
  -1  -8  -6  133.89   26.60
   1   8   6  103.29   26.60
   1   8   6  143.39   28.80
   1   8   6  128.29   21.70
   1   8   6  187.28   27.10
  -2  -8  -6  233.08   30.80
  -2  -8  -6  177.08   27.50
  -2  -8  -6  225.58   28.20
   2   8   6  186.98   28.30
   2   8   6  168.38   27.80
   2   8   6  180.18   25.70
  -3  -8  -6    0.30   16.00
  -3  -8  -6   14.30   18.60
  -3  -8  -6   16.90   14.80
   3   8   6   -5.00   18.20
   3   8   6  -17.00    9.50
   3   8   6  -19.90   17.70
   3   8   6   12.90   18.90
  -4  -8  -6  195.68   24.50
  -4  -8  -6  223.48   30.00
  -4  -8  -6  236.18   32.70
   4   8   6  274.07   33.60
   4   8   6  233.78   27.60
   4   8   6  245.48   29.00
  -5  -8  -6  220.98   26.90
  -5  -8  -6  209.28   23.70
  -5  -8  -6  170.78   23.20
   5   8   6  147.99   25.40
   5   8   6  172.38   25.40
  -6  -8  -6   20.40   16.40
  -6  -8  -6   45.70   18.60
  -6  -8  -6   57.49   15.90
   6   8   6   43.50   17.40
   6   8   6   30.70   17.10
   6   8   6   17.60   20.10
   6   8   6   24.10   15.20
   1   2  -7   87.59   28.40
   1   2  -7  118.29   27.80
  -1  -2   7  103.29   31.50
  -1  -2   7  102.09   28.00
  -1  -2   7  145.19   35.30
   0   2  -7   -7.20   23.10
   0   2  -7   34.90   21.40
   0  -2   7    6.30   30.70
   0  -2   7  -21.80   22.00
   0  -2   7   41.00   25.80
  -1   2  -7  144.59   26.00
  -1   2  -7  177.68   30.20
   1  -2   7  147.49   31.60
   1  -2   7  121.59   33.90
   1  -2   7  181.68   28.40
   1  -2   7  171.78   30.00
  -2   2  -7   93.19   23.30
  -2   2  -7   67.49   27.10
   2  -2   7   73.79   34.00
   2  -2   7  161.38   29.90
   2  -2   7  135.39   26.40
   2  -2   7  150.88   30.30
  -3   2  -7   39.90   26.50
  -3   2  -7   55.09   21.10
   3  -2   7   29.50   26.10
   3  -2   7   10.10   28.30
   3  -2   7  -18.10   33.30
   3  -2   7   -9.70   23.90
   2   1  -7   16.10   12.40
   2   1  -7   67.49   25.00
   2   1  -7  -19.20   22.60
  -2  -1   7   48.20   29.60
  -2  -1   7   32.90   26.00
   1   1  -7  274.97   32.80
   1   1  -7  308.27   39.80
  -1  -1   7  220.88   32.80
  -1  -1   7  170.98   29.70
  -1  -1   7  177.18   34.00
   0   1  -7   30.90   21.30
   0   1  -7   42.60   19.70
   0  -1   7   32.60   18.90
   0  -1   7   56.69   23.20
   0  -1   7   62.19   27.30
  -1   1  -7   65.59   21.10
  -1   1  -7   76.99   20.10
   1  -1   7   50.49   23.90
   1  -1   7   77.79   20.10
   1  -1   7  105.09   21.60
   1  -1   7   59.59   26.70
  -2   1  -7  273.07   33.40
  -2   1  -7  176.58   29.00
   2  -1   7  216.98   34.50
   2  -1   7  219.78   33.20
  -3   1  -7   26.60   17.50
   3  -1   7   65.69   22.10
   3  -1   7   -4.90   20.70
   3  -1   7   20.70   25.00
   3  -1   7    3.50   22.00
  -4   1  -7   64.99   21.20
  -4   1  -7  119.79   25.50
   4  -1   7   82.19   30.30
   4  -1   7  150.08   23.80
   4  -1   7  110.89   29.80
   2   0  -7    5.80   20.80
   2   0  -7   25.90   24.40
  -2   0   7   -8.80   23.30
  -2   0   7   44.40   27.40
   1   0  -7  362.96   43.20
   1   0  -7  431.76   32.70
   1   0  -7  381.46   43.80
  -1   0   7  347.67   46.30
  -1   0   7  404.86   47.90
   0   0  -7  331.27   39.20
   0   0  -7  317.27   28.80
   0   0  -7  325.97   38.60
   0   0   7  387.46   43.00
   0   0   7  252.87   39.60
  -1   0  -7   63.79   20.10
  -1   0  -7   64.49   19.00
   1   0   7   61.99   22.70
   1   0   7   95.49   18.40
  -2   0  -7  422.16   49.00
  -2   0  -7  466.05   43.10
   2   0   7  476.35   31.20
   2   0   7  342.87   46.30
   2   0   7  594.84   47.30
   2   0   7  527.85   43.80
  -3   0  -7   35.60   19.50
  -3   0  -7   70.89   18.30
   3   0   7   50.79   22.50
   3   0   7    6.10   21.00
   3   0   7   38.00   22.60
  -4   0  -7   37.60   19.20
  -4   0  -7   69.99   19.10
   4   0   7   45.60   23.20
   4   0   7   71.09   17.90
   4   0   7   58.89   26.30
   4   0   7   96.29   21.50
  -5   0  -7   67.09   21.80
  -5   0  -7  151.18   23.40
   5   0   7  144.19   25.80
   5   0   7   77.69   19.30
   5   0   7  106.69   32.70
   5   0   7  101.89   24.40
   3  -1  -7   42.40   22.30
   3  -1  -7   39.40    8.40
   3  -1  -7  152.18   35.30
   3  -1  -7   50.69   26.60
  -3   1   7   64.99   30.60
  -3   1   7  117.09   33.20
   2  -1  -7  158.68   25.30
   2  -1  -7  142.69   27.50
   2  -1  -7  207.28   32.20
   2  -1  -7  204.18   20.90
  -2   1   7  129.19   30.50
  -2   1   7  122.69   30.30
   1  -1  -7    3.80   20.90
   1  -1  -7   46.50   19.40
  -1   1   7   40.20   23.10
  -1   1   7   26.40   21.80
   0  -1  -7  640.04   52.79
   0  -1  -7  714.33   56.09
   0  -1  -7  731.43   47.30
   0   1   7  755.72   58.89
   0   1   7  574.74   54.59
  -1  -1  -7   60.79   17.90
  -1  -1  -7   51.69   13.80
  -1  -1  -7   52.49   17.80
   1   1   7   84.99   16.00
   1   1   7   69.19   21.90
   1   1   7   56.39   20.30
  -2  -1  -7  504.75   42.80
  -2  -1  -7  463.05   41.80
  -2  -1  -7  482.55   37.90
   2   1   7  407.66   36.60
   2   1   7  524.05   44.40
  -3  -1  -7  381.86   36.10
  -3  -1  -7  323.77   36.70
   3   1   7  261.57   29.80
   3   1   7  318.77   25.50
   3   1   7  388.66   39.10
  -4  -1  -7   19.60   16.60
  -4  -1  -7   51.29   16.80
   4   1   7   35.50   12.30
   4   1   7   48.40   19.30
   4   1   7    7.10   10.60
   4   1   7    6.80   22.20
   4   1   7   -0.70   17.80
  -5  -1  -7  212.68   31.80
  -5  -1  -7  179.08   24.30
   5   1   7  143.49   18.70
   5   1   7  156.68   24.20
   5   1   7  133.09   17.90
   5   1   7  212.18   27.60
   5   1   7  183.18   35.30
  -6  -1  -7   36.40   16.10
  -6  -1  -7   48.80   17.90
   6   1   7    9.80   30.40
   6   1   7   20.00   19.40
   6   1   7    5.30   14.60
   6   1   7    0.90   16.80
   2  -2  -7   68.79   23.70
   2  -2  -7  106.09   13.10
   2  -2  -7   48.10   19.30
   2  -2  -7   63.99   26.00
  -2   2   7   97.19   26.60
  -2   2   7   96.49   28.50
   1  -2  -7    4.60   18.00
   1  -2  -7   23.40   12.20
   1  -2  -7    6.80   17.20
  -1   2   7    2.20   20.20
  -1   2   7   17.50   20.90
   0  -2  -7  167.28   25.10
   0  -2  -7  121.59   22.20
   0  -2  -7  163.48   18.20
   0   2   7  139.79   24.20
   0   2   7  125.79   25.60
  -1  -2  -7  333.87   27.70
  -1  -2  -7  312.97   34.20
   1   2   7  315.37   39.20
   1   2   7  235.88   33.50
  -2  -2  -7   -4.60   13.20
  -2  -2  -7    0.30   10.50
  -2  -2  -7   27.40   14.40
   2   2   7   10.00   10.10
  -3  -2  -7  636.24   44.70
  -3  -2  -7  583.44   47.00
  -3  -2  -7  625.54   46.90
   3   2   7  498.45   39.60
   3   2   7  639.84   51.59
  -4  -2  -7  282.17   31.10
  -4  -2  -7  282.07   30.60
  -4  -2  -7  273.97   30.20
   4   2   7  203.88   29.70
   4   2   7  220.28   23.00
   4   2   7  291.37   22.70
  -5  -2  -7  116.69   21.10
  -5  -2  -7  154.48   22.30
  -5  -2  -7  158.58   22.90
   5   2   7  159.88   19.20
   5   2   7  134.29   23.40
   5   2   7  202.08   35.20
   5   2   7  189.68   18.60
  -6  -2  -7  335.27   38.30
  -6  -2  -7  275.27   34.20
  -6  -2  -7  344.27   33.70
   6   2   7  375.46   29.40
   6   2   7  418.16   53.39
   6   2   7  407.56   36.40
   6   2   7  291.27   31.10
  -7  -2  -7   14.30   21.60
  -7  -2  -7    4.20   13.40
   7   2   7  -13.10   16.80
   2  -3  -7  176.68   26.20
   2  -3  -7  121.09   25.80
   2  -3  -7  176.88   28.60
  -2   3   7  100.19   27.50
   1  -3  -7    7.30   15.90
   1  -3  -7   15.60   19.20
   1  -3  -7   34.20   18.40
  -1   3   7   27.80   21.40
   0  -3  -7  167.88   24.60
   0  -3  -7  120.79   21.70
   0  -3  -7  165.48   18.60
   0   3   7  111.29   23.90
   0   3   7  203.38   28.00
  -1  -3  -7  270.27   26.60
  -1  -3  -7  286.27   31.60
  -1  -3  -7  189.18   29.50
   1   3   7  204.98   32.00
   1   3   7  337.27   36.20
  -2  -3  -7    0.80   13.40
  -2  -3  -7    0.70   12.40
  -2  -3  -7    3.30   10.30
   2   3   7   -1.60    8.50
  -3  -3  -7  172.48   25.80
  -3  -3  -7  277.87   29.90
  -3  -3  -7  213.88   24.80
   3   3   7  279.87   34.50
   3   3   7  232.38   19.60
  -4  -3  -7  142.19   21.20
  -4  -3  -7  171.18   24.70
  -4  -3  -7  106.59   18.60
   4   3   7  184.28   24.80
   4   3   7  160.28   13.80
  -5  -3  -7   16.70   14.20
  -5  -3  -7    9.00   13.50
  -5  -3  -7   13.20   13.20
   5   3   7    9.30    6.10
   5   3   7    0.10   11.30
   5   3   7   31.80   16.30
  -6  -3  -7   45.40   17.70
  -6  -3  -7   39.00   15.00
  -6  -3  -7   56.99   13.80
   6   3   7   90.99   17.40
   6   3   7   65.79   17.00
  -7  -3  -7   19.70    9.90
  -7  -3  -7   29.20   14.90
  -7  -3  -7  -36.70   18.50
   7   3   7   14.10    9.10
   7   3   7   26.20   11.10
   7   3   7   37.50   32.60
   7   3   7   18.40   17.00
   2  -4  -7  204.88   22.10
   2  -4  -7  117.79   27.90
   2  -4  -7  208.58   27.50
   2  -4  -7  234.08   31.30
  -2   4   7  109.19   31.90
  -2   4   7  149.59   27.70
  -2   4   7  156.08   31.60
   1  -4  -7  378.36   32.00
   1  -4  -7  398.16   37.30
   1  -4  -7  413.46   42.60
   1  -4  -7  332.97   42.10
  -1   4   7  372.36   39.70
  -1   4   7  368.76   45.30
  -1   4   7  352.86   43.00
   0  -4  -7   44.90   18.50
   0  -4  -7   49.70   18.00
   0  -4  -7   15.20   11.30
   0   4   7   23.10   20.00
   0   4   7   17.00   19.80
   0   4   7   32.40   14.20
  -1  -4  -7  647.14   49.50
  -1  -4  -7  635.04   49.30
  -1  -4  -7  657.43   46.00
   1   4   7  592.44   50.09
  -2  -4  -7   99.79   18.70
  -2  -4  -7  100.29   17.80
  -3  -4  -7  160.28   19.20
  -3  -4  -7  158.18   24.10
  -3  -4  -7  185.08   24.00
   3   4   7  119.89   13.00
  -4  -4  -7  229.88   26.20
  -4  -4  -7  221.38   25.50
  -5  -4  -7   33.30   14.10
  -5  -4  -7   33.70   13.10
  -5  -4  -7   42.80   13.00
   5   4   7   20.90   13.70
   5   4   7   32.50   13.00
  -6  -4  -7  103.89   17.60
  -6  -4  -7   94.39   14.10
  -6  -4  -7   39.70   17.60
   6   4   7  102.89   14.10
   6   4   7  106.99   18.40
   6   4   7   62.89   17.00
  -7  -4  -7  132.49   24.10
  -7  -4  -7  130.39   18.40
   7   4   7  110.29   18.60
   7   4   7  161.98   23.40
   7   4   7  124.69   16.70
   1  -5  -7  225.58   26.70
   1  -5  -7  200.38   30.80
   1  -5  -7  236.58   31.00
   1  -5  -7  277.77   31.80
  -1   5   7  310.17   42.90
  -1   5   7  191.38   33.90
  -1   5   7  267.17   35.60
   0  -5  -7   79.79   19.50
   0  -5  -7   75.59   15.50
   0  -5  -7   41.10   19.70
   0  -5  -7   70.69   15.10
   0   5   7   62.09   16.70
   0   5   7   74.89   21.70
   0   5   7   35.80   21.90
  -1  -5  -7  249.68   27.90
  -1  -5  -7  197.38   24.40
  -1  -5  -7  215.68   26.80
  -1  -5  -7  249.97   32.10
   1   5   7  217.08   28.60
   1   5   7  220.08   28.80
  -2  -5  -7  515.25   44.00
  -2  -5  -7  516.15   41.50
   2   5   7  662.13   48.90
   2   5   7  565.84   37.20
  -3  -5  -7   -5.00   13.10
  -3  -5  -7   -5.70   11.90
  -3  -5  -7  -25.70   10.90
   3   5   7   -0.50    3.10
   3   5   7    2.30    4.20
  -4  -5  -7  497.65   43.00
  -4  -5  -7  614.34   43.30
  -4  -5  -7  537.55   42.30
   4   5   7  581.34   43.50
  -5  -5  -7  200.48   24.90
  -5  -5  -7  194.38   22.70
  -5  -5  -7  129.79   19.20
   5   5   7  136.59   21.00
   5   5   7  172.08   24.30
  -6  -5  -7   46.10   14.10
  -6  -5  -7   88.59   17.80
  -6  -5  -7  100.69   13.80
   6   5   7   79.99   13.20
   6   5   7   88.89   18.20
  -7  -5  -7  163.48   18.90
  -7  -5  -7  121.99   19.60
  -7  -5  -7  174.98   23.70
   7   5   7  155.48   19.20
   7   5   7  140.79   19.00
   0  -6  -7  138.59   20.80
   0  -6  -7  113.89   16.90
   0  -6  -7   94.29   24.60
   0  -6  -7  120.59   24.30
   0   6   7   79.89   36.20
   0   6   7   44.10   24.00
   0   6   7   84.39   26.70
   0   6   7  112.29   19.10
  -1  -6  -7    2.90   14.30
  -1  -6  -7  -14.60   15.20
  -1  -6  -7  -16.10   17.50
   1   6   7    5.50   18.30
   1   6   7   -6.00   14.50
   1   6   7   25.40   19.90
  -2  -6  -7  418.86   29.00
  -2  -6  -7  380.26   34.50
  -2  -6  -7  381.26   38.10
  -2  -6  -7  334.57   35.60
   2   6   7  355.36   34.20
   2   6   7  368.96   28.20
   2   6   7  358.56   40.40
  -3  -6  -7  193.98   26.80
  -3  -6  -7  211.88   19.80
  -3  -6  -7  226.18   30.40
  -3  -6  -7  217.28   26.60
   3   6   7  190.98   25.20
   3   6   7  261.97   27.90
   3   6   7  188.08   13.60
  -4  -6  -7  134.99   19.70
  -4  -6  -7  121.59   20.30
  -4  -6  -7  152.38   19.30
   4   6   7  119.89   19.80
  -5  -6  -7  303.87   31.50
  -5  -6  -7  395.16   33.10
  -5  -6  -7  353.76   34.00
   5   6   7  361.76   32.90
   5   6   7  379.66   34.50
  -6  -6  -7   -6.80   12.40
  -6  -6  -7   26.20   14.60
  -6  -6  -7  -13.40   10.80
   6   6   7   22.40   11.70
   6   6   7   -1.70   17.70
   6   6   7   21.90   14.30
  -7  -6  -7   50.79   15.50
  -7  -6  -7   58.79   11.50
  -7  -6  -7   70.49   18.70
  -7  -6  -7   73.39   13.00
   7   6   7   75.99   19.20
  -1  -7  -7   25.00   18.60
  -1  -7  -7   12.30   20.60
  -1  -7  -7   -1.80   16.10
   1   7   7  -19.70   23.00
   1   7   7   16.70   15.50
   1   7   7   24.90   18.90
   1   7   7   -7.80   20.70
  -2  -7  -7  307.67   23.70
  -2  -7  -7  336.87   34.70
  -2  -7  -7  278.07   35.00
  -2  -7  -7  353.16   39.20
   2   7   7  311.07   34.50
   2   7   7  380.46   42.30
   2   7   7  322.67   40.10
   2   7   7  261.67   26.20
  -3  -7  -7  121.09   22.50
  -3  -7  -7  110.19   20.50
  -3  -7  -7  118.59   19.10
  -3  -7  -7  118.79   12.60
   3   7   7   97.89   22.70
   3   7   7  100.89   20.40
   3   7   7   91.39   12.70
  -4  -7  -7   17.50    4.40
  -4  -7  -7    7.90   16.70
  -4  -7  -7   27.20   14.30
  -4  -7  -7   12.20   14.50
   4   7   7   16.20   15.80
   4   7   7   45.10   18.60
   4   7   7   54.79   17.80
  -5  -7  -7  175.48   22.00
  -5  -7  -7  170.98   23.70
  -5  -7  -7  203.98   25.90
   5   7   7  194.28   28.40
   5   7   7  171.98   24.30
   5   7   7  151.68   23.50
  -6  -7  -7   66.29    7.70
  -6  -7  -7   54.89   17.30
  -6  -7  -7   63.59   17.50
  -6  -7  -7   73.49   15.20
   6   7   7   43.00   18.10
   6   7   7   53.19   18.70
   6   7   7   29.80   14.90
  -7  -7  -7   33.50   12.30
  -7  -7  -7   32.50   16.20
  -7  -7  -7   32.10    8.90
  -7  -7  -7  -16.40   17.00
   7   7   7   40.70   18.70
   7   7   7   36.00   17.10
   7   7   7   46.30   14.30
  -3  -8  -7  243.48   30.50
  -3  -8  -7  203.48   26.70
  -3  -8  -7  292.27   40.00
   3   8   7  180.48   21.90
   3   8   7  254.37   32.70
   3   8   7  292.87   40.10
   3   8   7  248.78   31.00
  -4  -8  -7   14.40   17.40
  -4  -8  -7   47.50   21.90
  -4  -8  -7   37.20   18.10
   4   8   7   19.80   21.20
   4   8   7   26.70   20.50
  -5  -8  -7  127.99   20.90
  -5  -8  -7  108.59   23.80
  -5  -8  -7  130.99   22.30
   5   8   7  155.78   26.40
   5   8   7  107.19   23.80
   0   0  -8    8.60   14.30
   0   0  -8  -10.40   22.50
   0   0  -8  -21.80   21.10
   0   0   8   -6.70   21.40
   0   0   8    2.10   26.50
   0   0   8  -12.60   27.50
  -1   0  -8  690.43   51.09
  -1   0  -8  672.03   57.89
  -1   0  -8  713.03   59.49
   1   0   8  619.64   65.09
   1   0   8  709.53   61.49
   1   0   8  682.73   55.79
  -2   0  -8   94.09   25.60
  -2   0  -8   90.29   22.40
   2   0   8   55.79   20.50
   2   0   8   99.29   28.10
   2   0   8   91.19   30.70
  -3   0  -8  401.86   44.10
  -3   0  -8  461.85   50.89
   3   0   8  461.85   47.60
   3   0   8  321.27   56.59
   3   0   8  398.26   52.99
  -4   0  -8  312.47   41.90
   4   0   8  281.07   43.60
   4   0   8  264.57   34.80
   4   0   8  168.78   38.00
   1  -1  -8  119.69   30.40
   1  -1  -8   51.99   25.60
   1  -1  -8  108.49   17.70
  -1   1   8  128.29   33.30
  -1   1   8  126.49   32.80
   0  -1  -8    2.70   21.00
   0  -1  -8    7.20   14.50
   0  -1  -8  -11.90   20.60
   0   1   8    8.20   26.50
   0   1   8   -0.30   25.90
   0   1   8   34.30   17.90
  -1  -1  -8  137.49   20.40
  -1  -1  -8  168.48   26.60
  -1  -1  -8  122.49   25.10
   1   1   8  119.99   28.60
   1   1   8  171.98   31.70
   1   1   8   89.39   31.60
  -2  -1  -8  122.29   19.30
  -2  -1  -8   94.99   23.00
  -2  -1  -8  133.29   25.30
   2   1   8  106.69   20.20
   2   1   8  165.98   29.90
   2   1   8  105.59   26.90
  -3  -1  -8   14.00   15.10
  -3  -1  -8    0.20   17.50
   3   1   8   -6.60   11.70
   3   1   8   50.39   24.80
   3   1   8   17.90   19.10
   3   1   8  -19.40   23.30
  -4  -1  -8  155.98   26.60
  -4  -1  -8  188.08   28.70
  -4  -1  -8  144.69   22.80
   4   1   8  127.79   21.70
   4   1   8  187.88   32.80
   4   1   8  173.28   18.10
   4   1   8  189.18   35.00
  -5  -1  -8   86.09   25.90
  -5  -1  -8   89.79   23.00
  -5  -1  -8   79.99   21.20
   5   1   8   75.29   15.20
   5   1   8   49.60   25.70
   5   1   8   57.39   27.30
   5   1   8  107.39   34.50
   1  -2  -8  166.98   32.70
   1  -2  -8  234.98   27.50
   1  -2  -8  187.28   31.10
  -1   2   8  131.79   32.40
  -1   2   8  220.48   37.40
   0  -2  -8  100.19   25.70
   0  -2  -8  185.38   21.80
   0  -2  -8  122.09   26.00
   0   2   8  132.89   31.60
   0   2   8  123.59   29.20
  -1  -2  -8   74.19   22.10
  -1  -2  -8   76.59   16.50
  -1  -2  -8  110.19   23.20
   1   2   8   79.79   28.10
   1   2   8   58.79   24.00
   1   2   8   71.69   21.20
  -2  -2  -8  485.85   46.00
  -2  -2  -8  479.95   43.70
  -2  -2  -8  393.66   38.30
   2   2   8  506.25   65.89
   2   2   8  406.86   37.20
   2   2   8  458.85   47.30
  -3  -2  -8   22.90   18.00
  -3  -2  -8   60.39   19.70
  -3  -2  -8   26.70   16.00
   3   2   8   27.20   25.20
   3   2   8   12.60   21.40
   3   2   8   25.20   13.30
  -4  -2  -8  282.97   37.90
  -4  -2  -8  309.07   35.30
  -4  -2  -8  352.76   38.90
   4   2   8  244.98   27.50
   4   2   8  248.38   26.40
   4   2   8  304.77   43.40
  -5  -2  -8  143.99   26.40
  -5  -2  -8  175.18   26.20
  -5  -2  -8  200.08   27.30
   5   2   8  164.88   23.30
   5   2   8  175.88   29.90
   5   2   8  216.18   31.50
   5   2   8  176.78   21.10
  -6  -2  -8   48.20   22.60
  -6  -2  -8   19.10   20.00
  -6  -2  -8    2.20   20.40
   6   2   8   12.30   22.60
   6   2   8   26.30   33.70
   6   2   8   49.20   23.50
   6   2   8    2.50   13.10
   6   2   8   28.10   16.70
   1  -3  -8  121.09   28.20
   1  -3  -8  174.18   27.90
   1  -3  -8  162.48   19.20
   1  -3  -8  152.48   30.50
  -1   3   8  130.59   32.90
   0  -3  -8   84.99   23.20
   0  -3  -8  169.48   28.20
   0   3   8   97.19   26.90
   0   3   8  149.09   31.10
  -1  -3  -8   17.70   18.40
  -1  -3  -8   35.70   16.00
  -1  -3  -8   32.60   19.60
   1   3   8   83.69   28.10
   1   3   8   36.00   22.00
  -2  -3  -8  260.67   28.50
  -2  -3  -8  243.98   35.20
  -2  -3  -8  235.98   33.70
   2   3   8  291.37   27.30
   2   3   8  237.08   38.50
   2   3   8  265.07   36.30
  -3  -3  -8   38.60   17.90
  -3  -3  -8   32.70   17.30
  -3  -3  -8   61.79   15.60
   3   3   8   16.40   10.90
   3   3   8    3.20   18.60
   3   3   8    5.90   23.10
  -4  -3  -8   13.50   17.40
  -4  -3  -8   16.10   15.00
  -4  -3  -8    7.60   17.40
   4   3   8   26.90    9.20
   4   3   8   35.90   20.40
  -5  -3  -8   93.99   21.20
  -5  -3  -8  149.69   23.80
  -5  -3  -8   72.09   20.70
   5   3   8   89.39   17.60
   5   3   8  114.49   15.10
   5   3   8  100.79   23.70
   5   3   8  132.09   26.10
  -6  -3  -8   36.70   19.40
  -6  -3  -8   20.20   19.90
  -6  -3  -8   27.00   17.60
   6   3   8   12.20   21.20
   6   3   8   19.50   16.90
   0  -4  -8  190.98   28.40
   0  -4  -8  167.08   24.00
   0  -4  -8  155.98   27.90
   0  -4  -8  154.78   21.00
   0   4   8  144.59   31.20
  -1  -4  -8   80.89   21.40
  -1  -4  -8   42.10   19.70
  -1  -4  -8   69.49   16.60
   1   4   8   62.29   24.40
  -2  -4  -8  171.58   24.50
  -2  -4  -8   93.99   21.80
  -2  -4  -8  111.99   19.20
   2   4   8   72.69   22.70
  -3  -4  -8  284.77   31.10
  -3  -4  -8  238.98   34.70
  -3  -4  -8  366.16   35.60
   3   4   8  305.27   24.10
  -4  -4  -8    0.70   15.20
  -4  -4  -8   12.30   14.50
  -4  -4  -8   11.50   16.10
   4   4   8   -4.20   17.10
  -5  -4  -8  118.29   22.70
  -5  -4  -8  205.58   30.70
  -5  -4  -8  216.88   30.50
   5   4   8  172.88   22.20
   5   4   8  225.78   28.20
  -6  -4  -8   76.19   19.80
  -6  -4  -8   45.30   19.20
  -6  -4  -8   63.89   17.20
   6   4   8   39.20   17.60
   6   4   8   73.29   22.30
   6   4   8   48.40   16.70
   0  -5  -8  186.48   31.70
   0  -5  -8  202.88   31.30
   0  -5  -8  185.48   24.50
   0  -5  -8  194.98   26.30
   0   5   8  242.68   28.80
   0   5   8  198.88   34.20
   0   5   8  209.58   35.40
  -1  -5  -8  249.58   38.20
  -1  -5  -8  219.58   30.50
  -1  -5  -8  283.57   37.80
  -1  -5  -8  230.08   31.20
   1   5   8  208.88   33.20
   1   5   8  271.67   35.90
  -2  -5  -8   31.20   16.20
  -2  -5  -8   35.70   18.20
  -2  -5  -8   41.30   19.50
   2   5   8   56.79   22.80
   2   5   8   27.30   12.10
   2   5   8   20.10   21.10
  -3  -5  -8  372.36   39.70
  -3  -5  -8  514.15   45.60
   3   5   8  522.45   31.30
   3   5   8  486.65   31.70
   3   5   8  485.75   46.60
   3   5   8  568.44   50.29
  -4  -5  -8   54.99   16.50
  -4  -5  -8   40.80   22.20
  -4  -5  -8   59.39   18.30
   4   5   8   23.20   19.10
  -5  -5  -8  128.59   21.00
  -5  -5  -8  191.38   27.30
  -5  -5  -8  141.49   22.20
   5   5   8   92.69   21.80
  -6  -5  -8  120.59   18.50
  -6  -5  -8   98.39   21.40
  -6  -5  -8   92.69   20.30
   6   5   8  144.29   20.20
   6   5   8  128.59   22.50
   6   5   8  107.39   22.90
  -1  -6  -8  164.38   29.20
  -1  -6  -8  191.28   29.30
  -1  -6  -8  138.49   24.90
   1   6   8  163.68   32.80
   1   6   8  157.08   22.40
   1   6   8  156.28   31.80
  -2  -6  -8   31.70   21.60
  -2  -6  -8   52.49   20.00
  -2  -6  -8   51.69   17.00
  -2  -6  -8    5.20   12.60
   2   6   8   37.10   24.10
   2   6   8   29.10   23.90
   2   6   8   49.10   12.30
  -3  -6  -8   85.09   18.50
  -3  -6  -8   92.79   23.10
  -3  -6  -8   57.39   19.50
   3   6   8   76.69    8.50
   3   6   8   73.49   23.40
  -4  -6  -8  324.77   35.70
  -4  -6  -8  269.77   32.50
  -4  -6  -8  293.17   37.90
   4   6   8  272.07   38.70
   4   6   8  296.97   40.20
  -5  -6  -8   14.30   16.90
  -5  -6  -8   25.20   16.10
  -5  -6  -8   28.90   15.90
   5   6   8   12.10   19.50
   5   6   8   25.90   16.70
  -6  -6  -8  160.08   23.60
  -6  -6  -8  187.58   25.60
   6   6   8  216.38   26.90
   6   6   8  149.39   24.90
   6   6   8  230.78   29.50
  -3  -7  -8   18.50   18.00
  -3  -7  -8   22.40   19.50
  -3  -7  -8   23.00   10.00
  -3  -7  -8   43.70   22.70
   3   7   8   68.19   24.60
   3   7   8   -1.60   22.60
   3   7   8   27.30    6.30
   3   7   8   -7.70   19.50
  -4  -7  -8  141.79   23.50
  -4  -7  -8  128.39   25.60
  -4  -7  -8  137.89   24.40
  -4  -7  -8  167.68   18.50
   4   7   8  136.59   26.10
   4   7   8  150.18   27.70
  -5  -7  -8   25.50   21.30
  -5  -7  -8   33.40   18.10
  -5  -7  -8   28.10   17.30
   5   7   8   -4.70   21.60
  -2  -2  -9   16.70   24.30
  -2  -2  -9  -35.20   17.50
  -2  -2  -9   19.50   23.20
   2   2   9   -5.70   28.90
   2   2   9   17.80   18.50
   2   2   9   39.10   33.50
  -3  -2  -9  215.58   31.20
  -3  -2  -9  190.28   26.30
  -3  -2  -9  151.38   30.30
   3   2   9  159.08   38.60
   3   2   9  220.88   36.70
  -2  -3  -9  106.59   21.70
  -2  -3  -9   74.29   25.40
  -2  -3  -9   99.69   26.50
   2   3   9   82.99   18.90
   2   3   9  113.89   35.90
   2   3   9   90.79   30.50
  -3  -3  -9  228.08   31.80
  -3  -3  -9  222.38   27.10
  -3  -3  -9  202.38   30.10
   3   3   9  161.28   31.80
   3   3   9  191.38   38.20
   3   3   9  164.88   21.60
  -4  -3  -9  168.88   25.90
  -4  -3  -9  208.08   31.40
  -4  -3  -9  158.08   38.00
   4   3   9  217.78   33.70
   4   3   9  206.88   37.40
   4   3   9  219.08   23.30
   4   3   9  130.09   18.30
  -2  -4  -9   50.19   19.40
  -2  -4  -9   -1.40   22.60
  -2  -4  -9   23.20   23.30
   2   4   9   52.99   28.20
   2   4   9   42.10   15.20
  -3  -4  -9   -7.50   20.20
  -3  -4  -9   29.20   22.70
  -3  -4  -9   -2.70   17.80
   3   4   9   19.60   12.30
   3   4   9   17.50   24.90
  -4  -4  -9   66.09   24.60
  -4  -4  -9   92.29   20.90
   4   4   9   83.09   26.80
   4   4   9  105.39   14.10
  -5  -4  -9   53.59   23.30
  -5  -4  -9   82.19   23.00
  -5  -4  -9   52.89   23.00
   5   4   9   40.20   19.00
   5   4   9   74.19   26.50
  -3  -5  -9   98.69   22.10
  -3  -5  -9  138.29   27.10
  -3  -5  -9   77.79   25.50
   3   5   9  124.09   18.00
   3   5   9   56.69   27.40
   3   5   9  126.19   18.40
   3   5   9   93.39   31.60
  -4  -5  -9  165.68   24.60
  -4  -5  -9  134.79   26.20
  -4  -5  -9  182.28   29.50
   4   5   9   91.39   28.90
   0   0   0    0.00    0.00


_computing_structure_solution     'SHELXT 2018/2 (Sheldrick, 2018)'
_computing_structure_solution     'SHELXT 2018/2 (Sheldrick, 2018)'
;
loop_
_space_group_symop_operation_xyz
'x, y, z'
'-x, -y, -z'
loop_
_atom_site_label
_atom_site_type_symbol
_atom_site_fract_x
_atom_site_fract_y
_atom_site_fract_z
_atom_site_U_iso_or_equiv
_atom_site_adp_type
_atom_site_occupancy
_atom_site_site_symmetry_order
_atom_site_calc_flag
_atom_site_refinement_flags_posn
_atom_site_refinement_flags_adp
_atom_site_refinement_flags_occupancy
_atom_site_disorder_assembly
_atom_site_disorder_group
Br1 Br 0.31443(7) 0.07999(6) 0.77220(6) 0.0268(2) Uani 1 1 d . . . . .
C1 C 0.2434(6) 0.4894(6) 0.9021(6) 0.0156(8) Uani 1 1 d . . . . .
C2 C 0.2406(6) 0.5263(6) 0.6891(6) 0.0148(8) Uani 1 1 d . . . . .
C3 C 0.2684(6) 0.3667(6) 0.6160(6) 0.0141(8) Uani 1 1 d . . . . .
C4 C 0.2666(6) 0.4153(6) 0.4193(6) 0.0179(8) Uani 1 1 d . . . . .
H4 H 0.286606 0.305172 0.373367 0.021 Uiso 1 1 calc R . . . .
C5 C 0.2105(6) 0.7657(6) 0.3534(6) 0.0193(8) Uani 1 1 d . . . . .
H5 H 0.189642 0.905180 0.261850 0.023 Uiso 1 1 calc R . . . .
C6 C 0.2116(6) 0.7284(6) 0.5505(6) 0.0172(8) Uani 1 1 d . . . . .
H6 H 0.192299 0.841823 0.591350 0.021 Uiso 1 1 calc R . . . .
H1 H 0.274(10) 0.633(10) 1.046(10) 0.056(18) Uiso 1 1 d . . . . .
N1 N 0.2381(6) 0.6109(5) 0.2878(5) 0.0188(7) Uani 1 1 d . . . . .
O1 O 0.2623(5) 0.6511(5) 0.9162(5) 0.0257(7) Uani 1 1 d . . . . .
O2 O 0.2278(5) 0.3314(4) 1.0405(5) 0.0235(7) Uani 1 1 d . . . . .
loop_
_atom_site_aniso_label
_atom_site_aniso_U_11
_atom_site_aniso_U_22
_atom_site_aniso_U_33
_atom_site_aniso_U_23
_atom_site_aniso_U_13
_atom_site_aniso_U_12
Br1 0.0470(3) 0.0133(3) 0.0202(3) -0.00353(18) -0.0079(2) -0.01111(19)
C1 0.0184(19) 0.0155(19) 0.013(2) -0.0052(16) -0.0034(15) -0.0046(14)
C2 0.0172(18) 0.0148(18) 0.014(2) -0.0070(16) -0.0021(15) -0.0054(14)
C3 0.0184(19) 0.0135(18) 0.0113(19) -0.0041(15) -0.0017(15) -0.0070(14)
C4 0.023(2) 0.017(2) 0.019(2) -0.0108(17) -0.0037(17) -0.0070(15)
C5 0.025(2) 0.016(2) 0.019(2) -0.0052(17) -0.0081(17) -0.0054(15)
C6 0.0191(19) 0.0159(19) 0.018(2) -0.0073(16) -0.0055(16) -0.0045(14)
N1 0.0224(17) 0.0196(18) 0.0162(19) -0.0083(15) -0.0042(14) -0.0060(13)
O1 0.0461(19) 0.0234(16) 0.0164(17) -0.0065(13) -0.0069(14) -0.0188(14)
O2 0.0382(18) 0.0175(15) 0.0157(16) -0.0034(13) -0.0056(13) -0.0120(13)
loop_
_atom_type_symbol
_atom_type_description
_atom_type_scat_dispersion_real
_atom_type_scat_dispersion_imag
_atom_type_scat_source
C C 0.0033 0.0016 'International Tables Vol C Tables 4.2.6.8 and 6.1.1.4'
H H 0.0000 0.0000 'International Tables Vol C Tables 4.2.6.8 and 6.1.1.4'
Br Br -0.2901 2.4595 'International Tables Vol C Tables 4.2.6.8 and 6.1.1.4'
O O 0.0106 0.0060 'International Tables Vol C Tables 4.2.6.8 and 6.1.1.4'
N N 0.0061 0.0033 'International Tables Vol C Tables 4.2.6.8 and 6.1.1.4'
loop_
_geom_angle_atom_site_label_1
_geom_angle_atom_site_label_2
_geom_angle_atom_site_label_3
_geom_angle
_geom_angle_site_symmetry_1
_geom_angle_site_symmetry_3
O1 C1 C2 111.1(3) . .
O2 C1 C2 123.8(3) . .
O2 C1 O1 125.1(4) . .
C3 C2 C1 124.3(3) . .
C6 C2 C1 119.6(3) . .
C6 C2 C3 116.1(3) . .
C2 C3 Br1 124.4(3) . .
C4 C3 Br1 115.7(3) . .
C4 C3 C2 119.9(3) . .
C3 C4 H4 118.4 . .
N1 C4 C3 123.2(3) . .
N1 C4 H4 118.4 . .
C6 C5 H5 119.0 . .
N1 C5 H5 119.0 . .
N1 C5 C6 122.0(4) . .
C2 C6 H6 119.7 . .
C5 C6 C2 120.6(3) . .
C5 C6 H6 119.7 . .
C4 N1 C5 118.1(4) . .
C1 O1 H1 115(4) . .
loop_
_geom_bond_atom_site_label_1
_geom_bond_atom_site_label_2
_geom_bond_distance
_geom_bond_site_symmetry_2
Br1 C3 1.887(4) .
C1 C2 1.508(5) .
C1 O1 1.309(5) .
C1 O2 1.208(5) .
C2 C3 1.413(5) .
C2 C6 1.392(6) .
C3 C4 1.365(6) .
C4 H4 0.9500 .
C4 N1 1.340(5) .
C5 H5 0.9500 .
C5 C6 1.385(6) .
C5 N1 1.342(5) .
C6 H6 0.9500 .
O1 H1 0.96(7) .
