#------------------------------------------------------------------------------
#$Date: 2022-06-08 12:18:37 +0300 (Wed, 08 Jun 2022) $
#$Revision: 275917 $
#$URL: file:///home/coder/svn-repositories/cod/cif/8/10/53/8105371.cif $
#------------------------------------------------------------------------------
#
# This file is available in the Crystallography Open Database (COD),
# http://www.crystallography.net/
#
# All data on this site have been placed in the public domain by the
# contributors.
#
data_8105371
loop_
_publ_author_name
'Reiss, Guido J.'
'Urlacher, Vlada B.'
'Luelf, U. Joost'
_publ_section_title
;
 Enzyme-mediated synthesis and crystal structure of
 (2R,4S)-hydroxyketamine, C13H16ClNO2
;
_journal_issue                   5
_journal_name_full
'Zeitschrift f\"ur Kristallographie - New Crystal Structures'
_journal_page_first              1037
_journal_page_last               1039
_journal_paper_doi               10.1515/ncrs-2020-0157
_journal_volume                  235
_journal_year                    2020
_chemical_absolute_configuration ad
_chemical_formula_moiety         'C13 H16 Cl N O2'
_chemical_formula_sum            'C13 H16 Cl N O2'
_chemical_formula_weight         253.72
_chemical_name_common
;
(2R,4S)-hydroxyketamine 
;
_chemical_name_systematic
;
(2R,4S)-2-(2-chlorophenyl)-4-hydroxy-2-methylamino)-cyclohexanone
;
_space_group_crystal_system      monoclinic
_space_group_IT_number           4
_space_group_name_Hall           'P 2yb'
_space_group_name_H-M_alt        'P 1 21 1'
_atom_sites_solution_hydrogens   mixed
_audit_creation_method           SHELXL-2018/3
_cell_angle_alpha                90
_cell_angle_beta                 92.555(2)
_cell_angle_gamma                90
_cell_formula_units_Z            2
_cell_length_a                   7.4945(7)
_cell_length_b                   7.2336(6)
_cell_length_c                   11.5401(10)
_cell_measurement_reflns_used    3667
_cell_measurement_temperature    291(2)
_cell_measurement_theta_max      30.96
_cell_measurement_theta_min      3.18
_cell_volume                     624.99(10)
_computing_cell_refinement       'Bruker APEX2/SAINT'
_computing_data_collection       'Bruker APEX2/SAINT'
_computing_data_reduction        'Bruker APEX2/SAINT'
_computing_molecular_graphics    ' Diamond 4.0'
_computing_structure_refinement  'SHELXL-2018/3 (Sheldrick, 2018)'
_computing_structure_solution    SHELXT
_diffrn_ambient_temperature      291(2)
_diffrn_measured_fraction_theta_full 1.000
_diffrn_measured_fraction_theta_max 1.000
_diffrn_measurement_device_type  'Bruker APEX-II CCD'
_diffrn_measurement_method       '\f and \w scans'
_diffrn_radiation_type           MoK\a
_diffrn_radiation_wavelength     0.71073
_diffrn_reflns_av_R_equivalents  0.0873
_diffrn_reflns_av_unetI/netI     0.0670
_diffrn_reflns_Laue_measured_fraction_full 1.000
_diffrn_reflns_Laue_measured_fraction_max 1.000
_diffrn_reflns_limit_h_max       7
_diffrn_reflns_limit_h_min       -10
_diffrn_reflns_limit_k_max       10
_diffrn_reflns_limit_k_min       -9
_diffrn_reflns_limit_l_max       16
_diffrn_reflns_limit_l_min       -16
_diffrn_reflns_number            6118
_diffrn_reflns_point_group_measured_fraction_full 0.969
_diffrn_reflns_point_group_measured_fraction_max 0.969
_diffrn_reflns_theta_full        30.000
_diffrn_reflns_theta_max         30.000
_diffrn_reflns_theta_min         1.766
_diffrn_source                   'Incoatec IMS 2.0'
_exptl_absorpt_coefficient_mu    0.295
_exptl_absorpt_correction_type   none
_exptl_crystal_colour            colorless
_exptl_crystal_density_diffrn    1.348
_exptl_crystal_description       block
_exptl_crystal_F_000             268
_exptl_crystal_size_max          0.900
_exptl_crystal_size_mid          0.800
_exptl_crystal_size_min          0.560
_refine_diff_density_max         0.234
_refine_diff_density_min         -0.179
_refine_diff_density_rms         0.043
_refine_ls_abs_structure_details
;
 Flack x determined using 1306 quotients [(I+)-(I-)]/[(I+)+(I-)]
 (Parsons, Flack and Wagner, Acta Cryst. B69 (2013) 249-259).
;
_refine_ls_abs_structure_Flack   0.01(5)
_refine_ls_extinction_coef       0.019(5)
_refine_ls_extinction_expression Fc^*^=kFc[1+0.001xFc^2^\l^3^/sin(2\q)]^-1/4^
_refine_ls_extinction_method     'SHELXL-2018/3 (Sheldrick 2018)'
_refine_ls_goodness_of_fit_ref   1.034
_refine_ls_hydrogen_treatment    mixed
_refine_ls_matrix_type           full
_refine_ls_number_parameters     164
_refine_ls_number_reflns         3527
_refine_ls_number_restraints     1
_refine_ls_restrained_S_all      1.034
_refine_ls_R_factor_all          0.0445
_refine_ls_R_factor_gt           0.0415
_refine_ls_shift/su_max          0.000
_refine_ls_shift/su_mean         0.000
_refine_ls_structure_factor_coef Fsqd
_refine_ls_weighting_details
'w=1/[\s^2^(Fo^2^)+(0.0200P)^2^+0.1000P] where P=(Fo^2^+2Fc^2^)/3'
_refine_ls_weighting_scheme      calc
_refine_ls_wR_factor_gt          0.0929
_refine_ls_wR_factor_ref         0.0947
_reflns_Friedel_coverage         0.804
_reflns_Friedel_fraction_full    0.932
_reflns_Friedel_fraction_max     0.932
_reflns_number_gt                3225
_reflns_number_total             3527
_reflns_threshold_expression     'I > 2\s(I)'
_cod_data_source_file            suppl_ncrs-2020-0157_suppl.cif
_cod_data_source_block           HKetamine
_cod_depositor_comments
;
The following automatic conversions were performed:

data item '_exptl_absorpt_correction_type' value 'None' was changed
to 'none' in accordance with the built-in table derived from the CIF
Core dictionary named 'cif_core.dic' version 2.4.5 last updated on
2014-11-21.

Automatic conversion script
Id: cif_fix_values 8738 2021-04-28 16:35:53Z antanas 
;
_cod_original_sg_symbol_H-M      'P 21'
_cod_database_code               8105371
_shelx_shelxl_version_number     2018/3
_shelx_space_group_comment
;
The symmetry employed for this shelxl refinement is uniquely defined
by the following loop, which should always be used as a source of
symmetry information in preference to the above space-group names.
They are only intended as comments.
;
_shelx_estimated_absorpt_t_min   0.777
_shelx_estimated_absorpt_t_max   0.852
_shelx_res_file
;
TITL alles in P2(1)
    HKetamine.res
    created by SHELXL-2018/3 at 11:30:47 on 22-Mar-2020
CELL 0.71073 7.4945 7.2336 11.5401 90.000 92.555 90.000
ZERR 2.00 0.0007 0.0006 0.0010 0.000 0.002 0.000
LATT -1
SYMM -x, y+1/2, -z
SFAC C H N O CL
UNIT 26 32 2 4 2
LIST 6 ! automatically inserted. Change 6 to 4 for CHECKCIF!!
TEMP 25
SIZE 0.56 0.80 0.90
ACTA 60
L.S.  12
FMAP 2
PLAN -5
omit 2 2 0
OMIT -3 60
EQIV $1 x, y-1, z
HTAB
temp 18
HTAB O1 O2_$1
HTAB N1 O1

BOND $H
mpla n1 c5 c7 c8 c9 c10 c11 c12
CONF

WGHT    0.020000    0.100000
EXTI    0.019355
FVAR       1.56886
CL1   5    0.053782    0.259911    0.074509    11.00000    0.06773    0.05630 =
         0.04160    0.00846   -0.01482    0.00238
O1    4    0.188778   -0.349800    0.345753    11.00000    0.12298    0.02749 =
         0.05818    0.00872   -0.01900   -0.00858
H1O   2    0.150275   -0.447960    0.350315    11.00000    0.06933
O2    4    0.047479    0.284537    0.348351    11.00000    0.06555    0.03232 =
         0.04690   -0.00189    0.01022    0.00489
N1    3    0.367842    0.002109    0.386952    11.00000    0.06823    0.03296 =
         0.04847    0.00222   -0.02416    0.00403
H1N   2    0.340971   -0.101695    0.402880    11.00000    0.04413
C1    1    0.078318    0.123434    0.328928    11.00000    0.04977    0.02838 =
         0.02790    0.00115   -0.00158   -0.00114
C2    1    0.257957    0.058468    0.283743    11.00000    0.04299    0.02429 =
         0.03449   -0.00001   -0.00672    0.00032
C3    1    0.238318   -0.113940    0.204517    11.00000    0.05822    0.02720 =
         0.03785   -0.00454    0.00092   -0.00012
AFIX  23
H12   2    0.198160   -0.073719    0.127520    11.00000   -1.20000
H13   2    0.355195   -0.169700    0.198221    11.00000   -1.20000
AFIX   0
C4    1    0.110678   -0.260551    0.244780    11.00000    0.08175    0.02872 =
         0.03943   -0.00204   -0.00800   -0.01092
AFIX  13
H44   2    0.092957   -0.352762    0.183122    11.00000   -1.20000
AFIX   0
C5    1   -0.067802   -0.176681    0.269930    11.00000    0.07048    0.04828 =
         0.04892    0.00266   -0.00354   -0.02696
AFIX  23
H5A   2   -0.146834   -0.272738    0.296116    11.00000   -1.20000
H5B   2   -0.121082   -0.124178    0.199197    11.00000   -1.20000
AFIX   0
C6    1   -0.049178   -0.026191    0.362478    11.00000    0.05708    0.04057 =
         0.04698    0.00432    0.00928   -0.00696
AFIX  23
H6A   2   -0.165444    0.027927    0.374096    11.00000   -1.20000
H6B   2   -0.006709   -0.081142    0.435259    11.00000   -1.20000
AFIX   0
C7    1    0.351196    0.211077    0.217852    11.00000    0.03998    0.02621 =
         0.04622   -0.00337    0.00356    0.00078
C8    1    0.529284    0.254958    0.247452    11.00000    0.04076    0.04686 =
         0.08801   -0.00600    0.00190   -0.00091
AFIX  43
H8    2    0.587639    0.193452    0.308931    11.00000   -1.20000
AFIX   0
C9    1    0.620896    0.388335    0.187075    11.00000    0.04993    0.05965 =
         0.13496   -0.02050    0.03089   -0.01865
AFIX  43
H9    2    0.738859    0.415501    0.209126    11.00000   -1.20000
AFIX   0
C10   1    0.539729    0.479865    0.095821    11.00000    0.08890    0.04729 =
         0.10349   -0.00329    0.05266   -0.01898
AFIX  43
H10   2    0.602036    0.568930    0.055869    11.00000   -1.20000
AFIX   0
C11   1    0.363264    0.439315    0.062813    11.00000    0.09223    0.03870 =
         0.05496    0.00591    0.02918   -0.00306
AFIX  43
H11   2    0.306591    0.500376    0.000529    11.00000   -1.20000
AFIX   0
C12   1    0.273064    0.306457    0.124167    11.00000    0.05575    0.03160 =
         0.03762    0.00062    0.01113   -0.00008
C13   1    0.365797    0.121250    0.489711    11.00000    0.10953    0.05933 =
         0.04862   -0.00763   -0.03930    0.00509
AFIX 137
H13A  2    0.388078    0.246823    0.467645    11.00000   -1.50000
H13B  2    0.456806    0.081628    0.545421    11.00000   -1.50000
H13C  2    0.251167    0.113289    0.523331    11.00000   -1.50000
REM #####
AFIX   0
HKLF 4




REM  alles in P2(1)
REM wR2 = 0.0947, GooF = S = 1.034, Restrained GooF = 1.034 for all data
REM R1 = 0.0415 for 3225 Fo > 4sig(Fo) and 0.0445 for all 3527 data
REM 164 parameters refined using 1 restraints

END

WGHT      0.0598      0.0017

REM Instructions for potential hydrogen bonds
HTAB O1 O2_$1
HTAB N1 O1
HTAB C3 Cl1

REM Highest difference peak  0.234,  deepest hole -0.179,  1-sigma level  0.043
Q1    1   0.1771  0.2595  0.0842  11.00000  0.05    0.23
Q2    1   0.1605 -0.1756  0.2227  11.00000  0.05    0.23
Q3    1   0.0166  0.0495  0.3440  11.00000  0.05    0.23
Q4    1   0.3287  0.3757  0.1013  11.00000  0.05    0.21
Q5    1   0.1637  0.0754  0.3061  11.00000  0.05    0.19
;
_shelx_hkl_file
;
   0   0  -1  142.71    1.36
   0   0   1  112.78    1.20
   0   0   2 3689.32   29.10
   0   0   3 1381.23    7.30
   0   0  -4  564.94    5.52
   0   0   4  445.22    4.82
   0   0  -5  872.23    7.73
   0   0   5  690.04    6.74
   0   0  -6  417.11    5.93
   0   0   6  317.17    5.05
   0   0  -7 4064.36   29.12
   0   0   7 3163.59   17.28
   0   0  -8    1.53    0.78
   0   0   8    0.78    0.64
   0   0  -9    6.94    1.34
   0   0   9    1.87    0.84
   0   0 -10   25.69    2.35
   0   0  10   20.46    1.97
   0   0 -11   34.07    2.88
   0   0  11   25.94    2.39
   0   0 -12   37.23    3.21
   0   0  12   29.71    2.70
   0   0  12   43.45    2.87
   0   0 -13    1.53    1.32
   0   0  13    3.11    1.23
   0   0 -14   97.81    5.19
   0   0  14  112.50    4.81
   0   0 -15   53.66    4.34
   0   0  15   71.99    4.19
   0   0 -16    2.16    1.79
   0   0  16    1.00    1.31
   0  -1   0    0.14    0.08
   0  -1   0    0.47    0.08
   0  -1  -1 3070.88   23.94
   0  -1  -1 2778.67   19.61
   0  -1   1 3446.55   22.73
   0   1  -1 2547.86   19.97
   0   1   1 2822.34   21.04
   0   1   1 2675.29   18.27
   0  -1   2 6135.95   36.62
   0   1  -2 6769.39   44.65
   0   1   2 6636.80   47.81
   0   1   2 6197.69   37.90
   0  -1  -3 4208.79   39.77
   0  -1   3 3263.15   23.40
   0   1  -3 4059.19   37.40
   0   1   3 3752.49   35.52
   0  -1  -4 2198.24   11.34
   0  -1   4 1699.31    9.15
   0   1  -4 2105.64   15.36
   0   1   4 1886.83   10.55
   0  -1  -5  137.20    3.19
   0  -1   5   93.81    2.45
   0   1  -5  125.37    2.96
   0   1   5  101.46    2.75
   0  -1   6   41.25    1.84
   0   1  -6   38.59    1.89
   0   1   6   34.55    1.82
   0  -1  -7   48.79    2.38
   0  -1   7   41.77    2.03
   0   1  -7   43.83    2.22
   0   1   7   35.00    2.03
   0  -1  -8  529.66    8.05
   0  -1   8  393.67    6.46
   0   1  -8  485.64    7.58
   0   1   8  417.13    7.05
   0  -1  -9  170.53    4.97
   0  -1   9  134.43    4.10
   0   1  -9  167.96    4.88
   0   1   9  138.40    4.41
   0  -1 -10   77.14    3.67
   0  -1  10   59.04    3.00
   0   1 -10   68.98    3.48
   0   1  10   61.87    3.29
   0  -1 -11  164.65    5.60
   0  -1  11  117.65    4.42
   0   1 -11  153.34    5.36
   0   1  11  131.61    4.89
   0  -1 -12   80.99    4.32
   0  -1  12   82.19    3.74
   0   1 -12   69.59    4.03
   0   1  12   67.86    3.83
   0   1  12   91.17    3.92
   0  -1 -13   10.51    2.13
   0  -1  13   11.53    1.85
   0   1 -13    8.63    1.95
   0   1  13    8.19    1.95
   0   1  13   10.34    1.84
   0  -1 -14    0.97    1.41
   0  -1  14    1.65    1.20
   0   1 -14    0.37    1.29
   0   1  14   -0.21    0.95
   0  -1 -15   19.83    3.21
   0  -1  15   25.39    2.89
   0   1 -15   18.66    3.15
   0   1  15   25.76    2.85
   0  -1 -16   10.63    2.59
   0  -1  16   12.75    2.39
   0   1 -16    7.85    2.40
   0   1  16   10.61    2.13
   0  -2   0 2805.16   22.41
   0  -2   0 2734.43   19.72
   0   2   0 2411.06   15.17
   0  -2  -1 4062.37   31.11
   0  -2  -1 3425.76   24.57
   0  -2   1 3943.80   28.72
   0  -2   1 4490.68   25.41
   0   2  -1 3030.16   26.22
   0   2   1 4022.04   33.67
   0   2   1 3607.55   21.04
   0  -2  -2 1265.79    7.40
   0  -2  -2 1075.02    5.98
   0  -2   2 1151.93    6.11
   0   2  -2  918.28    5.95
   0   2   2 1125.81    7.27
   0   2   2 1000.06    5.07
   0  -2  -3  948.79    7.19
   0  -2  -3  830.11    5.96
   0  -2   3  864.23    5.92
   0   2  -3  780.68    6.11
   0   2   3  819.69    6.89
   0  -2  -4  589.82    6.28
   0  -2   4  487.01    4.98
   0   2  -4  523.69    5.60
   0   2   4  539.48    6.16
   0  -2  -5  847.82    8.25
   0  -2   5  728.32    6.73
   0   2  -5  737.99    7.35
   0   2   5  732.24    7.83
   0  -2  -6  952.04    9.50
   0  -2   6  727.64    7.36
   0   2  -6  835.39    8.56
   0   2   6  833.74    9.03
   0  -2  -7  571.86    7.96
   0  -2   7  432.98    6.17
   0   2  -7  504.84    7.25
   0   2   7  460.82    7.24
   0  -2  -8   35.53    2.31
   0  -2   8   23.15    1.76
   0   2  -8   30.22    2.12
   0   2   8   30.17    2.17
   0  -2  -9   92.24    3.80
   0  -2   9   65.86    2.91
   0   2  -9   77.27    3.49
   0   2   9   71.39    3.37
   0  -2 -10  133.98    4.83
   0  -2  10   93.36    3.66
   0  -2  10  135.67    4.15
   0   2 -10  106.24    4.28
   0   2  10   99.30    4.24
   0  -2 -11   26.92    2.74
   0  -2  11   28.39    2.33
   0   2 -11   24.29    2.55
   0   2  11   25.08    2.62
   0  -2 -12  156.08    5.85
   0  -2  12  176.87    5.35
   0   2 -12  129.70    5.30
   0   2  12  125.48    5.22
   0   2  12  171.92    5.21
   0  -2 -13   11.13    2.29
   0  -2  13   13.75    2.11
   0   2 -13   10.22    2.19
   0   2  13   11.35    2.28
   0   2  13   14.40    2.04
   0  -2 -14   22.04    3.18
   0  -2  14   29.50    2.84
   0   2 -14   17.51    2.84
   0   2  14   19.31    2.89
   0   2  14   26.02    2.68
   0  -2 -15   17.57    3.13
   0  -2  15   20.60    2.84
   0   2 -15   19.83    3.26
   0   2  15   19.07    2.59
   0  -2 -16    2.16    1.78
   0  -2  16    3.57    1.57
   0   2 -16    4.70    2.16
   0   2  16    4.71    1.63
   0  -3   0    0.09    0.20
   0  -3   0    0.02    0.16
   0   3   0    0.90    0.34
   0  -3  -1 1007.79    6.91
   0  -3  -1  857.74    5.58
   0  -3   1  965.08    6.22
   0  -3   1  988.94    5.29
   0   3  -1  780.48    6.29
   0   3  -1  757.94    6.21
   0   3   1  980.40    7.41
   0  -3  -2 1516.95    9.17
   0  -3  -2 1245.56    7.40
   0  -3   2 1338.32    7.50
   0  -3   2 1609.19    9.25
   0   3  -2 1066.17    7.59
   0   3   2 1327.69    9.18
   0   3   2 1218.59    5.34
   0  -3  -3 1859.95   11.04
   0  -3  -3 1585.03    9.17
   0  -3   3 1688.78    8.93
   0  -3   3 2063.66    8.65
   0   3  -3 1383.35    9.17
   0   3   3 1692.12   11.14
   0   3   3 1581.27    7.43
   0  -3  -4  128.81    3.19
   0  -3  -4  112.44    2.69
   0  -3   4  110.75    2.50
   0  -3   4  149.01    2.60
   0   3  -4  109.25    2.83
   0   3   4  125.99    3.32
   0  -3  -5 1087.11    9.88
   0  -3  -5  931.08    8.27
   0  -3   5  936.24    7.76
   0  -3   5 1195.36    8.10
   0   3  -5  827.92    8.26
   0   3   5  956.72    9.67
   0  -3  -6  537.08    7.48
   0  -3   6  440.19    5.76
   0  -3   6  599.80    6.32
   0   3  -6  438.27    6.50
   0   3   6  484.14    7.37
   0  -3  -7   67.95    2.97
   0  -3   7   49.69    2.21
   0  -3   7   85.90    2.69
   0   3  -7   60.89    2.75
   0   3   7   56.45    2.82
   0  -3  -8  468.93    8.01
   0  -3   8  352.70    5.96
   0  -3   8  511.56    6.93
   0   3  -8  370.62    6.95
   0   3   8  380.05    7.41
   0  -3  -9  128.66    4.56
   0  -3   9  143.86    4.02
   0   3  -9  102.50    4.04
   0   3   9  104.94    4.23
   0  -3 -10   34.74    2.85
   0  -3  10   40.71    2.45
   0   3 -10   35.55    2.75
   0   3  10   31.05    2.75
   0  -3 -11   36.23    3.00
   0  -3  11   33.81    2.47
   0   3 -11   25.96    2.59
   0   3  11   27.25    2.72
   0   3  11   38.80    2.58
   0  -3 -12   14.71    2.38
   0  -3  12   20.01    2.20
   0   3 -12    8.34    1.97
   0   3  12   10.50    2.10
   0   3  12   14.39    1.89
   0  -3 -13   39.83    3.54
   0  -3  13   39.12    3.01
   0   3 -13   28.55    3.08
   0   3  13   30.93    3.13
   0   3  13   43.56    2.97
   0  -3 -14    3.05    1.68
   0  -3  14    3.98    1.57
   0   3 -14    4.06    1.80
   0   3  14    2.51    1.62
   0   3  14    6.04    1.64
   0  -3 -15   17.48    3.14
   0  -3  15   19.77    2.78
   0   3 -15   15.94    3.01
   0   3  15   15.03    2.32
   0  -3  16   10.07    2.19
   0   3 -16   10.83    2.72
   0   3  16   13.03    2.21
   0  -4   0  986.19    7.35
   0  -4   0  872.73    6.28
   0   4   0  921.11    8.13
   0  -4  -1  529.61    5.65
   0  -4  -1  452.87    4.78
   0  -4   1  523.65    5.23
   0  -4   1  469.09    4.49
   0   4  -1  439.27    5.59
   0   4   1  517.51    6.28
   0  -4  -2  123.36    2.93
   0  -4  -2  105.38    2.49
   0  -4   2  109.77    2.42
   0  -4   2  118.57    2.30
   0   4  -2   88.58    2.59
   0   4  -2   89.83    2.61
   0   4   2  111.22    3.08
   0  -4  -3  309.93    4.92
   0  -4  -3  263.63    4.19
   0  -4   3  266.38    3.85
   0  -4   3  313.27    3.89
   0   4  -3  213.05    4.11
   0   4   3  293.18    5.21
   0   4   3  304.71    2.85
   0  -4  -4  165.91    3.87
   0  -4  -4  142.46    3.31
   0  -4   4  141.38    2.96
   0  -4   4  172.39    3.10
   0   4  -4  117.72    3.24
   0   4   4  146.62    3.92
   0   4   4  148.00    2.45
   0  -4  -5  370.74    6.14
   0  -4  -5  308.75    5.17
   0  -4   5  326.79    4.73
   0  -4   5  402.91    5.08
   0   4  -5  273.43    5.17
   0   4   5  339.13    6.28
   0   4   5  310.99    4.43
   0  -4  -6 1440.65   12.82
   0  -4  -6 1245.50   11.00
   0  -4   6 1222.77    9.69
   0  -4   6 1581.07   10.85
   0   4  -6 1059.63   10.73
   0   4   6 1249.69   12.69
   0  -4  -7  353.92    6.81
   0  -4   7  398.02    5.91
   0   4  -7  241.60    5.51
   0   4   7  281.64    6.44
   0  -4  -8   48.36    2.88
   0  -4   8   57.60    2.53
   0   4  -8   34.64    2.41
   0   4   8   40.74    2.79
   0  -4  -9   85.50    3.89
   0  -4   9   89.12    3.32
   0   4  -9   64.47    3.38
   0   4   9   66.97    3.68
   0  -4 -10   35.20    2.90
   0  -4  10   36.03    2.42
   0   4 -10   29.85    2.61
   0   4  10   30.01    2.77
   0   4  10   46.07    2.54
   0  -4 -11   62.91    3.86
   0  -4  11   62.06    3.25
   0   4 -11   40.50    3.22
   0   4  11   43.01    3.36
   0   4  11   67.51    3.14
   0  -4 -12    7.75    1.94
   0  -4  12    8.46    1.69
   0   4 -12    5.62    1.75
   0   4  12    6.80    1.90
   0   4  12    8.74    1.55
   0  -4  13  107.72    4.69
   0   4 -13   77.58    4.72
   0   4  13   85.67    5.02
   0   4  13  114.63    4.40
   0  -4  14   14.06    2.30
   0   4 -14    9.69    2.35
   0   4  14    9.58    2.39
   0   4  14   15.86    2.22
   0  -4  15    1.69    1.39
   0   4 -15    0.41    1.68
   0   4  15    0.53    1.48
   0   4  15    2.07    1.21
   0  -5   0    1.89    0.54
   0  -5   0    0.83    0.43
   0   5   0   -0.30    0.46
   0  -5  -1  749.68    7.37
   0  -5  -1  623.39    6.46
   0  -5   1  684.58    6.57
   0  -5   1  644.74    6.22
   0   5  -1  569.73    7.28
   0   5   1  716.60    8.40
   0  -5  -2  188.86    3.91
   0  -5  -2  155.47    3.41
   0  -5   2  155.78    3.13
   0  -5   2  163.53    3.17
   0   5  -2  135.05    3.64
   0   5   2  183.00    4.42
   0  -5  -3  250.35    4.76
   0  -5  -3  211.90    4.19
   0  -5   3  215.71    3.75
   0  -5   3  225.72    3.80
   0   5  -3  182.52    4.30
   0   5  -3  175.08    4.20
   0   5   3  231.82    5.17
   0  -5  -4  737.92    8.60
   0  -5  -4  626.03    7.55
   0  -5   4  698.44    6.94
   0   5  -4  520.27    7.41
   0   5   4  682.08    9.19
   0  -5  -5  179.00    4.55
   0  -5  -5  149.77    3.94
   0  -5   5  176.70    3.73
   0   5  -5  124.71    3.88
   0   5   5  151.18    4.61
   0   5   5  222.45    3.00
   0  -5  -6  147.57    4.40
   0  -5  -6  127.32    3.86
   0  -5   6  157.72    3.76
   0   5  -6  100.86    3.70
   0   5   6  128.28    4.51
   0   5   6  182.77    3.21
   0  -5  -7    5.66    1.24
   0  -5   7    6.46    1.11
   0   5  -7    4.65    1.26
   0   5   7    6.86    1.45
   0   5   7    8.69    1.07
   0  -5  -8  143.26    4.81
   0  -5   8  140.12    4.03
   0   5  -8  103.22    4.10
   0   5   8  129.62    4.97
   0   5   8  168.17    3.75
   0  -5  -9  124.91    4.88
   0  -5   9  117.96    3.97
   0   5  -9   83.64    3.98
   0   5   9  106.03    4.80
   0   5   9  137.98    3.69
   0  -5  10  149.20    4.70
   0   5 -10  103.72    4.64
   0   5  10  120.44    5.33
   0   5  10  159.62    4.19
   0  -5  11   33.73    2.63
   0   5 -11   25.68    2.84
   0   5  11   29.41    3.05
   0   5  11   41.32    2.47
   0  -5  12    6.24    1.60
   0   5 -12    3.56    1.63
   0   5  12    2.00    1.44
   0   5  12    4.70    1.23
   0  -5  13   38.18    3.13
   0   5 -13   26.98    3.35
   0   5  13   34.28    3.74
   0   5  13   47.24    2.91
   0  -5  14    7.28    1.79
   0   5 -14    6.50    2.14
   0   5  14    7.66    2.34
   0   5  14    8.07    1.66
   0  -6   0  351.93    5.38
   0   6   0  401.44    6.95
   0  -6  -1  224.49    4.43
   0  -6   1  224.38    4.26
   0   6  -1  215.62    5.09
   0   6   1  258.94    5.69
   0  -6  -2  143.42    3.70
   0  -6   2  144.83    3.46
   0   6  -2  136.65    4.12
   0   6   2  170.89    4.79
   0  -6  -3  209.27    4.63
   0  -6   3  206.17    4.16
   0   6  -3  179.54    4.76
   0   6   3  230.89    5.70
   0  -6  -4  517.55    7.53
   0  -6   4  523.31    6.75
   0   6  -4  448.62    7.59
   0   6  -4  434.84    7.49
   0   6   4  560.40    9.13
   0  -6  -5  318.39    6.20
   0  -6   5  342.81    5.71
   0   6  -5  268.89    6.14
   0   6   5  348.15    7.50
   0  -6  -6  159.34    4.64
   0  -6   6  165.06    4.20
   0   6  -6  117.75    4.28
   0   6   6  149.46    5.19
   0  -6  -7  114.31    4.15
   0  -6   7  123.11    3.89
   0   6  -7   93.96    4.02
   0   6   7  124.72    5.00
   0   6  -8   91.21    4.17
   0   6   8  113.61    5.00
   0   6   8  151.64    2.76
   0   6  -9   16.02    2.40
   0   6   9   21.45    2.67
   0   6   9   30.03    1.59
   0   6 -10   26.87    2.83
   0   6  10   34.79    3.27
   0   6  10   44.95    2.04
   0   6 -11    1.46    1.32
   0   6  11    0.82    1.40
   0   6  11    1.58    0.82
   0   6 -12   54.61    4.11
   0   6  12   59.95    4.53
   0   6  12   74.27    2.97
   0   6 -13    5.95    2.04
   0   6  13    8.34    2.47
   0  -7   0   -0.27    0.45
   0   7   0   -0.19    0.66
   0  -7  -1   28.92    1.94
   0  -7   1   30.04    1.90
   0   7  -1   35.62    2.50
   0   7   1   36.93    2.59
   0  -7  -2   19.27    1.73
   0  -7   2   17.12    1.54
   0   7  -2   19.71    2.02
   0   7   2   22.01    2.19
   0  -7  -3  164.12    4.55
   0   7  -3  143.61    4.74
   0   7   3  181.14    5.57
   0  -7  -4  100.25    3.71
   0   7  -4   82.36    3.72
   0   7   4  110.68    4.54
   0  -7  -5    3.64    1.10
   0   7  -5    1.37    1.10
   0   7  -5    2.54    1.13
   0   7   5    2.85    1.17
   0  -7  -6   25.85    2.23
   0   7  -6   20.66    2.31
   0   7  -6   22.16    2.27
   0   7   6   27.08    2.64
   0  -7  -7   14.86    2.05
   0   7  -7   18.27    2.41
   0   7   7   19.88    2.80
   0   7  -8   15.59    2.33
   0   7   8   17.94    2.68
   0   7  -9    1.16    1.27
   0   7   9    2.29    1.45
   0   7 -10   23.39    2.85
   0   7  10   33.50    3.47
   0   7 -11   31.72    3.30
   0   7  11   41.89    4.01
   0   7 -12    3.13    1.66
   0   7  12    3.94    1.93
   0   8   0  148.19    5.26
   0   8  -1    0.63    1.00
   0   8   1    0.95    0.99
   0  -8  -2    0.82    0.71
   0   8  -2    0.62    1.03
   0   8   2    0.91    0.93
   0  -8  -3   13.96    1.93
   0   8  -3   14.84    2.17
   0   8   3   12.31    2.02
   0  -8  -4   48.99    2.92
   0   8  -4   42.37    3.07
   0   8   4   54.17    3.57
   0  -8  -5   11.06    1.78
   0   8  -5   14.17    2.21
   0   8   5   14.71    2.38
   0  -8  -6   15.50    2.18
   0   8  -6    7.65    1.77
   0   8   6   10.90    2.21
   0  -8  -7  113.32    4.76
   0   8  -7  100.97    4.83
   0   8  -7   95.51    4.66
   0   8   7  128.86    5.85
   0  -8  -8   12.20    2.08
   0   8  -8   11.14    2.22
   0   8  -8    8.17    1.95
   0   8   8   13.73    2.58
   0   8  -9    3.22    1.50
   0   8  -9    0.64    1.32
   0   8   9    4.48    1.89
   0   8 -10    0.12    1.23
   0   8  10    0.16    1.43
   0   9   0    0.75    1.03
   0   9  -1   20.25    2.53
   0   9   1   15.97    2.38
   0   9  -2   15.28    2.45
   0   9   2   12.25    2.22
   0   9  -3    9.01    1.90
   0   9   3   10.02    2.12
   0   9  -4   24.01    2.69
   0   9   4   34.85    3.26
   0  -9  -5   33.52    2.83
   0   9  -5   29.13    2.98
   0   9   5   32.83    3.28
   0  -9  -6   42.23    3.24
   0   9  -6   37.51    3.31
   0   9   6   41.22    3.80
   0  -9  -7   10.89    2.11
   0   9  -7    8.41    2.01
   0   9   7   12.08    2.62
   0  -9  -8    8.51    1.96
   0   9  -8    5.07    1.80
   0   9   8   10.03    2.43
   0  10   0    1.55    1.33
   0  10  -1    1.48    1.32
   0  10   1    0.17    1.17
   0  10  -2    0.40    1.17
   0  10   2    0.87    1.23
   0  10  -3   16.75    2.75
   0  10   3   18.43    2.97
   0  10  -4   20.80    3.08
   0  10   4   25.65    3.20
   0  10  -5   17.52    2.77
   0  10   5   18.59    3.07
  -1   0  16    3.69    1.52
   1   0 -16    8.39    2.47
  -1   0  15   41.37    3.36
   1   0 -15   37.71    3.95
  -1   0  14    1.25    1.13
   1   0 -14    2.32    1.47
  -1   0  13    7.14    1.86
  -1   0  13    9.77    1.84
   1   0 -13    6.96    1.93
  -1   0  12   29.97    2.81
  -1   0  12   45.74    2.92
   1   0 -12   37.94    3.20
  -1   0  11   74.22    3.82
  -1   0  11  107.61    3.95
   1   0 -11   89.68    4.23
  -1   0  10  145.68    4.80
  -1   0  10  189.40    4.80
   1   0 -10  169.59    5.27
  -1   0   9    0.49    0.68
  -1   0   9    1.86    0.71
   1   0  -9    1.87    0.91
  -1   0   8  609.06    8.46
  -1   0   8  811.84    8.57
   1   0  -8  708.28    9.23
  -1   0   7  500.74    7.15
  -1   0   7  660.04    7.17
   1   0  -7  569.47    7.68
  -1   0   6  223.17    4.42
  -1   0   6  316.20    4.57
   1   0  -6  261.28    4.79
  -1   0   5  603.64    6.59
  -1   0   5  792.05    6.55
   1   0  -5  646.24    6.80
  -1   0   4   61.19    1.92
   1   0  -4   65.64    1.97
  -1   0   3 8973.15   54.82
   1   0  -3 7818.26   57.58
  -1   0   2  493.76    3.98
  -1   0   2  503.40    3.36
   1   0  -2  473.80    3.82
  -1   0   1 7532.69   40.77
  -1   0   1 5265.13   25.66
   1   0  -1 5185.36   32.32
   1   0  -1 5620.82   28.11
  -1   0   0 1794.48   12.61
   1   0   0 1556.70   11.10
  -1   0  -1 8408.04   40.24
   1   0   1 8219.06   37.12
  -1   0  -2  178.12    2.21
   1   0   2  159.69    2.00
  -1   0  -3 2630.27   24.21
   1   0   3 2331.35   14.63
  -1   0  -4 3181.15   29.15
   1   0   4 2740.28   11.59
  -1   0  -5  689.52    6.88
   1   0   5  592.92    6.07
  -1   0  -6  220.46    4.34
   1   0   6  185.49    3.78
  -1   0  -7  466.08    6.88
   1   0   7  366.78    5.77
  -1   0  -8    3.22    0.95
   1   0   8    3.12    0.89
  -1   0  -9   16.65    1.86
   1   0   9   14.42    1.59
  -1   0 -10  199.24    5.67
   1   0  10  157.04    4.73
  -1   0 -11   91.88    4.28
   1   0  11   68.98    3.49
  -1   0 -12  278.47    7.58
  -1   0 -13   37.24    3.31
  -1   0 -14  100.21    5.29
  -1   0 -15    7.16    2.18
   1   0  15    4.21    1.60
  -1   0 -16    0.83    1.66
   1   0  16    2.23    1.51
  -1  -1  16   14.35    2.48
  -1   1  16   11.95    2.22
   1  -1 -16    7.55    2.36
   1   1 -16   11.30    2.73
  -1  -1  15    2.60    1.39
  -1   1  15    4.51    1.62
   1  -1 -15    1.45    1.53
   1   1 -15    2.03    1.74
  -1  -1  14    9.17    1.86
  -1   1  14    8.03    2.04
  -1   1  14    8.08    1.71
   1  -1 -14    6.05    1.96
   1   1 -14    7.33    2.12
  -1  -1  13    5.87    1.50
  -1   1  13    2.59    1.45
  -1   1  13    4.25    1.36
   1  -1 -13    4.92    1.75
   1   1 -13    2.40    1.38
  -1  -1  12   24.54    2.52
  -1  -1  12   39.03    2.79
  -1   1  12   25.46    2.76
  -1   1  12   33.51    2.59
   1  -1 -12   33.97    3.14
   1   1 -12   31.33    2.99
  -1  -1  11   73.40    3.73
  -1  -1  11  103.97    3.95
  -1   1  11   77.93    3.96
  -1   1  11  101.39    3.81
   1  -1 -11   87.92    4.20
   1   1 -11   83.85    4.17
  -1  -1  10  186.50    5.35
  -1  -1  10  275.11    5.83
  -1   1  10  200.44    5.72
  -1   1  10  250.68    5.44
   1  -1 -10  242.61    6.27
   1   1 -10  202.02    5.80
  -1  -1   9  122.43    4.08
  -1  -1   9  181.61    4.46
  -1   1   9  122.88    4.25
  -1   1   9  177.27    4.30
   1  -1  -9  150.85    4.65
   1   1  -9  139.66    4.55
  -1  -1   8  125.88    3.90
  -1   1   8  129.96    4.09
  -1   1   8  183.53    4.08
   1  -1  -8  154.53    4.41
   1   1  -8  146.62    4.34
  -1  -1   7  129.63    3.66
  -1  -1   7  173.64    3.77
  -1   1   7  130.27    3.79
  -1   1   7  179.77    3.73
   1  -1  -7  157.59    4.10
   1   1  -7  138.57    3.89
  -1  -1   6  249.83    4.65
  -1  -1   6  344.42    4.85
  -1   1   6  261.04    4.88
  -1   1   6  343.43    4.69
   1  -1  -6  312.13    5.24
   1   1  -6  275.33    4.99
  -1  -1   5  164.40    3.48
  -1  -1   5  235.56    3.68
  -1   1   5  184.56    3.75
  -1   1   5  239.72    3.54
   1  -1  -5  221.73    4.01
   1   1  -5  184.89    3.75
  -1  -1   4 2055.46   11.09
  -1  -1   4 2664.68   26.19
  -1   1   4 2263.49   11.70
  -1   1   4 2679.16   24.51
   1  -1  -4 2633.20   20.71
   1   1  -4 2174.35   11.56
  -1  -1   3 5680.83   41.52
  -1   1   3 6226.09   45.44
  -1   1   3 5680.07   35.47
  -1   1   3 6290.31   41.96
   1  -1  -3 6613.67   50.99
   1   1  -3 5372.71   45.03
  -1  -1   2 1978.76   11.67
  -1   1   2 2256.37   16.13
  -1   1   2 1873.98   11.71
  -1   1   2 1977.01   12.21
   1  -1  -2 2464.30   21.84
   1  -1  -2 2083.59   17.16
   1   1  -2 1737.61   18.56
  -1  -1   1 3402.90   26.86
  -1  -1   1 3043.23   26.07
  -1   1   1 4309.63   25.96
  -1   1   1 3766.65   25.17
   1   1  -1 3435.59   27.25
  -1  -1   0 1955.09   20.06
  -1  -1   0 1579.03   15.86
   1   1   0 1445.17   10.61
   1   1   0 1628.64   14.29
  -1  -1  -1  225.18    2.72
  -1  -1  -1  208.02    2.25
   1   1   1  197.67    2.53
  -1  -1  -2 1093.37    6.65
  -1   1  -2 1189.27    6.46
  -1   1  -2  907.40    4.06
   1   1   2 1049.58    6.44
  -1  -1  -3 4846.56   44.07
  -1   1  -3 5239.66   39.10
   1  -1   3 3900.34   26.09
   1   1   3 4585.08   35.85
  -1  -1  -4 3263.62   19.52
  -1   1  -4 3444.27   33.46
   1  -1   4 2534.00   10.09
   1   1   4 2861.96   26.15
  -1  -1  -5 2063.54   12.57
  -1   1  -5 2214.60   11.93
   1  -1   5 1649.67    9.40
   1   1   5 1796.49   11.47
  -1  -1  -6   30.02    1.75
  -1   1  -6   32.78    1.71
   1  -1   6   24.03    1.36
   1   1   6   22.45    1.50
  -1  -1  -7  157.64    4.18
  -1   1  -7  164.63    4.07
   1  -1   7  119.56    3.17
   1   1   7  125.90    3.64
  -1  -1  -8  233.16    5.45
  -1   1  -8  240.27    5.33
   1  -1   8  182.71    4.23
   1   1   8  184.42    4.68
  -1  -1  -9  562.00    8.96
  -1   1  -9  571.65    8.77
   1  -1   9  444.94    7.04
   1   1   9  457.90    7.78
  -1  -1 -10  210.21    5.91
  -1   1 -10  230.03    6.04
   1  -1  10  162.93    4.63
   1   1  10  177.01    5.20
  -1  -1 -11  187.42    5.98
  -1   1 -11  184.91    5.88
   1   1  11  147.41    5.11
  -1  -1 -12   21.73    2.59
  -1   1 -12   22.68    2.59
   1   1  12   17.44    2.33
  -1  -1 -13    0.15    1.21
  -1   1 -13    1.28    1.26
  -1  -1 -14   24.28    3.30
  -1   1 -14   22.82    3.15
  -1  -1 -15   25.87    3.60
  -1   1 -15   23.76    3.53
   1  -1  15   31.20    3.08
   1   1  15   33.93    3.21
  -1  -1 -16   25.27    3.78
  -1   1 -16   21.05    3.42
   1  -1  16   27.04    3.17
   1   1  16   27.95    3.15
  -1  -2  16    0.30    1.27
  -1   2  16    1.39    1.26
   1   2 -16    1.29    1.73
  -1  -2  15   38.98    3.37
  -1   2  15   30.80    3.59
  -1   2  15   36.11    3.06
   1  -2 -15   34.93    3.80
   1   2 -15   29.73    3.54
  -1  -2  14   25.98    2.75
  -1   2  14   19.07    3.03
  -1   2  14   26.15    2.56
   1  -2 -14   19.10    2.90
   1   2 -14   19.69    3.07
  -1  -2  13   41.83    3.03
  -1   2  13   25.85    2.99
  -1   2  13   40.21    2.83
   1  -2 -13   35.83    3.33
   1   2 -13   28.09    3.04
  -1  -2  12   93.01    4.02
  -1   2  12   69.80    4.10
  -1   2  12   93.29    3.82
   1  -2 -12   77.99    4.30
   1   2 -12   69.45    4.09
  -1  -2  11   39.06    2.78
  -1  -2  11   58.35    3.11
  -1   2  11   41.80    3.23
  -1   2  11   54.28    2.87
   1  -2 -11   46.97    3.35
   1   2 -11   45.95    3.27
  -1  -2  10   16.94    1.98
  -1  -2  10   25.09    2.10
  -1   2  10   19.11    2.21
  -1   2  10   26.98    2.01
   1  -2 -10   22.14    2.28
   1   2 -10   19.74    2.33
  -1  -2   9   75.21    3.27
  -1  -2   9  112.57    3.65
  -1   2   9   85.67    3.72
  -1   2   9  111.38    3.41
   1  -2  -9  101.55    3.93
   1   2  -9   80.73    3.62
  -1  -2   8  757.77    9.34
  -1  -2   8 1037.52   10.02
  -1   2   8  772.35   10.07
  -1   2   8 1044.29    9.47
   1  -2  -8  981.35   11.02
   1   2  -8  771.04    9.93
  -1  -2   7  459.51    6.84
  -1  -2   7  636.49    7.32
  -1   2   7  529.31    7.79
  -1   2   7  654.69    6.94
   1  -2  -7  625.31    8.18
   1   2  -7  493.06    7.43
  -1  -2   6  242.62    4.65
  -1  -2   6  342.25    5.00
  -1   2   6  274.43    5.22
  -1   2   6  363.33    4.72
   1  -2  -6  345.59    5.63
   1   2  -6  257.98    5.02
  -1  -2   5  750.28    7.57
  -1  -2   5 1022.52    7.95
  -1   2   5  856.70    8.42
  -1   2   5 1067.47    7.19
   1  -2  -5 1005.69    8.72
   1   2  -5  782.25    8.05
  -1  -2   4  500.04    5.74
  -1  -2   4  613.41    5.68
  -1   2   4  532.95    6.04
  -1   2   4  509.16    4.08
  -1   2   4  647.48    4.77
   1  -2  -4  633.26    6.22
   1   2  -4  474.64    5.80
  -1  -2   3 1127.11    7.98
  -1  -2   3 1272.44    7.53
  -1   2   3 1235.49    8.17
  -1   2   3 1148.45    4.39
  -1   2   3 1320.57    6.21
   1  -2  -3 1477.19    8.33
   1  -2  -3 1200.41    6.57
   1   2  -3  953.52    7.59
  -1  -2   2 3693.22   34.47
  -1  -2   2 3681.69   33.30
  -1   2   2 3881.92   34.85
   1  -2  -2 4823.58   35.53
   1  -2  -2 3807.93   23.67
   1   2  -2 3005.42   29.23
   1   2  -2 4462.51   30.81
  -1  -2   1 4218.17   36.66
  -1  -2   1 3527.34   30.41
  -1   2   1 4271.62   29.29
   1   2  -1 2937.71   26.31
   1   2  -1 2961.38   26.87
   1   2  -1 4025.68   29.25
  -1  -2   0 4529.68   36.11
  -1  -2   0 3841.98   34.38
  -1   2   0 4525.59   25.92
  -1   2   0 4646.54   26.85
   1   2   0 3361.49   31.34
   1   2   0 3996.00   30.64
  -1  -2  -1  442.38    4.62
  -1  -2  -1  386.60    3.81
  -1   2  -1  411.57    2.63
  -1   2  -1  431.52    2.53
   1   2   1  382.46    4.37
  -1  -2  -2  642.01    5.93
  -1  -2  -2  563.33    4.90
  -1   2  -2  664.78    4.04
  -1   2  -2  607.55    3.69
   1   2   2  583.30    5.72
  -1  -2  -3  859.56    7.41
  -1  -2  -3  801.58    6.27
  -1   2  -3  943.24    5.88
   1   2   3  829.28    7.33
  -1  -2  -4 1126.32    9.18
  -1   2  -4 1205.49    7.80
   1   2   4 1025.37    8.78
  -1  -2  -5  657.48    7.58
  -1   2  -5  706.53    6.80
   1  -2   5  524.41    5.00
   1   2   5  604.06    7.26
  -1  -2  -6  976.61    9.94
  -1   2  -6 1010.07    9.05
   1  -2   6  769.90    6.84
   1   2   6  874.86    9.36
  -1  -2  -7  462.81    7.37
  -1   2  -7  463.76    6.77
   1  -2   7  356.00    5.16
   1   2   7  431.04    7.03
  -1  -2  -8   81.01    3.40
  -1   2  -8   78.79    3.14
   1  -2   8   59.69    2.38
   1   2   8   59.80    2.91
  -1  -2  -9  178.87    5.30
  -1   2  -9  175.09    4.95
   1   2   9  148.32    4.72
  -1  -2 -10   44.76    3.05
  -1   2 -10   45.20    2.93
   1   2  10   31.67    2.54
  -1  -2 -11  154.44    5.58
  -1   2 -11  137.41    5.06
   1   2  11  124.06    4.92
  -1  -2 -12  130.91    5.44
  -1   2 -12  116.39    5.05
   1   2  12   91.04    4.49
  -1  -2 -13   48.33    3.72
  -1   2 -13   43.38    3.50
   1   2  13   41.82    3.51
  -1  -2 -14   20.64    3.19
  -1   2 -14   18.94    2.94
   1  -2  14   25.32    2.70
  -1  -2 -15   13.57    2.85
  -1   2 -15   11.52    2.63
   1  -2  15   16.33    2.60
   1   2  15   18.29    2.67
  -1  -2 -16    6.41    2.26
  -1   2 -16    4.59    2.16
   1  -2  16    6.78    2.00
   1   2  16    7.39    2.02
  -1  -3  16    4.95    1.84
  -1   3  16    4.57    1.48
   1   3 -16    4.42    2.14
  -1  -3  15   10.78    2.23
  -1   3  15    8.07    2.36
  -1   3  15   10.28    1.91
   1   3 -15    9.15    2.50
  -1  -3  14    8.85    1.93
  -1   3  14    7.91    2.20
  -1   3  14    9.65    1.81
   1   3 -14    8.49    2.32
  -1  -3  13   25.84    2.60
  -1   3  13   17.59    2.75
  -1   3  13   26.79    2.37
   1  -3 -13   24.31    2.94
   1   3 -13   17.69    2.79
  -1  -3  12    7.62    1.58
  -1   3  12    3.95    1.59
  -1   3  12    5.22    1.25
   1  -3 -12    5.95    1.66
   1   3 -12    4.87    1.71
  -1  -3  11  101.67    4.03
  -1   3  11   77.51    4.20
  -1   3  11  109.99    3.79
   1  -3 -11   92.35    4.37
   1   3 -11   80.72    4.24
  -1  -3  10  362.99    6.96
  -1   3  10  283.72    7.25
  -1   3  10  380.32    6.42
   1  -3 -10  362.56    7.82
   1   3 -10  276.86    7.01
  -1  -3   9  296.46    6.28
  -1  -3   9  398.10    6.86
  -1   3   9  312.51    7.17
  -1   3   9  403.53    6.18
   1  -3  -9  386.18    7.61
   1   3  -9  292.70    6.81
  -1  -3   8  472.78    7.47
  -1  -3   8  600.66    7.91
  -1   3   8  515.87    8.62
  -1   3   8  651.00    7.26
   1  -3  -8  616.47    8.95
   1   3  -8  451.77    7.95
  -1  -3   7  285.36    5.50
  -1  -3   7  373.19    5.85
  -1   3   7  314.44    6.34
  -1   3   7  389.44    5.16
   1  -3  -7  368.97    6.47
   1   3  -7  252.68    5.60
  -1  -3   6  175.42    4.09
  -1  -3   6  225.73    4.27
  -1   3   6  188.44    4.59
  -1   3   6  244.55    3.68
   1  -3  -6  224.45    4.70
   1   3  -6  159.52    4.19
  -1  -3   5  240.68    4.49
  -1  -3   5  305.28    4.63
  -1   3   5  269.54    5.08
  -1   3   5  253.78    3.06
  -1   3   5  353.53    3.77
   1  -3  -5  306.06    5.01
   1  -3  -5  261.82    4.26
   1   3  -5  211.23    4.51
  -1  -3   4 2973.37   14.77
  -1  -3   4 3266.94   27.15
  -1   3   4 3088.66   15.72
  -1   3   4 3124.53   11.81
  -1   3   4 4021.15   17.97
   1  -3  -4 3769.12   15.92
   1  -3  -4 2992.61   20.62
   1   3  -4 2414.27   14.20
  -1  -3   3 3902.61   36.10
  -1  -3   3 3885.86   29.97
  -1   3   3 4096.52   40.52
   1  -3  -3 4912.40   39.54
   1  -3  -3 4024.66   28.76
   1   3  -3 3145.44   15.35
  -1  -3   2  644.64    6.31
  -1  -3   2  594.63    5.43
  -1   3   2  670.14    6.07
   1  -3  -2  791.51    5.71
   1  -3  -2  653.71    4.41
   1   3  -2  502.42    5.90
   1   3  -2  811.84    5.09
  -1  -3   1  362.69    4.65
  -1  -3   1  301.54    3.79
  -1   3   1  372.89    4.10
   1  -3  -1  370.43    2.25
   1   3  -1  272.87    4.25
   1   3  -1  414.53    3.69
  -1  -3   0  500.55    5.49
  -1  -3   0  419.74    4.49
  -1   3   0  528.01    4.28
  -1   3   0  514.16    4.41
   1   3   0  419.08    5.25
   1   3   0  500.39    4.21
  -1  -3  -1  624.00    6.30
  -1  -3  -1  552.13    5.30
  -1   3  -1  641.35    4.78
  -1   3  -1  644.08    4.58
   1   3   1  542.85    6.10
  -1  -3  -2  196.21    3.72
  -1  -3  -2  168.93    3.09
  -1   3  -2  154.18    2.47
  -1   3  -2  188.56    2.61
   1   3   2  169.72    3.58
  -1  -3  -3 3047.67   22.49
  -1  -3  -3 2628.26   12.78
  -1   3  -3 2654.40   14.64
   1   3   3 2722.22   14.95
  -1  -3  -4  249.68    4.72
  -1  -3  -4  223.35    3.97
  -1   3  -4  216.74    3.59
  -1  -3  -5  358.37    6.01
  -1   3  -5  311.95    4.76
   1   3   5  297.79    5.58
  -1  -3  -6  171.59    4.45
  -1   3  -6  163.54    3.82
   1   3   6  154.59    4.29
  -1  -3  -7  122.85    4.04
  -1   3  -7   96.43    3.26
   1  -3   7   89.59    2.74
   1   3   7   86.90    3.46
  -1   3  -8  279.00    5.86
   1   3   8  269.71    6.32
  -1  -3  -9   15.92    2.17
  -1   3  -9   13.61    1.69
   1   3   9   11.34    1.85
  -1  -3 -10  217.35    6.35
  -1   3 -10  208.79    5.87
   1   3  10  189.25    5.92
  -1  -3 -11   38.84    3.13
  -1   3 -11   28.32    2.62
   1   3  11   27.43    2.69
  -1  -3 -12   18.01    2.73
  -1   3 -12   13.07    2.24
   1   3  12   11.15    2.16
  -1  -3 -13   20.44    2.93
  -1   3 -13   16.46    2.66
   1  -3  13   24.90    2.54
   1   3  13   17.99    2.79
  -1  -3 -14    5.37    1.88
  -1   3 -14    1.97    1.62
   1  -3  14    7.09    1.82
   1   3  14    5.26    1.55
  -1  -3 -15   82.37    5.32
  -1   3 -15   62.31    4.72
   1  -3  15   83.93    4.63
   1   3  15   87.76    4.59
  -1  -4  15    5.27    1.78
  -1   4  15    5.42    2.11
  -1   4  15    5.63    1.47
   1   4 -15    4.80    2.14
  -1  -4  14   76.56    4.35
  -1   4  14   57.41    4.49
  -1   4  14   76.51    3.56
   1   4 -14   55.67    4.48
  -1  -4  13    7.40    1.77
  -1   4  13    6.03    2.02
  -1   4  13    7.09    1.43
   1   4 -13    7.90    2.20
  -1  -4  12   21.63    2.36
  -1   4  12   25.61    2.96
  -1   4  12   23.04    2.00
   1   4 -12   17.10    2.66
  -1  -4  11   41.68    2.84
  -1   4  11   35.79    3.14
  -1   4  11   46.56    2.44
   1   4 -11   26.62    2.88
  -1  -4  10   80.91    3.54
  -1   4  10   72.51    4.02
  -1   4  10   88.68    3.04
   1  -4 -10   83.57    4.02
   1   4 -10   60.71    3.65
  -1  -4   9   76.66    3.24
  -1   4   9   61.82    3.50
  -1   4   9   76.44    2.63
   1  -4  -9   77.16    3.64
   1   4  -9   58.29    3.34
  -1  -4   8    0.47    0.66
  -1   4   8    0.01    0.72
  -1   4   8   -0.03    0.48
   1  -4  -8    0.33    0.76
   1   4  -8    0.18    0.77
  -1  -4   7  630.79    8.29
  -1  -4   7  769.25    8.79
  -1   4   7  661.09    9.69
  -1   4   7  879.99    6.88
   1  -4  -7  830.67    9.96
   1   4  -7  538.16    8.56
  -1  -4   6  371.88    6.08
  -1  -4   6  449.26    6.36
  -1   4   6  417.70    7.26
  -1   4   6  390.74    3.63
  -1   4   6  532.58    4.46
   1  -4  -6  457.12    6.91
   1  -4  -6  377.30    5.93
   1   4  -6  328.78    6.39
  -1  -4   5  264.93    4.91
  -1  -4   5  224.51    4.27
  -1   4   5  220.15    4.97
   1  -4  -5  258.85    4.83
   1  -4  -5  208.70    4.10
   1   4  -5  179.72    4.50
  -1  -4   4   25.41    1.56
  -1  -4   4   27.49    1.50
  -1   4   4   27.75    1.76
   1  -4  -4   29.02    1.57
   1  -4  -4   23.87    1.34
   1   4  -4   20.51    1.61
  -1  -4   3   63.90    2.29
  -1  -4   3   59.06    2.03
  -1   4   3   67.38    2.43
   1  -4  -3   74.64    2.20
   1  -4  -3   61.96    1.87
   1   4  -3   52.90    2.31
  -1  -4   2  675.21    7.09
  -1  -4   2  596.66    6.12
  -1   4   2  688.23    7.08
   1  -4  -2  791.78    6.28
   1  -4  -2  652.32    5.27
   1   4  -2  510.85    6.73
   1   4  -2  501.24    6.66
  -1  -4   1  330.81    4.94
  -1  -4   1  274.71    4.12
  -1   4   1  354.15    4.77
   1  -4  -1  317.34    3.15
   1   4  -1  262.56    4.78
   1   4  -1  413.59    3.42
  -1  -4   0  519.31    6.24
  -1  -4   0  453.92    5.33
  -1   4   0  558.46    5.70
   1  -4   0  517.39    3.23
   1   4   0  433.07    6.12
   1   4   0  612.80    4.55
  -1  -4  -1  170.01    3.67
  -1  -4  -1  150.81    3.16
  -1   4  -1  168.10    3.09
   1   4   1  159.60    3.81
   1   4   1  174.53    2.66
  -1  -4  -2   68.91    2.46
  -1  -4  -2   62.89    2.15
  -1   4  -2   57.01    1.86
   1   4   2   62.92    2.51
  -1  -4  -3   43.57    2.09
  -1  -4  -3   44.51    1.91
  -1   4  -3   37.87    1.63
   1   4   3   44.46    2.21
  -1  -4  -4   24.73    1.73
  -1  -4  -4   28.32    1.63
  -1   4  -4   25.77    1.48
   1   4   4   26.05    1.81
  -1  -4  -5  466.89    7.29
  -1  -4  -5  404.76    6.15
  -1   4  -5  359.93    5.51
   1   4   5  412.69    7.14
  -1  -4  -6  182.46    4.89
  -1   4  -6  139.18    3.77
   1   4   6  153.98    4.64
  -1  -4  -7   33.19    2.38
  -1   4  -7   29.01    2.07
   1   4   7   27.38    2.28
  -1  -4  -8  197.60    5.63
  -1   4  -8  167.83    4.75
   1   4   8  163.32    5.28
  -1  -4  -9   40.68    2.94
  -1   4  -9   32.28    2.48
   1   4   9   34.66    2.75
  -1  -4 -10    2.97    1.33
  -1   4 -10    3.82    1.33
   1   4  10    3.24    1.30
  -1  -4 -11   44.05    3.34
  -1   4 -11   34.72    2.96
   1  -4  11   50.25    2.90
   1   4  11   38.79    3.28
  -1  -4 -12   59.48    4.09
  -1   4 -12   51.39    3.68
   1  -4  12   73.90    3.65
   1   4  12   49.65    3.83
  -1  -4 -13   24.67    3.36
  -1   4 -13   17.62    2.76
   1  -4  13   27.82    2.73
   1   4  13   17.48    2.92
  -1  -4 -14   14.16    2.80
  -1   4 -14    9.85    2.37
   1  -4  14    9.49    1.95
   1   4  14   10.07    2.35
   1   4  14   13.35    2.21
  -1   4 -15    0.77    1.68
   1  -4  15    1.76    1.43
   1   4  15    1.30    1.28
  -1  -5  14   25.35    2.96
  -1   5  14   22.81    3.49
   1   5 -14   20.29    3.27
  -1  -5  13   29.64    2.92
  -1   5  13   21.77    3.31
  -1   5  13   29.68    2.07
   1   5 -13   25.21    3.45
  -1  -5  12    4.52    1.50
  -1   5  12    2.70    1.68
  -1   5  12    4.42    1.01
   1   5 -12    3.65    1.66
  -1  -5  11   50.66    3.23
  -1   5  11   50.70    3.80
  -1   5  11   59.94    2.35
   1   5 -11   38.39    3.29
  -1  -5  10   67.83    3.42
  -1   5  10   62.50    3.94
  -1   5  10   70.51    2.31
   1   5 -10   50.67    3.49
  -1  -5   9   42.34    2.65
  -1   5   9   42.05    3.15
  -1   5   9   52.69    1.79
   1   5  -9   33.88    2.85
  -1  -5   8   89.15    3.48
  -1   5   8   85.96    4.11
  -1   5   8   93.95    1.84
   1   5  -8   65.71    3.51
  -1  -5   7  143.76    4.11
  -1   5   7  137.99    4.80
   1   5  -7  106.12    4.19
  -1  -5   6    9.22    1.31
  -1   5   6   10.15    1.63
   1  -5  -6    6.47    1.15
   1   5  -6    8.92    1.55
  -1  -5   5   11.66    1.54
  -1  -5   5    7.69    1.15
  -1   5   5    9.40    1.46
   1  -5  -5    9.05    1.24
   1   5  -5    9.27    1.54
  -1  -5   4  231.72    4.67
  -1  -5   4  228.73    4.49
  -1   5   4  238.01    5.28
   1  -5  -4  284.55    4.91
   1  -5  -4  237.75    4.41
   1   5  -4  184.54    4.79
  -1  -5   3   83.08    2.79
  -1  -5   3   78.21    2.59
  -1   5   3   91.37    3.14
   1  -5  -3   99.28    2.68
   1  -5  -3   78.54    2.38
   1   5  -3   68.23    2.93
   1   5  -3   67.01    2.86
  -1  -5   2   71.71    2.56
  -1  -5   2   61.98    2.28
  -1   5   2   75.21    2.73
   1  -5  -2   68.59    2.05
   1   5  -2   50.07    2.47
  -1  -5   1  139.03    3.52
  -1  -5   1  122.33    3.14
  -1   5   1  147.56    3.60
   1  -5  -1  130.64    2.56
   1   5  -1  115.88    3.64
  -1  -5   0  600.96    7.32
  -1  -5   0  518.63    6.41
  -1   5   0  646.22    7.20
   1  -5   0  560.14    4.84
   1   5   0  533.35    7.64
  -1  -5  -1  263.95    4.98
  -1  -5  -1  235.60    4.42
  -1   5  -1  254.00    4.48
   1  -5   1  262.78    3.14
   1   5   1  249.12    5.32
   1   5   1  321.56    3.09
  -1  -5  -2  113.36    3.40
  -1  -5  -2  100.56    3.01
  -1   5  -2   89.63    2.74
  -1   5  -2   83.49    2.63
   1  -5   2  127.23    2.18
   1   5   2  103.09    3.58
   1   5   2  104.54    2.08
  -1  -5  -3  656.51    8.39
  -1  -5  -3  576.93    7.34
  -1   5  -3  518.40    6.57
   1  -5   3  772.26    5.58
   1   5   3  612.20    8.75
   1   5   3  568.34    5.32
  -1  -5  -4   24.63    1.89
  -1  -5  -4   24.07    1.71
  -1   5  -4   22.83    1.66
   1  -5   4   30.87    1.29
   1   5   4   24.35    2.03
  -1  -5  -5  176.14    4.82
  -1  -5  -5  143.41    4.02
  -1   5  -5  126.25    3.64
   1  -5   5  195.83    3.39
   1   5   5  139.65    4.58
  -1  -5  -6  178.49    5.10
  -1  -5  -6  161.99    4.46
  -1   5  -6  138.66    4.05
   1   5   6  164.97    5.19
  -1  -5  -7   27.04    2.35
  -1   5  -7   18.52    1.93
   1   5   7   21.59    2.23
  -1  -5  -8  182.65    5.66
  -1   5  -8  140.91    4.61
   1   5   8  162.12    5.63
  -1  -5  -9   89.95    4.25
  -1   5  -9   67.11    3.52
   1   5   9   75.94    4.14
  -1  -5 -10   80.20    4.26
  -1   5 -10   61.13    3.61
   1   5  10   63.83    3.99
  -1  -5 -11   -0.58    1.04
  -1   5 -11    1.34    1.25
   1   5  11    1.69    1.30
  -1   5 -12   10.35    2.21
   1   5  12   12.08    2.55
   1   5  12   16.11    2.12
  -1   5 -13    4.36    1.79
   1   5  13    5.74    2.07
   1   5  13   12.36    1.99
  -1   5 -14   20.94    3.27
   1   5  14   16.77    3.04
   1   5  14   30.43    2.83
  -1  -6  13   13.97    2.37
  -1   6  13   16.66    3.16
   1   6 -13   13.04    2.79
  -1  -6  12    7.43    1.78
  -1   6  12    8.04    2.34
   1   6 -12    7.55    2.13
  -1  -6  11    4.38    1.40
  -1   6  11    5.90    1.99
   1   6 -11    4.30    1.72
  -1  -6  10    4.66    1.33
  -1   6  10    4.40    1.74
   1   6 -10    2.88    1.44
  -1  -6   9   75.11    3.59
  -1   6   9   69.49    4.14
   1   6  -9   59.63    3.77
  -1  -6   8   38.89    2.56
  -1   6   8   39.62    3.11
   1   6  -8   30.96    2.79
  -1  -6   7   52.57    2.80
  -1   6   7   57.38    3.44
   1  -6  -7   53.89    2.87
   1   6  -7   47.35    3.09
  -1  -6   6   86.80    3.34
  -1   6   6   89.11    4.00
   1  -6  -6   82.46    3.30
   1   6  -6   63.84    3.41
  -1  -6   5   90.35    3.27
  -1   6   5   93.96    3.88
   1  -6  -5   94.73    3.31
   1   6  -5   74.69    3.55
   1   6  -5   76.19    3.56
  -1  -6   4    3.10    0.90
  -1   6   4    3.69    1.07
   1  -6  -4    3.20    0.83
   1   6  -4    3.81    1.21
   1   6  -4    1.96    1.01
  -1  -6   3  514.62    7.19
  -1   6   3  621.14    8.88
   1  -6  -3  568.73    7.05
   1   6  -3  475.44    8.15
  -1  -6   2  288.62    5.34
  -1   6   2  352.74    6.46
   1  -6  -2  322.94    5.03
   1   6  -2  264.92    6.04
  -1  -6   1  157.73    3.97
  -1   6   1  171.68    4.41
   1  -6  -1  150.25    3.27
   1   6  -1  133.08    4.30
  -1  -6   0  245.79    4.95
  -1   6   0  288.74    5.55
   1  -6   0  245.34    3.97
   1   6   0  256.67    5.92
  -1  -6  -1   55.65    2.53
  -1  -6  -1   48.65    2.34
  -1   6  -1   46.60    2.33
   1  -6   1   48.57    1.82
   1   6   1   46.79    2.70
  -1  -6  -2   64.20    2.80
  -1  -6  -2   62.96    2.69
  -1   6  -2   59.15    2.59
   1   6   2   61.46    3.10
  -1  -6  -3   40.47    2.39
  -1  -6  -3   33.11    2.11
  -1   6  -3   29.02    1.94
   1   6   3   34.90    2.51
  -1  -6  -4  432.89    7.57
  -1  -6  -4  371.45    6.71
  -1   6  -4  321.64    6.04
   1   6   4  395.12    7.97
  -1  -6  -5  344.95    7.10
  -1  -6  -5  308.82    6.35
  -1   6  -5  254.84    5.63
   1   6   5  304.21    7.24
  -1  -6  -6  117.62    4.14
  -1   6  -6   93.33    3.67
   1   6   6  112.86    4.70
  -1  -6  -7  152.56    4.87
  -1   6  -7  124.10    4.37
   1   6   7  159.06    5.74
  -1   6  -8   21.44    2.23
   1   6   8   27.58    2.82
  -1   6  -9    6.00    1.58
   1   6   9    9.36    2.08
  -1   6 -10   17.84    2.53
   1   6  10   22.46    3.21
   1   6  10   33.19    2.27
  -1   6 -11   37.69    3.36
   1   6  11   43.45    3.89
   1   6  11   61.70    3.04
  -1   6 -12   17.14    2.75
   1   6  12   14.93    2.79
   1   6  12   24.50    2.30
  -1   6 -13   29.87    3.40
   1   6  13   42.01    4.21
   1   6  13   58.73    3.22
  -1   7  12   19.05    3.35
   1   7 -12    7.27    2.15
  -1   7  11    8.05    2.30
   1   7 -11    5.88    1.95
  -1  -7  10    6.84    1.72
  -1   7  10    7.01    2.04
   1   7 -10    5.24    1.80
  -1  -7   9    9.16    1.76
  -1   7   9    8.54    2.16
   1   7  -9    5.75    1.82
  -1  -7   8   61.95    3.38
  -1   7   8   65.24    4.10
   1   7  -8   52.16    3.64
  -1  -7   7   12.25    1.79
  -1   7   7   19.01    2.62
   1  -7  -7   16.70    1.95
   1   7  -7   11.08    2.07
   1   7  -7   11.00    2.03
  -1  -7   6   12.58    1.75
  -1   7   6   12.15    2.02
   1  -7  -6   13.80    1.70
   1   7  -6    8.75    1.80
   1   7  -6    8.57    1.69
  -1  -7   5    8.02    1.40
  -1   7   5    5.56    1.46
   1  -7  -5   10.55    1.57
   1   7  -5    5.66    1.51
  -1  -7   4  307.44    6.25
  -1   7   4  347.18    7.58
   1  -7  -4  330.20    6.30
   1   7  -4  262.74    6.77
  -1  -7   3   60.52    2.85
  -1   7   3   68.26    3.39
   1  -7  -3   71.04    2.89
   1   7  -3   50.56    3.10
  -1  -7   2   83.42    3.25
  -1   7   2  100.62    3.92
   1   7  -2   83.29    3.85
  -1  -7   1   78.55    3.17
  -1   7   1   88.79    3.60
   1   7  -1   73.75    3.61
  -1  -7   0   44.80    2.50
  -1   7   0   51.08    2.76
   1   7   0   46.12    2.98
  -1  -7  -1   96.43    3.57
  -1   7  -1  107.55    3.85
   1   7   1  120.61    4.65
  -1  -7  -2  152.95    4.52
  -1   7  -2  140.81    4.38
   1   7   2  171.66    5.56
  -1  -7  -3  274.82    6.13
  -1   7  -3  225.23    5.53
   1   7   3  294.48    7.31
  -1  -7  -4   88.84    3.66
  -1   7  -4   74.77    3.40
   1   7   4   91.80    4.32
  -1  -7  -5   19.62    2.00
  -1   7  -5   14.17    1.97
  -1   7  -5   10.71    1.70
   1   7   5   12.09    1.99
  -1  -7  -6   22.63    2.20
  -1   7  -6   19.83    2.12
   1   7   6   25.52    2.67
  -1  -7  -7   10.45    1.80
  -1   7  -7   10.43    1.82
   1   7   7   11.59    2.25
  -1   7  -8   38.84    2.95
   1   7   8   48.80    3.73
  -1   7  -9   23.23    2.59
   1   7   9   27.88    3.15
  -1   7 -10   19.76    2.77
   1   7  10   28.24    3.42
  -1   7 -11   23.82    3.17
   1   7  11   31.70    3.59
  -1   7 -12    8.59    2.17
   1   7  12   11.66    2.77
  -1   8  10    4.71    1.91
   1   8 -10    2.89    1.65
   1   8 -10    1.54    1.47
  -1   8   9   10.86    2.49
   1   8  -9    4.58    1.79
   1   8  -9    5.06    1.85
  -1   8   8  100.32    5.35
   1  -8  -8   88.62    4.34
   1   8  -8   65.40    4.31
   1   8  -8   66.92    4.32
  -1   8   7   30.85    3.19
   1  -8  -7   25.98    2.52
   1   8  -7   23.31    2.75
  -1   8   6   15.01    2.49
   1  -8  -6   10.00    1.75
   1   8  -6    9.40    2.00
  -1   8   5   69.93    4.01
   1   8  -5   49.56    3.49
  -1  -8   4    6.09    1.38
  -1   8   4    5.85    1.51
   1   8  -4    6.18    1.65
  -1  -8   3   30.95    2.35
  -1   8   3   40.70    2.96
   1   8  -3   27.12    2.65
  -1  -8   2    3.42    1.09
  -1   8   2    4.37    1.30
   1   8  -2    4.61    1.44
  -1  -8   1   70.77    3.36
  -1   8   1   85.63    3.94
   1   8  -1   74.68    4.03
  -1  -8   0   39.96    2.64
  -1   8   0   49.18    3.10
   1   8   0   42.40    3.21
  -1  -8  -1   29.26    2.33
  -1   8  -1   28.13    2.49
   1   8   1   29.97    2.82
  -1  -8  -2   50.38    2.95
  -1   8  -2   41.73    2.87
   1   8   2   54.22    3.59
  -1  -8  -3   15.62    1.94
  -1   8  -3   11.72    1.86
   1   8   3   14.80    2.34
  -1  -8  -4   60.57    3.36
  -1   8  -4   54.91    3.23
   1   8   4   64.68    4.01
  -1  -8  -5   11.03    1.83
  -1   8  -5    8.36    1.70
   1   8   5    7.88    1.82
  -1  -8  -6   46.67    3.18
  -1   8  -6   42.24    3.06
   1   8   6   56.38    4.04
  -1  -8  -7   64.32    3.78
  -1   8  -7   55.89    3.56
  -1   8  -7   53.71    3.47
   1   8   7   69.40    4.56
  -1   8  -8    2.77    1.42
  -1   8  -8    1.62    1.24
   1   8   8    2.62    1.58
  -1   8  -9    4.90    1.73
   1   8   9    8.00    2.22
  -1   8 -10   10.01    2.23
   1   8  10   12.24    2.82
  -1   9   8   17.64    3.05
   1   9  -8   13.51    2.66
  -1   9   7   68.50    4.65
   1   9  -7   56.45    4.19
  -1   9   6   21.53    3.12
   1   9  -6   16.31    2.68
  -1   9   5   72.27    4.48
   1   9  -5   50.09    3.81
  -1   9   4    2.78    1.36
   1   9  -4    2.28    1.27
  -1   9   3    1.92    1.25
   1   9  -3    2.19    1.30
  -1   9   2   -1.30    0.76
   1   9  -2   -0.46    1.03
  -1   9   1    9.81    1.91
   1   9  -1    8.66    2.00
  -1  -9   0   47.37    3.15
  -1   9   0   56.07    3.57
   1   9   0   53.35    3.84
  -1  -9  -1   14.36    2.11
  -1   9  -1   20.27    2.62
   1   9   1   23.70    2.86
  -1  -9  -2   59.49    3.50
  -1   9  -2   63.56    3.72
   1   9   2   67.46    4.29
  -1  -9  -3   20.56    2.37
  -1   9  -3   25.73    2.67
   1   9   3   26.74    3.03
  -1  -9  -4   15.38    2.27
  -1   9  -4   12.54    2.16
   1   9   4   13.03    2.42
  -1  -9  -5   12.01    2.08
  -1   9  -5    9.81    2.05
   1   9   5   12.52    2.54
  -1  -9  -6    0.28    0.88
  -1   9  -6    1.09    1.15
   1   9   6    0.02    1.24
  -1  -9  -7    9.32    2.04
  -1   9  -7    8.16    1.93
   1   9   7    7.04    2.15
  -1   9  -8    2.03    1.40
   1   9   8    3.57    1.85
  -1  10   4   21.70    3.08
   1  10  -4   25.49    3.47
  -1  10   3    2.00    1.37
   1  10  -3    2.00    1.46
  -1  10   2    9.31    2.13
   1  10  -2    5.78    1.88
  -1  10   1    1.81    1.35
   1  10  -1    3.09    1.60
  -1  10   0   16.93    2.65
   1  10   0   15.62    2.75
  -1  10  -1   -0.08    1.13
   1  10   1    1.00    1.41
  -1  10  -2   13.67    2.37
   1  10   2    9.62    2.27
  -1 -10  -3    0.91    0.99
  -1  10  -3    1.30    1.23
   1  10   3    1.49    1.49
  -1 -10  -4   31.21    3.01
  -1  10  -4   31.13    3.11
   1  10   4   36.44    3.76
  -2   0  16    8.14    1.96
   2   0 -16    6.13    2.29
  -2   0  15    1.96    1.27
   2   0 -15    3.60    1.93
  -2   0  14    2.16    1.52
  -2   0  14    3.21    1.32
   2   0 -14    1.91    1.56
  -2   0  13  111.54    5.21
  -2   0  13  130.87    4.79
   2   0 -13  118.35    5.44
  -2   0  12  205.78    6.59
  -2   0  12  256.62    6.24
   2   0 -12  215.31    6.77
  -2   0  11   38.02    3.03
  -2   0  11   50.24    2.85
   2   0 -11   37.31    3.07
  -2   0  10   65.58    3.46
  -2   0  10   88.21    3.35
  -2   0   9   62.09    3.15
  -2   0   9   79.17    2.96
   2   0  -9   70.38    3.29
  -2   0   8  464.26    7.70
  -2   0   8  559.17    7.13
   2   0  -8  502.11    7.91
  -2   0   7  171.37    4.43
  -2   0   7  201.37    4.01
   2   0  -7  176.34    4.41
  -2   0   6  314.90    5.50
  -2   0   6  342.66    4.78
   2   0  -6  314.65    5.38
  -2   0   5  837.33    8.22
  -2   0   5  905.91    7.06
   2   0  -5  795.11    7.81
  -2   0   4  206.06    3.74
  -2   0   4  197.07    2.96
   2   0  -4  213.36    3.68
  -2   0   3  989.51    7.33
  -2   0   3  951.75    5.60
   2   0  -3  890.72    6.69
  -2   0   2 1270.19    7.37
  -2   0   2 1023.66    4.67
   2   0  -2  961.26    6.10
  -2   0   1 1338.09    6.69
   2   0  -1 1034.84    5.48
   2   0  -1  978.84    5.35
  -2   0   0 1377.41    6.22
   2   0   0 1245.29    5.36
   2   0   0 1447.83    8.36
  -2   0  -1  181.58    2.30
   2   0   1  166.45    1.96
  -2   0  -2    1.17    0.28
   2   0   2    2.59    0.32
  -2   0  -3  696.83    5.66
   2   0   3  655.23    4.98
  -2   0  -4 1937.33   10.63
   2   0   4 1802.50    9.36
  -2   0  -5  127.05    3.06
   2   0   5  105.71    2.56
  -2   0  -6  469.71    6.42
   2   0   6  406.13    5.46
  -2   0  -7 1128.77   10.82
   2   0   7  927.68    8.96
  -2   0  -8   88.99    3.40
   2   0   8   70.82    2.79
  -2   0  -9   14.83    1.79
   2   0   9    5.97    1.20
  -2   0 -10  152.26    5.10
  -2   0 -11  660.46   10.96
  -2   0 -12  177.58    6.20
  -2   0 -13   20.18    2.89
  -2   0 -14    0.89    1.42
  -2   0 -15    1.00    1.49
  -2   0 -16   -0.65    1.51
  -2  -1  16    8.30    2.01
  -2   1  16   13.10    2.24
   2   1 -16    9.67    2.64
  -2  -1  15   23.52    2.80
  -2   1  15   20.39    3.16
  -2   1  15   19.57    2.51
   2  -1 -15   17.55    3.08
   2   1 -15   20.26    3.33
  -2  -1  14    0.61    1.11
  -2   1  14    1.29    1.47
  -2   1  14   -1.00    0.82
   2  -1 -14    1.17    1.49
   2   1 -14    2.23    1.58
  -2  -1  13    0.10    1.09
  -2  -1  13    1.13    0.97
  -2   1  13   -0.53    1.09
  -2   1  13   -0.87    0.81
   2  -1 -13   -0.63    1.19
   2   1 -13    2.66    1.39
  -2  -1  12   59.15    3.70
  -2  -1  12   67.04    3.47
  -2   1  12   46.09    3.56
  -2   1  12   59.31    3.17
   2  -1 -12   59.77    3.84
   2   1 -12   53.98    3.79
  -2  -1  11  309.52    7.50
  -2  -1  11  390.17    7.40
  -2   1  11  335.44    8.00
  -2   1  11  390.43    7.02
   2  -1 -11  357.02    8.09
   2   1 -11  309.82    7.72
  -2  -1  10   61.07    3.36
  -2  -1  10   77.61    3.25
  -2   1  10   69.24    3.60
  -2   1  10   83.71    3.17
   2  -1 -10   65.80    3.44
   2   1 -10   71.30    3.65
  -2  -1   9   27.40    2.25
  -2  -1   9   36.05    2.17
  -2   1   9   32.63    2.43
  -2   1   9   38.53    2.10
   2  -1  -9   34.40    2.43
   2   1  -9   30.26    2.36
  -2  -1   8  108.16    3.81
  -2  -1   8  140.59    3.76
  -2   1   8  116.94    4.00
  -2   1   8  139.69    3.49
   2  -1  -8  124.45    4.00
   2   1  -8  114.64    3.95
  -2  -1   7  120.73    3.76
  -2  -1   7  144.74    3.55
  -2   1   7  132.22    3.96
  -2   1   7  152.21    3.34
   2  -1  -7  145.51    4.01
  -2  -1   6  601.47    7.67
  -2  -1   6  723.31    7.29
  -2   1   6  659.95    7.97
  -2   1   6  712.07    6.46
   2  -1  -6  791.65    8.36
   2   1  -6  577.75    7.50
  -2  -1   5  172.68    3.86
  -2  -1   5  194.53    3.52
  -2   1   5  204.34    4.09
  -2   1   5  195.65    3.01
   2  -1  -5  193.37    3.78
   2   1  -5  170.15    3.80
  -2  -1   4 1800.46   11.41
  -2  -1   4 1936.72   14.82
  -2   1   4 2270.42   12.21
  -2   1   4 2044.88    9.80
  -2   1   4 1962.36   12.39
   2  -1  -4 2043.87   10.92
   2   1  -4 1757.54   11.17
  -2  -1   3   16.59    1.12
  -2   1   3   11.46    0.85
  -2   1   3    9.88    0.34
  -2   1   3   11.20    0.39
   2  -1  -3   12.13    0.80
   2   1  -3    8.76    0.85
  -2  -1   2 1152.50    7.83
  -2  -1   2 1059.30    6.32
  -2   1   2 1421.93    7.28
   2  -1  -2 1014.26    5.45
   2  -1  -2 1176.66    6.60
   2   1  -2  992.39    7.13
  -2  -1   1 1531.54    8.49
  -2  -1   1 1342.85    6.56
  -2   1   1 1293.97    6.93
  -2   1   1 1753.72   11.48
   2   1  -1 1284.86    7.61
  -2  -1   0 2969.73   25.25
  -2  -1   0 2657.48   19.91
  -2   1   0 3147.86   15.97
  -2   1   0 2217.89   11.52
   2   1   0 2435.27   20.08
  -2  -1  -1 3185.74   26.48
  -2  -1  -1 2936.36   23.96
   2   1   1 2846.71   23.13
  -2  -1  -2  209.24    3.30
  -2   1  -2  253.91    2.26
  -2   1  -2  209.38    1.95
   2   1   2  218.60    3.24
  -2  -1  -3 2418.89   12.06
  -2   1  -3 2448.52   21.48
  -2   1  -3 2072.62   12.09
   2   1   3 2130.93   15.52
  -2   1  -4  406.29    4.47
   2   1   4  358.49    4.84
  -2  -1  -5  876.63    8.56
  -2   1  -5  937.30    7.75
   2  -1   5  684.53    5.60
   2   1   5  762.65    7.60
  -2  -1  -6  187.57    4.33
  -2   1  -6  206.73    4.11
   2  -1   6  151.68    3.04
   2   1   6  162.86    3.82
  -2  -1  -7  171.79    4.47
  -2   1  -7  192.90    4.41
   2  -1   7  133.32    3.18
   2   1   7  158.23    4.06
  -2  -1  -8 1698.01   14.82
  -2   1  -8 1709.04   14.01
   2  -1   8 1289.82   10.58
   2   1   8 1405.47   12.69
  -2  -1  -9  483.99    8.49
  -2   1  -9  500.88    8.25
   2   1   9  406.61    7.28
  -2  -1 -10   78.34    3.83
  -2   1 -10   81.16    3.71
   2   1  10   60.51    3.17
  -2  -1 -11  104.07    4.65
  -2   1 -11  101.74    4.43
  -2  -1 -12    1.20    1.28
  -2   1 -12    4.36    1.57
  -2  -1 -13   18.20    2.73
  -2   1 -13   18.99    2.79
  -2  -1 -14    7.98    2.19
  -2   1 -14   12.16    2.50
  -2  -1 -15   69.29    4.97
  -2   1 -15   67.83    4.87
  -2  -1 -16   16.54    3.17
  -2   1 -16   17.71    3.20
  -2  -2  16   11.83    2.30
  -2   2  16    6.19    2.27
  -2   2  16    9.06    1.88
   2   2 -16    6.51    2.46
  -2  -2  15   10.08    2.13
  -2   2  15    5.23    2.04
  -2   2  15    9.57    1.88
   2   2 -15    4.50    2.07
  -2  -2  14   56.64    3.68
  -2   2  14   41.78    3.87
  -2   2  14   52.48    3.18
   2   2 -14   40.21    3.73
  -2  -2  13    8.26    1.70
  -2   2  13    5.98    1.82
  -2   2  13    7.78    1.54
   2  -2 -13    7.68    1.92
   2   2 -13    6.15    1.90
  -2  -2  12   10.73    2.04
  -2  -2  12   15.07    2.10
  -2   2  12   13.40    2.29
  -2   2  12   13.74    1.81
   2  -2 -12   14.17    2.32
   2   2 -12   15.40    2.59
  -2  -2  11  148.96    5.26
  -2  -2  11  179.64    5.24
  -2   2  11  160.40    5.81
  -2   2  11  188.02    4.77
   2  -2 -11  180.09    5.82
   2   2 -11  151.69    5.58
  -2  -2  10  197.08    5.72
  -2  -2  10  257.45    5.88
  -2   2  10  230.27    6.44
  -2   2  10  258.02    5.19
   2  -2 -10  251.68    6.43
   2   2 -10  204.26    6.06
  -2  -2   9  108.86    4.11
  -2  -2   9  134.42    4.06
  -2   2   9  116.18    4.37
  -2   2   9  137.97    3.57
   2  -2  -9  125.73    4.31
   2   2  -9  104.85    4.17
  -2  -2   8  194.76    5.09
  -2  -2   8  243.46    5.08
  -2   2   8  215.76    5.48
  -2   2   8  236.03    4.25
   2  -2  -8  230.14    5.36
   2   2  -8  172.79    4.95
  -2  -2   7  219.29    5.09
  -2  -2   7  272.70    5.05
  -2   2   7  242.53    5.41
  -2   2   7  267.90    4.09
   2  -2  -7  267.39    5.33
   2   2  -7  207.30    5.07
  -2  -2   6   18.51    1.57
  -2  -2   6   17.86    1.35
  -2   2   6   18.56    1.56
  -2   2   6   18.38    0.94
  -2   2   6   21.69    1.10
   2  -2  -6   18.08    1.41
   2   2  -6   15.42    1.47
  -2  -2   5   66.60    2.55
  -2  -2   5   73.23    2.35
  -2   2   5   77.02    2.61
  -2   2   5   67.31    1.38
  -2   2   5   72.36    1.51
   2  -2  -5   80.59    2.48
   2   2  -5   79.00    2.79
  -2  -2   4 2288.29   13.59
  -2  -2   4 2346.55   18.31
  -2   2   4 2519.83   13.22
   2  -2  -4 2503.61   11.94
   2   2  -4 1926.64   12.62
  -2  -2   3 2532.38   13.53
  -2  -2   3 2483.53   11.78
  -2   2   3 2894.98   12.54
   2  -2  -3 2744.84   10.63
   2  -2  -3 2583.11   16.75
   2   2  -3 2153.97   12.57
  -2  -2   2  992.63    8.09
  -2  -2   2  836.15    6.50
  -2   2   2 1081.87    6.53
   2   2  -2  813.84    7.35
   2   2  -2  774.90    7.18
  -2  -2   1 2210.98   11.70
  -2  -2   1 1751.99   16.08
  -2   2   1 2450.17   13.48
  -2   2   1 2158.47   15.84
  -2  -2   0 1632.96    9.98
  -2  -2   0 1360.30    7.88
   2   2   0 1255.00    8.71
  -2  -2  -1  352.38    4.73
  -2  -2  -1  310.19    3.80
   2   2   1  298.51    4.32
  -2  -2  -2  535.48    6.04
  -2  -2  -2  495.69    4.94
   2   2   2  519.08    5.88
  -2  -2  -3  918.91    8.34
  -2  -2  -3  827.29    6.65
  -2   2  -3 1015.85    5.41
  -2   2  -3  733.26    4.37
   2   2   3  792.54    7.63
  -2  -2  -4  621.50    7.29
  -2   2  -4  687.86    5.55
  -2   2  -4  482.08    4.46
   2   2   4  550.63    6.73
  -2  -2  -5  589.16    7.57
  -2   2  -5  700.76    6.53
   2   2   5  573.72    7.29
  -2  -2  -6 1449.33   12.63
  -2   2  -6 1640.09   11.25
   2   2   6 1264.71   11.46
  -2  -2  -7    4.95    1.08
  -2   2  -7    5.85    1.04
   2   2   7    4.18    0.99
  -2  -2  -8   55.68    2.98
  -2   2  -8   57.95    2.69
   2   2   8   48.63    2.66
  -2  -2  -9   95.92    4.04
  -2   2  -9   93.84    3.67
   2   2   9   79.16    3.56
  -2  -2 -10  103.30    4.49
  -2   2 -10  111.45    4.27
   2   2  10   91.44    4.02
  -2  -2 -11  243.39    7.06
  -2   2 -11  229.08    6.46
   2   2  11  174.71    5.71
  -2  -2 -12  163.71    6.17
  -2   2 -12  167.85    5.97
  -2  -2 -13   21.98    3.10
  -2   2 -13   19.24    2.83
  -2  -2 -14    5.94    2.01
  -2   2 -14    8.29    2.20
  -2  -2 -15   38.33    4.08
  -2   2 -15   27.73    3.78
  -2  -2 -16    4.27    2.02
  -2   2 -16    3.77    2.05
  -2  -3  15    5.34    1.71
  -2   3  15    4.60    2.06
  -2   3  15    4.58    1.38
   2   3 -15    5.88    2.13
  -2  -3  14    9.50    1.97
  -2   3  14    5.26    1.97
  -2   3  14    6.17    1.44
   2   3 -14    6.01    2.11
  -2  -3  13   13.16    2.06
  -2   3  13   12.21    2.50
  -2   3  13   13.15    1.80
   2   3 -13    9.78    2.23
  -2  -3  12   16.20    2.22
  -2   3  12   14.97    2.52
  -2   3  12   18.91    1.84
   2   3 -12   11.12    2.19
  -2  -3  11  155.54    5.03
  -2   3  11  126.58    5.33
  -2   3  11  147.95    3.97
   2  -3 -11  140.92    5.24
   2   3 -11  110.86    4.94
  -2  -3  10  109.05    4.38
  -2  -3  10  130.20    4.40
  -2   3  10  109.08    4.68
  -2   3  10  126.64    3.44
   2  -3 -10  127.57    4.70
   2   3 -10   99.44    4.46
  -2  -3   9   50.99    3.00
  -2  -3   9   61.21    2.96
  -2   3   9   54.30    3.21
  -2   3   9   62.28    2.28
   2  -3  -9   61.54    3.17
   2   3  -9   45.11    3.01
  -2  -3   8   43.75    2.68
  -2  -3   8   50.37    2.57
  -2   3   8   47.14    2.84
  -2   3   8   52.97    1.89
   2  -3  -8   54.02    2.79
   2   3  -8   38.95    2.72
  -2  -3   7  163.98    4.55
  -2  -3   7  189.01    4.45
  -2   3   7  186.54    4.95
  -2   3   7  159.98    2.52
  -2   3   7  195.29    2.94
   2  -3  -7  209.09    4.79
   2   3  -7  152.64    4.61
  -2  -3   6  346.37    6.20
  -2  -3   6  355.30    5.71
  -2   3   6  371.58    6.43
   2  -3  -6  391.86    5.97
   2   3  -6  283.06    5.87
  -2  -3   5  849.88    9.21
  -2  -3   5  919.12    8.67
  -2   3   5  977.37    9.58
   2  -3  -5 1117.70    9.09
   2  -3  -5  917.69    7.73
   2   3  -5  735.65    8.91
  -2  -3   4 1713.79   12.50
  -2  -3   4 1647.28   11.03
  -2   3   4 1787.46   11.83
   2  -3  -4 2254.52   11.43
   2  -3  -4 1729.16    9.28
   2   3  -4 1320.02   11.34
  -2  -3   3   37.74    1.89
  -2  -3   3   36.42    1.65
  -2   3   3   44.83    1.76
   2  -3  -3   34.71    1.11
   2   3  -3   35.27    1.90
  -2  -3   2 1174.71    9.68
  -2  -3   2 1010.34    8.01
  -2   3   2 1208.83    7.72
   2   3  -2  953.68    8.94
   2   3  -2  911.74    8.75
  -2  -3   1  263.63    4.54
  -2  -3   1  216.80    3.66
  -2   3   1  288.16    3.09
  -2   3   1  269.04    3.13
  -2  -3   0  496.72    6.21
  -2  -3   0  399.66    4.94
  -2   3   0  508.83    3.34
  -2   3   0  450.68    3.36
  -2  -3  -1  552.85    6.65
  -2  -3  -1  457.22    5.34
  -2   3  -1  604.31    3.42
  -2   3  -1  507.82    2.86
   2   3   1  460.94    6.15
  -2  -3  -2  869.91    8.58
  -2  -3  -2  778.62    7.13
  -2   3  -2  899.10    4.59
  -2   3  -2  814.67    4.06
   2   3   2  766.79    8.13
  -2  -3  -3  747.47    8.29
  -2  -3  -3  663.47    6.81
  -2   3  -3  823.69    5.34
  -2   3  -3  630.86    4.42
   2   3   3  680.60    7.94
  -2  -3  -4  378.11    5.36
  -2   3  -4  463.73    4.75
  -2   3  -4  345.04    3.91
   2   3   4  379.45    6.21
  -2   3  -5   26.79    1.44
   2   3   5   21.13    1.67
  -2  -3  -6  275.75    5.90
  -2   3  -6  293.67    4.87
   2   3   6  254.70    5.62
  -2  -3  -7  284.22    6.32
  -2   3  -7  295.72    5.40
   2   3   7  269.86    6.08
  -2  -3  -8  143.35    4.79
  -2   3  -8  150.06    4.26
   2   3   8  128.63    4.47
  -2  -3  -9  234.57    6.44
  -2   3  -9  243.75    5.80
   2   3   9  205.57    5.89
  -2  -3 -10  229.22    6.74
  -2   3 -10  221.01    5.97
   2   3  10  195.56    6.05
  -2  -3 -11   22.53    2.67
  -2   3 -11   20.33    2.42
   2   3  11   17.57    2.42
  -2  -3 -12    7.80    1.96
  -2   3 -12    8.54    1.95
   2   3  12    7.16    1.80
  -2  -3 -13    8.34    2.14
  -2   3 -13    9.76    2.15
  -2  -3 -14  107.04    5.88
  -2   3 -14   93.04    5.26
  -2  -3 -15   44.53    4.27
  -2   3 -15   33.69    3.71
  -2  -4  15    8.45    2.07
  -2   4  15    9.93    2.64
   2   4 -15    7.52    2.41
  -2  -4  14   24.57    2.91
  -2   4  14   23.74    3.53
  -2   4  14   27.11    2.05
   2   4 -14   21.11    3.39
  -2  -4  13    3.80    1.55
  -2   4  13    4.83    1.87
  -2   4  13    4.74    1.07
   2   4 -13    3.61    1.81
  -2  -4  12    3.88    1.41
  -2   4  12    3.68    1.59
  -2   4  12    4.91    1.00
   2   4 -12    1.83    1.52
  -2  -4  11    0.55    0.96
  -2   4  11    1.48    1.33
  -2   4  11    1.63    0.68
   2   4 -11    0.10    1.12
  -2  -4  10   73.40    3.53
  -2   4  10   66.67    3.88
  -2   4  10   79.25    2.28
   2   4 -10   57.79    3.69
  -2  -4   9    1.67    0.87
  -2   4   9    1.46    1.08
  -2   4   9    1.81    0.52
   2   4  -9    0.11    0.90
  -2  -4   8  118.22    4.18
  -2  -4   8  128.73    4.11
  -2   4   8  129.21    4.67
   2   4  -8   99.93    4.22
  -2  -4   7  727.62    9.70
  -2  -4   7  759.44    9.26
  -2   4   7  766.71   10.38
   2  -4  -7  855.33   10.09
   2   4  -7  581.85    9.36
  -2  -4   6  388.52    6.83
  -2  -4   6  360.28    6.13
  -2   4   6  376.79    6.87
   2  -4  -6  457.08    6.55
   2  -4  -6  380.39    5.82
   2   4  -6  284.94    6.30
  -2  -4   5  348.51    6.23
  -2  -4   5  347.68    5.76
  -2   4   5  366.39    6.30
   2  -4  -5  474.52    6.05
   2  -4  -5  347.90    5.07
   2   4  -5  274.91    5.91
  -2  -4   4   67.66    2.73
  -2  -4   4   62.06    2.41
  -2   4   4   74.29    2.69
   2  -4  -4   90.76    2.40
   2  -4  -4   68.97    2.05
   2   4  -4   53.51    2.61
  -2  -4   3  236.37    4.85
  -2  -4   3  202.96    4.11
  -2   4   3  244.50    4.38
   2  -4  -3  225.18    3.10
   2   4  -3  196.15    4.68
   2   4  -3  189.33    4.58
  -2  -4   2  336.75    5.67
  -2  -4   2  274.64    4.65
  -2   4   2  333.90    4.66
   2  -4  -2  338.15    2.83
   2   4  -2  252.49    5.16
  -2  -4   1   31.62    1.87
  -2  -4   1   22.26    1.43
  -2   4   1   24.43    1.15
  -2   4   1   24.78    1.24
   2   4  -1   16.06    1.46
  -2  -4   0 1554.00   12.05
  -2  -4   0 1282.50    9.89
  -2   4   0 1539.37    7.91
  -2   4   0 1422.23    8.02
   2   4   0 1210.56   11.05
  -2  -4  -1  284.19    5.27
  -2  -4  -1  253.95    4.48
  -2   4  -1  292.92    3.29
  -2   4  -1  269.14    3.36
   2   4   1  244.29    5.06
  -2  -4  -2  486.79    7.04
  -2  -4  -2  444.68    6.03
  -2   4  -2  499.61    4.61
  -2   4  -2  488.94    4.30
   2   4   2  467.06    7.10
  -2  -4  -3    6.36    1.09
  -2  -4  -3    7.69    1.06
  -2   4  -3    9.39    0.84
  -2   4  -3    8.27    0.73
   2   4   3    7.63    1.20
  -2  -4  -4  298.58    5.95
  -2  -4  -4  257.60    4.90
  -2   4  -4  268.81    4.03
  -2   4  -4  244.58    3.65
   2   4   4  272.73    5.80
  -2  -4  -5  777.75    9.98
  -2  -4  -5  708.52    8.38
  -2   4  -5  709.04    7.17
   2   4   5  706.67    9.66
  -2  -4  -6   74.81    3.34
  -2   4  -6   69.26    2.59
   2   4   6   72.06    3.33
  -2  -4  -7  392.73    7.82
  -2   4  -7  402.45    6.49
   2   4   7  389.46    7.83
  -2  -4  -8   23.61    2.33
  -2   4  -8   18.64    1.87
   2   4   8   17.02    2.00
  -2  -4  -9   39.40    2.99
  -2   4  -9   36.27    2.56
   2   4   9   33.72    2.76
  -2  -4 -10   30.68    2.87
  -2   4 -10   25.24    2.45
   2   4  10   24.64    2.57
  -2  -4 -11  148.55    5.93
  -2   4 -11  124.89    4.98
   2   4  11  113.01    5.15
  -2  -4 -12   92.59    5.02
  -2   4 -12   77.66    4.35
   2   4  12   74.54    4.52
  -2  -4 -13    7.78    2.19
  -2   4 -13    5.20    1.85
  -2  -4 -14   26.27    3.72
  -2   4 -14   22.75    3.18
  -2  -4 -15    1.22    1.72
  -2   4 -15    1.08    1.61
  -2  -5  14    7.38    1.90
  -2   5  14    8.89    2.52
   2   5 -14    7.93    2.43
  -2  -5  13    6.79    1.77
  -2   5  13    5.03    2.06
   2   5 -13    4.21    1.91
  -2  -5  12   15.53    2.40
  -2   5  12   15.32    2.70
   2   5 -12   12.71    2.63
  -2  -5  11  103.38    4.51
  -2   5  11  109.60    5.37
   2   5 -11   88.81    4.90
  -2  -5  10   18.07    2.17
  -2   5  10   16.37    2.52
   2   5 -10   17.27    2.69
  -2  -5   9   25.52    2.31
  -2   5   9   26.16    2.70
   2   5  -9   18.45    2.56
  -2  -5   8   49.08    2.82
  -2   5   8   56.90    3.41
   2   5  -8   43.00    3.14
  -2  -5   7  113.96    3.92
  -2   5   7  129.37    4.65
   2   5  -7   96.41    4.19
  -2  -5   6   66.84    3.08
  -2  -5   6   65.03    2.91
  -2   5   6   77.59    3.46
   2  -5  -6   70.08    2.75
   2   5  -6   58.24    3.22
  -2  -5   5  237.96    5.43
  -2  -5   5  205.58    4.79
  -2   5   5  238.79    5.51
   2  -5  -5  229.84    4.47
   2   5  -5  183.96    5.30
  -2  -5   4  497.70    7.60
  -2  -5   4  418.88    6.58
  -2   5   4  502.90    7.44
   2  -5  -4  480.63    5.86
   2   5  -4  382.46    7.29
   2   5  -4  377.35    7.22
  -2  -5   3  110.49    3.58
  -2  -5   3   91.52    3.06
  -2   5   3  107.77    3.28
   2  -5  -3  106.08    2.49
   2   5  -3   77.48    3.30
  -2  -5   2   52.99    2.51
  -2  -5   2   45.80    2.18
  -2   5   2   56.20    2.26
   2  -5  -2   49.20    1.49
   2   5  -2   40.38    2.42
   2   5  -2   65.81    1.89
  -2  -5   1    5.02    1.04
  -2  -5   1    3.06    0.76
  -2   5   1    4.87    0.83
   2  -5  -1    5.40    0.48
   2   5  -1    5.39    1.17
  -2  -5   0  435.49    6.92
  -2  -5   0  370.64    5.92
  -2   5   0  462.54    5.31
  -2   5   0  446.48    5.50
   2   5   0  375.32    6.87
  -2  -5  -1   13.42    1.45
  -2  -5  -1   11.88    1.30
  -2   5  -1   11.04    0.96
  -2   5  -1   11.43    1.06
   2   5   1   12.02    1.68
  -2  -5  -2  945.12   10.58
  -2  -5  -2  872.15    9.31
  -2   5  -2  851.98    7.36
  -2   5  -2  963.35    7.50
  -2   5  -2  798.41    7.12
   2   5   2  879.65   10.74
  -2  -5  -3  610.90    8.75
  -2  -5  -3  574.30    7.75
  -2   5  -3  537.03    6.06
   2   5   3  613.98    9.20
  -2  -5  -4   20.80    1.90
  -2  -5  -4   20.91    1.68
  -2   5  -4   19.16    1.47
   2   5   4   20.69    1.96
  -2  -5  -5   25.68    2.15
  -2  -5  -5   22.03    1.79
  -2   5  -5   21.15    1.58
   2   5   5   22.40    2.07
  -2  -5  -6   23.26    2.17
  -2  -5  -6   21.00    1.85
  -2   5  -6   22.45    1.77
   2   5   6   21.36    2.18
  -2  -5  -7  246.22    6.53
  -2   5  -7  196.61    4.84
   2   5   7  224.67    6.42
  -2  -5  -8   53.84    3.36
  -2   5  -8   45.95    2.69
   2   5   8   42.93    3.14
  -2  -5  -9   34.68    2.94
  -2   5  -9   30.15    2.45
   2   5   9   30.67    2.91
  -2  -5 -10   25.81    2.88
  -2   5 -10   20.18    2.28
   2   5  10   20.25    2.83
  -2  -5 -11   17.27    2.70
  -2   5 -11   15.85    2.34
   2   5  11   16.86    2.65
  -2  -5 -12    8.83    2.24
  -2   5 -12    4.99    1.76
   2   5  12    6.26    1.98
  -2  -5 -13   50.71    4.59
  -2   5 -13   36.59    3.63
   2   5  13   38.30    3.81
  -2   5 -14   22.03    3.29
  -2  -6  13    8.19    2.02
  -2   6  13    6.93    2.31
   2   6 -13    9.63    2.46
  -2  -6  12    2.84    1.40
  -2   6  12    2.76    1.75
   2   6 -12    2.82    1.71
  -2  -6  11   15.63    2.40
  -2   6  11   13.95    2.65
   2   6 -11   14.28    2.66
  -2  -6  10   72.01    3.88
  -2   6  10   77.07    4.58
   2   6 -10   58.82    4.13
  -2  -6   9    4.90    1.39
  -2   6   9    7.74    1.95
   2   6  -9    5.47    1.73
  -2  -6   8   79.05    3.68
  -2   6   8   97.32    4.58
   2   6  -8   68.24    3.97
  -2  -6   7  174.06    5.10
  -2   6   7  184.05    5.85
   2  -6  -7  184.68    5.00
   2   6  -7  138.73    5.32
  -2  -6   6    1.61    0.85
  -2   6   6    1.07    0.97
   2  -6  -6    3.14    0.94
   2   6  -6    1.93    1.14
   2   6  -6    1.94    1.05
  -2  -6   5   27.86    2.09
  -2   6   5   32.26    2.39
   2  -6  -5   28.94    1.86
   2   6  -5   23.57    2.31
   2   6  -5   23.53    2.29
  -2  -6   4   36.33    2.28
  -2   6   4   42.17    2.52
   2  -6  -4   42.26    2.03
   2   6  -4   37.77    2.76
  -2  -6   3   44.00    2.42
  -2   6   3   60.63    2.79
   2   6  -3   44.88    2.89
  -2  -6   2  217.17    5.24
  -2  -6   2  174.12    4.52
  -2   6   2  213.37    4.81
   2   6  -2  155.93    4.96
  -2  -6   1  263.83    5.76
  -2  -6   1  220.20    5.05
  -2   6   1  265.11    5.13
   2   6  -1  203.94    5.61
  -2  -6   0  346.26    6.62
  -2  -6   0  297.01    5.85
  -2   6   0  344.60    5.66
   2   6   0  308.96    6.88
  -2  -6  -1   92.24    3.54
  -2  -6  -1   90.81    3.34
  -2   6  -1   84.92    2.84
   2   6   1   85.47    3.76
  -2  -6  -2   21.32    1.89
  -2  -6  -2   19.77    1.76
  -2   6  -2   15.63    1.40
   2   6   2   21.37    2.16
  -2  -6  -3   24.71    2.06
  -2  -6  -3   19.32    1.80
  -2   6  -3   17.84    1.54
  -2   6  -3   17.19    1.48
   2   6   3   21.90    2.19
  -2  -6  -4   49.35    2.90
  -2  -6  -4   47.64    2.66
  -2   6  -4   41.88    2.21
   2   6   4   47.06    3.08
  -2  -6  -5  109.07    4.29
  -2  -6  -5   93.70    3.70
  -2   6  -5   80.88    3.07
   2   6   5   93.51    4.27
  -2  -6  -6   72.53    3.74
  -2  -6  -6   62.78    3.20
  -2   6  -6   55.40    2.75
   2   6   6   70.52    3.91
  -2  -6  -7   49.27    3.29
  -2   6  -7   44.93    2.67
   2   6   7   57.29    3.65
  -2  -6  -8   12.32    2.11
  -2   6  -8    9.45    1.65
   2   6   8   11.19    2.20
  -2  -6  -9   13.77    2.48
  -2   6  -9   11.16    1.89
   2   6   9   12.71    2.28
  -2   6 -10    4.35    1.47
   2   6  10    3.21    1.53
  -2   6 -11   29.94    3.01
   2   6  11   34.87    3.64
  -2   6 -12   35.87    3.39
   2   6  12   37.61    3.79
  -2   6 -13    4.27    1.77
   2   6  13    4.31    1.98
   2   6  13    4.70    1.50
  -2  -7  12    0.87    1.21
  -2   7  12    1.65    1.77
   2   7 -12    2.39    1.65
  -2  -7  11    5.27    1.65
  -2   7  11    4.42    1.88
   2   7 -11    5.12    1.85
  -2  -7  10    6.64    1.71
  -2   7  10    6.59    2.08
   2   7 -10    3.29    1.66
  -2  -7   9   25.51    2.60
  -2   7   9   29.07    3.10
   2   7  -9   20.35    2.95
  -2  -7   8   21.46    2.35
  -2   7   8   23.80    2.82
   2   7  -8   17.14    2.67
   2   7  -8   16.03    2.59
  -2  -7   7   20.65    2.21
  -2   7   7   23.07    2.61
   2  -7  -7   22.51    2.14
   2   7  -7   17.87    2.63
   2   7  -7   14.25    2.30
  -2  -7   6    5.82    1.34
  -2   7   6    6.94    1.64
   2   7  -6    6.67    1.75
  -2  -7   5   20.00    2.03
  -2   7   5   17.87    2.09
   2   7  -5   15.64    2.32
  -2  -7   4   95.96    3.80
  -2   7   4  112.39    4.30
   2   7  -4   92.56    4.34
  -2  -7   3    4.46    1.14
  -2   7   3    4.92    1.23
   2   7  -3    4.63    1.40
  -2  -7   2    7.08    1.36
  -2   7   2    6.48    1.30
   2   7  -2    5.42    1.47
  -2  -7   1   71.62    3.28
  -2   7   1   84.41    3.35
   2   7  -1   70.60    3.79
  -2  -7   0   15.27    1.89
  -2   7   0   20.09    1.87
   2   7   0   21.02    2.68
  -2  -7  -1  412.75    7.59
  -2   7  -1  435.90    7.08
   2   7   1  434.92    8.99
  -2  -7  -2  205.88    5.50
  -2   7  -2  188.71    4.71
   2   7   2  205.55    6.32
  -2  -7  -3   22.96    2.16
  -2   7  -3   16.21    1.80
   2   7   3   22.18    2.47
  -2  -7  -4  128.48    4.54
  -2   7  -4  102.50    3.65
   2   7   4  131.67    5.28
  -2  -7  -5   19.25    2.07
  -2   7  -5   17.27    1.84
  -2   7  -5   16.19    1.82
   2   7   5   19.99    2.46
  -2  -7  -6    1.02    0.88
  -2   7  -6    0.41    0.86
   2   7   6    0.38    1.05
  -2  -7  -7   11.74    1.91
  -2   7  -7    9.44    1.71
   2   7   7   10.34    2.22
  -2   7  -8   90.25    4.08
   2   7   8  108.61    5.47
  -2   7  -9   17.43    2.36
   2   7   9   21.69    3.17
  -2   7 -10   12.83    2.22
   2   7  10   11.77    2.57
  -2   7 -11    5.56    1.73
   2   7  11    9.65    2.44
   2   7  11    9.34    1.63
  -2   7 -12   13.10    2.56
  -2  -8  10    0.88    1.22
  -2   8  10    3.42    1.93
   2   8 -10    1.26    1.48
   2   8 -10    3.93    1.80
  -2  -8   9    7.31    1.86
  -2   8   9    9.88    2.36
   2   8  -9    6.97    2.11
   2   8  -9    6.52    2.15
  -2  -8   8   29.37    2.79
  -2   8   8   32.45    3.39
   2   8  -8   23.17    3.22
  -2  -8   7    2.63    1.29
  -2   8   7    2.82    1.48
   2   8  -7    4.33    1.74
  -2  -8   6   16.51    2.35
  -2   8   6   20.86    2.57
   2   8  -6   15.27    2.63
  -2  -8   5   10.71    1.80
  -2   8   5   16.19    2.38
   2   8  -5   11.38    2.27
  -2  -8   4   16.26    2.03
  -2   8   4   21.00    2.29
   2   8  -4   17.13    2.62
  -2  -8   3   -0.20    0.75
  -2   8   3    1.51    0.96
   2   8  -3    0.86    1.17
  -2  -8   2   39.78    2.83
  -2   8   2   52.24    3.11
   2   8  -2   43.14    3.44
  -2  -8   1  193.16    5.68
  -2   8   1  240.91    6.12
   2   8  -1  196.58    6.58
  -2  -8   0   70.09    3.61
  -2   8   0   70.78    3.47
   2   8   0   67.04    4.07
  -2  -8  -1   33.48    2.64
  -2   8  -1   37.43    2.63
   2   8   1   36.89    3.18
  -2  -8  -2   30.12    2.57
  -2   8  -2   32.97    2.47
   2   8   2   32.52    3.06
  -2  -8  -3   23.00    2.33
  -2   8  -3   26.11    2.27
   2   8   3   27.64    2.92
  -2  -8  -4   43.61    3.08
  -2   8  -4   37.67    2.63
   2   8   4   45.74    3.57
  -2  -8  -5  153.93    5.46
  -2   8  -5  123.38    4.51
   2   8   5  160.37    6.41
  -2  -8  -6   53.59    3.50
  -2   8  -6   50.95    3.15
   2   8   6   62.79    4.36
  -2  -8  -7    5.34    1.57
  -2   8  -7    5.27    1.48
  -2   8  -7    4.01    1.35
   2   8   7    5.86    1.94
  -2   8  -8   16.70    2.45
   2   8   8   16.98    3.01
  -2   8  -9   -0.10    1.07
   2   8   9   -0.73    1.15
  -2   8 -10    5.20    1.63
   2   8  10    8.29    2.43
  -2   9   8   38.22    3.77
   2   9  -8   23.07    3.47
  -2  -9   7   13.37    2.54
  -2   9   7   15.03    2.76
   2   9  -7   11.74    2.56
  -2  -9   6   55.41    3.71
  -2   9   6   80.44    4.69
   2   9  -6   57.36    4.24
  -2  -9   5   11.20    2.00
  -2   9   5   15.23    2.56
   2   9  -5    9.41    2.22
  -2  -9   4   19.85    2.39
  -2   9   4   19.62    2.68
   2   9  -4   20.11    2.93
  -2  -9   3   19.55    2.35
  -2   9   3   27.06    2.68
   2   9  -3   19.00    2.82
  -2  -9   2    4.42    1.39
  -2   9   2    7.48    1.75
   2   9  -2    4.79    1.82
  -2  -9   1    5.85    1.59
  -2   9   1    6.93    1.63
   2   9  -1    5.14    1.77
  -2  -9   0   38.25    3.00
  -2   9   0   46.07    3.19
   2   9   0   38.84    3.53
  -2  -9  -1   87.22    4.31
  -2   9  -1   98.06    4.35
   2   9   1   97.37    5.16
  -2  -9  -2   32.25    2.87
  -2   9  -2   35.53    2.84
   2   9   2   40.91    3.65
  -2  -9  -3    3.29    1.27
  -2   9  -3    0.27    1.01
   2   9   3    2.12    1.43
  -2  -9  -4    4.22    1.47
  -2   9  -4    5.24    1.46
   2   9   4    6.46    1.90
  -2  -9  -5    1.86    1.14
  -2   9  -5    3.43    1.40
   2   9   5    2.69    1.63
  -2  -9  -6    7.21    1.80
  -2   9  -6    6.11    1.54
   2   9   6    6.96    2.07
  -2  -9  -7   22.44    2.71
  -2   9  -7   22.40    2.59
   2   9   7   28.12    3.92
  -2  10   4   17.99    2.80
   2  10  -4   13.64    2.83
  -2  10   3   26.88    2.97
   2  10  -3   28.26    3.48
  -2 -10   2   24.91    2.77
  -2  10   2   24.86    2.88
   2  10  -2   23.20    3.40
  -2 -10   1   40.08    3.29
  -2  10   1   52.52    3.67
   2  10  -1   50.37    4.23
  -2 -10   0    1.30    1.16
  -2  10   0    1.46    1.25
   2  10   0    0.54    1.45
  -2 -10  -1   -0.02    0.88
  -2  10  -1    0.14    1.07
   2  10   1    0.44    1.25
  -2 -10  -2    2.70    1.39
  -2  10  -2    3.26    1.37
   2  10   2    3.35    1.74
  -2 -10  -3   18.13    2.63
  -2  10  -3   17.35    2.50
   2  10   3   19.56    3.17
  -3   0  16    5.48    1.71
  -3   0  15    3.78    1.85
  -3   0  15    5.49    1.62
   3   0 -15    4.39    1.90
  -3   0  14   44.48    3.85
  -3   0  14   53.35    3.36
   3   0 -14   41.53    3.78
  -3   0  13   55.05    3.98
  -3   0  13   59.86    3.35
   3   0 -13   46.06    3.77
  -3   0  12  133.78    5.66
  -3   0  12  140.76    4.64
   3   0 -12  125.48    5.39
  -3   0  11  211.14    6.55
  -3   0  11  242.41    5.65
   3   0 -11  207.26    6.33
  -3   0  10    4.20    1.37
  -3   0  10    4.69    1.10
   3   0 -10    4.54    1.32
  -3   0   9  139.21    4.78
  -3   0   9  150.00    3.96
   3   0  -9  136.43    4.56
  -3   0   8  373.58    7.24
  -3   0   8  394.85    5.92
   3   0  -8  346.40    6.72
  -3   0   7   64.68    2.96
  -3   0   7   65.46    2.32
   3   0  -7   63.64    2.79
  -3   0   6  210.11    4.80
  -3   0   6  215.46    3.75
   3   0  -6  186.27    4.29
  -3   0   5  130.19    3.53
  -3   0   5  118.84    2.53
   3   0  -5  116.00    3.15
  -3   0   4  162.03    3.62
  -3   0   4  147.86    2.46
   3   0  -4  138.15    3.15
  -3   0   3 1068.65    8.47
  -3   0   3  999.57    5.17
   3   0  -3  891.70    7.20
  -3   0   2  118.97    2.64
   3   0  -2  106.77    2.28
   3   0  -2  102.93    2.24
  -3   0   1   31.01    1.30
   3   0  -1   28.11    1.09
  -3   0   0 1946.17   13.11
   3   0   0 1838.64   10.28
  -3   0  -1  257.44    3.38
  -3   0  -2  618.48    5.47
   3   0   2  557.19    4.75
  -3   0  -3 1644.99    9.62
   3   0   3 1470.98    7.74
  -3   0  -4 1094.25    8.56
   3   0   4  990.36    7.01
  -3   0  -5  148.95    3.48
   3   0   5  134.94    2.88
  -3   0  -6  575.09    7.38
   3   0   6  503.81    6.01
  -3   0  -7  391.22    6.61
   3   0   7  314.58    5.17
  -3   0  -8  155.85    4.56
   3   0   8  117.81    3.55
  -3   0  -9    5.16    1.31
  -3   0 -10  159.48    5.27
  -3   0 -11  225.73    6.60
  -3   0 -12  184.26    6.42
  -3   0 -13    1.83    1.46
  -3   0 -14    2.98    1.63
  -3   0 -15    1.69    1.81
  -3  -1  16    3.65    1.56
  -3   1  16    3.32    1.91
  -3   1  16    3.04    1.37
   3   1 -16    3.84    2.06
  -3  -1  15    2.66    1.41
  -3   1  15    1.29    1.57
  -3   1  15    1.99    1.18
   3   1 -15   -0.08    1.43
  -3  -1  14   74.03    4.74
  -3  -1  14   87.69    4.27
  -3   1  14   81.89    5.05
  -3   1  14   86.24    3.91
   3   1 -14   71.68    4.73
  -3  -1  13   19.05    2.87
  -3  -1  13   20.13    2.33
  -3   1  13   15.00    2.62
  -3   1  13   20.10    2.18
   3  -1 -13   17.67    2.74
   3   1 -13   19.19    2.86
  -3  -1  12   62.07    4.03
  -3  -1  12   72.67    3.56
  -3   1  12   69.09    4.26
  -3   1  12   71.56    3.28
   3  -1 -12   64.47    3.92
   3   1 -12   59.29    3.88
  -3  -1  11  107.82    4.76
  -3  -1  11  109.84    4.06
  -3   1  11  110.64    4.97
  -3   1  11  112.10    3.74
   3  -1 -11  110.70    4.71
   3   1 -11  100.20    4.64
  -3  -1  10    7.61    1.70
  -3  -1  10    6.77    1.30
  -3   1  10    5.68    1.49
  -3   1  10    6.47    1.17
   3  -1 -10    6.15    1.48
   3   1 -10    4.78    1.36
  -3  -1   9   10.30    1.81
  -3  -1   9    8.85    1.33
  -3   1   9   10.30    1.75
  -3   1   9    8.69    1.20
   3  -1  -9    9.46    1.59
   3   1  -9    7.80    1.53
  -3  -1   8   19.96    2.01
  -3  -1   8   24.19    1.73
  -3   1   8   27.02    2.21
  -3   1   8   26.16    1.55
   3  -1  -8   22.55    1.93
   3   1  -8   21.29    1.94
  -3  -1   7  857.18   10.39
  -3  -1   7  930.51    9.02
  -3   1   7  969.62   10.87
  -3   1   7  935.55    7.61
   3  -1  -7  851.63    9.54
   3   1  -7  806.43    9.87
  -3  -1   6  138.79    4.01
  -3  -1   6  146.60    3.39
  -3   1   6  161.75    4.19
  -3   1   6  156.21    2.64
  -3   1   6  145.79    2.67
   3  -1  -6  150.29    3.74
   3   1  -6  128.62    3.75
  -3  -1   5   71.49    2.22
  -3   1   5   87.34    2.86
  -3   1   5   82.15    1.54
  -3   1   5   74.35    1.55
   3  -1  -5   69.43    2.35
   3   1  -5   64.94    2.53
  -3  -1   4  614.37    7.32
  -3  -1   4  582.22    5.77
  -3   1   4  721.88    7.35
   3  -1  -4  556.43    5.84
   3   1  -4  533.18    6.60
  -3  -1   3  252.12    4.44
  -3  -1   3  236.05    3.40
  -3   1   3  300.96    4.30
   3  -1  -3  222.39    3.24
   3   1  -3  216.79    3.96
  -3  -1   2 1421.72    9.90
  -3  -1   2 1375.65    7.48
  -3   1   2 1765.56    9.17
   3   1  -2 1214.12    8.75
   3   1  -2 1161.90    8.58
  -3  -1   1 1045.63    8.15
  -3  -1   1 1045.02    5.96
  -3   1   1  867.60    5.37
  -3   1   1 1287.91    6.83
   3   1  -1  884.97    7.13
  -3  -1   0 1660.75   10.05
  -3  -1   0 1551.94    8.90
  -3   1   0 1760.61    6.99
  -3   1   0 1180.76    5.44
   3   1   0 1308.21    8.42
  -3  -1  -1 1520.28    9.68
  -3   1  -1 1390.32    5.94
  -3   1  -1 1260.17    5.34
   3   1   1 1316.78    8.44
  -3  -1  -2  653.16    6.57
  -3   1  -2  692.54    4.62
  -3   1  -2  607.63    4.11
   3   1   2  599.45    5.85
  -3  -1  -3 1583.39   10.72
  -3   1  -3 1587.41    8.06
  -3   1  -3 1448.48    7.37
   3   1   3 1417.59    9.41
  -3  -1  -4  138.26    3.41
  -3   1  -4  147.58    2.85
   3   1   4  134.70    3.11
  -3  -1  -5  246.21    4.83
  -3   1  -5  254.69    4.20
   3   1   5  219.16    4.20
  -3  -1  -6  165.45    4.26
  -3   1  -6  190.22    4.05
   3   1   6  154.83    3.79
  -3  -1  -7  567.53    8.35
  -3   1  -7  594.96    7.77
   3   1   7  483.84    7.05
  -3  -1  -8 1084.53   12.25
  -3   1  -8 1154.39   11.72
   3   1   8  960.09   10.50
  -3  -1  -9  108.77    4.27
  -3   1  -9  123.52    4.29
   3   1   9   91.47    3.59
  -3  -1 -10   19.01    2.53
  -3   1 -10   16.84    2.10
  -3  -1 -11   16.04    2.39
  -3   1 -11   14.99    2.18
  -3  -1 -12   23.43    2.75
  -3   1 -12   22.46    2.70
  -3  -1 -13    9.72    2.15
  -3   1 -13    9.60    2.17
  -3  -1 -14   54.38    4.25
  -3   1 -14   52.06    4.17
  -3  -1 -15   85.21    5.39
  -3   1 -15   83.61    5.33
   3   2 -16    2.05    1.79
  -3  -2  15   36.17    3.29
  -3   2  15   35.22    4.00
  -3   2  15   35.40    2.69
   3   2 -15   33.83    3.90
  -3  -2  14   41.60    3.29
  -3   2  14   34.92    3.65
  -3   2  14   37.29    2.62
   3   2 -14   36.50    3.78
  -3  -2  13    7.68    2.06
  -3  -2  13    4.15    1.36
  -3   2  13    5.24    1.82
  -3   2  13    6.09    1.32
   3   2 -13    5.28    1.85
  -3  -2  12    1.70    1.34
  -3  -2  12    2.07    1.08
  -3   2  12    2.99    1.52
  -3   2  12    2.50    0.95
   3   2 -12    1.20    1.21
  -3  -2  11   30.13    2.87
  -3  -2  11   36.80    2.63
  -3   2  11   30.36    2.94
  -3   2  11   35.93    2.11
   3  -2 -11   34.19    2.82
   3   2 -11   27.46    2.83
  -3  -2  10  122.37    4.80
  -3  -2  10  132.87    4.36
  -3   2  10  135.26    5.11
  -3   2  10  138.31    3.50
   3  -2 -10  137.30    4.82
   3   2 -10  115.22    4.74
  -3  -2   9    0.27    0.85
  -3  -2   9    0.82    0.72
  -3   2   9    0.86    0.89
  -3   2   9    0.38    0.51
   3  -2  -9    0.90    0.86
   3   2  -9   -0.38    0.70
  -3  -2   8  351.32    7.20
  -3  -2   8  388.65    6.56
  -3   2   8  408.54    7.71
  -3   2   8  389.12    4.67
   3  -2  -8  407.51    7.05
   3   2  -8  334.24    7.06
  -3  -2   7   55.16    2.86
  -3  -2   7   59.79    2.53
  -3   2   7   60.49    2.89
  -3   2   7   53.23    1.38
  -3   2   7   56.95    1.54
   3  -2  -7   56.33    2.55
   3   2  -7   49.56    2.71
  -3  -2   6   46.58    2.48
  -3  -2   6   46.56    2.12
  -3   2   6   49.87    2.44
   3  -2  -6   46.61    2.11
   3   2  -6   39.08    2.28
  -3  -2   5   40.51    2.21
  -3  -2   5   44.62    1.95
  -3   2   5   50.96    2.25
   3  -2  -5   46.56    1.87
   3   2  -5   36.15    2.06
  -3  -2   4  145.99    3.82
  -3  -2   4  144.75    3.24
  -3   2   4  182.95    3.74
   3  -2  -4  131.19    2.69
   3   2  -4  125.85    3.52
  -3  -2   3  502.57    6.71
  -3  -2   3  453.14    5.40
  -3   2   3  614.48    6.05
   3  -2  -3  517.15    3.75
   3   2  -3  440.76    6.20
  -3  -2   2  381.55    5.66
  -3  -2   2  325.22    4.38
  -3   2   2  467.25    4.37
  -3   2   2  412.32    4.29
   3   2  -2  273.18    4.71
  -3  -2   1 2203.74   13.20
  -3  -2   1 1917.88   10.21
  -3   2   1 1980.36    7.18
  -3   2   1 2242.71   10.28
   3   2  -1 1665.29   11.23
  -3  -2   0  373.08    5.42
  -3  -2   0  325.90    4.14
   3   2   0  309.82    4.81
  -3  -2  -1  365.34    5.40
  -3  -2  -1  342.20    4.20
   3   2   1  323.78    4.94
  -3  -2  -2   35.80    1.82
  -3  -2  -2   37.11    1.44
   3   2   2   31.37    1.64
  -3  -2  -3  494.70    6.69
  -3   2  -3  539.62    3.93
  -3   2  -3  428.26    3.30
   3   2   3  458.49    6.18
  -3  -2  -4 1524.79   12.25
  -3   2  -4 1742.17    8.79
  -3   2  -4 1367.75    7.41
   3   2   4 1450.73   11.43
  -3  -2  -5  573.97    7.93
  -3   2  -5  647.39    6.28
  -3   2  -5  512.35    5.34
   3   2   5  538.34    7.32
  -3  -2  -6  144.58    4.26
  -3   2  -6  153.43    3.50
   3   2   6  119.88    3.68
  -3  -2  -7  102.52    3.86
  -3   2  -7  117.29    3.43
   3   2   7   90.83    3.41
  -3  -2  -8   47.38    2.92
  -3   2  -8   45.20    2.46
   3   2   8   39.04    2.45
  -3  -2  -9  147.23    5.16
  -3   2  -9  156.62    4.69
   3   2   9  127.76    4.47
  -3  -2 -10  122.67    5.01
  -3   2 -10  131.91    4.67
   3   2  10  107.06    4.77
  -3  -2 -11  164.70    6.02
  -3   2 -11  186.62    5.90
  -3  -2 -12   19.98    2.79
  -3   2 -12   20.19    2.70
  -3  -2 -13   20.29    3.11
  -3   2 -13   18.16    2.84
  -3  -2 -14   25.99    3.65
  -3   2 -14   18.44    3.01
  -3  -2 -15    4.98    2.20
  -3   2 -15    6.11    2.19
  -3  -3  15    3.31    1.53
  -3   3  15    3.00    1.95
   3   3 -15    1.93    1.82
  -3  -3  14    9.29    1.99
  -3   3  14    6.33    2.14
  -3   3  14   10.40    1.41
   3   3 -14    8.82    2.36
  -3  -3  13   12.48    2.10
  -3   3  13   13.99    2.61
  -3   3  13   14.79    1.54
   3   3 -13   12.01    2.51
  -3  -3  12    4.16    1.39
  -3   3  12    3.11    1.57
  -3   3  12    3.42    0.85
   3   3 -12    3.65    1.58
  -3  -3  11   74.53    4.11
  -3  -3  11   82.40    3.83
  -3   3  11   77.84    4.41
  -3   3  11   78.09    2.43
   3   3 -11   64.29    3.98
  -3  -3  10   19.29    2.28
  -3  -3  10   21.91    2.13
  -3   3  10   18.60    2.53
  -3   3  10   20.23    1.22
   3   3 -10   17.57    2.42
  -3  -3   9   32.28    2.61
  -3  -3   9   35.91    2.41
  -3   3   9   37.47    2.82
   3   3  -9   29.26    2.60
  -3  -3   8   -0.26    0.75
  -3  -3   8    0.97    0.74
  -3   3   8    3.28    1.17
   3   3  -8    1.26    0.97
  -3  -3   7   13.11    1.88
  -3  -3   7   11.15    1.50
  -3   3   7   10.00    1.55
   3  -3  -7   11.83    1.38
   3   3  -7    7.06    1.39
  -3  -3   6  202.44    5.19
  -3  -3   6  187.85    4.41
  -3   3   6  228.19    5.15
   3  -3  -6  204.18    4.18
   3   3  -6  167.96    4.83
  -3  -3   5  174.86    4.62
  -3  -3   5  162.79    3.92
  -3   3   5  182.33    4.26
   3  -3  -5  168.31    3.38
   3   3  -5  132.39    4.09
  -3  -3   4  174.03    3.88
  -3   3   4  218.95    4.23
   3  -3  -4  198.14    3.03
   3   3  -4  156.53    4.24
  -3  -3   3  198.18    4.56
  -3  -3   3  167.21    3.66
  -3   3   3  211.41    3.71
   3  -3  -3  176.93    2.08
   3   3  -3  151.71    4.03
   3   3  -3  150.11    4.00
  -3  -3   2   80.57    2.49
  -3   3   2  113.48    2.27
  -3   3   2   98.14    2.22
   3   3  -2   62.62    2.56
  -3  -3   1   74.79    2.74
  -3  -3   1   62.44    2.16
  -3   3   1   83.77    1.60
  -3   3   1   73.79    1.59
   3   3  -1   55.82    2.39
  -3  -3   0   43.42    2.14
  -3  -3   0   37.81    1.69
  -3   3   0   44.67    0.89
   3   3   0   36.00    1.94
  -3  -3  -1  346.13    5.82
  -3  -3  -1  293.97    4.57
   3   3   1  297.25    5.35
  -3  -3  -2  174.61    3.57
   3   3   2  193.20    4.40
  -3  -3  -3  517.96    7.48
  -3  -3  -3  502.74    6.14
  -3   3  -3  689.83    4.17
  -3   3  -3  447.22    3.09
   3   3   3  533.43    7.46
  -3  -3  -4    2.72    0.82
  -3   3  -4    4.88    0.63
  -3   3  -4    3.36    0.52
   3   3   4    3.93    0.94
  -3  -3  -5  100.72    3.63
  -3   3  -5  124.70    2.75
  -3   3  -5   83.48    2.14
   3   3   5   96.70    3.46
  -3  -3  -6  116.30    4.08
  -3   3  -6  141.25    3.33
   3   3   6  118.21    3.98
  -3  -3  -7  128.88    4.51
  -3   3  -7  146.10    3.77
   3   3   7  122.16    4.23
  -3  -3  -8  329.20    7.47
  -3   3  -8  328.91    6.13
   3   3   8  278.03    6.61
  -3  -3  -9  228.44    6.59
  -3   3  -9  255.56    5.93
   3   3   9  199.93    5.91
  -3  -3 -10    2.04    1.36
  -3   3 -10    2.50    1.17
   3   3  10    1.50    1.07
  -3  -3 -11   60.76    4.00
  -3   3 -11   59.28    3.60
  -3  -3 -12    3.31    1.58
  -3   3 -12    4.13    1.51
  -3  -3 -13   13.24    2.62
  -3   3 -13   11.31    2.31
  -3  -3 -14   87.90    5.56
  -3   3 -14   86.17    5.05
  -3  -3 -15    9.21    2.53
  -3   3 -15    5.69    2.14
   3   4 -15    9.18    2.59
  -3  -4  14   12.81    2.31
  -3   4  14   13.31    2.87
   3   4 -14   12.83    2.89
  -3  -4  13   -0.32    1.06
  -3   4  13    1.32    1.49
   3   4 -13    1.39    1.42
  -3  -4  12   14.71    2.23
  -3   4  12   14.10    2.63
   3   4 -12   11.43    2.39
  -3  -4  11    0.00    0.88
  -3   4  11    1.30    1.35
   3   4 -11   -0.31    1.07
  -3  -4  10   39.24    2.77
  -3   4  10   46.96    3.49
   3   4 -10   35.93    3.10
  -3  -4   9   28.56    2.55
  -3  -4   9   26.46    2.28
  -3   4   9   29.62    2.74
   3   4  -9   22.84    2.56
  -3  -4   8   77.92    3.71
  -3  -4   8   70.50    3.25
  -3   4   8   80.77    3.82
   3   4  -8   62.05    3.55
  -3  -4   7  164.10    5.05
  -3  -4   7  156.15    4.50
  -3   4   7  172.78    5.09
   3   4  -7  129.10    4.73
  -3  -4   6  292.99    6.45
  -3  -4   6  273.37    5.66
  -3   4   6  325.42    6.44
   3   4  -6  236.92    6.07
  -3  -4   5  495.67    8.07
  -3  -4   5  430.24    6.80
  -3   4   5  519.50    7.48
   3  -4  -5  473.98    5.75
   3   4  -5  371.37    7.29
  -3  -4   4  198.89    5.04
  -3  -4   4  168.67    4.16
  -3   4   4  194.26    4.25
   3  -4  -4  180.57    3.07
   3   4  -4  141.81    4.44
   3   4  -4  147.13    4.50
  -3  -4   3  560.10    8.15
  -3  -4   3  473.18    6.70
  -3   4   3  598.67    6.72
   3  -4  -3  502.25    3.92
   3   4  -3  430.72    7.36
  -3  -4   2  289.80    5.79
  -3  -4   2  232.25    4.63
  -3   4   2  297.64    4.05
  -3   4   2  271.43    4.07
   3   4  -2  214.34    5.12
  -3  -4   1  245.43    5.30
  -3  -4   1  209.37    4.35
  -3   4   1  249.48    3.23
  -3   4   1  237.84    3.35
   3   4  -1  177.82    4.62
  -3  -4   0  190.66    4.69
  -3  -4   0  160.51    3.80
  -3   4   0  197.93    2.45
  -3   4   0  181.19    2.53
   3   4   0  156.69    4.33
  -3  -4  -1  239.97    5.29
  -3  -4  -1  198.87    4.23
  -3   4  -1  229.96    2.27
  -3   4  -1  208.52    2.38
   3   4   1  199.60    4.90
  -3  -4  -2   78.60    3.14
  -3  -4  -2   70.32    2.59
  -3   4  -2   80.19    1.52
  -3   4  -2   73.08    1.31
   3   4   2   73.98    3.08
  -3  -4  -3   87.08    3.40
  -3  -4  -3   77.49    2.76
  -3   4  -3   98.76    1.92
  -3   4  -3   82.63    1.62
   3   4   3   89.19    3.44
  -3  -4  -4  412.54    7.45
  -3  -4  -4  386.18    6.18
  -3   4  -4  457.86    4.71
  -3   4  -4  357.11    3.91
   3   4   4  401.96    7.34
  -3  -4  -5   73.67    3.36
  -3   4  -5   82.37    2.37
   3   4   5   70.57    3.27
  -3  -4  -6  251.51    6.31
  -3   4  -6  278.97    4.75
   3   4   6  246.92    6.18
  -3  -4  -7   26.29    2.40
  -3   4  -7   30.99    1.99
   3   4   7   28.62    2.44
  -3  -4  -8  123.93    4.94
  -3   4  -8  131.73    4.02
   3   4   8  120.10    4.76
  -3  -4  -9   47.29    3.36
  -3   4  -9   53.08    2.92
   3   4   9   44.44    3.19
  -3  -4 -10   45.68    3.48
  -3   4 -10   47.03    3.00
   3   4  10   39.09    3.10
  -3  -4 -11   93.15    5.02
  -3   4 -11   99.86    4.45
   3   4  11   88.22    4.64
  -3  -4 -12   11.01    2.42
  -3   4 -12    9.57    2.02
  -3  -4 -13   59.10    4.65
  -3   4 -13   49.00    3.89
  -3  -4 -14    5.97    2.27
  -3   4 -14    4.42    1.86
  -3  -5  14    6.52    1.83
  -3   5  14    7.16    2.33
   3   5 -14    4.40    1.97
  -3  -5  13   13.27    2.30
  -3   5  13   15.88    2.90
   3   5 -13   14.30    2.87
  -3  -5  12   38.18    3.22
  -3   5  12   38.84    3.76
   3   5 -12   32.91    3.62
  -3  -5  11   35.75    3.02
  -3   5  11   41.33    3.69
   3   5 -11   33.45    3.50
  -3  -5  10   32.95    2.80
  -3   5  10   35.06    3.18
   3   5 -10   25.77    2.96
  -3  -5   9    2.84    1.16
  -3   5   9    4.57    1.56
   3   5  -9    1.74    1.25
  -3  -5   8   30.31    2.44
  -3   5   8   34.12    2.76
   3   5  -8   26.83    2.70
  -3  -5   7  160.60    5.21
  -3  -5   7  134.91    4.46
  -3   5   7  167.60    5.26
   3   5  -7  124.20    4.94
  -3  -5   6  176.33    5.27
  -3  -5   6  146.73    4.48
  -3   5   6  166.94    4.93
   3  -5  -6  162.57    4.03
   3   5  -6  122.01    4.77
  -3  -5   5   48.29    2.86
  -3  -5   5   41.30    2.44
  -3   5   5   49.28    2.63
   3  -5  -5   46.00    2.01
   3   5  -5   37.60    2.80
   3   5  -5   38.41    2.74
  -3  -5   4  336.88    6.87
  -3  -5   4  296.25    5.92
  -3   5   4  353.42    6.16
   3   5  -4  255.58    6.33
  -3  -5   3   83.25    3.46
  -3  -5   3   66.85    2.84
  -3   5   3   84.85    2.86
   3   5  -3   54.00    2.98
  -3  -5   2   74.91    3.28
  -3  -5   2   60.89    2.69
  -3   5   2   77.21    2.52
   3   5  -2   54.92    2.96
  -3  -5   1  159.25    4.63
  -3  -5   1  132.65    3.84
  -3   5   1  158.62    3.26
   3   5  -1  123.45    4.27
  -3  -5   0   20.93    1.90
  -3  -5   0   19.75    1.70
  -3   5   0   27.85    1.28
  -3   5   0   26.48    1.35
   3   5   0   19.75    2.00
  -3  -5  -1  337.83    6.76
  -3  -5  -1  311.85    5.84
  -3   5  -1  326.25    3.78
  -3   5  -1  288.59    3.81
   3   5   1  279.45    6.39
  -3  -5  -2  776.27   10.37
  -3  -5  -2  708.71    8.84
  -3   5  -2  701.33    5.83
  -3   5  -2  782.86    5.77
  -3   5  -2  649.65    5.63
   3   5   2  719.69   10.26
  -3  -5  -3  196.10    4.77
  -3   5  -3  191.19    3.26
   3   5   3  213.50    5.78
  -3  -5  -4   68.27    3.34
  -3  -5  -4   60.78    2.78
  -3   5  -4   56.03    2.00
   3   5   4   63.53    3.31
  -3  -5  -5  182.59    5.52
  -3  -5  -5  177.09    4.75
  -3   5  -5  172.80    3.66
   3   5   5  176.43    5.53
  -3  -5  -6   29.00    2.50
  -3   5  -6   26.47    1.83
   3   5   6   25.97    2.42
  -3  -5  -7  130.02    5.05
  -3   5  -7  122.39    3.71
   3   5   7  132.06    5.09
  -3  -5  -8   49.81    3.44
  -3   5  -8   49.36    2.71
   3   5   8   51.61    3.46
  -3  -5  -9   71.44    4.19
  -3   5  -9   68.33    3.34
   3   5   9   63.34    3.97
  -3  -5 -10   28.89    3.08
  -3   5 -10   26.24    2.48
   3   5  10   24.35    2.78
  -3  -5 -11    0.74    1.36
  -3   5 -11    0.57    1.07
   3   5  11    0.29    1.08
  -3  -5 -12   66.15    4.67
  -3   5 -12   61.67    3.95
  -3  -5 -13   10.46    2.68
  -3   5 -13    8.64    2.18
  -3  -6  13   -0.08    1.08
  -3   6  13    0.89    1.54
   3   6 -13   -0.21    1.33
  -3  -6  12    1.35    1.32
  -3   6  12    0.24    1.44
   3   6 -12    1.54    1.59
  -3  -6  11   14.04    2.31
  -3   6  11   16.42    2.81
   3   6 -11   11.26    2.51
  -3  -6  10   20.66    2.51
  -3   6  10   26.51    3.20
   3   6 -10   19.51    3.00
  -3  -6   9   53.93    3.43
  -3   6   9   63.98    4.08
   3   6  -9   47.78    3.74
  -3  -6   8  109.80    4.48
  -3   6   8  120.69    5.04
   3   6  -8   93.23    4.79
  -3  -6   7   96.56    4.08
  -3   6   7  117.32    4.72
   3   6  -7   81.12    4.33
   3   6  -7   82.56    4.40
  -3  -6   6    5.11    1.30
  -3   6   6    7.20    1.58
   3   6  -6    7.51    1.79
   3   6  -6    5.51    1.53
  -3  -6   5   18.56    1.91
  -3   6   5   23.29    2.08
   3   6  -5   16.03    2.30
  -3  -6   4   44.24    2.85
  -3  -6   4   39.45    2.52
  -3   6   4   48.00    2.61
   3   6  -4   33.74    2.73
  -3  -6   3  114.29    4.28
  -3  -6   3   97.18    3.69
  -3   6   3  120.91    3.74
   3   6  -3   83.25    3.96
  -3  -6   2  154.93    4.89
  -3  -6   2  127.10    4.14
  -3   6   2  153.66    3.94
   3   6  -2  112.19    4.54
  -3  -6   1  169.94    5.10
  -3  -6   1  134.72    4.24
  -3   6   1  164.80    3.85
   3   6  -1  126.28    4.78
  -3  -6   0   35.86    2.51
  -3  -6   0   27.19    2.11
  -3   6   0   37.08    1.88
   3   6   0   29.74    2.60
  -3  -6  -1   56.77    3.09
  -3  -6  -1   49.72    2.69
  -3   6  -1   53.95    2.12
   3   6   1   49.13    3.12
  -3  -6  -2   42.29    2.77
  -3  -6  -2   40.32    2.48
  -3   6  -2   31.91    1.69
   3   6   2   41.43    2.92
  -3  -6  -3   36.87    2.66
  -3  -6  -3   33.82    2.36
  -3   6  -3   27.54    1.63
   3   6   3   33.69    2.79
  -3  -6  -4  260.64    6.73
  -3  -6  -4  238.59    5.83
  -3   6  -4  208.86    4.19
   3   6   4  244.74    6.82
  -3  -6  -5  185.31    5.88
  -3  -6  -5  167.99    5.03
  -3   6  -5  150.87    3.81
   3   6   5  174.23    5.92
  -3  -6  -6    1.07    0.99
  -3  -6  -6    0.50    0.77
  -3   6  -6    1.54    0.85
   3   6   6    3.34    1.36
  -3  -6  -7   68.62    3.95
  -3   6  -7   56.94    2.81
   3   6   7   58.88    3.82
  -3  -6  -8   31.89    2.97
  -3   6  -8   22.65    2.16
   3   6   8   29.97    3.00
  -3  -6  -9    9.74    2.19
  -3   6  -9    8.85    1.68
   3   6   9    7.61    1.97
  -3  -6 -10    2.50    1.61
  -3   6 -10    5.31    1.53
   3   6  10    4.25    1.76
  -3   6 -11   58.37    3.75
   3   6  11   61.10    4.57
  -3   6 -12   13.49    2.40
  -3  -7  11    9.72    2.12
  -3   7  11   13.24    2.79
   3   7 -11   10.79    2.76
  -3  -7  10   28.74    2.97
  -3   7  10   32.09    3.42
   3   7 -10   25.61    3.65
   3   7 -10   26.09    3.62
  -3  -7   9   11.33    2.07
  -3   7   9   12.68    2.47
   3   7  -9   10.25    2.38
   3   7  -9   10.20    2.32
  -3  -7   8   17.87    2.49
  -3   7   8   16.61    2.61
   3   7  -8   15.42    2.74
   3   7  -8   13.00    2.44
  -3  -7   7   19.28    2.28
  -3   7   7   23.41    2.67
   3   7  -7   13.51    2.41
  -3  -7   6    1.52    0.90
  -3   7   6    4.90    1.45
   3   7  -6    2.63    1.37
  -3  -7   5   40.28    2.82
  -3   7   5   48.75    3.04
   3   7  -5   37.20    3.14
  -3  -7   4  101.29    4.14
  -3   7   4  135.70    4.57
   3   7  -4   89.84    4.54
  -3  -7   3   16.14    1.96
  -3   7   3   21.77    2.00
   3   7  -3   16.25    2.45
  -3  -7   2   10.46    1.75
  -3   7   2   15.37    1.67
   3   7  -2   11.96    2.07
  -3  -7   1   29.03    2.41
  -3   7   1   39.14    2.27
   3   7  -1   32.94    2.94
  -3  -7   0  133.50    4.62
  -3   7   0  152.42    4.07
   3   7   0  139.82    5.48
  -3  -7  -1   60.31    3.27
  -3   7  -1   60.32    2.62
   3   7   1   61.68    3.80
  -3  -7  -2   67.07    3.43
  -3   7  -2   65.75    2.69
   3   7   2   69.10    4.07
  -3  -7  -3  367.96    7.68
  -3   7  -3  325.33    5.70
   3   7   3  372.79    8.90
  -3  -7  -4   20.87    2.22
  -3   7  -4   14.17    1.68
   3   7   4   14.31    2.34
  -3  -7  -5  150.83    5.15
  -3   7  -5  124.05    3.85
  -3   7  -5  115.93    3.74
   3   7   5  151.60    5.98
  -3  -7  -6    4.74    1.35
  -3   7  -6    5.90    1.34
   3   7   6    8.87    2.05
  -3   7  -7   13.33    1.88
   3   7   7   12.18    2.31
  -3   7  -8   64.52    3.38
   3   7   8   81.23    4.87
  -3   7  -9    3.28    1.36
   3   7   9    4.63    1.82
  -3   7 -10    6.44    1.69
   3   7  10    3.58    1.70
  -3   7 -11    5.61    1.69
   3   7  11    5.98    2.12
   3   8 -10    8.34    2.50
  -3  -8   9    0.74    1.23
  -3   8   9    0.25    1.29
   3   8  -9    2.34    1.67
  -3  -8   8    4.26    1.54
  -3   8   8    5.64    1.87
   3   8  -8    5.74    1.93
  -3  -8   7    6.10    1.59
  -3   8   7   12.29    2.29
   3   8  -7    4.17    1.78
  -3  -8   6   14.44    2.22
  -3   8   6   14.62    2.30
   3   8  -6   13.27    2.50
  -3  -8   5   23.84    2.48
  -3   8   5   31.05    2.78
   3   8  -5   23.91    2.87
  -3  -8   4   29.79    2.64
  -3   8   4   34.36    2.78
   3   8  -4   20.36    2.87
  -3  -8   3   26.89    2.53
  -3   8   3   35.68    2.65
   3   8  -3   30.05    3.02
  -3  -8   2   10.70    1.89
  -3   8   2   13.15    1.85
   3   8  -2   11.30    2.20
  -3  -8   1   14.62    2.12
  -3   8   1   19.31    1.94
   3   8  -1   12.27    2.27
  -3  -8   0    3.73    1.30
  -3   8   0    5.23    1.20
   3   8   0    3.50    1.55
  -3  -8  -1   53.36    3.32
  -3   8  -1   62.24    2.98
   3   8   1   62.42    4.12
  -3  -8  -2   39.32    2.99
  -3   8  -2   41.87    2.53
   3   8   2   44.06    3.67
  -3  -8  -3   32.40    2.80
  -3   8  -3   29.21    2.19
   3   8   3   33.56    3.28
  -3  -8  -4  122.53    4.96
  -3   8  -4  106.11    3.84
   3   8   4  131.31    5.89
  -3  -8  -5    5.46    1.53
  -3   8  -5    6.05    1.38
   3   8   5    7.93    2.12
  -3  -8  -6   29.41    2.79
  -3   8  -6   26.93    2.30
   3   8   6   30.26    3.39
  -3   8  -7    9.96    1.81
  -3   8  -7    9.20    1.69
   3   8   7   12.55    2.52
  -3   8  -8    4.71    1.48
   3   8   8    4.92    1.91
  -3   8  -9    9.01    1.89
   3   8   9   11.69    2.76
  -3  -9   7   29.81    3.03
  -3   9   7   38.26    3.65
   3   9  -7   28.28    3.85
  -3  -9   6    5.56    1.70
  -3   9   6    5.63    1.89
   3   9  -6    5.75    2.05
  -3  -9   5   36.48    3.20
  -3   9   5   54.48    3.81
   3   9  -5   39.18    3.82
  -3  -9   4   43.49    3.32
  -3   9   4   49.21    3.51
   3   9  -4   42.20    3.78
  -3  -9   3    4.55    1.47
  -3   9   3    8.56    1.83
   3   9  -3    4.46    1.83
  -3  -9   2   16.54    2.47
  -3   9   2   21.44    2.35
   3   9  -2   17.66    2.94
  -3  -9   1    6.46    1.67
  -3   9   1    8.11    1.62
   3   9  -1    9.63    2.39
  -3  -9   0   12.02    2.12
  -3   9   0   11.64    1.84
   3   9   0    9.83    2.34
  -3  -9  -1    3.62    1.33
  -3   9  -1    2.63    1.16
   3   9   1    1.51    1.45
  -3  -9  -2    3.71    1.36
  -3   9  -2    2.61    1.13
   3   9   2    2.43    1.50
  -3  -9  -3    7.74    1.79
  -3   9  -3    7.72    1.57
   3   9   3    9.74    2.29
  -3  -9  -4    5.25    1.61
  -3   9  -4    4.71    1.32
   3   9   4    6.00    1.98
  -3  -9  -5    1.86    1.29
  -3   9  -5    2.52    1.14
   3   9   5    3.65    1.72
  -3  -9  -6    4.37    1.55
  -3   9  -6    2.89    1.17
   3   9   6    5.17    2.02
   3   9   7    4.67    2.00
  -3 -10   2   75.26    4.45
  -3  10   2   89.49    4.56
   3  10  -2   71.33    5.11
  -3 -10   1   17.79    2.65
  -3  10   1   23.50    2.60
   3  10  -1   17.20    3.08
  -3 -10   0    7.68    1.90
  -3  10   0   13.36    2.21
   3  10   0   10.55    2.60
  -3 -10  -1   10.77    2.17
  -3  10  -1   13.89    2.21
   3  10   1   13.47    2.79
  -4   0  15    1.51    1.61
  -4   0  15    0.92    1.03
  -4   0  14    4.29    1.86
  -4   0  14    3.42    1.28
  -4   0  13    2.30    1.52
  -4   0  13    1.76    1.03
  -4   0  12   75.45    4.50
  -4   0  12   74.73    3.36
   4   0 -12   66.40    4.07
  -4   0  11    2.72    1.42
  -4   0  11    3.70    1.10
   4   0 -11    2.45    1.22
  -4   0  10    1.90    1.28
  -4   0  10    1.70    0.78
   4   0 -10    1.55    1.01
  -4   0   9   16.97    2.12
  -4   0   9   16.00    1.47
   4   0  -9   12.26    1.78
  -4   0   8   83.76    3.73
  -4   0   8   78.78    2.61
   4   0  -8   71.11    3.22
  -4   0   7   22.31    2.03
  -4   0   7   18.23    1.26
   4   0  -7   18.80    1.71
  -4   0   6    0.29    0.68
  -4   0   6   -0.41    0.27
   4   0  -6    0.75    0.55
  -4   0   5   10.42    1.44
  -4   0   5    9.07    0.73
   4   0  -5    6.21    1.00
  -4   0   4  174.49    4.12
  -4   0   4  176.48    2.07
   4   0  -4  145.14    3.40
  -4   0   3  606.79    7.09
   4   0  -3  541.08    6.00
   4   0  -3  545.23    6.03
  -4   0   2  361.04    5.16
   4   0  -2  307.47    4.19
  -4   0   1 1168.93    8.78
   4   0  -1 1052.20    7.10
  -4   0   0   16.32    1.19
  -4   0  -1  209.72    3.62
  -4   0  -2  796.72    7.15
  -4   0  -3  314.25    4.72
  -4   0  -4  617.96    7.02
  -4   0  -5  676.69    7.88
   4   0   5  607.55    6.07
  -4   0  -6   68.01    2.82
  -4   0  -7   80.91    3.32
  -4   0  -8   30.07    2.31
  -4   0  -9  209.94    5.80
  -4   0 -10   18.11    2.39
  -4   0 -11  230.22    6.85
  -4   0 -12   28.61    2.96
  -4   0 -13    9.93    2.29
  -4   0 -14    8.50    2.33
  -4   0 -15    1.46    1.69
  -4  -1  15   14.70    2.26
  -4   1  15   17.79    3.10
  -4   1  15   19.78    2.15
  -4  -1  14   18.20    3.14
  -4  -1  14   20.33    2.44
  -4   1  14   20.25    3.20
  -4   1  14   18.78    2.04
   4   1 -14   11.52    2.41
  -4  -1  13   20.71    3.05
  -4  -1  13   22.15    2.35
  -4   1  13   22.31    3.23
  -4   1  13   20.21    1.97
   4   1 -13   18.40    2.91
  -4  -1  12    3.71    1.59
  -4  -1  12    5.61    1.41
  -4   1  12    5.35    1.83
  -4   1  12    5.33    1.17
   4   1 -12    4.81    1.63
  -4  -1  11   39.88    3.29
  -4  -1  11   43.96    2.71
  -4   1  11   43.45    3.52
  -4   1  11   46.11    2.33
   4   1 -11   37.23    3.09
  -4  -1  10   23.52    2.54
  -4  -1  10   24.77    2.02
  -4   1  10   24.01    2.58
  -4   1  10   23.05    1.64
   4  -1 -10   24.69    2.34
   4   1 -10   20.58    2.29
  -4  -1   9   24.95    2.45
  -4  -1   9   26.93    1.95
  -4   1   9   27.43    2.51
  -4   1   9   29.42    1.60
   4  -1  -9   26.36    2.16
   4   1  -9   24.67    2.29
  -4  -1   8   79.17    3.70
  -4  -1   8   78.69    2.88
  -4   1   8   85.60    3.76
  -4   1   8   79.58    2.19
   4  -1  -8   71.60    3.13
   4   1  -8   70.42    3.33
  -4  -1   7   67.42    3.27
  -4  -1   7   67.81    2.52
  -4   1   7   71.27    3.24
  -4   1   7   67.63    1.63
  -4   1   7   67.26    1.69
   4  -1  -7   63.59    2.74
   4   1  -7   54.39    2.79
  -4  -1   6   15.52    1.71
  -4  -1   6   12.21    1.13
  -4   1   6   17.80    1.68
   4  -1  -6   12.80    1.27
   4   1  -6   13.22    1.49
  -4  -1   5  268.07    5.61
  -4  -1   5  252.73    4.09
  -4   1   5  275.38    5.34
   4  -1  -5  232.21    4.32
   4   1  -5  231.43    4.93
  -4  -1   4  491.71    7.16
  -4  -1   4  482.62    5.18
  -4   1   4  552.97    6.97
   4  -1  -4  418.70    5.21
   4   1  -4  427.04    6.31
  -4  -1   3  379.61    6.02
  -4  -1   3  390.53    4.24
  -4   1   3  435.19    5.70
   4  -1  -3  326.47    4.05
   4  -1  -3  317.05    4.00
   4   1  -3  342.92    5.34
   4   1  -3  320.44    5.18
  -4  -1   2  167.96    3.87
  -4  -1   2  174.96    2.53
  -4   1   2  189.31    3.49
   4   1  -2  139.75    3.28
  -4  -1   1  258.12    4.66
  -4  -1   1  265.89    2.63
  -4   1   1  262.56    3.76
   4   1  -1  233.44    4.08
  -4  -1   0 3582.85   32.96
  -4   1   0 3252.93   23.56
  -4   1   0 2584.99   10.33
   4   1   0 3136.27   14.31
  -4  -1  -1  408.10    5.72
  -4   1  -1  411.67    4.23
  -4   1  -1  312.08    3.53
   4   1   1  384.54    5.01
  -4  -1  -2   59.53    2.30
  -4   1  -2   50.91    1.60
  -4   1  -2   44.95    1.41
   4   1   2   47.36    1.81
  -4  -1  -3  354.25    5.61
  -4   1  -3  376.84    4.49
  -4   1  -3  330.60    4.02
   4   1   3  319.88    4.74
  -4  -1  -4   23.09    1.64
  -4   1  -4   26.07    1.40
   4   1   4   21.88    1.40
  -4  -1  -5  225.92    4.97
  -4   1  -5  238.32    4.32
   4   1   5  205.63    4.18
  -4  -1  -6  223.02    5.24
  -4   1  -6  237.97    4.73
   4   1   6  202.08    4.39
  -4  -1  -7  986.60   11.50
  -4   1  -7 1047.45   10.64
   4   1   7  868.28   10.49
  -4  -1  -8   24.40    2.20
  -4   1  -8   25.76    2.08
  -4  -1  -9    9.54    1.71
  -4   1  -9   11.04    1.75
  -4  -1 -10   29.26    2.75
  -4   1 -10   34.04    2.71
  -4  -1 -11   24.18    2.81
  -4   1 -11   25.65    2.67
  -4  -1 -12  106.53    5.24
  -4   1 -12  105.19    4.95
  -4  -1 -13   21.26    3.11
  -4   1 -13   25.18    3.02
  -4  -1 -14   56.23    4.42
  -4   1 -14   62.47    4.55
  -4  -1 -15   20.62    3.37
  -4   1 -15   20.70    3.35
  -4  -2  15   16.87    2.47
  -4   2  15   16.39    3.12
   4   2 -15   13.75    2.94
  -4  -2  14    0.98    1.06
  -4   2  14    1.87    1.65
  -4   2  14   -0.34    0.67
   4   2 -14    0.68    1.37
  -4  -2  13   10.76    2.41
  -4  -2  13   10.09    1.85
  -4   2  13    8.71    2.31
  -4   2  13    9.29    1.29
   4   2 -13    6.97    1.96
  -4  -2  12    0.22    1.16
  -4  -2  12   -0.06    0.81
  -4   2  12   -0.69    1.14
  -4   2  12    0.32    0.57
   4   2 -12    0.89    1.18
  -4  -2  11   62.09    3.95
  -4  -2  11   66.76    3.38
  -4   2  11   77.98    4.40
  -4   2  11   68.42    2.22
   4   2 -11   51.85    3.58
  -4  -2  10   29.34    2.79
  -4  -2  10   25.96    2.19
  -4   2  10   26.46    2.79
  -4   2  10   25.69    1.26
   4   2 -10   24.10    2.56
  -4  -2   9   79.73    4.00
  -4  -2   9   80.24    3.29
  -4   2   9   80.66    4.00
   4   2  -9   67.12    3.60
  -4  -2   8  117.08    4.53
  -4  -2   8  111.71    3.66
  -4   2   8  123.56    4.53
   4   2  -8   92.36    3.97
  -4  -2   7   57.70    3.16
  -4  -2   7   50.72    2.42
  -4   2   7   62.11    3.07
   4  -2  -7   47.61    2.55
   4   2  -7   48.08    2.81
  -4  -2   6  116.03    4.09
  -4  -2   6  105.71    3.18
  -4   2   6  129.38    3.98
   4  -2  -6  103.81    3.03
   4   2  -6   98.98    3.68
  -4  -2   5   16.98    1.74
  -4  -2   5   16.82    1.33
  -4   2   5   14.68    1.49
   4  -2  -5   13.15    1.10
   4   2  -5   12.33    1.61
  -4  -2   4    1.20    0.74
  -4  -2   4    1.55    0.56
  -4   2   4    2.36    0.76
   4   2  -4    1.92    0.74
   4   2  -4    1.53    0.67
  -4  -2   3  290.05    5.63
  -4  -2   3  262.91    4.25
  -4   2   3  330.87    4.81
   4   2  -3  216.34    4.69
  -4  -2   2  341.63    5.93
  -4  -2   2  311.43    4.40
  -4   2   2  377.40    4.36
  -4   2   2  391.54    4.66
   4   2  -2  268.19    5.04
  -4  -2   1  572.06    7.50
  -4  -2   1  507.81    5.38
  -4   2   1  447.75    4.10
  -4   2   1  563.99    4.87
   4   2  -1  426.72    6.19
  -4  -2   0   87.09    2.99
  -4  -2   0   84.72    2.16
  -4   2   0   62.90    1.34
  -4   2   0   92.24    1.74
   4   2   0   72.15    2.59
  -4  -2  -1  370.95    6.04
  -4  -2  -1  344.36    4.18
  -4   2  -1  350.97    2.98
  -4   2  -1  264.70    2.38
   4   2   1  308.89    5.21
  -4  -2  -2    8.08    1.21
  -4   2  -2   10.87    0.65
  -4   2  -2    9.46    0.53
   4   2   2    8.68    1.05
  -4  -2  -3  412.92    6.65
  -4   2  -3  470.60    4.20
  -4   2  -3  399.14    3.64
   4   2   3  403.52    6.14
  -4  -2  -4  960.83   10.48
  -4   2  -4 1016.87    7.16
  -4   2  -4  893.99    6.37
   4   2   4  876.73    9.30
  -4  -2  -5   75.29    3.18
  -4   2  -5   78.79    2.34
  -4   2  -5   62.49    1.98
   4   2   5   70.80    2.83
  -4  -2  -6  149.86    4.60
  -4   2  -6  162.15    3.70
   4   2   6  133.51    4.00
  -4  -2  -7   34.07    2.49
  -4   2  -7   40.45    2.17
   4   2   7   33.95    2.25
  -4  -2  -8  227.61    6.26
  -4   2  -8  256.37    5.57
  -4  -2  -9   19.35    2.25
  -4   2  -9   22.60    2.11
  -4  -2 -10   66.33    3.95
  -4   2 -10   71.67    3.58
  -4  -2 -11   80.25    4.47
  -4   2 -11   85.67    4.18
  -4  -2 -12   32.08    3.32
  -4   2 -12   33.88    3.05
  -4  -2 -13   20.10    3.16
  -4   2 -13   19.37    2.90
  -4  -2 -14    5.07    2.06
  -4   2 -14    7.00    2.19
  -4  -3  15    7.27    1.93
  -4   3  15    8.99    2.55
   4   3 -15    8.97    2.64
  -4  -3  14   29.07    2.97
  -4   3  14   26.58    3.75
   4   3 -14   27.02    3.78
  -4  -3  13    1.58    1.16
  -4   3  13    2.69    1.65
   4   3 -13    1.88    1.45
  -4  -3  12    7.08    1.96
  -4  -3  12    7.62    1.66
  -4   3  12    8.87    2.14
   4   3 -12    6.38    1.86
  -4  -3  11   39.60    3.28
  -4  -3  11   35.24    2.72
  -4   3  11   40.30    3.52
   4   3 -11   30.73    3.05
  -4  -3  10    5.77    1.67
  -4  -3  10    3.48    1.14
  -4   3  10    3.81    1.45
   4   3 -10    2.33    1.29
  -4  -3   9   50.15    3.31
  -4  -3   9   44.79    2.70
  -4   3   9   47.83    3.22
   4   3  -9   41.63    3.07
  -4  -3   8   17.58    2.35
  -4  -3   8   14.72    1.70
  -4   3   8   13.83    2.12
   4   3  -8   11.01    1.94
  -4  -3   7   89.57    3.95
  -4  -3   7   82.86    3.24
  -4   3   7  103.49    3.97
   4   3  -7   71.64    3.55
  -4  -3   6  299.20    6.72
  -4  -3   6  282.85    5.57
  -4   3   6  319.91    6.29
   4   3  -6  236.56    5.97
  -4  -3   5   27.04    2.18
  -4  -3   5   24.84    1.74
  -4   3   5   31.99    2.04
   4   3  -5   25.28    2.08
   4   3  -5   23.44    2.00
  -4  -3   4    8.49    1.44
  -4  -3   4    7.40    1.12
  -4   3   4    9.71    1.30
   4  -3  -4    7.23    0.71
   4   3  -4    8.00    1.42
   4   3  -4    8.90    1.45
  -4  -3   3   21.39    1.48
  -4   3   3   27.82    1.53
   4   3  -3   18.86    1.68
  -4  -3   2    4.43    1.04
  -4  -3   2    3.46    0.73
  -4   3   2    4.52    0.67
  -4   3   2    3.90    0.68
   4   3  -2    2.37    0.76
  -4  -3   1    0.93    0.68
  -4  -3   1    0.37    0.43
  -4   3   1    2.53    0.46
  -4   3   1    2.35    0.47
   4   3  -1    1.43    0.67
  -4  -3   0  214.21    5.03
  -4  -3   0  188.20    3.82
  -4   3   0  163.29    1.76
  -4   3   0  222.62    2.27
   4   3   0  173.52    4.40
  -4  -3  -1  847.46    9.93
  -4  -3  -1  744.98    7.47
   4   3   1  751.38    9.07
  -4  -3  -2  199.51    4.94
  -4  -3  -2  185.83    3.76
   4   3   2  184.53    4.59
  -4  -3  -3  113.32    3.84
  -4  -3  -3  101.76    2.85
  -4   3  -3  118.74    1.74
  -4   3  -3   86.36    1.36
   4   3   3   95.84    3.40
  -4  -3  -4   91.82    3.57
  -4   3  -4  106.23    2.14
  -4   3  -4   82.31    1.76
   4   3   4   87.78    3.33
  -4  -3  -5   22.67    2.03
  -4   3  -5   24.89    1.34
   4   3   5   18.46    1.72
  -4  -3  -6  324.23    7.11
  -4   3  -6  404.09    5.56
   4   3   6  329.80    6.79
  -4  -3  -7  188.72    5.71
  -4   3  -7  199.80    4.40
   4   3   7  156.77    4.92
  -4  -3  -8  193.24    6.05
  -4   3  -8  229.93    5.17
   4   3   8  179.15    5.46
  -4  -3  -9   11.80    2.05
  -4   3  -9   17.20    1.87
  -4  -3 -10   16.94    2.52
  -4   3 -10   16.39    2.14
  -4  -3 -11    2.50    1.40
  -4   3 -11    2.91    1.35
  -4  -3 -12    0.67    1.37
  -4   3 -12    0.97    1.24
  -4  -3 -13   62.56    4.65
  -4   3 -13   61.27    4.17
  -4  -3 -14   14.06    2.93
  -4   3 -14   14.47    2.73
  -4  -4  14   -0.13    1.10
  -4   4  14    1.50    1.78
   4   4 -14    1.42    1.63
  -4  -4  13    6.54    1.77
  -4   4  13    6.21    2.15
   4   4 -13    7.30    2.29
  -4  -4  12    1.95    1.17
  -4   4  12    3.04    1.67
   4   4 -12    1.82    1.48
  -4  -4  11    7.11    1.65
  -4   4  11    9.40    2.16
   4   4 -11    7.96    2.07
  -4  -4  10   37.83    3.19
  -4  -4  10   35.99    2.75
  -4   4  10   41.90    3.33
   4   4 -10   30.18    3.01
  -4  -4   9   29.08    2.69
  -4  -4   9   26.49    2.32
  -4   4   9   28.26    2.73
   4   4  -9   21.73    2.58
  -4  -4   8   70.30    3.82
  -4  -4   8   66.61    3.26
  -4   4   8   78.16    3.85
   4   4  -8   59.52    3.61
  -4  -4   7   28.72    2.52
  -4  -4   7   24.75    2.06
  -4   4   7   26.62    2.35
   4   4  -7   22.94    2.36
  -4  -4   6   50.89    3.07
  -4  -4   6   44.02    2.52
  -4   4   6   52.44    2.80
   4   4  -6   40.76    2.88
   4   4  -6   34.99    2.69
  -4  -4   5  218.10    5.84
  -4  -4   5  177.73    4.62
  -4   4   5  222.72    5.04
   4  -4  -5  214.11    3.90
   4   4  -5  156.40    5.04
   4   4  -5  149.48    4.93
  -4  -4   4   99.48    3.98
  -4  -4   4   80.45    3.09
  -4   4   4  112.89    3.35
   4   4  -4   87.34    3.74
  -4  -4   3  142.87    4.57
  -4  -4   3  118.94    3.61
  -4   4   3  162.18    3.60
   4   4  -3  114.07    4.12
  -4  -4   2  358.80    7.04
  -4  -4   2  297.01    5.51
  -4   4   2  387.40    4.90
  -4   4   2  355.34    4.67
   4   4  -2  253.56    5.94
  -4  -4   1  416.91    7.51
  -4  -4   1  355.31    5.93
  -4   4   1  482.36    4.37
  -4   4   1  441.20    4.46
   4   4  -1  324.38    6.64
  -4  -4   0  222.24    5.55
  -4  -4   0  193.60    4.38
  -4   4   0  251.55    2.51
  -4   4   0  246.93    2.72
   4   4   0  182.19    5.01
  -4  -4  -1  126.17    4.24
  -4  -4  -1  111.68    3.34
   4   4   1  104.68    3.85
  -4  -4  -2   59.27    3.04
  -4  -4  -2   50.66    2.30
   4   4   2   55.85    2.89
  -4  -4  -3  150.71    4.75
  -4  -4  -3  136.44    3.72
   4   4   3  141.85    4.52
  -4  -4  -4  114.26    4.29
  -4  -4  -4  106.83    3.38
  -4   4  -4  154.21    2.55
  -4   4  -4   99.42    1.91
   4   4   4  103.14    3.97
  -4  -4  -5  519.68    9.21
  -4   4  -5  651.49    6.10
   4   4   5  496.99    8.75
  -4  -4  -6   22.64    2.29
  -4   4  -6   31.07    1.76
   4   4   6   21.62    2.13
  -4  -4  -7   16.01    2.29
  -4   4  -7   15.77    1.55
   4   4   7   15.48    2.19
  -4  -4  -8   61.67    3.76
  -4   4  -8   66.88    2.94
   4   4   8   56.15    3.41
  -4  -4  -9   13.48    2.41
  -4   4  -9   11.42    1.70
   4   4   9   11.70    2.04
  -4  -4 -10   30.55    3.17
  -4   4 -10   33.10    2.61
  -4  -4 -11   51.44    4.01
  -4   4 -11   51.94    3.37
  -4  -4 -12   56.31    4.41
  -4   4 -12   52.46    3.71
  -4  -4 -13   -0.77    1.50
  -4   4 -13   -0.34    1.31
  -4  -5  13    0.91    1.31
  -4   5  13    4.33    1.92
   4   5 -13    0.25    1.52
  -4  -5  12    7.34    1.87
  -4   5  12    8.58    2.32
   4   5 -12    6.91    2.21
  -4  -5  11    7.90    1.86
  -4   5  11   10.35    2.29
   4   5 -11    9.03    2.31
  -4  -5  10    6.76    1.60
  -4   5  10    8.25    2.01
   4   5 -10    7.87    2.03
  -4  -5   9   22.42    2.35
  -4   5   9   28.21    2.88
   4   5  -9   21.74    2.93
  -4  -5   8   25.61    2.57
  -4  -5   8   23.03    2.27
  -4   5   8   25.19    2.54
   4   5  -8   21.12    2.90
  -4  -5   7   48.72    3.26
  -4  -5   7   42.86    2.75
  -4   5   7   52.80    3.20
   4   5  -7   39.54    3.18
   4   5  -7   34.83    2.99
  -4  -5   6   50.82    3.20
  -4  -5   6   37.96    2.54
  -4   5   6   52.35    2.96
   4   5  -6   36.16    2.93
   4   5  -6   36.23    2.89
  -4  -5   5   93.00    4.12
  -4  -5   5   77.42    3.35
  -4   5   5  110.18    3.80
   4   5  -5   69.60    3.76
  -4  -5   4   43.18    2.87
  -4  -5   4   36.79    2.36
  -4   5   4   45.93    2.39
   4   5  -4   28.60    2.48
  -4  -5   3   60.27    3.28
  -4  -5   3   50.69    2.66
  -4   5   3   64.43    2.52
   4   5  -3   45.35    2.95
  -4  -5   2  127.96    4.57
  -4  -5   2  101.65    3.62
  -4   5   2  123.39    3.09
   4   5  -2   88.84    3.96
  -4  -5   1  174.73    5.29
  -4  -5   1  134.65    4.10
  -4   5   1  167.95    3.20
   4   5  -1  126.44    4.62
  -4  -5   0  265.92    6.48
  -4  -5   0  222.58    5.20
  -4   5   0  288.53    3.70
   4   5   0  222.10    6.04
  -4  -5  -1  560.71    9.36
  -4  -5  -1  468.20    7.44
  -4   5  -1  550.92    4.17
  -4   5  -1  528.60    4.43
   4   5   1  493.21    8.89
  -4  -5  -2   70.47    3.55
  -4  -5  -2   61.38    2.84
  -4   5  -2   65.21    1.41
  -4   5  -2   55.52    1.48
   4   5   2   64.25    3.45
  -4  -5  -3  142.37    4.98
  -4  -5  -3  124.40    3.96
  -4   5  -3  128.32    2.29
   4   5   3  135.12    4.86
  -4  -5  -4  121.83    4.71
  -4  -5  -4  116.00    3.89
  -4   5  -4  110.64    2.44
   4   5   4  110.03    4.50
  -4  -5  -5  101.38    4.43
  -4   5  -5  106.25    2.72
   4   5   5  104.36    4.46
  -4  -5  -6  167.02    5.79
  -4   5  -6  173.33    3.81
   4   5   6  159.01    5.58
  -4  -5  -7  101.36    4.77
  -4   5  -7  101.53    3.29
   4   5   7  100.91    4.63
  -4  -5  -8   37.91    3.29
  -4   5  -8   41.58    2.47
   4   5   8   36.43    3.04
  -4  -5  -9   28.17    3.02
  -4   5  -9   26.43    2.29
   4   5   9   27.19    2.81
  -4  -5 -10    2.64    1.47
  -4   5 -10    3.27    1.32
  -4  -5 -11   52.10    4.23
  -4   5 -11   43.61    3.26
  -4  -5 -12   12.52    2.76
  -4   5 -12   13.33    2.38
  -4  -5 -13   35.53    3.93
  -4   5 -13   27.51    3.09
  -4  -6  12    0.38    1.10
  -4   6  12    0.90    1.52
   4   6 -12   -0.39    1.30
  -4  -6  11    7.58    1.90
  -4   6  11    7.39    2.21
   4   6 -11    8.22    2.39
  -4  -6  10    5.06    1.56
  -4   6  10    3.86    1.68
   4   6 -10    4.87    1.93
  -4  -6   9    3.15    1.25
  -4   6   9    3.36    1.58
   4   6  -9    5.64    1.82
   4   6  -9    2.45    1.49
  -4  -6   8    6.65    1.54
  -4   6   8    5.84    1.64
   4   6  -8    4.40    1.67
   4   6  -8    5.41    1.74
  -4  -6   7    1.44    0.89
  -4   6   7    1.08    1.01
   4   6  -7   -0.30    1.13
   4   6  -7    0.45    1.09
  -4  -6   6   12.59    1.94
  -4   6   6   16.93    2.02
   4   6  -6   13.45    2.30
  -4  -6   5   39.57    3.02
  -4  -6   5   32.69    2.49
  -4   6   5   44.01    2.72
   4   6  -5   32.85    2.96
  -4  -6   4   72.20    3.78
  -4  -6   4   59.26    3.16
  -4   6   4   78.11    3.24
   4   6  -4   50.06    3.42
  -4  -6   3   46.10    3.11
  -4  -6   3   39.39    2.59
  -4   6   3   49.29    2.45
   4   6  -3   38.92    2.99
  -4  -6   2    6.31    1.53
  -4  -6   2    3.13    1.04
  -4   6   2    8.57    1.23
   4   6  -2    3.70    1.34
  -4  -6   1   57.09    3.33
  -4  -6   1   47.38    2.76
  -4   6   1   64.75    2.35
   4   6  -1   49.18    3.29
  -4  -6   0   20.03    2.28
  -4  -6   0   19.17    1.99
  -4   6   0   25.20    1.49
   4   6   0   16.88    2.33
  -4  -6  -1  214.21    6.21
  -4  -6  -1  178.52    5.08
  -4   6  -1  197.86    3.48
   4   6   1  173.61    5.81
  -4  -6  -2   52.25    3.29
  -4  -6  -2   46.89    2.78
  -4   6  -2   44.13    1.73
   4   6   2   45.09    3.24
  -4  -6  -3   50.63    3.30
  -4  -6  -3   45.83    2.76
  -4   6  -3   47.34    1.79
   4   6   3   53.95    3.48
  -4  -6  -4  179.81    5.98
  -4  -6  -4  161.04    4.95
  -4   6  -4  143.71    3.16
   4   6   4  164.40    5.85
  -4  -6  -5   46.45    3.28
  -4  -6  -5   38.45    2.61
  -4   6  -5   33.39    1.84
   4   6   5   36.76    3.03
  -4  -6  -6   30.20    2.87
  -4   6  -6   25.87    1.81
   4   6   6   31.10    2.88
  -4  -6  -7    2.57    1.35
  -4   6  -7    2.70    1.01
   4   6   7    2.58    1.31
  -4  -6  -8   54.27    3.97
  -4   6  -8   48.00    2.72
   4   6   8   45.79    3.61
  -4  -6  -9   41.99    3.78
  -4   6  -9   38.70    2.72
   4   6   9   47.13    3.87
  -4  -6 -10   66.32    4.68
  -4   6 -10   56.32    3.43
  -4  -6 -11   73.11    5.13
  -4   6 -11   60.05    3.75
  -4  -6 -12    0.96    1.58
  -4   6 -12    0.98    1.28
  -4  -7  11    2.70    1.49
  -4   7  11    2.22    1.75
   4   7 -11    4.03    2.01
   4   7 -11    3.49    1.83
  -4  -7  10   39.81    3.40
  -4   7  10   48.71    4.11
   4   7 -10   39.31    4.00
   4   7 -10   24.85    3.55
  -4  -7   9    4.81    1.56
  -4   7   9    6.07    2.00
   4   7  -9    5.86    2.07
   4   7  -9    3.68    1.76
  -4  -7   8   29.35    2.84
  -4   7   8   38.57    3.34
   4   7  -8   27.34    3.68
  -4  -7   7   10.02    1.96
  -4   7   7   14.23    2.31
   4   7  -7    9.77    2.26
  -4  -7   6    8.08    1.72
  -4   7   6    9.43    1.82
   4   7  -6    4.99    1.72
  -4  -7   5   17.78    2.16
  -4   7   5   21.36    2.25
   4   7  -5   15.33    2.52
  -4  -7   4    2.67    1.10
  -4   7   4    2.50    1.06
   4   7  -4    0.38    1.00
  -4  -7   3   37.16    2.77
  -4   7   3   50.61    2.73
   4   7  -3   39.26    3.25
  -4  -7   2   27.11    2.43
  -4   7   2   35.14    2.18
   4   7  -2   25.25    2.83
  -4  -7   1   30.87    2.53
  -4   7   1   35.24    2.06
   4   7  -1   26.03    2.80
  -4  -7   0   48.63    3.06
  -4   7   0   62.14    2.50
   4   7   0   48.42    3.55
  -4  -7  -1   11.31    2.05
  -4  -7  -1    8.51    1.70
  -4   7  -1   11.37    1.27
   4   7   1    5.50    1.75
  -4  -7  -2   28.71    2.70
  -4  -7  -2   23.08    2.27
  -4   7  -2   27.55    1.69
   4   7   2   26.22    2.81
  -4  -7  -3   12.68    2.19
  -4  -7  -3   11.15    1.83
  -4   7  -3    9.92    1.24
   4   7   3   12.69    2.38
  -4  -7  -4   96.86    4.71
  -4  -7  -4   94.24    4.16
  -4   7  -4   83.86    2.79
   4   7   4  100.50    5.01
  -4  -7  -5   38.02    3.29
  -4  -7  -5   35.88    2.80
  -4   7  -5   32.60    2.00
  -4   7  -5   28.68    1.90
   4   7   5   39.75    3.48
  -4  -7  -6   15.92    2.65
  -4   7  -6   11.70    1.58
   4   7   6   10.92    2.33
  -4   7  -7   56.01    2.82
   4   7   7   63.40    4.39
  -4   7  -8   61.05    3.13
   4   7   8   77.24    4.86
  -4   7  -9    1.79    1.12
   4   7   9    1.42    1.36
  -4   7 -10    5.92    1.66
  -4  -8   9    6.72    1.83
  -4   8   9   11.14    2.53
   4   8  -9    7.80    2.35
  -4  -8   8   15.41    2.48
  -4   8   8   15.56    2.73
   4   8  -8   16.32    3.09
  -4  -8   7   26.49    2.87
  -4   8   7   33.92    3.28
   4   8  -7   25.62    3.71
  -4  -8   6    4.64    1.52
  -4   8   6    3.11    1.44
   4   8  -6    3.42    1.70
  -4  -8   5   24.66    2.66
  -4   8   5   34.43    2.91
   4   8  -5   20.04    3.06
  -4  -8   4   43.58    3.23
  -4   8   4   57.23    3.35
   4   8  -4   44.01    3.80
  -4  -8   3    1.35    1.04
  -4   8   3    1.39    0.95
   4   8  -3    1.33    1.28
  -4  -8   2   34.51    2.88
  -4   8   2   35.37    2.48
   4   8  -2   27.43    3.14
  -4  -8   1   44.84    3.17
  -4   8   1   52.83    2.77
   4   8  -1   46.13    3.76
  -4  -8   0   35.93    2.93
  -4   8   0   38.39    2.34
   4   8   0   34.69    3.45
  -4  -8  -1    2.10    1.17
  -4   8  -1    2.30    0.93
   4   8   1    1.24    1.37
  -4  -8  -2   10.67    1.93
  -4   8  -2   17.69    1.68
   4   8   2   13.91    2.50
  -4  -8  -3   14.67    2.16
  -4   8  -3   14.67    1.58
   4   8   3   12.70    2.38
  -4  -8  -4   11.10    1.91
  -4   8  -4    8.27    1.33
   4   8   4    9.38    2.15
  -4  -8  -5    2.64    1.28
  -4   8  -5    1.71    0.83
   4   8   5    2.79    1.50
  -4  -8  -6    1.90    1.19
  -4   8  -6    2.86    0.99
   4   8   6    2.14    1.52
  -4   8  -7    7.67    1.58
  -4   8  -7    4.62    1.24
   4   8   7    5.35    1.90
  -4   8  -8   10.53    1.79
   4   8   8   10.16    2.55
  -4  -9   6    3.69    1.52
  -4   9   6    3.73    1.62
   4   9  -6    2.13    1.62
  -4  -9   5   24.71    2.86
  -4   9   5   34.63    3.14
   4   9  -5   20.12    3.29
  -4  -9   4   42.96    3.46
  -4   9   4   52.36    3.58
   4   9  -4   38.90    3.82
  -4  -9   3   28.47    2.93
  -4   9   3   33.98    2.88
   4   9  -3   29.43    3.46
  -4  -9   2   10.50    2.03
  -4   9   2   13.35    2.02
   4   9  -2   15.06    2.86
  -4  -9   1    4.47    1.56
  -4   9   1    6.11    1.45
   4   9  -1    3.37    1.80
  -4  -9   0    7.37    1.74
  -4   9   0   11.52    1.77
   4   9   0    7.36    2.14
  -4  -9  -1   11.53    2.11
  -4   9  -1   13.74    1.82
   4   9   1   10.85    2.50
  -4  -9  -2   12.59    2.19
  -4   9  -2   11.00    1.66
   4   9   2   12.87    2.68
  -4  -9  -3    8.50    1.90
  -4   9  -3   10.05    1.60
   4   9   3   11.87    2.60
  -4  -9  -4    6.17    1.68
  -4   9  -4    7.01    1.45
   4   9   4    4.32    1.82
  -4  -9  -5    3.95    1.55
  -4   9  -5    3.91    1.14
   4   9   5    6.08    2.11
  -5   0  15    2.10    1.74
  -5   0  15   -0.30    0.75
  -5   0  14    2.28    1.66
  -5   0  14    1.16    0.90
  -5   0  13    0.35    1.40
  -5   0  13    0.38    0.78
  -5   0  12    0.80    1.32
  -5   0  12    0.48    0.74
  -5   0  11    0.86    1.32
  -5   0  11    0.33    0.65
  -5   0  10    0.45    1.13
  -5   0  10    0.94    0.64
  -5   0   9   90.57    4.41
  -5   0   9   86.40    2.65
  -5   0   8   48.09    3.15
  -5   0   8   43.96    1.76
   5   0  -8   38.42    2.56
  -5   0   7   17.47    2.08
  -5   0   7   17.04    1.04
   5   0  -7   13.30    1.61
  -5   0   6    8.50    1.59
   5   0  -6   10.29    1.48
  -5   0   5   10.00    1.53
   5   0  -5   10.60    1.34
  -5   0   4   37.98    2.26
   5   0  -4   31.19    1.74
   5   0  -4   29.92    1.70
  -5   0   3   46.74    2.32
   5   0  -3   38.49    1.75
  -5   0   2  276.31    5.08
   5   0  -2  234.25    3.89
  -5   0   1    5.11    0.94
   5   0  -1    4.39    0.71
  -5   0   0   11.30    1.13
  -5   0  -1  114.53    3.09
  -5   0  -2   54.41    2.23
  -5   0  -3  191.82    4.15
  -5   0  -4  624.37    7.75
  -5   0  -5   39.79    2.21
  -5   0  -6   97.95    3.52
  -5   0  -7  140.85    4.42
  -5   0  -8   27.37    2.33
  -5   0  -9  149.48    5.13
  -5   0 -10   69.46    3.86
  -5   0 -11   62.67    3.96
  -5   0 -12    2.88    1.50
  -5   0 -13    6.85    2.06
  -5   0 -14    2.28    1.75
  -5  -1  15    5.36    2.15
  -5  -1  15    5.63    1.57
  -5   1  15    4.22    2.06
  -5  -1  14    0.63    1.36
  -5  -1  14    0.05    0.89
  -5   1  14    1.65    1.66
  -5  -1  13    1.75    1.49
  -5  -1  13    2.28    1.08
  -5   1  13    1.41    1.60
  -5  -1  12   10.48    2.31
  -5  -1  12   11.95    1.77
  -5   1  12   10.93    2.45
  -5   1  12   11.50    1.23
  -5  -1  11   27.24    3.08
  -5  -1  11   28.86    2.20
  -5   1  11   29.05    3.11
  -5   1  11   27.30    1.45
   5   1 -11   24.56    2.74
  -5  -1  10    4.51    1.58
  -5  -1  10    3.76    1.01
  -5   1  10    6.62    1.80
  -5   1  10    5.27    0.72
   5   1 -10    4.63    1.42
  -5  -1   9    4.53    1.54
  -5  -1   9    4.36    1.01
  -5   1   9    5.46    1.62
   5   1  -9    3.64    1.27
  -5  -1   8   70.68    3.76
  -5  -1   8   70.77    2.64
  -5   1   8   74.00    3.81
   5   1  -8   51.87    3.03
  -5  -1   7   48.94    3.07
  -5  -1   7   43.97    1.99
  -5   1   7   49.22    2.96
   5   1  -7   39.09    2.52
  -5  -1   6   22.26    2.19
  -5  -1   6   20.66    1.36
  -5   1   6   21.06    2.08
   5   1  -6   15.75    1.73
  -5  -1   5  388.62    7.30
  -5  -1   5  410.74    4.80
  -5   1   5  412.63    7.01
   5   1  -5  340.02    6.26
   5   1  -5  319.48    6.10
  -5  -1   4  177.99    4.81
  -5  -1   4  190.47    2.90
  -5   1   4  190.74    4.54
   5  -1  -4  146.00    3.44
   5   1  -4  157.22    4.11
  -5  -1   3  359.54    6.44
  -5  -1   3  391.98    3.33
  -5   1   3  360.13    5.74
   5   1  -3  287.47    5.23
  -5  -1   2   42.80    2.28
  -5   1   2   41.12    1.95
   5   1  -2   35.54    1.86
  -5  -1   1  291.89    5.47
  -5   1   1  276.03    4.45
   5   1  -1  247.21    4.48
  -5  -1   0  487.70    6.97
  -5   1   0  446.72    5.39
   5   1   0  424.68    5.69
  -5  -1  -1   56.30    2.50
  -5   1  -1   53.62    1.92
  -5   1  -1   38.86    1.57
   5   1   1   49.43    1.98
  -5  -1  -2   69.06    2.76
  -5   1  -2   72.71    2.25
  -5   1  -2   54.56    1.84
   5   1   2   63.86    2.23
  -5  -1  -3  120.37    3.67
  -5   1  -3  128.04    3.06
  -5   1  -3   96.80    2.54
   5   1   3  115.88    3.02
  -5  -1  -4  434.14    7.05
  -5   1  -4  459.33    6.02
   5   1   4  425.79    6.06
  -5  -1  -5  132.05    4.14
  -5   1  -5  138.52    3.60
  -5  -1  -6   67.39    3.17
  -5   1  -6   66.59    2.74
  -5  -1  -7   72.77    3.45
  -5   1  -7   76.31    3.16
  -5  -1  -8   68.83    3.57
  -5   1  -8   68.26    3.22
  -5  -1  -9   13.42    2.05
  -5   1  -9   15.87    1.96
  -5  -1 -10   36.68    3.13
  -5   1 -10   41.82    3.06
  -5  -1 -11   66.26    4.17
  -5   1 -11   58.48    3.71
  -5  -1 -12   36.68    3.41
  -5   1 -12   40.52    3.42
  -5  -1 -13   20.83    3.11
  -5   1 -13   30.55    3.36
  -5  -1 -14   20.83    3.32
  -5   1 -14   20.87    3.18
  -5  -2  14    1.90    1.62
  -5  -2  14    0.23    1.07
  -5   2  14    1.05    1.56
  -5  -2  13    1.89    1.52
  -5  -2  13    1.24    1.04
  -5   2  13    0.82    1.48
  -5  -2  12    1.83    1.43
  -5  -2  12    1.81    1.06
  -5   2  12    1.09    1.44
   5   2 -12    2.73    1.43
  -5  -2  11   18.07    2.74
  -5  -2  11   15.85    1.94
  -5   2  11   16.67    2.71
   5   2 -11   11.93    2.20
  -5  -2  10   29.26    3.05
  -5  -2  10   26.75    2.17
  -5   2  10   26.98    2.85
   5   2 -10   22.63    2.49
  -5  -2   9    2.26    1.35
  -5  -2   9    2.62    0.90
  -5   2   9    1.99    1.26
   5   2  -9    1.79    1.09
  -5  -2   8  236.74    6.75
  -5  -2   8  222.67    5.04
  -5   2   8  254.03    6.65
   5   2  -8  188.62    5.79
  -5  -2   7    2.16    1.17
  -5  -2   7    2.48    0.82
  -5   2   7    1.65    1.14
   5   2  -7    2.27    1.05
  -5  -2   6  170.36    5.32
  -5  -2   6  161.14    3.90
  -5   2   6  177.91    4.96
   5   2  -6  138.97    4.58
  -5  -2   5   60.12    3.23
  -5  -2   5   58.06    2.30
  -5   2   5   61.74    2.88
   5   2  -5   48.46    2.73
   5   2  -5   51.98    2.82
  -5  -2   4  343.99    6.93
  -5  -2   4  340.07    5.03
  -5   2   4  358.24    5.98
   5   2  -4  276.78    5.89
  -5  -2   3 1338.99   13.11
  -5  -2   3 1288.58    9.16
  -5   2   3 1372.44   10.67
   5   2  -3 1057.17   10.94
  -5  -2   2   83.46    3.38
  -5  -2   2   82.40    2.24
  -5   2   2   79.28    2.38
  -5   2   2   86.21    2.59
   5   2  -2   67.99    2.85
  -5  -2   1   38.20    2.34
  -5  -2   1   31.34    1.34
  -5   2   1   27.63    1.34
  -5   2   1   35.68    1.61
   5   2  -1   29.45    1.93
  -5  -2   0  117.19    3.83
  -5  -2   0  111.57    2.26
  -5   2   0   80.21    1.95
  -5   2   0  106.97    2.37
   5   2   0   94.88    3.14
  -5  -2  -1   59.19    2.80
  -5   2  -1   52.40    1.62
  -5   2  -1   39.83    1.33
   5   2   1   46.12    2.26
  -5  -2  -2  111.12    3.79
  -5   2  -2  122.24    2.44
  -5   2  -2   87.07    1.94
   5   2   2  107.52    3.36
  -5  -2  -3 1067.39   11.57
  -5   2  -3 1126.28    7.65
  -5   2  -3  926.76    6.55
   5   2   3  995.32   10.10
  -5  -2  -4  403.17    7.39
  -5   2  -4  410.85    5.09
   5   2   4  362.72    6.27
  -5  -2  -5   25.18    2.20
  -5   2  -5   25.83    1.58
   5   2   5   19.95    1.72
  -5  -2  -6   22.12    2.15
  -5   2  -6   25.25    1.71
  -5  -2  -7    7.98    1.57
  -5   2  -7    8.40    1.30
  -5  -2  -8   21.13    2.26
  -5   2  -8   26.78    2.09
  -5  -2  -9   53.32    3.57
  -5   2  -9   60.48    3.17
  -5  -2 -10   95.64    4.83
  -5   2 -10  106.80    4.42
  -5  -2 -11   47.89    3.81
  -5   2 -11   49.22    3.36
  -5  -2 -12   10.34    2.32
  -5   2 -12   10.04    2.10
  -5  -2 -13    1.72    1.73
  -5   2 -13    1.11    1.42
  -5  -2 -14    0.25    1.60
  -5   2 -14    0.02    1.43
  -5  -3  14    3.10    1.46
  -5   3  14    7.10    2.42
  -5  -3  13    5.32    1.56
  -5   3  13    4.93    2.03
   5   3 -13    3.45    1.74
  -5  -3  12    5.27    1.88
  -5  -3  12    4.10    1.39
  -5   3  12    3.22    1.74
   5   3 -12    3.08    1.60
  -5  -3  11    5.41    1.81
  -5  -3  11    6.33    1.49
  -5   3  11    7.20    2.00
   5   3 -11    5.28    1.67
  -5  -3  10   13.99    2.37
  -5  -3  10   15.68    1.94
  -5   3  10   16.38    2.59
   5   3 -10   14.53    2.39
  -5  -3   9    8.39    1.93
  -5  -3   9    8.65    1.48
  -5   3   9    9.13    1.91
   5   3  -9    8.04    1.81
  -5  -3   8    7.65    1.71
  -5  -3   8   10.06    1.53
  -5   3   8    8.57    1.76
   5   3  -8    6.60    1.66
  -5  -3   7  118.14    4.80
  -5  -3   7  109.21    3.72
  -5   3   7  126.35    4.53
   5   3  -7   95.96    4.25
  -5  -3   6   86.65    4.02
  -5  -3   6   78.21    3.07
  -5   3   6   87.05    3.57
   5   3  -6   66.13    3.45
   5   3  -6   67.72    3.47
  -5  -3   5   76.51    3.70
  -5  -3   5   70.49    2.82
  -5   3   5   83.55    3.26
   5   3  -5   60.12    3.19
   5   3  -5   57.11    3.11
  -5  -3   4   97.80    4.02
  -5  -3   4   94.68    3.12
  -5   3   4  111.08    3.41
   5   3  -4   76.84    3.46
  -5  -3   3   39.48    2.69
  -5  -3   3   35.08    1.94
  -5   3   3   43.28    2.09
   5   3  -3   27.00    2.14
  -5  -3   2  513.71    8.53
  -5  -3   2  460.68    6.24
  -5   3   2  536.98    5.93
   5   3  -2  391.55    7.14
  -5  -3   1  170.56    4.96
  -5  -3   1  155.91    3.58
  -5   3   1  160.06    2.72
  -5   3   1  168.84    2.98
   5   3  -1  139.79    4.30
  -5  -3   0  233.96    5.74
  -5  -3   0  207.52    4.01
  -5   3   0  178.74    2.44
  -5   3   0  233.57    3.02
   5   3   0  199.04    5.04
  -5  -3  -1  397.25    7.45
  -5  -3  -1  353.83    5.11
  -5   3  -1  377.44    3.34
  -5   3  -1  257.15    2.49
   5   3   1  342.05    6.55
  -5  -3  -2  182.73    5.17
  -5   3  -2  191.82    2.35
  -5   3  -2  128.12    1.73
   5   3   2  159.28    4.53
  -5  -3  -3   51.20    2.93
  -5   3  -3   53.42    1.46
  -5   3  -3   45.32    1.22
   5   3   3   45.08    2.54
  -5  -3  -4   87.44    3.84
  -5   3  -4   94.52    2.20
   5   3   4   78.77    3.33
  -5  -3  -5  256.73    6.54
  -5   3  -5  310.68    4.47
   5   3   5  249.85    5.93
  -5  -3  -6   53.72    3.23
  -5   3  -6   59.90    2.32
   5   3   6   50.17    2.91
  -5  -3  -7  143.30    5.27
  -5   3  -7  168.00    4.13
  -5  -3  -8   56.66    3.59
  -5   3  -8   64.97    2.93
  -5  -3  -9   10.26    2.09
  -5   3  -9   13.54    1.84
  -5  -3 -10    7.39    1.93
  -5   3 -10    6.35    1.48
  -5  -3 -11    0.37    1.20
  -5   3 -11    0.09    1.02
  -5  -3 -12   39.30    3.84
  -5   3 -12   39.85    3.35
  -5  -3 -13   11.65    2.62
  -5   3 -13   16.01    2.66
  -5  -4  13    2.07    1.37
  -5   4  13    4.34    2.02
   5   4 -13    2.30    1.76
  -5  -4  12    0.92    1.17
  -5   4  12    1.88    1.54
   5   4 -12    1.60    1.47
  -5  -4  11   28.58    3.22
  -5  -4  11   24.99    2.53
  -5   4  11   27.85    3.15
   5   4 -11   22.67    3.15
  -5  -4  10   12.64    2.41
  -5  -4  10    6.67    1.53
  -5   4  10   10.59    2.18
   5   4 -10    9.92    2.18
  -5  -4   9    1.67    1.28
  -5  -4   9    1.50    0.95
  -5   4   9    1.38    1.17
   5   4  -9    1.58    1.28
  -5  -4   8   31.00    2.86
  -5  -4   8   26.77    2.29
  -5   4   8   33.85    2.81
   5   4  -8   25.76    2.68
   5   4  -8   24.97    2.62
  -5  -4   7   21.30    2.43
  -5  -4   7   19.75    1.94
  -5   4   7   21.65    2.33
   5   4  -7   19.75    2.68
   5   4  -7   19.14    2.29
  -5  -4   6    3.07    1.26
  -5  -4   6    4.78    1.14
  -5   4   6    4.06    1.20
   5   4  -6    2.84    1.24
   5   4  -6    2.93    1.23
  -5  -4   5    9.32    1.80
  -5  -4   5    6.26    1.24
  -5   4   5    5.00    1.19
   5   4  -5    3.70    1.27
  -5  -4   4  168.08    5.44
  -5  -4   4  148.87    4.24
  -5   4   4  181.35    4.36
   5   4  -4  135.24    4.82
  -5  -4   3  307.11    7.14
  -5  -4   3  268.34    5.50
  -5   4   3  319.71    5.20
   5   4  -3  220.70    5.96
  -5  -4   2   64.21    3.45
  -5  -4   2   52.93    2.53
  -5   4   2   66.68    2.24
   5   4  -2   44.01    2.81
  -5  -4   1  221.41    5.99
  -5  -4   1  192.66    4.51
  -5   4   1  230.60    3.44
   5   4  -1  176.39    5.23
  -5  -4   0  107.44    4.27
  -5  -4   0   87.47    3.08
  -5   4   0  112.78    1.82
  -5   4   0  111.81    2.00
   5   4   0   87.69    3.80
  -5  -4  -1  206.47    5.80
  -5  -4  -1  179.45    4.25
   5   4   1  180.14    5.25
  -5  -4  -2   21.63    2.20
  -5  -4  -2   23.34    1.69
   5   4   2   15.47    1.85
  -5  -4  -3   83.74    3.91
  -5  -4  -3   77.33    2.85
   5   4   3   76.88    3.60
  -5  -4  -4  322.44    7.58
  -5   4  -4  407.27    3.97
   5   4   4  300.26    6.95
  -5  -4  -5   48.92    3.24
  -5   4  -5   60.77    1.98
   5   4   5   43.01    2.88
  -5   4  -6   41.42    1.91
   5   4   6   29.11    2.50
  -5  -4  -7    2.15    1.17
  -5   4  -7    5.30    1.07
  -5  -4  -8   12.12    2.17
  -5   4  -8   17.16    1.76
  -5  -4  -9   13.46    2.41
  -5   4  -9   14.29    1.87
  -5  -4 -10   75.34    4.74
  -5   4 -10   74.26    3.65
  -5  -4 -11   40.69    3.86
  -5   4 -11   41.28    3.16
  -5  -4 -12    0.24    1.56
  -5   4 -12    0.68    1.25
  -5  -4 -13    7.62    2.44
  -5   4 -13    5.65    1.90
  -5  -5  12    9.10    2.00
  -5   5  12    8.13    2.35
   5   5 -12    8.77    2.44
  -5  -5  11   16.73    2.39
  -5   5  11   17.97    2.98
   5   5 -11   15.13    2.88
  -5  -5  10    6.24    1.55
  -5   5  10    7.47    2.03
   5   5 -10    3.91    1.78
   5   5 -10    3.92    1.63
  -5  -5   9   17.59    2.74
  -5  -5   9   14.71    2.19
  -5   5   9   14.89    2.45
   5   5  -9   10.57    2.26
   5   5  -9   11.69    2.35
  -5  -5   8    4.71    1.59
  -5  -5   8    2.04    1.09
  -5   5   8    3.14    1.37
   5   5  -8    1.83    1.28
   5   5  -8    1.70    1.30
  -5  -5   7   49.36    3.56
  -5  -5   7   41.95    2.82
  -5   5   7   55.36    3.35
   5   5  -7   35.68    3.17
   5   5  -7   40.06    3.26
  -5  -5   6    9.87    1.97
  -5  -5   6    8.31    1.57
  -5   5   6    9.93    1.72
   5   5  -6    6.14    1.63
  -5  -5   5    1.98    1.19
  -5  -5   5    0.14    0.68
  -5   5   5    0.38    0.77
   5   5  -5    0.41    0.86
  -5  -5   4   20.62    2.35
  -5  -5   4   17.16    1.83
  -5   5   4   18.86    1.74
   5   5  -4   14.04    2.14
  -5  -5   3   50.89    3.29
  -5  -5   3   46.64    2.66
  -5   5   3   53.37    2.36
   5   5  -3   42.33    3.01
  -5  -5   2   58.95    3.48
  -5  -5   2   45.00    2.58
  -5   5   2   55.95    2.16
   5   5  -2   44.13    3.06
  -5  -5   1   30.69    2.71
  -5  -5   1   21.95    1.93
  -5   5   1   34.08    1.54
   5   5  -1   21.16    2.34
  -5  -5   0  309.84    7.47
  -5  -5   0  270.79    5.83
  -5   5   0  332.43    3.74
   5   5   0  260.99    6.82
  -5  -5  -1   58.15    3.45
  -5  -5  -1   52.25    2.70
   5   5   1   44.73    3.09
  -5  -5  -2   53.18    3.36
  -5  -5  -2   50.14    2.60
   5   5   2   46.37    3.13
  -5  -5  -3   27.18    2.61
  -5  -5  -3   24.28    1.97
   5   5   3   24.81    2.40
  -5  -5  -4   46.13    3.25
  -5   5  -4   50.83    1.50
   5   5   4   45.11    3.09
  -5  -5  -5  102.29    4.73
  -5   5  -5  105.59    2.50
   5   5   5   94.02    4.37
  -5  -5  -6    9.73    1.98
  -5   5  -6   14.46    1.31
   5   5   6   11.78    2.09
  -5  -5  -7   24.73    2.82
  -5   5  -7   29.47    1.91
   5   5   7   31.22    2.88
  -5  -5  -8   46.73    3.67
  -5   5  -8   50.37    2.63
  -5  -5  -9   20.01    3.03
  -5   5  -9   16.47    2.00
  -5  -5 -10   17.29    2.97
  -5   5 -10   17.72    2.26
  -5  -5 -11    7.92    2.35
  -5   5 -11    7.78    1.82
  -5  -5 -12    0.90    1.58
  -5   5 -12    1.62    1.41
  -5  -6  11   -0.95    0.98
  -5   6  11   -0.61    1.40
   5   6 -11    2.00    1.78
   5   6 -11   -0.35    1.33
  -5  -6  10   26.36    2.88
  -5   6  10   31.18    3.56
   5   6 -10   23.60    3.59
   5   6 -10   19.72    3.19
  -5  -6   9    9.67    1.99
  -5   6   9    9.82    2.19
   5   6  -9    6.08    2.16
   5   6  -9    8.21    2.17
  -5  -6   8   14.23    2.17
  -5   6   8   13.08    2.31
   5   6  -8   12.12    2.48
  -5  -6   7    0.99    0.92
  -5   6   7   -0.52    1.00
   5   6  -7    1.48    1.27
  -5  -6   6   11.11    2.20
  -5  -6   6    8.02    1.68
  -5   6   6   11.54    1.91
   5   6  -6    5.42    1.72
  -5  -6   5   15.92    2.40
  -5  -6   5   14.94    2.12
  -5   6   5   17.54    2.01
   5   6  -5    9.66    2.07
  -5  -6   4   21.78    2.51
  -5  -6   4   20.01    2.12
  -5   6   4   27.98    2.13
   5   6  -4   16.96    2.51
  -5  -6   3   23.26    2.60
  -5  -6   3   18.46    2.00
  -5   6   3   27.61    1.94
   5   6  -3   20.14    2.42
  -5  -6   2    1.63    1.17
  -5  -6   2    1.11    0.84
  -5   6   2    1.76    0.78
   5   6  -2    1.17    1.02
  -5  -6   1   84.41    4.27
  -5  -6   1   71.52    3.41
  -5   6   1   89.16    2.63
   5   6  -1   66.24    3.90
  -5  -6   0    4.92    1.54
  -5  -6   0    5.47    1.32
  -5   6   0    6.19    0.86
   5   6   0    3.50    1.44
  -5  -6  -1   20.91    2.46
  -5  -6  -1   16.22    1.87
  -5   6  -1   22.15    1.14
   5   6   1   20.64    2.79
  -5  -6  -2    2.89    1.35
  -5  -6  -2    3.51    1.09
   5   6   2    3.06    1.36
  -5  -6  -3   89.33    4.50
  -5  -6  -3   81.91    3.63
   5   6   3   80.63    4.34
  -5  -6  -4   53.58    3.67
  -5  -6  -4   50.35    2.94
  -5   6  -4   43.19    1.58
   5   6   4   50.34    3.53
  -5  -6  -5    9.09    1.97
  -5   6  -5    9.65    1.09
   5   6   5   10.52    2.09
  -5  -6  -6    4.92    1.68
  -5   6  -6    3.09    0.82
   5   6   6    4.22    1.52
  -5  -6  -7   11.20    2.29
  -5   6  -7    7.81    1.27
   5   6   7    9.25    2.06
  -5  -6  -8   37.80    3.71
  -5   6  -8   36.41    2.35
  -5  -6  -9   16.79    2.96
  -5   6  -9   12.46    1.84
  -5  -6 -10   81.93    5.45
  -5   6 -10   61.96    3.48
  -5  -6 -11   15.09    3.05
  -5   6 -11   15.62    2.32
  -5  -7  10    3.87    1.59
  -5   7  10    4.32    1.96
   5   7 -10    1.68    1.74
  -5  -7   9   51.99    3.82
  -5   7   9   64.42    4.42
   5   7  -9   45.17    4.24
  -5  -7   8   23.44    2.72
  -5   7   8   31.63    3.26
   5   7  -8   22.68    3.42
  -5  -7   7   18.51    2.58
  -5   7   7   24.02    2.73
   5   7  -7   15.54    2.85
  -5  -7   6    4.90    1.50
  -5   7   6    6.52    1.66
   5   7  -6    4.33    1.65
  -5  -7   5    6.82    1.65
  -5   7   5   10.10    1.80
   5   7  -5    7.09    2.02
  -5  -7   4    2.32    1.12
  -5   7   4    5.19    1.32
   5   7  -4    4.41    1.67
  -5  -7   3    3.81    1.26
  -5   7   3    6.10    1.28
   5   7  -3    2.25    1.32
  -5  -7   2   26.67    2.49
  -5   7   2   29.91    2.04
   5   7  -2   20.33    2.85
  -5  -7   1   53.82    3.67
  -5  -7   1   52.57    3.23
  -5   7   1   60.95    2.50
   5   7  -1   42.46    3.52
  -5  -7   0    9.32    2.01
  -5  -7   0   11.60    1.94
  -5   7   0   12.94    1.27
   5   7   0   10.90    2.29
  -5  -7  -1   25.68    2.74
  -5  -7  -1   24.85    2.42
  -5   7  -1   31.26    1.59
   5   7   1   26.85    2.96
  -5  -7  -2   53.82    3.74
  -5  -7  -2   49.69    3.14
  -5   7  -2   59.85    2.01
   5   7   2   51.55    3.80
  -5  -7  -3    0.65    1.06
  -5  -7  -3    1.26    1.01
  -5   7  -3    1.28    0.63
   5   7   3    0.58    1.14
  -5  -7  -4   37.78    3.30
  -5  -7  -4   29.88    2.61
  -5   7  -4   29.17    1.57
   5   7   4   32.39    3.16
  -5  -7  -5    3.19    1.42
  -5  -7  -5    4.38    1.38
  -5   7  -5    3.00    0.81
   5   7   5    2.97    1.48
  -5  -7  -6   12.91    2.48
  -5   7  -6   10.99    1.37
   5   7   6   12.07    2.43
  -5  -7  -7   40.61    3.77
  -5   7  -7   37.76    2.23
   5   7   7   42.45    3.79
  -5  -7  -8   25.16    3.62
  -5   7  -8   21.21    2.02
  -5   7  -9   17.87    2.12
  -5  -8   7   23.46    2.86
  -5   8   7   27.37    3.12
   5   8  -7   20.36    3.33
  -5  -8   6   31.34    3.04
  -5   8   6   37.92    3.20
   5   8  -6   27.63    3.42
  -5  -8   5    8.23    1.87
  -5   8   5   10.60    1.91
   5   8  -5    8.09    2.32
  -5  -8   4    1.56    1.09
  -5   8   4    3.92    1.34
   5   8  -4    3.37    1.61
  -5  -8   3    3.00    1.29
  -5   8   3    4.42    1.29
   5   8  -3    2.90    1.60
  -5  -8   2   18.99    2.57
  -5   8   2   21.65    2.03
   5   8  -2   15.10    2.70
  -5  -8   1   33.65    2.96
  -5   8   1   36.34    2.27
   5   8  -1   32.90    3.53
  -5  -8   0    5.67    1.63
  -5   8   0    7.45    1.24
   5   8   0    4.72    1.84
  -5  -8  -1   59.32    3.69
  -5   8  -1   68.79    2.63
   5   8   1   60.28    4.39
  -5  -8  -2   18.30    2.50
  -5   8  -2   24.62    1.67
   5   8   2   19.10    3.03
  -5  -8  -3    4.19    1.36
  -5   8  -3    4.35    0.93
   5   8   3    5.81    1.88
  -5  -8  -4    9.15    1.91
  -5   8  -4    8.82    1.23
   5   8   4    8.72    2.13
  -5  -8  -5    4.36    1.45
  -5   8  -5    4.54    0.95
   5   8   5    3.23    1.66
  -5   8  -6    6.10    1.16
   5   8   6    6.11    2.08
  -5   8  -7    3.12    1.08
   5   8   7    2.23    1.61
  -5  -9   4    1.41    1.17
  -5   9   4    1.72    1.16
   5   9  -4    2.36    1.65
  -5  -9   3    5.35    1.62
  -5   9   3    4.67    1.45
   5   9  -3    3.20    1.73
  -5  -9   2   -0.01    1.01
  -5   9   2    2.75    1.14
   5   9  -2    2.40    1.62
  -5  -9   1    1.36    1.19
  -5   9   1    2.52    1.08
   5   9  -1    1.03    1.47
  -5  -9   0   17.13    2.53
  -5   9   0   22.42    1.98
   5   9   0   18.07    3.22
  -5  -9  -1    5.03    1.62
  -5   9  -1    6.25    1.24
   5   9   1    3.88    1.75
  -5  -9  -2    5.69    1.68
  -5   9  -2    5.56    1.15
   5   9   2    5.46    2.06
  -5  -9  -3    5.96    1.75
   5   9   3    6.87    2.13
  -6   0  14   -0.71    1.36
  -6   0  13    5.51    2.10
  -6   0  12    6.73    2.13
  -6   0  11   33.14    3.40
  -6   0  10    4.91    1.74
  -6   0   9   35.08    3.15
  -6   0   8   48.63    3.39
  -6   0   7    4.64    1.51
  -6   0   6   37.24    2.81
  -6   0   5  199.38    5.50
  -6   0   4  177.47    4.94
  -6   0   3   66.40    3.03
  -6   0   2   54.75    2.67
  -6   0   1   28.23    2.00
  -6   0   0  161.86    4.15
  -6   0  -1  206.29    4.64
  -6   0  -2    2.97    0.93
  -6   0  -3  327.69    5.97
  -6   0  -4   84.80    3.24
  -6   0  -5    7.06    1.34
  -6   0  -6   38.65    2.55
  -6   0  -7    0.69    0.85
  -6   0  -8  192.46    5.79
  -6   0  -9   65.94    3.70
  -6   0 -10   45.37    3.37
  -6   0 -11   -0.04    1.07
  -6   0 -12   22.17    3.06
  -6   0 -13   -0.67    1.31
  -6  -1  14    6.47    2.25
  -6  -1  14    6.47    1.31
  -6   1  14    9.33    2.54
  -6  -1  13    9.23    2.52
  -6  -1  13    7.26    1.35
  -6   1  13    5.19    2.07
  -6  -1  12   15.65    2.80
  -6  -1  12   15.11    1.69
  -6   1  12   11.80    2.57
  -6  -1  11    8.95    2.22
  -6  -1  11    9.03    1.35
  -6   1  11   11.02    2.39
  -6  -1  10   16.82    2.72
  -6  -1  10   18.76    1.60
  -6   1  10   14.69    2.47
  -6  -1   9    3.50    1.54
  -6  -1   9    3.29    0.80
  -6   1   9    3.14    1.48
  -6  -1   8    2.33    1.37
  -6  -1   8    3.63    0.78
  -6   1   8    3.27    1.50
  -6  -1   7   93.21    4.33
  -6  -1   7   98.18    2.37
  -6   1   7   95.27    4.26
  -6  -1   6  155.85    5.25
  -6  -1   6  168.31    2.56
  -6   1   6  158.37    5.07
  -6  -1   5  188.72    5.58
  -6   1   5  168.82    4.94
  -6  -1   4  215.20    5.73
  -6   1   4  216.24    5.26
  -6  -1   3  450.92    7.86
  -6   1   3  444.66    7.02
  -6  -1   2   27.86    2.16
  -6   1   2   27.44    1.88
  -6  -1   1   28.89    2.13
  -6   1   1   30.53    1.87
  -6  -1   0  338.42    6.46
  -6   1   0  312.20    5.20
  -6  -1  -1   82.78    3.33
  -6   1  -1   86.43    2.80
  -6  -1  -2   13.73    1.75
  -6   1  -2   11.74    1.28
  -6  -1  -3   45.43    2.54
  -6   1  -3   45.72    2.17
  -6  -1  -4   59.66    2.96
  -6   1  -4   62.78    2.57
  -6  -1  -5   22.51    2.06
  -6   1  -5   27.60    1.91
  -6  -1  -6   74.70    3.59
  -6   1  -6   75.42    3.12
  -6  -1  -7  217.53    6.13
  -6   1  -7  213.67    5.41
  -6  -1  -8    2.98    1.23
  -6   1  -8    4.62    1.29
  -6  -1  -9    0.43    1.07
  -6   1  -9    0.41    0.93
  -6  -1 -10   15.26    2.44
  -6   1 -10   16.57    2.37
  -6  -1 -11   28.17    3.11
  -6   1 -11   27.37    2.87
  -6  -1 -12   52.84    4.16
  -6   1 -12   59.44    4.11
  -6  -1 -13   18.93    3.21
  -6   1 -13   20.09    3.02
  -6  -2  13    3.22    1.90
  -6  -2  13    4.29    1.28
  -6   2  13    3.95    1.96
  -6  -2  12    3.91    1.97
  -6  -2  12    2.18    1.04
  -6   2  12    4.78    1.90
  -6  -2  11   13.58    2.62
  -6  -2  11   13.57    1.79
  -6   2  11   18.57    2.96
  -6  -2  10    6.94    1.92
  -6  -2  10    8.62    1.43
  -6   2  10    9.12    2.14
  -6  -2   9    6.72    1.81
  -6  -2   9    8.44    1.35
  -6   2   9    6.76    1.84
  -6  -2   8   26.72    2.80
  -6  -2   8   28.31    1.90
  -6   2   8   31.99    2.94
   6   2  -8   22.54    2.55
   6   2  -8   19.05    2.28
  -6  -2   7   26.05    2.71
  -6  -2   7   22.28    1.65
  -6   2   7   25.98    2.53
   6   2  -7   19.96    2.23
   6   2  -7   18.82    2.13
  -6  -2   6   91.02    4.24
  -6  -2   6   90.44    2.77
  -6   2   6   94.22    3.93
   6   2  -6   75.67    3.59
   6   2  -6   70.43    3.44
  -6  -2   5   20.67    2.23
  -6  -2   5   22.30    1.39
  -6   2   5   20.65    2.04
   6   2  -5   15.87    1.77
  -6  -2   4  129.84    4.67
  -6  -2   4  139.65    2.92
  -6   2   4  139.23    4.12
   6   2  -4  107.57    3.90
  -6  -2   3   59.08    3.22
  -6  -2   3   57.74    1.74
  -6   2   3   56.82    2.59
   6   2  -3   47.24    2.61
  -6  -2   2   76.34    3.48
  -6  -2   2   84.12    1.78
  -6   2   2   75.88    2.71
   6   2  -2   71.49    3.02
  -6  -2   1   40.88    2.64
  -6   2   1   36.70    1.85
   6   2  -1   30.53    2.04
  -6  -2   0   17.03    1.91
  -6   2   0   18.22    1.33
   6   2   0   17.19    1.61
  -6  -2  -1  132.90    4.44
  -6   2  -1  133.50    3.02
  -6  -2  -2  102.82    3.98
  -6   2  -2  109.42    2.77
  -6  -2  -3   55.98    3.02
  -6   2  -3   56.77    2.11
  -6  -2  -4   32.26    2.47
  -6   2  -4   36.12    1.80
  -6  -2  -5   26.11    2.33
  -6   2  -5   31.14    1.82
  -6  -2  -6    1.37    0.96
  -6   2  -6    1.36    0.73
  -6  -2  -7   22.58    2.45
  -6   2  -7   27.12    2.07
  -6  -2  -8   92.64    4.54
  -6   2  -8   92.56    3.69
  -6  -2  -9   53.03    3.76
  -6   2  -9   50.91    3.09
  -6  -2 -10   34.15    3.23
  -6   2 -10   40.31    3.01
  -6  -2 -11   29.12    3.36
  -6   2 -11   40.65    3.26
  -6  -2 -12    3.93    1.89
  -6   2 -12    5.08    1.71
  -6  -2 -13    2.10    1.71
  -6   2 -13    0.55    1.35
  -6  -3  13    1.77    1.59
  -6  -3  13    2.48    1.26
  -6   3  13    3.51    1.96
  -6  -3  12    5.05    1.94
  -6  -3  12    3.82    1.31
  -6   3  12    4.09    1.88
  -6  -3  11    1.79    1.44
  -6  -3  11    2.24    1.11
  -6   3  11    3.75    1.79
  -6  -3  10    9.32    2.26
  -6  -3  10    7.99    1.57
  -6   3  10    8.04    2.04
   6   3 -10    4.84    1.79
  -6  -3   9    1.94    1.42
  -6  -3   9    1.84    0.96
  -6   3   9    1.68    1.28
   6   3  -9    0.78    1.10
   6   3  -9    1.93    1.20
  -6  -3   8    9.38    2.01
  -6  -3   8   11.79    1.68
  -6   3   8   10.40    2.03
   6   3  -8   10.27    1.99
   6   3  -8    7.08    1.75
  -6  -3   7   22.75    2.59
  -6  -3   7   16.36    1.70
  -6   3   7   21.05    2.38
   6   3  -7   17.69    2.45
   6   3  -7   15.09    2.31
  -6  -3   6    9.86    2.00
  -6  -3   6    1.29    0.76
  -6   3   6    1.26    0.98
   6   3  -6    1.49    0.96
  -6  -3   5    3.37    1.24
  -6  -3   5    2.13    0.76
  -6   3   5    4.13    1.15
   6   3  -5    2.98    1.09
  -6  -3   4   22.70    2.39
  -6  -3   4   21.68    1.60
  -6   3   4   23.67    1.91
   6   3  -4   19.79    2.05
  -6  -3   3  153.06    5.25
  -6  -3   3  151.26    3.62
  -6   3   3  155.68    3.93
   6   3  -3  118.71    4.29
  -6  -3   2   36.34    2.77
  -6  -3   2   34.38    1.76
  -6   3   2   37.70    1.93
   6   3  -2   29.20    2.29
  -6  -3   1   26.42    2.45
  -6  -3   1   25.66    1.51
  -6   3   1   22.67    1.45
   6   3  -1   16.05    1.83
  -6  -3   0  279.55    6.78
  -6  -3   0  256.08    4.09
  -6   3   0  240.99    3.73
   6   3   0  226.19    5.63
  -6  -3  -1  131.37    4.78
  -6   3  -1  123.11    2.54
   6   3   1  107.13    3.95
  -6  -3  -2  152.39    5.12
  -6   3  -2  172.40    2.92
   6   3   2  145.80    4.57
  -6  -3  -3   71.95    3.68
  -6   3  -3   72.18    2.01
  -6  -3  -4   12.24    1.94
  -6   3  -4   14.45    1.13
  -6  -3  -5    7.59    1.60
  -6   3  -5    9.09    1.13
  -6  -3  -6  142.12    5.39
  -6   3  -6  163.78    3.87
  -6  -3  -7   59.26    3.78
  -6   3  -7   71.70    2.91
  -6  -3  -8    4.16    1.61
  -6   3  -8    5.66    1.24
  -6  -3  -9    3.46    1.56
  -6   3  -9    6.53    1.45
  -6  -3 -10   -0.42    1.13
  -6   3 -10    1.83    1.15
  -6  -3 -11   18.01    3.04
  -6   3 -11   16.47    2.43
  -6  -3 -12   17.04    3.11
  -6   3 -12   16.28    2.53
  -6  -4  12    8.71    1.83
  -6   4  12    8.93    2.43
  -6  -4  11   10.02    2.47
  -6  -4  11   11.00    1.95
  -6   4  11   14.06    2.75
   6   4 -11   11.06    2.47
   6   4 -11   10.50    2.39
  -6  -4  10    2.64    1.62
  -6  -4  10    0.74    0.96
  -6   4  10    2.42    1.61
   6   4 -10    1.71    1.39
   6   4 -10    1.71    1.36
  -6  -4   9    5.42    1.86
  -6  -4   9    4.50    1.34
  -6   4   9    5.79    1.73
   6   4  -9    4.44    1.69
   6   4  -9    3.56    1.59
  -6  -4   8   22.59    3.01
  -6  -4   8   21.63    2.17
  -6   4   8   25.53    2.70
   6   4  -8   17.59    2.68
   6   4  -8   16.65    2.65
  -6  -4   7    3.93    1.49
  -6  -4   7    2.89    1.09
  -6   4   7    4.19    1.41
   6   4  -7    2.22    1.34
  -6  -4   6   53.88    3.66
  -6  -4   6   42.74    2.59
  -6   4   6   55.28    3.14
   6   4  -6   34.03    2.95
  -6  -4   5   38.99    3.15
  -6  -4   5   35.74    2.31
  -6   4   5   39.38    2.58
   6   4  -5   32.46    2.75
  -6  -4   4   36.06    2.98
  -6  -4   4   33.14    2.16
  -6   4   4   34.12    2.24
   6   4  -4   23.49    2.41
  -6  -4   3   35.56    2.92
  -6  -4   3   27.18    1.94
  -6   4   3   31.49    1.97
   6   4  -3   24.07    2.31
  -6  -4   2    2.99    1.27
  -6  -4   2    3.22    0.90
  -6   4   2    3.62    0.84
   6   4  -2    2.60    1.07
  -6  -4   1   20.75    2.38
  -6  -4   1   21.42    1.68
  -6   4   1   23.76    1.43
   6   4  -1   18.60    2.08
  -6  -4   0   66.19    3.74
  -6  -4   0   61.95    2.57
  -6   4   0   66.14    1.89
   6   4   0   62.33    3.41
  -6  -4  -1   72.73    3.91
  -6  -4  -1   65.07    2.60
   6   4   1   59.80    3.34
  -6  -4  -2  209.13    6.33
   6   4   2  184.15    5.57
  -6  -4  -3   87.12    4.26
   6   4   3   76.65    3.74
  -6  -4  -4   12.53    2.16
  -6   4  -4   13.29    0.95
  -6  -4  -5   34.02    2.98
  -6   4  -5   37.80    1.63
  -6  -4  -6    3.34    1.35
  -6   4  -6    3.32    0.83
  -6  -4  -7   24.63    2.75
  -6   4  -7   27.73    1.90
  -6  -4  -8    2.69    1.44
  -6   4  -8    2.08    0.98
  -6  -4  -9   64.34    4.43
  -6   4  -9   76.56    3.47
  -6  -4 -10   45.82    4.04
  -6   4 -10   44.28    3.04
  -6  -4 -11    1.04    1.57
  -6   4 -11    1.36    1.26
  -6  -4 -12    4.61    2.03
  -6   4 -12    0.54    1.31
  -6  -5  11   31.73    2.98
  -6   5  11   36.51    3.83
   6   5 -11   30.97    3.80
   6   5 -11   32.40    3.68
  -6  -5  10   36.83    2.99
  -6   5  10   41.02    3.77
   6   5 -10   31.82    3.67
   6   5 -10   26.86    3.58
  -6  -5   9    2.74    1.67
  -6  -5   9    3.68    1.35
  -6   5   9    4.40    1.76
   6   5  -9    2.77    1.51
  -6  -5   8   21.81    3.15
  -6  -5   8   18.74    2.25
  -6   5   8   23.80    2.81
   6   5  -8   19.80    3.03
  -6  -5   7   84.14    4.77
  -6  -5   7   83.52    3.92
  -6   5   7   97.36    4.45
  -6  -5   6   61.03    4.06
  -6  -5   6   57.60    3.22
  -6   5   6   64.18    3.48
   6   5  -6   41.45    3.39
  -6  -5   5   11.25    2.22
  -6  -5   5   10.45    1.66
  -6   5   5   11.11    1.75
   6   5  -5    7.87    1.80
  -6  -5   4    5.31    1.64
  -6  -5   4    7.40    1.41
  -6   5   4    5.39    1.26
   6   5  -4    3.65    1.37
  -6  -5   3    5.59    1.72
  -6  -5   3    5.23    1.23
  -6   5   3    8.04    1.30
   6   5  -3    4.35    1.49
  -6  -5   2    2.31    1.37
  -6  -5   2    2.40    0.98
  -6   5   2    4.06    0.89
   6   5  -2    2.64    1.34
  -6  -5   1   71.57    4.11
  -6  -5   1   63.36    3.01
  -6   5   1   74.69    2.28
   6   5  -1   60.94    3.67
  -6  -5   0  214.89    6.75
  -6  -5   0  205.66    5.12
  -6   5   0  219.41    3.16
   6   5   0  180.08    6.00
  -6  -5  -1   42.36    3.31
  -6  -5  -1   43.23    2.52
   6   5   1   38.06    3.12
  -6  -5  -2   12.72    2.22
  -6  -5  -2   13.91    1.63
   6   5   2   16.27    2.42
  -6  -5  -3    2.09    1.23
   6   5   3    3.14    1.23
  -6  -5  -4   18.79    2.67
  -6  -5  -5   26.36    2.81
  -6   5  -5   34.81    1.45
  -6  -5  -6   18.63    2.77
  -6   5  -6   20.73    1.46
  -6  -5  -7   45.12    3.75
  -6   5  -7   56.25    2.43
  -6  -5  -8   22.57    3.29
  -6   5  -8   22.13    1.98
  -6  -5  -9   14.30    2.80
  -6   5  -9   13.15    1.85
  -6  -5 -10    5.36    2.04
  -6   5 -10    7.12    1.61
  -6  -5 -11    1.12    1.59
  -6   5 -11   -0.60    1.09
  -6  -6  10    1.85    1.30
  -6   6  10    6.81    2.13
   6   6 -10    2.80    1.81
  -6  -6   9   25.03    2.72
  -6   6   9   36.71    3.53
   6   6  -9   25.45    3.59
  -6  -6   8    5.69    1.52
  -6   6   8    7.82    2.00
   6   6  -8    4.73    1.80
  -6  -6   7   11.83    2.05
  -6   6   7   13.56    2.26
   6   6  -7    7.07    1.98
  -6  -6   6    6.89    2.02
  -6  -6   6    5.08    1.43
  -6   6   6    4.23    1.44
   6   6  -6    3.74    1.62
  -6  -6   5   10.97    2.30
  -6  -6   5    6.95    1.58
  -6   6   5   10.01    1.72
   6   6  -5    4.86    1.74
  -6  -6   4   70.94    4.37
  -6  -6   4   63.81    3.45
  -6   6   4   74.49    3.31
   6   6  -4   55.26    3.88
  -6  -6   3    8.54    2.02
  -6  -6   3    7.78    1.56
  -6   6   3    8.19    1.37
   6   6  -3    6.07    1.72
  -6  -6   2   13.69    2.45
  -6  -6   2    8.99    1.58
  -6   6   2   12.09    1.44
   6   6  -2   11.40    2.28
  -6  -6   1    1.33    1.21
  -6  -6   1    0.69    0.82
  -6   6   1    1.18    0.64
   6   6  -1    2.64    1.34
  -6  -6   0   14.09    2.41
  -6  -6   0   12.34    1.82
  -6   6   0   12.38    1.06
   6   6   0   11.86    2.29
  -6  -6  -1   13.26    2.35
  -6  -6  -1   11.59    1.75
   6   6   1   12.07    2.19
  -6  -6  -2   27.55    2.96
  -6  -6  -2   21.50    2.09
   6   6   2   21.77    2.57
  -6  -6  -3   16.18    2.58
  -6  -6  -3   16.43    1.93
   6   6   3   16.04    2.49
  -6  -6  -4   13.85    2.49
   6   6   4   10.72    2.04
  -6  -6  -5    8.16    2.00
  -6  -6  -6    0.40    1.21
  -6   6  -6    0.10    0.60
  -6  -6  -7    2.95    1.64
  -6   6  -7    3.09    0.91
  -6  -6  -8   21.29    3.34
  -6   6  -8   21.23    1.89
  -6  -6  -9   18.74    3.21
  -6   6  -9   15.59    1.94
  -6  -7   8   29.68    2.99
  -6   7   8   36.64    3.43
   6   7  -8   30.80    3.64
  -6  -7   7    3.75    1.46
  -6   7   7    7.08    1.88
   6   7  -7    3.30    1.73
  -6  -7   6    4.41    1.46
  -6   7   6    9.47    1.89
   6   7  -6    4.96    1.90
  -6  -7   5    9.82    1.92
  -6   7   5   15.05    2.08
   6   7  -5   12.36    2.54
  -6  -7   4   14.38    2.13
  -6   7   4   18.06    2.09
   6   7  -4   14.07    2.58
  -6  -7   3   16.27    2.28
  -6   7   3   17.95    1.95
   6   7  -3   13.53    2.58
  -6  -7   2    4.82    1.78
  -6  -7   2    3.10    1.22
  -6   7   2    6.83    1.26
   6   7  -2    5.30    1.83
  -6  -7   1    9.16    2.17
  -6  -7   1    7.33    1.59
  -6   7   1    8.66    1.21
   6   7  -1    6.10    1.91
  -6  -7   0    6.62    1.96
  -6  -7   0    7.00    1.58
  -6   7   0   10.31    1.14
   6   7   0    6.17    1.80
  -6  -7  -1   34.74    3.38
  -6  -7  -1   31.16    2.64
   6   7   1   28.66    3.14
  -6  -7  -2    4.49    1.69
  -6  -7  -2    4.53    1.37
   6   7   2    3.63    1.57
  -6  -7  -3    4.33    1.68
  -6  -7  -3    4.00    1.34
   6   7   3    4.87    1.75
  -6  -7  -4    4.91    1.81
   6   7   4    3.98    1.65
  -6  -7  -5   11.37    2.46
  -6  -7  -6   15.08    2.84
  -6  -7  -7   12.47    2.78
  -6   8   6   15.19    2.38
   6   8  -6   10.42    2.58
  -6  -8   5    8.81    1.95
  -6   8   5    9.87    1.89
   6   8  -5    6.15    2.03
  -6  -8   4    6.41    1.71
  -6   8   4    8.30    1.70
   6   8  -4    6.16    2.12
  -6  -8   3   10.23    2.04
  -6   8   3   11.73    1.77
   6   8  -3    7.27    2.11
  -6  -8   2    7.08    1.77
  -6   8   2    7.39    1.38
   6   8  -2    6.32    2.02
  -6  -8   1    5.85    1.55
  -6   8   1    7.14    1.25
   6   8  -1    7.28    2.10
  -6  -8   0    4.56    1.41
   6   8   0    4.14    1.84
  -6  -8  -1   20.26    2.43
   6   8   1   20.21    3.18
  -6  -8  -2    6.65    1.67
   6   8   2    4.77    1.92
  -6  -8  -3    4.33    1.47
   6   8   3    5.27    1.85
  -6  -8  -4    9.06    1.93
   6   8   4   10.67    2.62
  -7   0  13   -0.67    1.34
  -7   0  12    6.62    2.25
  -7   0  11    7.53    2.22
  -7   0  10    2.00    1.52
  -7   0   9    2.14    1.45
  -7   0   8   12.58    2.29
  -7   0   7  268.86    7.43
  -7   0   6   23.58    2.60
  -7   0   5   19.99    2.27
  -7   0   4    0.65    0.91
  -7   0   3    5.01    1.29
  -7   0   2   29.56    2.28
  -7   0   1   26.08    2.17
  -7   0   0  327.36    6.48
  -7   0  -1   13.16    1.76
  -7   0  -2    8.78    1.53
  -7   0  -3  172.20    4.82
  -7   0  -4   12.53    1.77
  -7   0  -5    0.73    0.83
  -7   0  -6    0.07    0.79
  -7   0  -7   69.67    3.65
  -7   0  -8   52.50    3.42
  -7   0  -9   41.99    3.25
  -7   0 -10    0.38    1.15
  -7   0 -11   22.01    3.03
  -7   0 -12    1.71    1.51
  -7  -1  13    2.37    1.89
  -7   1  13    3.43    1.88
  -7  -1  12    4.91    2.08
  -7   1  12    4.64    1.91
  -7  -1  11    1.36    1.56
  -7   1  11    2.74    1.74
  -7  -1  10    5.54    2.04
  -7   1  10    3.64    1.69
  -7  -1   9   12.89    2.47
  -7   1   9   16.45    2.57
  -7  -1   8   67.02    4.18
  -7   1   8   64.29    4.04
  -7  -1   7   12.53    2.23
  -7   1   7   11.07    2.07
  -7  -1   6   49.28    3.39
  -7   1   6   44.73    3.13
  -7  -1   5   54.87    3.43
  -7   1   5   51.41    3.11
  -7  -1   4    3.04    1.18
  -7   1   4    3.01    1.09
  -7  -1   3    7.55    1.54
  -7   1   3    9.87    1.56
  -7  -1   2    9.55    1.66
  -7   1   2   12.01    1.62
  -7  -1   1  127.33    4.49
  -7   1   1  122.94    3.85
  -7  -1   0   96.16    3.93
  -7   1   0   86.19    3.21
  -7  -1  -1    0.41    0.90
  -7   1  -1    0.34    0.74
  -7  -1  -2   55.45    3.08
  -7   1  -2   55.59    2.63
  -7  -1  -3   23.74    2.21
  -7   1  -3   22.71    1.88
  -7  -1  -4   40.86    2.76
  -7   1  -4   42.32    2.40
  -7  -1  -5   24.93    2.40
  -7   1  -5   26.13    2.06
  -7  -1  -6   91.46    4.21
  -7   1  -6   92.19    3.70
  -7  -1  -7   79.73    4.11
  -7   1  -7   77.67    3.64
  -7  -1  -8    2.73    1.35
  -7   1  -8    2.84    1.24
  -7  -1  -9   11.22    2.20
  -7   1  -9   10.89    2.04
  -7  -1 -10    4.90    1.78
  -7   1 -10    3.81    1.59
  -7  -1 -11   29.02    3.38
  -7   1 -11   33.25    3.26
  -7  -1 -12   40.15    3.96
  -7   1 -12   38.57    3.58
  -7  -2  12    0.73    1.54
  -7   2  12   -0.06    1.51
  -7  -2  11   15.15    2.83
  -7  -2  11   15.09    1.60
  -7   2  11   16.08    2.90
  -7  -2  10   14.21    2.70
  -7  -2  10   16.20    1.53
  -7   2  10   15.28    2.73
  -7  -2   9   26.97    3.16
  -7  -2   9   26.19    1.67
  -7   2   9   24.25    3.00
  -7  -2   8   14.63    2.61
  -7  -2   8   12.06    1.19
  -7   2   8   11.52    2.15
  -7  -2   7   14.66    2.42
  -7  -2   7   18.14    1.19
  -7   2   7   17.65    2.43
  -7  -2   6   26.42    2.74
  -7  -2   6   30.73    1.25
  -7   2   6   27.49    2.62
  -7  -2   5    4.51    1.44
  -7   2   5    3.64    1.26
  -7  -2   4   11.26    1.93
  -7   2   4   10.09    1.66
  -7  -2   3   77.71    3.91
  -7   2   3   69.32    3.06
  -7  -2   2    3.17    1.30
  -7   2   2    3.28    0.97
  -7  -2   1    0.82    0.93
  -7   2   1    0.00    0.62
  -7  -2   0   29.11    2.52
  -7   2   0   33.09    1.94
  -7  -2  -1   82.64    3.92
  -7   2  -1   86.71    2.87
  -7  -2  -2    9.33    1.75
  -7   2  -2    9.32    1.24
  -7  -2  -3   77.69    3.82
  -7   2  -3   85.51    2.91
  -7  -2  -4  133.26    5.04
  -7   2  -4  143.25    3.81
  -7  -2  -5   29.45    2.78
  -7   2  -5   27.81    1.99
  -7  -2  -6   38.99    3.14
  -7   2  -6   44.13    2.52
  -7  -2  -7   13.82    2.26
  -7   2  -7   14.06    1.89
  -7  -2  -8   48.53    3.67
  -7   2  -8   57.31    3.16
  -7  -2  -9   25.07    3.01
  -7   2  -9   30.70    2.64
  -7  -2 -10   40.07    3.77
  -7   2 -10   38.83    3.16
  -7  -2 -11    6.90    2.13
  -7   2 -11   10.03    2.12
  -7  -3  12   14.65    2.89
  -7  -3  12   11.75    1.80
  -7   3  12   13.55    2.89
  -7  -3  11    1.31    1.51
  -7  -3  11    0.33    0.84
  -7   3  11    0.47    1.59
  -7  -3  10    6.07    2.01
  -7  -3  10    6.54    1.32
  -7   3  10    3.97    1.81
  -7  -3   9    5.75    1.89
  -7  -3   9    7.35    1.33
  -7   3   9    5.80    1.91
  -7  -3   8   25.70    3.09
  -7  -3   8   22.01    1.86
  -7   3   8   21.95    2.86
  -7  -3   7   17.55    2.64
  -7  -3   7   20.53    1.71
  -7   3   7   17.53    2.49
  -7  -3   6   11.83    2.25
  -7  -3   6   11.95    1.34
  -7   3   6    7.49    1.68
  -7  -3   5   21.96    2.62
  -7  -3   5   23.62    1.57
  -7   3   5   26.42    2.36
  -7  -3   4    2.81    1.36
  -7  -3   4    3.47    0.75
  -7   3   4    3.05    1.11
  -7  -3   3   48.55    3.43
  -7  -3   3   45.37    1.77
  -7   3   3   39.94    2.38
  -7  -3   2   32.22    2.88
  -7  -3   2   29.07    1.31
  -7   3   2   25.13    1.86
  -7  -3   1   34.00    2.93
  -7   3   1   37.39    1.99
  -7  -3   0   28.75    2.76
  -7   3   0   25.97    1.62
  -7  -3  -1   13.34    2.11
  -7   3  -1   17.93    1.34
  -7  -3  -2   11.02    1.98
  -7   3  -2   11.41    1.18
  -7  -3  -3   39.79    3.08
  -7   3  -3   44.19    1.91
  -7  -3  -4   13.12    2.23
  -7   3  -4   11.37    1.25
  -7  -3  -5  120.87    5.21
  -7   3  -5  136.50    3.56
  -7  -3  -6   61.57    4.00
  -7   3  -6   63.00    2.69
  -7  -3  -7    1.11    1.16
  -7   3  -7    0.86    0.83
  -7  -3  -8    4.66    1.78
  -7   3  -8    5.48    1.31
  -7  -3  -9    5.87    1.99
  -7   3  -9    6.28    1.50
  -7  -3 -10   12.09    2.59
  -7   3 -10   15.05    2.20
  -7  -3 -11   10.31    2.54
  -7   3 -11   11.47    2.12
  -7  -4  11   25.18    3.82
  -7  -4  11   17.32    2.16
  -7   4  11   18.21    3.20
  -7  -4  10    1.76    1.61
  -7  -4  10    2.75    1.14
  -7   4  10    0.32    1.50
  -7  -4   9    1.17    1.47
  -7  -4   9    0.82    0.93
  -7   4   9    2.45    1.62
  -7  -4   8   16.75    2.78
  -7  -4   8   19.24    2.02
  -7   4   8   23.61    3.02
  -7  -4   7   49.60    4.04
  -7  -4   7   39.38    2.53
  -7   4   7   43.51    3.33
  -7  -4   6   55.95    4.03
  -7  -4   6   51.21    2.72
  -7   4   6   54.19    3.36
  -7  -4   5   -0.33    1.03
  -7  -4   5    0.29    0.69
  -7   4   5    1.30    1.08
  -7  -4   4   13.22    2.36
  -7  -4   4   15.57    1.58
  -7   4   4   15.03    1.90
  -7  -4   3    6.45    1.81
  -7  -4   3    8.79    1.29
  -7   4   3    8.66    1.40
  -7  -4   2    2.74    1.37
  -7  -4   2    5.04    0.98
  -7   4   2    4.82    1.03
  -7  -4   1   23.10    2.69
  -7  -4   1   22.40    1.59
  -7   4   1   19.88    1.51
  -7  -4   0    3.82    1.51
  -7   4   0    6.03    0.90
  -7  -4  -1    7.24    1.82
  -7   4  -1    5.79    0.80
  -7  -4  -2   44.83    3.38
  -7   4  -2   43.81    1.58
  -7  -4  -3   54.14    3.74
  -7   4  -3   66.15    1.86
  -7  -4  -4   -0.61    0.87
  -7   4  -4    0.94    0.52
  -7  -4  -5    8.56    2.00
  -7   4  -5   13.65    1.23
  -7  -4  -6   20.28    2.94
  -7   4  -6   30.78    1.81
  -7  -4  -7   -0.80    1.07
  -7   4  -7   -0.48    0.65
  -7  -4  -8   25.10    3.51
  -7   4  -8   27.40    2.23
  -7  -4  -9   55.36    4.38
  -7   4  -9   65.34    3.31
  -7  -4 -10    2.72    1.68
  -7   4 -10    2.71    1.31
  -7  -5  10   20.27    2.40
  -7   5  10   19.89    3.09
  -7  -5   9    8.89    2.43
  -7  -5   9    7.25    1.60
  -7   5   9    9.02    2.12
  -7  -5   8    0.44    1.43
  -7  -5   8    0.39    0.82
  -7   5   8    0.97    1.30
  -7  -5   7   27.69    3.31
  -7  -5   7   23.86    2.35
  -7   5   7   22.12    2.68
  -7  -5   6    8.26    2.17
  -7  -5   6    7.00    1.50
  -7   5   6    8.70    1.76
  -7  -5   5   14.46    2.63
  -7  -5   5   17.18    1.98
  -7   5   5   17.27    2.19
  -7  -5   4    5.41    1.91
  -7  -5   4    4.69    1.21
  -7   5   4    7.05    1.43
  -7  -5   3   48.35    3.89
  -7  -5   3   46.68    2.69
  -7   5   3   49.96    2.60
  -7  -5   2   33.25    3.36
  -7  -5   2   35.10    2.34
  -7   5   2   33.35    2.03
  -7  -5   1   39.49    3.46
  -7  -5   1   38.72    2.35
  -7   5   1   36.02    1.81
  -7  -5   0    9.02    2.13
  -7  -5   0    7.85    1.31
  -7   5   0    9.22    1.02
  -7  -5  -1    0.10    1.10
  -7  -5  -1    0.22    0.65
  -7  -5  -2    5.47    1.72
  -7  -5  -3    4.77    1.80
  -7  -5  -4   54.52    4.02
  -7  -5  -5   26.37    3.13
  -7  -5  -6    5.26    1.94
  -7   5  -6    7.45    1.04
  -7  -5  -7   27.48    3.38
  -7   5  -7   27.11    1.84
  -7  -5  -8    5.93    2.05
  -7   5  -8   10.18    1.49
  -7  -5  -9    3.47    1.83
  -7   5  -9    5.86    1.32
  -7  -6   8    1.50    1.09
  -7   6   8    1.74    1.36
  -7  -6   7    6.04    2.09
  -7  -6   7    2.78    1.26
  -7   6   7    6.02    1.73
  -7  -6   6    2.24    1.64
  -7  -6   6    0.85    0.99
  -7   6   6    1.23    1.16
  -7  -6   5   15.82    2.86
  -7  -6   5   15.11    2.17
  -7   6   5   22.21    2.37
   7   6  -5   14.20    2.82
  -7  -6   4    2.89    1.81
  -7  -6   4    3.48    1.27
  -7   6   4    5.36    1.40
   7   6  -4    1.66    1.42
  -7  -6   3  111.46    5.68
  -7  -6   3  103.04    4.19
  -7   6   3  109.75    3.71
   7   6  -3   87.90    5.67
  -7  -6   2    6.13    2.02
  -7  -6   2    4.43    1.25
  -7   6   2    6.24    1.20
  -7  -6   1   24.98    3.10
  -7  -6   1   26.35    2.32
  -7   6   1   27.88    1.70
  -7  -6   0    2.08    1.56
  -7  -6   0    3.39    1.18
  -7  -6  -1    8.85    2.15
  -7  -6  -1    9.29    1.61
  -7  -6  -2   18.63    2.93
  -7  -6  -3   42.26    3.85
  -7  -6  -4    3.20    1.63
  -7  -6  -5   14.18    2.73
  -7  -6  -6    1.25    1.44
  -7  -6  -7    3.47    1.79
  -7  -6  -8   12.15    2.71
  -7  -7   6    4.66    1.50
  -7   7   6    7.51    1.75
   7   7  -6    5.46    2.35
  -7  -7   5    7.96    1.80
  -7   7   5   10.84    1.92
   7   7  -5    6.35    2.05
  -7  -7   4   13.26    2.16
  -7   7   4   17.54    2.11
   7   7  -4    9.90    2.44
  -7  -7   3   14.13    2.86
  -7  -7   3   11.70    2.00
  -7   7   3   15.75    1.91
   7   7  -3   14.23    2.71
  -7  -7   2   10.00    2.41
  -7  -7   2   11.63    1.93
  -7   7   2   11.03    1.50
  -7  -7   1   40.64    3.91
  -7  -7   1   42.58    3.03
  -7  -7   0   14.92    2.81
  -7  -7   0   12.41    1.97
  -7  -7  -1   -0.66    1.23
  -7  -7  -1    0.22    0.92
  -7  -7  -2    4.65    1.94
  -7  -7  -2    3.74    1.30
  -7  -7  -3    7.02    2.13
  -7  -7  -4   19.13    3.30
  -7  -7  -5    3.00    1.61
  -7  -8   1    0.25    0.97
  -7  -8   0   15.54    2.34
  -8   0  11    2.75    1.80
  -8   0  10    2.81    1.59
  -8   0   9   -0.07    1.24
  -8   0   8   -0.46    1.22
  -8   0   7    0.60    1.25
  -8   0   6   28.87    2.96
  -8   0   5   40.76    3.19
  -8   0   4   82.04    4.08
  -8   0   3   14.94    2.10
  -8   0   2    2.09    1.08
  -8   0   1    0.18    0.86
  -8   0   0    0.68    0.93
  -8   0  -1    9.23    1.68
  -8   0  -2   61.80    3.36
  -8   0  -3   66.33    3.46
  -8   0  -4    1.37    1.08
  -8   0  -5    7.29    1.63
  -8   0  -6   22.60    2.42
  -8   0  -7   40.81    3.12
  -8   0  -8   11.15    2.10
  -8   0  -9   -1.05    0.93
  -8   0 -10   38.20    3.56
  -8  -1  11    2.83    1.76
  -8   1  11    6.05    2.14
  -8  -1  10    1.45    1.57
  -8   1  10    1.59    1.53
  -8  -1   9    3.87    1.74
  -8   1   9    2.66    1.57
  -8  -1   8    5.22    1.82
  -8   1   8    1.84    1.49
  -8  -1   7   13.18    2.42
  -8   1   7   16.25    2.51
  -8  -1   6    1.36    1.24
  -8   1   6    0.45    1.15
  -8  -1   5    5.46    1.60
  -8   1   5    4.26    1.49
  -8  -1   4   15.14    2.35
  -8   1   4   11.67    1.90
  -8  -1   3   25.92    2.60
  -8   1   3   23.68    2.32
  -8  -1   2    0.29    1.06
  -8   1   2    1.82    0.97
  -8  -1   1    7.69    1.70
  -8   1   1    6.87    1.45
  -8  -1   0   32.71    2.76
  -8   1   0   33.86    2.43
  -8  -1  -1    5.85    1.53
  -8   1  -1    3.78    1.18
  -8  -1  -2    4.75    1.46
  -8   1  -2    5.31    1.34
  -8  -1  -3   20.38    2.34
  -8   1  -3   20.88    2.09
  -8  -1  -4   41.46    3.13
  -8   1  -4   38.68    2.63
  -8  -1  -5   17.22    2.41
  -8   1  -5   18.93    2.11
  -8  -1  -6   39.48    3.26
  -8   1  -6   38.73    2.79
  -8  -1  -7    1.29    1.27
  -8   1  -7    2.01    1.18
  -8  -1  -8   13.79    2.44
  -8   1  -8   11.89    2.06
  -8  -1  -9    9.27    2.16
  -8   1  -9    9.87    2.08
  -8  -1 -10    7.24    2.05
  -8   1 -10    5.69    1.78
  -8  -2  11    8.38    2.42
  -8   2  11    7.92    2.34
  -8  -2  10    5.50    2.18
  -8   2  10    5.98    2.04
  -8  -2   9   28.68    3.57
  -8   2   9   32.24    3.45
  -8  -2   8   31.85    3.43
  -8   2   8   29.60    3.18
  -8  -2   7    3.63    1.66
  -8   2   7    5.13    1.65
  -8  -2   6    6.51    1.88
  -8   2   6   10.98    1.99
  -8  -2   5    4.54    1.61
  -8   2   5    3.16    1.37
  -8  -2   4    5.23    1.64
  -8   2   4    5.62    1.38
  -8  -2   3    3.75    1.47
  -8   2   3    4.23    1.22
  -8  -2   2    4.63    1.53
  -8   2   2    4.00    1.11
  -8  -2   1   11.40    2.12
  -8   2   1    9.71    1.53
  -8  -2   0   32.31    2.91
  -8   2   0   30.51    2.16
  -8  -2  -1   23.24    2.68
  -8   2  -1   27.38    2.06
  -8  -2  -2    7.32    1.79
  -8   2  -2    5.82    1.25
  -8  -2  -3   54.54    3.62
  -8   2  -3   51.16    2.62
  -8  -2  -4    7.56    1.81
  -8   2  -4    8.01    1.39
  -8  -2  -5   25.05    2.84
  -8   2  -5   25.80    2.14
  -8  -2  -6   20.15    2.78
  -8   2  -6   20.04    2.05
  -8  -2  -7   14.26    2.52
  -8   2  -7   14.41    2.00
  -8  -2  -8   14.22    2.59
  -8   2  -8   15.57    2.19
  -8  -2  -9   25.40    3.49
  -8   2  -9   26.69    2.67
  -8  -2 -10    5.71    2.06
  -8   2 -10    4.45    1.59
  -8  -3  10   34.74    3.98
  -8   3  10   31.06    3.57
  -8  -3   9    4.45    1.89
  -8   3   9    3.23    1.76
  -8  -3   8    7.46    2.16
  -8   3   8    7.19    1.92
  -8  -3   7   -0.58    1.29
  -8   3   7    1.78    1.28
  -8  -3   6   18.73    2.92
  -8   3   6   16.71    2.41
  -8  -3   5    2.23    1.45
  -8   3   5    1.58    1.17
  -8  -3   4    7.86    1.92
  -8   3   4    7.02    1.49
  -8  -3   3   17.14    2.64
  -8   3   3   13.49    1.84
  -8  -3   2    6.35    1.80
  -8   3   2    6.66    1.33
  -8  -3   1   20.79    2.90
  -8   3   1   16.64    1.72
  -8  -3   0   22.71    2.75
  -8   3   0   24.40    1.86
  -8  -3  -1    6.24    1.78
  -8   3  -1   11.28    1.40
  -8  -3  -2   10.07    2.10
  -8   3  -2    9.64    1.31
  -8  -3  -3    9.51    2.05
  -8   3  -3   12.09    1.40
  -8  -3  -4   27.29    3.00
  -8   3  -4   29.08    1.90
  -8  -3  -5   40.15    3.42
  -8   3  -5   40.94    2.28
  -8  -3  -6    2.97    1.57
  -8   3  -6    5.82    1.24
  -8  -3  -7    5.36    1.94
  -8   3  -7    5.60    1.32
  -8  -3  -8    6.64    2.09
  -8   3  -8    8.36    1.62
  -8  -3  -9    6.33    2.07
  -8   3  -9    7.67    1.69
  -8  -4   9    0.80    1.44
  -8  -4   9    1.27    0.84
  -8   4   9   -0.22    1.43
  -8  -4   8   -1.38    1.14
  -8  -4   8    0.22    0.72
  -8   4   8    1.03    1.42
  -8  -4   7   13.30    2.74
  -8  -4   7   13.60    1.52
  -8   4   7   12.43    2.21
  -8  -4   6    0.97    1.46
  -8  -4   6    1.69    0.78
  -8   4   6    2.50    1.32
  -8  -4   5    7.32    2.10
  -8  -4   5    4.22    0.93
  -8   4   5    4.56    1.46
  -8  -4   4   16.99    2.85
  -8  -4   4   17.10    1.36
  -8   4   4   13.06    1.94
  -8  -4   3    8.47    2.15
  -8   4   3   10.14    1.60
  -8  -4   2    0.31    1.37
  -8   4   2    1.48    0.89
  -8  -4   1   16.71    2.80
  -8   4   1   14.45    1.57
  -8  -4   0    8.03    2.08
  -8   4   0   10.45    1.31
  -8  -4  -1   72.80    4.51
  -8   4  -1   76.66    2.48
  -8  -4  -2   11.97    2.37
  -8   4  -2   11.72    1.24
  -8  -4  -3    2.83    1.55
  -8   4  -3    3.12    0.75
  -8  -4  -4    7.32    1.99
  -8   4  -4    8.43    1.08
  -8  -4  -5    2.12    1.55
  -8   4  -5    1.92    0.75
  -8  -4  -6    2.82    1.64
  -8   4  -6    4.57    1.02
  -8  -4  -7   16.15    2.93
  -8   4  -7   16.20    1.81
  -8  -4  -8   18.03    3.17
  -8   4  -8   27.37    2.27
  -8  -5   8   -0.16    1.34
  -8  -5   8    0.00    0.76
  -8   5   8   -0.11    1.20
  -8  -5   7    2.47    1.70
  -8  -5   7    3.04    1.13
  -8   5   7    3.03    1.47
  -8  -5   6    0.57    1.43
  -8  -5   6    0.24    0.76
  -8   5   6   -0.01    1.09
  -8  -5   5    2.67    1.73
  -8  -5   5    2.23    0.98
  -8   5   5    3.89    1.39
  -8  -5   4    1.01    1.59
  -8  -5   4    1.78    0.90
  -8   5   4    0.34    1.03
  -8  -5   3   27.20    3.66
  -8  -5   3   24.92    1.92
  -8   5   3   21.68    2.07
  -8  -5   2    3.16    1.81
  -8  -5   2    4.84    1.10
  -8   5   2    5.00    1.14
  -8  -5   1    3.51    1.83
  -8   5   1    1.29    0.82
  -8  -5   0   35.94    3.59
  -8   5   0   34.86    1.70
  -8  -5  -1   -0.47    1.33
  -8  -5  -2   16.11    2.77
  -8  -5  -3    8.78    2.24
  -8  -5  -4    1.46    1.46
  -8  -5  -5   19.80    3.25
  -8  -5  -6   13.52    2.78
  -8  -5  -7   -0.52    1.27
  -8  -6   6    2.01    1.72
  -8  -6   6    0.82    0.93
  -8   6   6    0.45    1.18
  -8  -6   5    0.60    1.51
  -8  -6   5    1.18    0.94
  -8   6   5    1.44    1.15
  -8  -6   4    7.54    2.38
  -8  -6   4   11.89    1.82
  -8   6   4   13.56    1.94
  -8  -6   3    1.71    1.77
  -8  -6   3    1.85    1.05
  -8   6   3    1.67    1.03
  -8  -6   2   65.78    4.81
  -8  -6   2   62.18    3.12
  -8   6   2   61.37    2.66
  -8  -6   1    0.63    1.58
  -8  -6   1    2.01    1.04
  -8  -6   0   36.42    3.92
  -8  -6  -1    2.81    1.80
  -8  -6  -2    7.83    2.26
  -8  -6  -3    4.41    1.94
  -8  -6  -4    4.08    1.95
  -8  -6  -5    0.87    1.37
  -8  -7   2    4.31    1.97
  -8  -7   2    3.32    1.27
  -8  -7   1   18.89    3.34
  -8  -7   1   17.81    2.14
  -8  -7   0    3.40    1.89
  -8  -7   0    1.12    0.97
  -8  -7  -1    6.07    2.19
  -9   0   9    0.77    1.37
  -9   0   8    1.67    1.56
  -9   0   7   -0.28    1.24
  -9   0   6   -0.69    1.13
  -9   0   5   16.13    2.60
  -9   0   4   11.03    2.23
  -9   0   3    6.77    1.81
  -9   0   2   -0.74    1.03
  -9   0   1    0.14    1.08
  -9   0   0   47.13    3.33
  -9   0  -1    9.76    1.95
  -9   0  -2    4.36    1.46
  -9   0  -3    7.95    1.75
  -9   0  -4   16.88    2.37
  -9   0  -5    7.24    1.77
  -9   0  -6   -0.19    0.91
  -9   0  -7   13.23    2.38
  -9   0  -8    0.12    1.06
  -9  -1   9    0.93    1.51
  -9   1   9   -0.46    1.34
  -9  -1   8   -0.72    1.31
  -9   1   8    0.36    1.35
  -9  -1   7    0.66    1.28
  -9   1   7   -0.09    1.19
  -9  -1   6    3.33    1.63
  -9   1   6    3.72    1.64
  -9  -1   5    2.32    1.48
  -9   1   5    0.72    1.25
  -9  -1   4   16.19    2.58
  -9   1   4   10.88    2.07
  -9  -1   3   15.09    2.51
  -9   1   3   11.83    2.07
  -9  -1   2   40.45    3.40
  -9   1   2   38.23    3.00
  -9  -1   1    9.78    2.08
  -9   1   1    6.85    1.70
  -9  -1   0    5.30    1.76
  -9   1   0    6.91    1.62
  -9  -1  -1    6.49    1.82
  -9   1  -1    6.94    1.58
  -9  -1  -2    0.84    1.20
  -9   1  -2    0.47    1.08
  -9  -1  -3   20.36    2.76
  -9   1  -3   20.30    2.24
  -9  -1  -4   24.75    2.77
  -9   1  -4   20.41    2.27
  -9  -1  -5    2.30    1.32
  -9   1  -5    3.89    1.34
  -9  -1  -6    0.15    1.11
  -9   1  -6   -0.13    0.88
  -9  -1  -7    0.89    1.24
  -9   1  -7    0.68    1.06
  -9  -1  -8    3.43    1.67
  -9   1  -8    4.09    1.50
  -9  -2   9    1.68    1.64
  -9   2   9   -0.13    1.44
  -9  -2   8    6.39    2.21
  -9   2   8    2.77    1.67
  -9  -2   7    1.70    1.57
  -9   2   7    2.03    1.42
  -9  -2   6    2.20    1.58
  -9   2   6    3.05    1.51
  -9  -2   5    4.15    1.74
  -9   2   5    5.16    1.65
  -9  -2   4    9.38    2.24
  -9   2   4    7.52    1.79
  -9  -2   3    5.05    1.84
  -9   2   3    4.58    1.49
  -9  -2   2    1.71    1.34
  -9   2   2    2.92    1.26
  -9  -2   1   12.66    2.37
  -9   2   1   13.30    1.92
  -9  -2   0    6.59    1.91
  -9   2   0    8.24    1.59
  -9  -2  -1    4.24    1.74
  -9   2  -1    8.17    1.62
  -9  -2  -2   17.03    2.61
  -9   2  -2   21.88    2.20
  -9  -2  -3    1.08    1.30
  -9   2  -3    0.99    0.99
  -9  -2  -4    5.72    1.85
  -9   2  -4    5.12    1.34
  -9  -2  -5   16.83    2.74
  -9   2  -5   19.18    2.16
  -9  -2  -6    3.28    1.54
  -9   2  -6    1.53    1.02
  -9  -2  -7   -0.17    1.07
  -9   2  -7    0.44    1.01
  -9  -2  -8   18.41    3.09
  -9   2  -8   18.56    2.45
  -9  -3   8   10.05    2.59
  -9   3   8    8.70    2.19
  -9  -3   7   12.15    2.65
  -9   3   7    9.41    2.19
  -9  -3   6    4.27    1.98
  -9   3   6    1.02    1.30
  -9  -3   5   17.39    3.00
  -9   3   5   13.18    2.24
  -9  -3   4    9.35    2.35
  -9   3   4    7.19    1.66
  -9  -3   3   26.78    3.34
  -9   3   3   19.94    2.28
  -9  -3   2    4.33    1.85
  -9   3   2    5.11    1.39
  -9  -3   1    2.52    1.61
  -9   3   1    2.56    1.13
  -9  -3   0    0.64    1.42
  -9   3   0   -0.62    0.82
  -9  -3  -1    9.74    2.31
  -9   3  -1   11.63    1.62
  -9  -3  -2    1.20    1.52
  -9   3  -2    1.69    0.97
  -9  -3  -3   23.64    3.36
  -9   3  -3   25.32    2.06
  -9  -3  -4   30.93    3.42
  -9   3  -4   28.35    2.18
  -9  -3  -5    1.35    1.38
  -9   3  -5    0.69    0.86
  -9  -3  -6    1.62    1.48
  -9   3  -6    1.21    0.86
  -9  -3  -7    3.19    1.70
  -9   3  -7    6.34    1.47
  -9  -4   7   12.40    2.83
  -9   4   7    9.42    2.12
  -9  -4   6    1.65    1.62
  -9   4   6    1.25    1.35
  -9  -4   5    2.36    1.74
  -9   4   5    1.38    1.28
  -9  -4   4    7.76    2.32
  -9   4   4    6.43    1.63
  -9  -4   3    0.73    1.47
  -9   4   3    0.63    0.97
  -9  -4   2    7.42    2.28
  -9   4   2   10.83    1.68
  -9  -4   1   -0.04    1.42
  -9   4   1    0.20    0.80
  -9  -4   0   12.82    2.75
  -9   4   0   16.53    1.69
  -9  -4  -1    5.26    2.02
  -9   4  -1    6.36    1.19
  -9  -4  -2    6.49    2.13
  -9   4  -2    9.60    1.27
  -9  -4  -3   11.66    2.60
  -9   4  -3    9.73    1.37
  -9  -4  -4    5.64    1.99
  -9  -4  -5   10.68    2.57
  -9  -4  -6   11.03    2.58
  -9  -5   5    1.69    1.71
  -9   5   5    0.12    1.14
  -9  -5   4    2.84    1.94
  -9   5   4    2.29    1.29
  -9  -5   3    3.31    1.91
  -9   5   3    2.77    1.13
  -9  -5   2    0.70    1.58
  -9   5   2    1.17    0.86
  -9  -5   1    1.25    1.56
  -9   5   1    1.18    0.80
  -9  -5   0   10.71    2.64
  -9  -5  -1    1.24    1.61
  -9  -5  -2    5.64    2.11
  -9  -5  -3    2.94    1.80
  -9  -5  -4    5.01    2.07
 -10   0   7    3.69    1.80
 -10   0   6   12.50    2.54
 -10   0   5    3.87    1.81
 -10   0   4    4.05    1.76
 -10   0   3   11.97    2.41
 -10   0   2    5.51    1.81
 -10   0   1   -1.45    1.19
 -10   0   0   47.62    3.71
 -10   0  -1    3.21    1.61
 -10   0  -2    0.62    1.25
 -10   0  -3    4.12    1.61
 -10   0  -4    1.27    1.21
 -10   0  -5    1.41    1.24
 -10  -1   7    1.11    1.61
 -10   1   7    2.85    1.72
 -10  -1   6    2.22    1.66
 -10   1   6    2.37    1.61
 -10  -1   5    9.07    2.26
 -10   1   5    9.24    2.19
 -10  -1   4    4.57    1.90
 -10   1   4    4.92    1.79
 -10  -1   3    3.04    1.71
 -10   1   3    1.88    1.50
 -10  -1   2   -0.53    1.37
 -10   1   2    0.50    1.29
 -10  -1   1   14.32    2.59
 -10   1   1   10.39    2.11
 -10  -1   0    3.65    1.73
 -10   1   0    2.37    1.43
 -10  -1  -1   11.36    2.31
 -10   1  -1    9.44    1.96
 -10  -1  -2    5.43    1.89
 -10   1  -2    6.31    1.69
 -10  -1  -3    1.70    1.36
 -10   1  -3    1.14    1.14
 -10  -1  -4    1.05    1.30
 -10   1  -4    0.62    1.05
 -10  -1  -5   -0.30    1.16
 -10   1  -5    0.48    1.03
 -10  -2   6    0.75    1.65
 -10   2   6    1.52    1.45
 -10  -2   5   -0.52    1.47
 -10   2   5    0.83    1.32
 -10  -2   4    0.07    1.39
 -10   2   4    0.52    1.20
 -10  -2   3    5.92    2.03
 -10   2   3    5.93    1.73
 -10  -2   2    3.78    1.83
 -10   2   2    2.74    1.37
 -10  -2   1    3.07    1.85
 -10   2   1    2.60    1.36
 -10  -2   0    3.58    1.81
 -10   2   0    3.15    1.39
 -10  -2  -1   16.18    2.88
 -10   2  -1   19.03    2.39
 -10  -2  -2    2.65    1.58
 -10   2  -2    0.31    1.05
 -10  -2  -3    6.43    1.90
 -10   2  -3    7.43    1.64
 -10  -2  -4   -0.13    1.10
 -10   2  -4    1.47    1.05
 -10  -2  -5    0.01    1.17
 -10   2  -5   -0.17    0.78
 -10  -3   5    1.51    1.71
 -10   3   5    0.77    1.24
 -10  -3   4    0.22    1.55
 -10   3   4    2.22    1.33
 -10  -3   3    3.06    1.91
 -10   3   3    4.71    1.46
 -10  -3   2    4.70    2.04
 -10   3   2    3.20    1.40
 -10  -3   1    2.55    1.73
 -10   3   1    0.47    1.08
 -10  -3   0    2.28    1.67
 -10   3   0    0.82    1.09
 -10  -3  -1    9.00    2.33
 -10   3  -1    8.72    1.66
 -10  -3  -2   10.35    2.44
 -10   3  -2    8.95    1.56
 -10  -3  -3    1.55    1.58
 -10   3  -3    1.00    0.89
 -10  -4   2    1.68    1.73
 -10   4   2    1.66    1.13
 -10  -4   1   -0.99    1.42
 -10   4   1   -0.25    0.85
 -10  -4   0    9.70    2.50
 -10   4   0    9.45    1.59
   0   0   0    0.00    0.00
;
loop_
_space_group_symop_operation_xyz
'x, y, z'
'-x, y+1/2, -z'
loop_
_atom_site_label
_atom_site_type_symbol
_atom_site_fract_x
_atom_site_fract_y
_atom_site_fract_z
_atom_site_U_iso_or_equiv
_atom_site_adp_type
_atom_site_occupancy
_atom_site_site_symmetry_order
_atom_site_calc_flag
_atom_site_refinement_flags_posn
_atom_site_refinement_flags_adp
_atom_site_refinement_flags_occupancy
_atom_site_disorder_assembly
_atom_site_disorder_group
Cl1 Cl 0.05378(9) 0.25991(10) 0.07451(5) 0.05572(19) Uani 1 1 d . . . . .
O1 O 0.1888(4) -0.3498(3) 0.3458(2) 0.0702(7) Uani 1 1 d . . . . .
H1O H 0.150(5) -0.448(6) 0.350(3) 0.069(11) Uiso 1 1 d . . . . .
O2 O 0.0475(2) 0.2845(2) 0.34835(15) 0.0480(4) Uani 1 1 d . . . . .
N1 N 0.3678(3) 0.0021(3) 0.3870(2) 0.0507(5) Uani 1 1 d . . . . .
H1N H 0.341(4) -0.102(5) 0.403(3) 0.044(8) Uiso 1 1 d . . . . .
C1 C 0.0783(3) 0.1234(3) 0.32893(17) 0.0354(4) Uani 1 1 d . . . . .
C2 C 0.2580(3) 0.0585(3) 0.28374(18) 0.0342(4) Uani 1 1 d . . . . .
C3 C 0.2383(3) -0.1139(3) 0.2045(2) 0.0411(5) Uani 1 1 d . . . . .
H12 H 0.198160 -0.073719 0.127520 0.049 Uiso 1 1 calc R U . . .
H13 H 0.355195 -0.169700 0.198221 0.049 Uiso 1 1 calc R U . . .
C4 C 0.1107(4) -0.2606(3) 0.2448(2) 0.0503(6) Uani 1 1 d . . . . .
H44 H 0.092957 -0.352762 0.183122 0.060 Uiso 1 1 calc R U . . .
C5 C -0.0678(4) -0.1767(4) 0.2699(3) 0.0561(7) Uani 1 1 d . . . . .
H5A H -0.146834 -0.272738 0.296116 0.067 Uiso 1 1 calc R U . . .
H5B H -0.121082 -0.124178 0.199197 0.067 Uiso 1 1 calc R U . . .
C6 C -0.0492(4) -0.0262(4) 0.3625(2) 0.0480(5) Uani 1 1 d . . . . .
H6A H -0.165444 0.027927 0.374096 0.058 Uiso 1 1 calc R U . . .
H6B H -0.006709 -0.081142 0.435259 0.058 Uiso 1 1 calc R U . . .
C7 C 0.3512(3) 0.2111(3) 0.2179(2) 0.0374(4) Uani 1 1 d . . . . .
C8 C 0.5293(3) 0.2550(5) 0.2475(3) 0.0586(6) Uani 1 1 d . . . . .
H8 H 0.587639 0.193452 0.308931 0.070 Uiso 1 1 calc R U . . .
C9 C 0.6209(5) 0.3883(5) 0.1871(5) 0.0807(12) Uani 1 1 d . . . . .
H9 H 0.738859 0.415501 0.209126 0.097 Uiso 1 1 calc R U . . .
C10 C 0.5397(5) 0.4799(5) 0.0958(4) 0.0785(12) Uani 1 1 d . . . . .
H10 H 0.602036 0.568930 0.055869 0.094 Uiso 1 1 calc R U . . .
C11 C 0.3633(5) 0.4393(4) 0.0628(3) 0.0612(8) Uani 1 1 d . . . . .
H11 H 0.306591 0.500376 0.000529 0.073 Uiso 1 1 calc R U . . .
C12 C 0.2731(3) 0.3065(3) 0.1242(2) 0.0414(5) Uani 1 1 d . . . . .
C13 C 0.3658(5) 0.1213(5) 0.4897(3) 0.0738(10) Uani 1 1 d . . . . .
H13A H 0.388078 0.246823 0.467645 0.111 Uiso 1 1 calc R U . . .
H13B H 0.456806 0.081628 0.545421 0.111 Uiso 1 1 calc R U . . .
H13C H 0.251167 0.113289 0.523331 0.111 Uiso 1 1 calc R U . . .
loop_
_atom_site_aniso_label
_atom_site_aniso_U_11
_atom_site_aniso_U_22
_atom_site_aniso_U_33
_atom_site_aniso_U_23
_atom_site_aniso_U_13
_atom_site_aniso_U_12
Cl1 0.0677(4) 0.0563(4) 0.0416(3) 0.0085(3) -0.0148(2) 0.0024(3)
O1 0.123(2) 0.0275(9) 0.0582(13) 0.0087(8) -0.0190(12) -0.0086(10)
O2 0.0655(10) 0.0323(8) 0.0469(8) -0.0019(7) 0.0102(7) 0.0049(8)
N1 0.0682(13) 0.0330(10) 0.0485(11) 0.0022(9) -0.0242(10) 0.0040(10)
C1 0.0498(11) 0.0284(9) 0.0279(8) 0.0012(7) -0.0016(7) -0.0011(8)
C2 0.0430(10) 0.0243(8) 0.0345(9) 0.0000(7) -0.0067(8) 0.0003(7)
C3 0.0582(13) 0.0272(9) 0.0379(11) -0.0045(8) 0.0009(9) -0.0001(9)
C4 0.0817(16) 0.0287(11) 0.0394(10) -0.0020(9) -0.0080(10) -0.0109(11)
C5 0.0705(16) 0.0483(14) 0.0489(14) 0.0027(11) -0.0035(11) -0.0270(12)
C6 0.0571(14) 0.0406(12) 0.0470(13) 0.0043(10) 0.0093(10) -0.0070(10)
C7 0.0400(10) 0.0262(9) 0.0462(11) -0.0034(8) 0.0036(8) 0.0008(7)
C8 0.0408(11) 0.0469(13) 0.0880(19) -0.0060(16) 0.0019(11) -0.0009(12)
C9 0.0499(16) 0.0596(19) 0.135(4) -0.020(2) 0.0309(19) -0.0187(14)
C10 0.089(2) 0.0473(16) 0.103(3) -0.0033(18) 0.053(2) -0.0190(16)
C11 0.092(2) 0.0387(13) 0.0550(15) 0.0059(11) 0.0292(14) -0.0031(14)
C12 0.0557(12) 0.0316(10) 0.0376(10) 0.0006(8) 0.0111(9) -0.0001(9)
C13 0.110(3) 0.0593(17) 0.0486(15) -0.0076(14) -0.0393(16) 0.0051(18)
loop_
_atom_type_symbol
_atom_type_description
_atom_type_scat_dispersion_real
_atom_type_scat_dispersion_imag
_atom_type_scat_source
C C 0.0033 0.0016 'International Tables Vol C Tables 4.2.6.8 and 6.1.1.4'
H H 0.0000 0.0000 'International Tables Vol C Tables 4.2.6.8 and 6.1.1.4'
N N 0.0061 0.0033 'International Tables Vol C Tables 4.2.6.8 and 6.1.1.4'
O O 0.0106 0.0060 'International Tables Vol C Tables 4.2.6.8 and 6.1.1.4'
Cl Cl 0.1484 0.1585 'International Tables Vol C Tables 4.2.6.8 and 6.1.1.4'
loop_
_geom_angle_atom_site_label_1
_geom_angle_atom_site_label_2
_geom_angle_atom_site_label_3
_geom_angle
_geom_angle_site_symmetry_1
_geom_angle_site_symmetry_3
C4 O1 H1O 109(3) . .
C13 N1 C2 117.7(2) . .
C13 N1 H1N 111(2) . .
C2 N1 H1N 108(2) . .
O2 C1 C6 121.0(2) . .
O2 C1 C2 122.3(2) . .
C6 C1 C2 116.26(19) . .
N1 C2 C7 110.51(18) . .
N1 C2 C1 106.03(19) . .
C7 C2 C1 112.00(16) . .
N1 C2 C3 106.79(17) . .
C7 C2 C3 108.76(17) . .
C1 C2 C3 112.60(18) . .
C4 C3 C2 115.28(19) . .
C4 C3 H12 108.5 . .
C2 C3 H12 108.5 . .
C4 C3 H13 108.5 . .
C2 C3 H13 108.5 . .
H12 C3 H13 107.5 . .
O1 C4 C5 111.0(2) . .
O1 C4 C3 108.9(2) . .
C5 C4 C3 110.8(2) . .
O1 C4 H44 108.7 . .
C5 C4 H44 108.7 . .
C3 C4 H44 108.7 . .
C4 C5 C6 111.5(2) . .
C4 C5 H5A 109.3 . .
C6 C5 H5A 109.3 . .
C4 C5 H5B 109.3 . .
C6 C5 H5B 109.3 . .
H5A C5 H5B 108.0 . .
C1 C6 C5 111.8(2) . .
C1 C6 H6A 109.3 . .
C5 C6 H6A 109.3 . .
C1 C6 H6B 109.3 . .
C5 C6 H6B 109.3 . .
H6A C6 H6B 107.9 . .
C12 C7 C8 116.2(2) . .
C12 C7 C2 124.05(19) . .
C8 C7 C2 119.7(2) . .
C9 C8 C7 121.5(3) . .
C9 C8 H8 119.3 . .
C7 C8 H8 119.3 . .
C10 C9 C8 120.7(3) . .
C10 C9 H9 119.6 . .
C8 C9 H9 119.6 . .
C9 C10 C11 119.7(3) . .
C9 C10 H10 120.2 . .
C11 C10 H10 120.2 . .
C12 C11 C10 119.0(3) . .
C12 C11 H11 120.5 . .
C10 C11 H11 120.5 . .
C11 C12 C7 122.9(3) . .
C11 C12 Cl1 116.0(2) . .
C7 C12 Cl1 121.10(17) . .
N1 C13 H13A 109.5 . .
N1 C13 H13B 109.5 . .
H13A C13 H13B 109.5 . .
N1 C13 H13C 109.5 . .
H13A C13 H13C 109.5 . .
H13B C13 H13C 109.5 . .
loop_
_geom_bond_atom_site_label_1
_geom_bond_atom_site_label_2
_geom_bond_distance
_geom_bond_site_symmetry_2
Cl1 C12 1.749(3) .
O1 C4 1.434(3) .
O1 H1O 0.77(4) .
O2 C1 1.211(3) .
N1 C13 1.467(4) .
N1 C2 1.475(3) .
N1 H1N 0.80(4) .
C1 C6 1.506(3) .
C1 C2 1.539(3) .
C2 C7 1.527(3) .
C2 C3 1.549(3) .
C3 C4 1.515(3) .
C3 H12 0.9700 .
C3 H13 0.9700 .
C4 C5 1.509(4) .
C4 H44 0.9800 .
C5 C6 1.527(4) .
C5 H5A 0.9700 .
C5 H5B 0.9700 .
C6 H6A 0.9700 .
C6 H6B 0.9700 .
C7 C12 1.390(3) .
C7 C8 1.399(3) .
C8 C9 1.389(5) .
C8 H8 0.9300 .
C9 C10 1.364(6) .
C9 H9 0.9300 .
C10 C11 1.391(5) .
C10 H10 0.9300 .
C11 C12 1.387(3) .
C11 H11 0.9300 .
C13 H13A 0.9600 .
C13 H13B 0.9600 .
C13 H13C 0.9600 .
loop_
_geom_hbond_atom_site_label_D
_geom_hbond_atom_site_label_H
_geom_hbond_atom_site_label_A
_geom_hbond_distance_DH
_geom_hbond_distance_HA
_geom_hbond_distance_DA
_geom_hbond_angle_DHA
_geom_hbond_site_symmetry_A
_geom_hbond_publ_flag
O1 H1O O2 0.77(4) 2.08(4) 2.850(3) 175(4) 1_545 yes
N1 H1N O1 0.80(4) 2.21(3) 2.907(3) 146(3) . yes
loop_
_geom_torsion_atom_site_label_1
_geom_torsion_atom_site_label_2
_geom_torsion_atom_site_label_3
_geom_torsion_atom_site_label_4
_geom_torsion
_geom_torsion_site_symmetry_1
_geom_torsion_site_symmetry_2
_geom_torsion_site_symmetry_3
_geom_torsion_site_symmetry_4
C13 N1 C2 C7 78.6(3) . . . .
C13 N1 C2 C1 -43.0(3) . . . .
C13 N1 C2 C3 -163.2(3) . . . .
O2 C1 C2 N1 95.2(2) . . . .
C6 C1 C2 N1 -77.2(2) . . . .
O2 C1 C2 C7 -25.4(3) . . . .
C6 C1 C2 C7 162.16(19) . . . .
O2 C1 C2 C3 -148.4(2) . . . .
C6 C1 C2 C3 39.2(3) . . . .
N1 C2 C3 C4 74.8(3) . . . .
C7 C2 C3 C4 -165.93(19) . . . .
C1 C2 C3 C4 -41.2(3) . . . .
C2 C3 C4 O1 -70.9(3) . . . .
C2 C3 C4 C5 51.4(3) . . . .
O1 C4 C5 C6 62.6(3) . . . .
C3 C4 C5 C6 -58.5(3) . . . .
O2 C1 C6 C5 140.3(2) . . . .
C2 C1 C6 C5 -47.2(3) . . . .
C4 C5 C6 C1 56.6(3) . . . .
N1 C2 C7 C12 -172.8(2) . . . .
C1 C2 C7 C12 -54.8(3) . . . .
C3 C2 C7 C12 70.2(3) . . . .
N1 C2 C7 C8 10.6(3) . . . .
C1 C2 C7 C8 128.5(2) . . . .
C3 C2 C7 C8 -106.4(2) . . . .
C12 C7 C8 C9 0.8(4) . . . .
C2 C7 C8 C9 177.7(3) . . . .
C7 C8 C9 C10 -0.6(5) . . . .
C8 C9 C10 C11 0.0(6) . . . .
C9 C10 C11 C12 0.3(5) . . . .
C10 C11 C12 C7 0.0(4) . . . .
C10 C11 C12 Cl1 -178.4(2) . . . .
C8 C7 C12 C11 -0.6(3) . . . .
C2 C7 C12 C11 -177.3(2) . . . .
C8 C7 C12 Cl1 177.78(19) . . . .
C2 C7 C12 Cl1 1.0(3) . . . .
