#------------------------------------------------------------------------------
#$Date: 2022-09-13 12:33:29 +0300 (Tue, 13 Sep 2022) $
#$Revision: 277804 $
#$URL: file:///home/coder/svn-repositories/cod/cif/8/10/57/8105767.cif $
#------------------------------------------------------------------------------
#
# This file is available in the Crystallography Open Database (COD),
# http://www.crystallography.net/
#
# All data on this site have been placed in the public domain by the
# contributors.
#
data_8105767
loop_
_publ_author_name
'Li, Guo-Qiang'
'Li, Yun-Yi'
'Zhao, Yi-Ting'
'Xu, Qing-Peng'
'Li, Yao-Lan'
'Wang, Guo-Cai'
_publ_section_title
;
 Isolation and crystal structure of
 4-((2-(methoxycarbonyl)phenyl)amino)-2-methyl-4-oxobutanoic acid from
 Delphinium Grandiflorum, C13H15N1O5
;
_journal_issue                   3
_journal_name_full
'Zeitschrift f\"ur Kristallographie - New Crystal Structures'
_journal_page_first              521
_journal_page_last               522
_journal_paper_doi               10.1515/ncrs-2018-0517
_journal_volume                  234
_journal_year                    2019
_chemical_formula_moiety         'C13 H15 N O5'
_chemical_formula_sum            'C13 H15 N O5'
_chemical_formula_weight         265.26
_space_group_crystal_system      triclinic
_space_group_IT_number           2
_space_group_name_Hall           '-P 1'
_space_group_name_H-M_alt        'P -1'
_atom_sites_solution_hydrogens   mixed
_atom_sites_solution_primary     direct
_cell_angle_alpha                100.254(8)
_cell_angle_beta                 100.036(8)
_cell_angle_gamma                94.760(8)
_cell_formula_units_Z            2
_cell_length_a                   7.9457(7)
_cell_length_b                   8.7190(9)
_cell_length_c                   9.9964(10)
_cell_measurement_reflns_used    1834
_cell_measurement_temperature    298
_cell_measurement_theta_max      62.8300
_cell_measurement_theta_min      5.2030
_cell_volume                     666.39(12)
_computing_cell_refinement
;
CrysAlisPro, Agilent Technologies,
Version 1.171.37.35 
;
_computing_data_collection
;
CrysAlisPro, Agilent Technologies,
Version 1.171.37.35
;
_computing_data_reduction
;
CrysAlisPro, Agilent Technologies,
Version 1.171.37.35
;
_computing_molecular_graphics    'Olex2 (Dolomanov et al., 2009)[1]'
_computing_publication_material  'Olex2 (Dolomanov et al., 2009)[1]'
_computing_structure_refinement  'ShelXL (Sheldrick, 2008)[2]'
_computing_structure_solution    'ShelXS (Sheldrick, 2008)[2]'
_diffrn_ambient_temperature      298
_diffrn_detector                 'CCD plate'
_diffrn_detector_area_resol_mean 16.0288
_diffrn_detector_type            Sapphire3
_diffrn_measured_fraction_theta_full 0.983
_diffrn_measured_fraction_theta_max 0.983
_diffrn_measurement_details
;
#__ type_ start__ end____ width___ exp.time_
  1 omega   16.00   90.00   1.0000    1.0000
omega____ theta____ kappa____ phi______ frames
    -       32.9934   57.0000  -60.0000 74

#__ type_ start__ end____ width___ exp.time_
  2 omega  107.00  133.00   1.0000    1.0000
omega____ theta____ kappa____ phi______ frames
    -       90.5000   30.0000 -180.0000 26

#__ type_ start__ end____ width___ exp.time_
  3 omega   68.00  137.00   1.0000    1.0000
omega____ theta____ kappa____ phi______ frames
    -       90.5000   45.0000 -180.0000 69

#__ type_ start__ end____ width___ exp.time_
  4 omega  100.00  125.00   1.0000    1.0000
omega____ theta____ kappa____ phi______ frames
    -       90.5000  111.0000  -30.0000 25

#__ type_ start__ end____ width___ exp.time_
  5 omega  120.00  158.00   1.0000    1.0000
omega____ theta____ kappa____ phi______ frames
    -       90.5000   61.0000   90.0000 38

#__ type_ start__ end____ width___ exp.time_
  6 omega  132.00  163.00   1.0000    1.0000
omega____ theta____ kappa____ phi______ frames
    -       90.5000   30.0000  120.0000 31

#__ type_ start__ end____ width___ exp.time_
  7 omega   84.00  152.00   1.0000    1.0000
omega____ theta____ kappa____ phi______ frames
    -       90.5000   15.0000   60.0000 68

#__ type_ start__ end____ width___ exp.time_
  8 omega   89.00  115.00   1.0000    1.0000
omega____ theta____ kappa____ phi______ frames
    -       90.5000  -93.0000  118.4536 26

#__ type_ start__ end____ width___ exp.time_
  9 omega   48.00   76.00   1.0000    1.0000
omega____ theta____ kappa____ phi______ frames
    -       90.5000  -45.0000  150.0000 28

#__ type_ start__ end____ width___ exp.time_
 10 omega   36.00   72.00   1.0000    1.0000
omega____ theta____ kappa____ phi______ frames
    -       90.5000  -93.0000  118.4536 36

#__ type_ start__ end____ width___ exp.time_
 11 omega   27.00   65.00   1.0000    1.0000
omega____ theta____ kappa____ phi______ frames
    -       90.5000  -30.0000   60.0000 38

#__ type_ start__ end____ width___ exp.time_
 12 omega   54.00   80.00   1.0000    1.0000
omega____ theta____ kappa____ phi______ frames
    -       90.5000   15.0000   60.0000 26

#__ type_ start__ end____ width___ exp.time_
 13 omega   62.00  108.00   1.0000    1.0000
omega____ theta____ kappa____ phi______ frames
    -       90.5000   30.0000  120.0000 46

#__ type_ start__ end____ width___ exp.time_
 14 omega   49.00   74.00   1.0000    1.0000
omega____ theta____ kappa____ phi______ frames
    -       90.5000  -45.0000  -30.0000 25

#__ type_ start__ end____ width___ exp.time_
 15 omega   45.00   84.00   1.0000    1.0000
omega____ theta____ kappa____ phi______ frames
    -       90.5000  -87.0000  -26.2857 39

#__ type_ start__ end____ width___ exp.time_
 16 omega   60.00   92.00   1.0000    1.0000
omega____ theta____ kappa____ phi______ frames
    -       90.5000 -116.0000  -99.0000 32

#__ type_ start__ end____ width___ exp.time_
 17 omega   84.00  112.00   1.0000    1.0000
omega____ theta____ kappa____ phi______ frames
    -       90.5000  -93.0000 -149.5167 28

#__ type_ start__ end____ width___ exp.time_
 18 omega   90.00  116.00   1.0000    1.0000
omega____ theta____ kappa____ phi______ frames
    -       90.5000  -88.0000 -159.1718 26

#__ type_ start__ end____ width___ exp.time_
 19 omega   32.00   65.00   1.0000    1.0000
omega____ theta____ kappa____ phi______ frames
    -       90.5000  -30.0000 -150.0000 33

#__ type_ start__ end____ width___ exp.time_
 20 omega   27.00   60.00   1.0000    1.0000
omega____ theta____ kappa____ phi______ frames
    -       90.5000  -77.0000 -180.0000 33

#__ type_ start__ end____ width___ exp.time_
 21 omega   31.00   56.00   1.0000    1.0000
omega____ theta____ kappa____ phi______ frames
    -       90.5000 -116.0000  -99.0000 25

#__ type_ start__ end____ width___ exp.time_
 22 omega   20.00  107.00   1.0000    1.0000
omega____ theta____ kappa____ phi______ frames
    -       90.5000  -93.0000  -42.6543 87

#__ type_ start__ end____ width___ exp.time_
 23 omega   29.00  120.00   1.0000    1.0000
omega____ theta____ kappa____ phi______ frames
    -       90.5000  -89.0000   57.0285 91

#__ type_ start__ end____ width___ exp.time_
 24 omega   30.00   56.00   1.0000    1.0000
omega____ theta____ kappa____ phi______ frames
    -       90.5000  -94.0000   90.0000 26

#__ type_ start__ end____ width___ exp.time_
 25 omega   11.00   75.00   1.0000    1.0000
omega____ theta____ kappa____ phi______ frames
    -       32.9934  -99.0000  150.0000 64

#__ type_ start__ end____ width___ exp.time_
 26 omega  -25.00    8.00   1.0000    1.0000
omega____ theta____ kappa____ phi______ frames
    -       32.9934  -99.0000  150.0000 33

#__ type_ start__ end____ width___ exp.time_
 27 omega   22.00   76.00   1.0000    1.0000
omega____ theta____ kappa____ phi______ frames
    -       90.5000  -45.0000  -60.0000 54

#__ type_ start__ end____ width___ exp.time_
 28 omega   26.00   68.00   1.0000    1.0000
omega____ theta____ kappa____ phi______ frames
    -       90.5000  -45.0000 -150.0000 42

#__ type_ start__ end____ width___ exp.time_
 29 omega   18.00  106.00   1.0000    1.0000
omega____ theta____ kappa____ phi______ frames
    -       32.9934   19.0000 -120.0000 88

#__ type_ start__ end____ width___ exp.time_
 30 omega  -94.00  -53.00   1.0000    1.0000
omega____ theta____ kappa____ phi______ frames
    -      -32.9934  178.0000  -60.0000 41

#__ type_ start__ end____ width___ exp.time_
 31 omega -109.00  -84.00   1.0000    1.0000
omega____ theta____ kappa____ phi______ frames
    -      -32.9934 -178.0000 -150.0000 25
;
_diffrn_measurement_device       'four-circle diffractometer'
_diffrn_measurement_device_type  'Gemini S ultra'
_diffrn_measurement_method       '\w scans'
_diffrn_orient_matrix_UB_11      -0.0433980000
_diffrn_orient_matrix_UB_12      -0.1179904000
_diffrn_orient_matrix_UB_13      0.0903460000
_diffrn_orient_matrix_UB_21      -0.1086960000
_diffrn_orient_matrix_UB_22      -0.1106563000
_diffrn_orient_matrix_UB_23      -0.1291583000
_diffrn_orient_matrix_UB_31      0.1600475000
_diffrn_orient_matrix_UB_32      -0.0807908000
_diffrn_orient_matrix_UB_33      -0.0251029000
_diffrn_radiation_monochromator  mirror
_diffrn_radiation_probe          x-ray
_diffrn_radiation_type           CuK\a
_diffrn_radiation_wavelength     1.54184
_diffrn_reflns_av_R_equivalents  0.0225
_diffrn_reflns_av_unetI/netI     0.0241
_diffrn_reflns_Laue_measured_fraction_full 0.983
_diffrn_reflns_Laue_measured_fraction_max 0.983
_diffrn_reflns_limit_h_max       9
_diffrn_reflns_limit_h_min       -6
_diffrn_reflns_limit_k_max       9
_diffrn_reflns_limit_k_min       -10
_diffrn_reflns_limit_l_max       11
_diffrn_reflns_limit_l_min       -11
_diffrn_reflns_number            4205
_diffrn_reflns_point_group_measured_fraction_full 0.983
_diffrn_reflns_point_group_measured_fraction_max 0.983
_diffrn_reflns_theta_full        62.751
_diffrn_reflns_theta_max         62.751
_diffrn_reflns_theta_min         5.191
_diffrn_source                   'sealed X-ray tube'
_diffrn_source_type              'Enhance Ultra (Cu) X-ray Source'
_exptl_absorpt_coefficient_mu    0.862
_exptl_absorpt_correction_T_max  1.00000
_exptl_absorpt_correction_T_min  0.84817
_exptl_absorpt_correction_type   multi-scan
_exptl_absorpt_process_details
;
CrysAlisPro, Agilent Technologies,
Version 1.171.37.35 
Empirical absorption correction using spherical harmonics,
 implemented in SCALE3 ABSPACK scaling algorithm.
;
_exptl_crystal_colour            'clear light colourless'
_exptl_crystal_colour_lustre     clear
_exptl_crystal_colour_modifier   light
_exptl_crystal_colour_primary    colourless
_exptl_crystal_density_diffrn    1.322
_exptl_crystal_description       block
_exptl_crystal_F_000             280
_exptl_crystal_size_max          0.28
_exptl_crystal_size_mid          0.24
_exptl_crystal_size_min          0.24
_refine_diff_density_max         0.154
_refine_diff_density_min         -0.148
_refine_diff_density_rms         0.032
_refine_ls_extinction_coef       .
_refine_ls_extinction_method     none
_refine_ls_goodness_of_fit_ref   1.046
_refine_ls_hydrogen_treatment    mixed
_refine_ls_matrix_type           full
_refine_ls_number_parameters     178
_refine_ls_number_reflns         2102
_refine_ls_number_restraints     0
_refine_ls_restrained_S_all      1.046
_refine_ls_R_factor_all          0.0514
_refine_ls_R_factor_gt           0.0453
_refine_ls_shift/su_max          0.000
_refine_ls_shift/su_mean         0.000
_refine_ls_structure_factor_coef Fsqd
_refine_ls_weighting_details
'w=1/[\s^2^(Fo^2^)+(0.0632P)^2^+0.1591P] where P=(Fo^2^+2Fc^2^)/3'
_refine_ls_weighting_scheme      calc
_refine_ls_wR_factor_gt          0.1180
_refine_ls_wR_factor_ref         0.1243
_reflns_Friedel_coverage         0.000
_reflns_Friedel_fraction_full    .
_reflns_Friedel_fraction_max     .
_reflns_number_gt                1836
_reflns_number_total             2102
_reflns_threshold_expression     'I > 2\s(I)'
_cod_data_source_file            suppl_ncrs-2018-0517_suppl.cif
_cod_data_source_block           lgq-fyc-m-3
_cod_original_cell_volume        666.38(11)
_cod_database_code               8105767
_shelx_space_group_comment
;
The symmetry employed for this shelxl refinement is uniquely defined
by the following loop, which should always be used as a source of
symmetry information in preference to the above space-group names.
They are only intended as comments.
;
_reflns_odcompleteness_completeness 95.98
_reflns_odcompleteness_iscentric 1
_reflns_odcompleteness_theta     63.60
_olex2_refinement_description
;
1. Fixed Uiso
 At 1.2 times of:
  All C(H) groups, All C(H,H) groups, All N(H) groups
 At 1.5 times of:
  All C(H,H,H) groups
2.a Ternary CH refined with riding coordinates:
 C11(H11)
2.b Secondary CH2 refined with riding coordinates:
 C10(H10A,H10B)
2.c Aromatic/amide H refined with riding coordinates:
 N1(H1), C3(H3), C4(H4A), C5(H5), C6(H6)
2.d Idealised Me refined as rotating group:
 C8(H8A,H8B,H8C), C13(H13A,H13B,H13C)
;
_shelx_res_file
;

TITL LGQ-FYC- M-3 in P-1 #2
REM reset to P-1 #2
CELL 1.54184 7.945707 8.718989 9.99636 100.2537 100.036 94.7601
ZERR 2 0.000734 0.000873 0.00098 0.0083 0.008 0.0079
LATT 1
SFAC C H N O
UNIT 26 30 2 10

L.S. 4 0 0
PLAN  20
TEMP 24.85
HTAB
fmap 2 53
acta
REM <olex2.extras>
REM <HklSrc "%.\\LGQ-FYC-%20M-3.hkl">
REM </olex2.extras>

WGHT    0.063200    0.159100
FVAR      21.71424
O1    4    0.285340   -0.057612   -0.368281    11.00000    0.14396    0.09069 =
         0.04586    0.02522    0.03426    0.05102
O2    4    0.196848    0.135065   -0.234697    11.00000    0.13391    0.07749 =
         0.05591    0.03132    0.02803    0.05441
O3    4    0.196464    0.139014    0.255357    11.00000    0.16391    0.07117 =
         0.04296    0.02020    0.02702    0.05247
O4    4    0.277618    0.462012    0.511144    11.00000    0.06582    0.09724 =
         0.04306    0.00483    0.01147    0.00443
H4    2    0.394052    0.483744    0.562709    11.00000    0.16140
O5    4    0.407322    0.492839    0.336898    11.00000    0.05726    0.09180 =
         0.04666    0.00803    0.00908    0.00301
N1    3    0.194382    0.111647    0.026343    11.00000    0.05719    0.04139 =
         0.03773    0.01043    0.00563    0.01157
AFIX  43
H1    2    0.165509    0.156766   -0.042658    11.00000   -1.20000
AFIX   0
C1    1    0.286936   -0.084872   -0.140200    11.00000    0.04550    0.04560 =
         0.04339    0.01028    0.00624    0.00704
C2    1    0.260118   -0.032185   -0.005307    11.00000    0.04090    0.03853 =
         0.04267    0.00908    0.00306    0.00364
C3    1    0.302035   -0.124263    0.093682    11.00000    0.05794    0.04586 =
         0.04362    0.01264    0.00671    0.00640
AFIX  43
H3    2    0.284606   -0.091385    0.183449    11.00000   -1.20000
AFIX   0
C4    1    0.369087   -0.263600    0.059394    11.00000    0.05906    0.04780 =
         0.05932    0.02214    0.00555    0.01037
AFIX  43
H4A   2    0.397444   -0.323192    0.126731    11.00000   -1.20000
AFIX   0
C5    1    0.394606   -0.315666   -0.072371    11.00000    0.06222    0.04610 =
         0.07009    0.01513    0.01543    0.01935
AFIX  43
H5    2    0.439044   -0.410257   -0.094683    11.00000   -1.20000
AFIX   0
C6    1    0.353830   -0.226611   -0.171051    11.00000    0.06027    0.05287 =
         0.05201    0.00853    0.01491    0.01589
AFIX  43
H6    2    0.371297   -0.261783   -0.260464    11.00000   -1.20000
AFIX   0
C7    1    0.250173    0.009638   -0.249359    11.00000    0.06389    0.05827 =
         0.04313    0.01417    0.01096    0.01687
C8    1    0.258874    0.028206   -0.480483    11.00000    0.16735    0.12776 =
         0.05483    0.04597    0.04015    0.05565
AFIX 137
H8A   2    0.287193   -0.032318   -0.561864    11.00000   -1.50000
H8B   2    0.331339    0.126601   -0.454234    11.00000   -1.50000
H8C   2    0.140575    0.047122   -0.499594    11.00000   -1.50000
AFIX   0
C9    1    0.170080    0.189064    0.149372    11.00000    0.05557    0.04452 =
         0.04012    0.00772    0.00491    0.00639
C10   1    0.107624    0.347525    0.146340    11.00000    0.05379    0.04489 =
         0.04493    0.00747    0.00212    0.00846
AFIX  23
H10A  2   -0.006151    0.333467    0.088486    11.00000   -1.20000
H10B  2    0.184185    0.409604    0.105449    11.00000   -1.20000
AFIX   0
C11   1    0.100206    0.435476    0.290397    11.00000    0.05343    0.04795 =
         0.05035    0.00670    0.01102    0.00981
AFIX  13
H11   2    0.023961    0.371025    0.331201    11.00000   -1.20000
AFIX   0
C12   1    0.275824    0.463952    0.381314    11.00000    0.05857    0.04726 =
         0.04318   -0.00021    0.01285    0.00881
C13   1    0.029104    0.592551    0.285234    11.00000    0.07560    0.05598 =
         0.07810    0.00885    0.02139    0.02181
AFIX 137
H13A  2    0.104993    0.658660    0.248842    11.00000   -1.50000
H13B  2    0.020547    0.642812    0.376993    11.00000   -1.50000
H13C  2   -0.082842    0.574740    0.226626    11.00000   -1.50000
AFIX   0
HKLF 4

REM  LGQ-FYC- M-3 in P-1 #2
REM R1 =  0.0453 for    1836 Fo > 4sig(Fo)  and  0.0514 for all    2102 data
REM    178 parameters refined using      0 restraints

END

WGHT      0.0632      0.1592

REM Instructions for potential hydrogen bonds
EQIV $1 -x+1, -y+1, -z+1
HTAB O4 O5_$1
HTAB N1 O2
HTAB C3 O3

REM Highest difference peak  0.154,  deepest hole -0.148,  1-sigma level  0.032
Q1    1   0.1982  0.1411 -0.4449  11.00000  0.05    0.15
Q2    1   0.2462 -0.0631 -0.1824  11.00000  0.05    0.14
Q3    1   0.3121  0.5527  0.4817  11.00000  0.05    0.14
Q4    1   0.4046  0.4027  0.3626  11.00000  0.05    0.13
Q5    1   0.3415  0.0186 -0.3204  11.00000  0.05    0.12
Q6    1  -0.0072  0.4708  0.3426  11.00000  0.05    0.12
Q7    1   0.3400  0.5424  0.3543  11.00000  0.05    0.12
Q8    1   0.2192 -0.0961 -0.1065  11.00000  0.05    0.12
Q9    1   0.3123 -0.0342 -0.0800  11.00000  0.05    0.11
Q10   1   0.2241  0.1952 -0.1433  11.00000  0.05    0.11
Q11   1   0.2657 -0.1574 -0.1659  11.00000  0.05    0.11
Q12   1   0.0910 -0.0519 -0.5663  11.00000  0.05    0.10
Q13   1   0.2655  0.1794  0.2147  11.00000  0.05    0.10
Q14   1   0.1763 -0.0591 -0.3735  11.00000  0.05    0.10
Q15   1  -0.0188  0.2632 -0.0337  11.00000  0.05    0.10
Q16   1   0.1527  0.5240  0.2649  11.00000  0.05    0.10
Q17   1   0.1721  0.1528  0.3075  11.00000  0.05    0.09
Q18   1   0.3437 -0.0688  0.1971  11.00000  0.05    0.09
Q19   1   0.1390  0.0816  0.2169  11.00000  0.05    0.09
Q20   1   0.4693  0.5144  0.2838  11.00000  0.05    0.09
;
_shelx_res_checksum              93716
_shelx_hkl_file
;
   0   0  -2 64273.8 784.444   1
   0   0  -3 2633.67 214.953   1
   0   0  -4 65873.7 1236.28   1
   0   0  -4 68850.6 1338.09  26
   0   0  -5 60865.7 1463.99  26
   0   0  -6 26426.9 1095.88  26
   0   0   7 5550.87 555.736  13
   0   0  -7 4666.16 543.802  11
   0   0  -7 5031.11 546.840  26
   0   0  -8 120134. 2950.10  11
   0   0   9 14771.4 911.233   5
   0   0  -9 16187.7 1136.65  11
   0   0  10 11060.9 738.560   5
   0   0 -10 10758.7 890.259  11
   0   0  11 87.9123 93.9731   6
   0  -1  11-47.8083 104.584   6
   0   1 -11 646.719 186.559  11
   0   1 -10 11108.7 906.609  11
   0  -1  10 10610.4 727.741   5
   0   1  -9 50601.3 1977.31  11
   0  -1   9 48455.9 1632.99   5
   0  -1   8 214198. 3329.33   5
   0   1  -8 214144. 3878.23  11
   0   1  -7 17052.9 947.072  26
   0   1  -7 17780.0 1023.20  11
   0   1  -6 55329.6 1520.74  26
   0   1  -5 8265.02 521.052  26
   0   1  -4 83510.4 1373.67  26
   0   1  -3 3164.52 240.596   1
   0   1  -2 225819. 1569.38   1
   0  -1   0 231602. 1028.19  29
   0  -1  -1 48980.9 447.280   1
   0  -1  -1 47172.3 533.795  30
   0  -1  -2 45198.0 633.800   1
   0  -1  -2 45492.0 528.000  30
   0  -1  -3 83906.6 1131.36   1
   0  -1  -3 88591.8 1360.84  26
   0  -1  -4 175336. 1998.90   1
   0  -1  -4 178842. 2293.85  26
   0  -1  -5 573074. 4682.74  26
   0   1   6 12900.0 793.921  13
   0  -1  -6 13018.1 805.602  26
   0   1   7 848.042 232.701  13
   0  -1  -8 357.289 235.942  11
   0   1   8-186.681 188.257  13
   0  -1  -9 919.087 314.516  11
   0  -1 -10 4209.68 547.974  11
   0   1  10 3347.24 407.611   5
   0  -2  11 1296.53 263.251   6
   0   2 -10 6479.53 667.500  11
   0  -2  10 6180.04 545.230   5
   0  -2  10 6044.57 593.396   6
   0  -2   9 55001.4 1709.62   5
   0   2  -9 56207.1 2056.64  11
   0   2  -8 256715. 4231.18  11
   0  -2   8 253861. 3419.31   3
   0  -2   8 257107. 3576.66   5
   0   2  -7 814.019 196.845  26
   0   2  -7 477.594 216.931  11
   0  -2   7 651.165 200.833   5
   0   2  -6 103580. 1959.00  26
   0   2  -5 36189.1 1007.01  26
   0   2  -4 66161.0 1143.24  26
   0   2  -3 98870.4 1119.27  26
   0  -2   2 2358.00 183.705  29
   0   2  -2 2856.20 140.494  26
   0  -2  -2 112400. 1376.77  26
   0  -2  -2 114274. 1167.52  30
   0  -2  -2 115092. 1025.25   1
   0  -2  -3 327582. 2252.18   1
   0  -2  -3 326854. 1963.97  30
   0  -2  -4 77914.7 1606.93  26
   0  -2  -4 75449.2 1324.29   1
   0  -2  -5 987.564 246.697  26
   0  -2  -6 32044.9 1316.32  26
   0   2   6 32108.8 1319.19  13
   0   2   7 28374.4 1340.08  13
   0   2   8 3967.88 547.448  13
   0  -2  -9 8717.54 831.174  11
   0   2  10 3399.06 393.789   5
   0  -2 -10 3634.02 497.764  11
   0  -3  11 3663.41 411.108   6
   0  -3  10 3584.51 463.630   6
   0  -3   9 9860.61 788.183   6
   0  -3   9 9538.20 706.927   5
   0  -3   8 16587.1 910.429   5
   0  -3   8 16838.0 1004.90   6
   0   3  -8 16715.9 1087.47  11
   0  -3   7 1085.19 232.527   3
   0  -3   7 1228.41 280.653   6
   0   3  -7 1490.65 323.510  11
   0  -3   7 1016.67 227.840  29
   0  -3   7 1140.74 255.344   5
   0  -3   6 48306.2 1389.28  29
   0  -3   6 45867.4 1393.69   6
   0  -3   5 14567.4 686.809  29
   0  -3   4 89232.6 1545.63  29
   0  -3   3 128918. 1608.10  29
   0  -3   2 34111.7 750.602  29
   0  -3   1 130022. 1376.54  29
   0  -3   0 164901. 1543.89  29
   0  -3   0 160301. 889.733  25
   0  -3  -1 21685.9 519.591  26
   0  -3  -1 20376.8 590.157  29
   0  -3  -2 227424. 2094.36  30
   0  -3  -2 237245. 2143.64  26
   0  -3  -3 53314.2 1210.76  26
   0  -3  -3 53569.0 1010.14  30
   0  -3  -4 88011.0 1792.32  26
   0  -3  -5 18113.3 931.789  26
   0   3   5 18701.7 938.405   7
   0   3   5 18211.9 994.253  13
   0   3   6 34004.8 1446.86  13
   0   3   7 4932.99 601.356  13
   0   3   8 14206.0 999.885  13
   0  -3  -9 2918.42 470.972  11
   0  -4  11 1942.90 285.575   6
   0  -4  10 3837.74 468.768   6
   0  -4   9-28.0960 168.562   6
   0  -4   8 13435.5 910.731   6
   0  -4   8 15375.9 871.982   5
   0  -4   7 25903.8 1203.28   6
   0  -4   7 26374.1 1092.70   3
   0  -4   7 26131.8 1100.66   5
   0  -4   6 165877. 2584.85   5
   0  -4   6 164148. 2623.57  29
   0  -4   6 159124. 2527.94   3
   0  -4   6 160848. 2741.56   6
   0  -4   5 268.185 112.455  29
   0  -4   5 157.558 110.482   6
   0  -4   4 942.866 175.934  29
   0  -4   3 94904.4 1541.55  29
   0  -4   2 137660. 1727.27  29
   0  -4   1 202850. 2018.71  29
   0  -4   0 11721.6 499.586  29
   0  -4  -1 116102. 1768.81  30
   0  -4  -2 28994.4 875.211  30
   0  -4  -3 6417.69 411.814  30
   0   4   4 9114.77 667.115   7
   0   4   5 311.056 164.678  13
   0   4   5 109.624 115.771   7
   0   4   6 16873.2 1097.97  13
   0   4   7 12898.3 958.983  13
   0   4   8-96.0737 161.213  13
   0  -4  -9 4592.09 521.469  11
   0  -5  10 2179.98 300.412   2
   0  -5  10 2229.33 338.900   6
   0  -5   9 13972.9 815.921  27
   0  -5   9 13403.6 883.513   6
   0  -5   8 2335.93 365.840  27
   0  -5   8 2551.10 442.394   6
   0  -5   7 3859.97 441.467   3
   0  -5   7 3964.28 457.838  27
   0  -5   7 3610.69 481.318   6
   0  -5   6 41318.6 1394.19  27
   0  -5   6 41618.3 1498.90   6
   0  -5   6 42998.9 1379.80   3
   0  -5   5 48912.8 1421.23   3
   0  -5   5 48794.5 1532.92   6
   0  -5   5 51237.2 1470.46  27
   0  -5   5 49721.9 1397.90  29
   0  -5   4 13718.8 727.220   2
   0  -5   4 12528.3 698.353  27
   0  -5   4 12161.1 676.066   3
   0  -5   4 13098.3 674.151  29
   0  -5   3 23416.9 841.478  29
   0  -5   2 182235. 2217.14  29
   0  -5   1 1040.79 187.022  29
   0  -5   0 54063.6 1247.80  29
   0  -5   0 56292.2 1425.83  30
   0  -5  -1 49197.8 1322.27  30
   0  -5  -2 148.090 152.321  14
   0   5   2 12.9581 90.8367   7
   0  -5  -2-54.6889 78.0689  30
   0   5   3 14091.5 873.528   7
   0  -5  -3 13500.3 859.956  14
   0   5   4 12695.8 847.070   7
   0   5   5 22176.2 1263.75  13
   0   5   6 2149.84 430.037  13
   0   5   7 25367.8 1283.94  13
   0   5   8-37.9828 137.432  13
   0   6 -10 2216.09 391.362  12
   0  -6   9 2596.29 349.029   2
   0  -6   9 2530.21 340.686  27
   0   6  -9 2983.70 514.553  12
   0  -6   8 331.169 165.817  27
   0  -6   8-179.992 161.332   2
   0  -6   7 2094.50 336.766   2
   0  -6   7 1949.57 337.915  27
   0  -6   6 538.372 199.283   3
   0   6  -6 211.972 221.246  12
   0  -6   6 559.833 219.419  27
   0  -6   6 478.882 199.810   2
   0  -6   5 23404.3 1050.49   3
   0  -6   5 19825.7 1004.00   2
   0  -6   5 22743.6 1066.06  27
   0   6  -5 20792.1 1330.64  12
   0  -6   4 6267.59 552.453   2
   0  -6   4 7354.86 604.501  27
   0   6  -4 7337.56 757.721  12
   0  -6   4 6525.30 554.376   3
   0  -6   3 1867.95 299.783   3
   0  -6   3 1941.41 313.950  27
   0  -6   3 1692.51 289.438   2
   0   6  -3 1554.21 364.598  12
   0  -6   2 22029.0 992.800   3
   0  -6   2 24986.7 1079.78  30
   0   6  -2 24339.1 1285.23  12
   0  -6   2 24078.2 1047.69  27
   0  -6   1 100.412 119.842  30
   0  -6   1 37.5952 125.060  27
   0   6  -1 68.2805 135.991   7
   0  -6   0 2884.27 375.047  30
   0   6   0 2443.79 400.968   7
   0  -6   0 2853.20 388.829  27
   0  -6  -1 4417.99 508.052  14
   0   6   1 4657.51 520.079   7
   0   6   2 41754.6 1579.18   7
   0  -6  -2 43017.6 1579.06  14
   0   6   3 13334.6 907.005   7
   0  -6  -3 14103.6 897.446  23
   0   6   4 14036.1 1036.10  13
   0   6   5 8319.66 799.059  13
   0  -6  -6 1155.28 298.313  24
   0   6   6 628.758 236.983  13
   0   6   7 3050.01 412.141  13
   0   7  -9 2416.24 413.947  12
   0  -7   8 371.943 169.496   2
   0   7  -8 219.429 207.442  12
   0  -7   8 689.602 205.207  27
   0   7  -7 15712.9 1204.23  12
   0  -7   7 17114.9 935.352  27
   0  -7   7 16826.4 923.658   2
   0  -7   6 45958.2 1573.39  27
   0  -7   6 48152.9 1536.60   3
   0   7  -6 45690.6 2070.40  12
   0  -7   6 47792.2 1580.64   2
   0  -7   5 16680.5 952.678   2
   0  -7   5 16980.1 943.053   3
   0   7  -5 17477.1 1275.23  12
   0  -7   5 18093.2 1005.84  27
   0  -7   4 197370. 3220.30   3
   0   7  -4 196900. 4139.99  12
   0  -7   4 200715. 3293.03  27
   0   7  -3 43780.5 1912.13  12
   0  -7   3 45220.0 1571.32  27
   0  -7   3 43121.5 1507.66   3
   0   7  -2 2278.30 426.560   7
   0  -7   2 1893.20 356.923  27
   0   7  -1 26011.3 1349.22   7
   0  -7   1 24383.2 1177.36  27
   0  -7   0 7457.99 694.667  14
   0   7   0 7902.62 738.671   7
   0   7   1 10679.2 851.175   7
   0  -7  -1 10577.2 834.145  14
   0  -7  -2 1855.84 392.665  14
   0  -7  -3 267.595 178.120  23
   0   7   4 18028.6 1133.51  13
   0   7   5 776.134 264.981  13
   0   7   6 19157.4 960.851  13
   0  -7  -6 18853.6 952.299  24
   0   8  -8 1095.14 296.167  12
   0  -8   7 6032.99 511.846  27
   0   8  -7 6804.72 730.938  12
   0   8  -6 8864.41 873.894  12
   0  -8   6 8601.06 659.763  27
   0   8  -5 3053.15 530.656  12
   0  -8   5 2829.31 393.844   3
   0  -8   5 3285.44 435.523  27
   0  -8   4 19280.6 1045.61  27
   0  -8   3 685.724 254.972  27
   0   8  -3 594.191 270.286   7
   0  -8   2 10266.9 793.033  27
   0   8  -2 9475.27 847.486   7
   0  -8   1 6090.44 648.376  14
   0   8  -1 7537.67 733.183   7
   0   8   0 2683.33 447.796   7
   0  -8   0 3280.60 486.271  14
   0  -8  -1 32230.6 1438.28  14
   0  -8  -2 3650.56 485.575  23
   0  -8  -3 5380.94 540.615  23
   0   8   3 5208.51 594.838  13
   0   8   4 3733.06 468.783  13
   0  -8  -4 3544.49 462.262  24
   0  -9   6-152.229 106.690  27
   0   9  -6-47.8541 119.120   7
   0  -9   5 1455.56 266.352  27
   0   9  -5 1070.34 291.196   7
   0  -9   4 251.953 182.071  27
   0   9  -4-112.578 135.327   7
   0   9  -3 11209.6 847.983   7
   0  -9   3 12433.3 828.128  14
   0  -9   2 9655.23 750.508  14
   0   9  -2 10218.3 799.320   7
   0  -9   1 65.7415 181.256  14
   0  -9   0 9817.56 737.946  14
   0  -9  -1 5591.27 549.107  23
   0   9   2 6259.85 581.196  13
   0  -9  -2 6050.57 553.977  24
   0  -9  -2 5484.17 499.830  23
   1 -10   1-252.710 147.584  14
   1 -10   2 1985.12 307.929  14
   1  -9  -3 274.932 153.022  24
   1  -9  -2 11132.3 754.269  24
   1  -9  -2 10652.5 738.439  23
   1  -9  -1 7693.79 660.706  23
   1  -9  -1 7527.82 649.239  14
   1  -9  -1 8584.56 668.611  24
   1  -9   0 6509.57 637.855  23
   1  -9   0 6593.03 630.560  14
   1  -9   1 980.648 286.838  14
   1  -9   2-111.961 181.401  14
   1  -9   3 830.396 252.794  27
   1  -9   4 1848.03 332.053  27
  -1   9  -5 1085.78 261.532   7
   1  -9   5 1582.28 288.412  27
   1  -9   6 4720.16 442.881  27
  -1   9  -6 4974.61 502.918   7
   1  -8  -5 132.383 122.070  24
  -1   8   4 7790.35 656.670  13
   1  -8  -4 7231.76 672.973  24
   1  -8  -4 6762.92 581.399  23
  -1   8   3 163.496 145.671  13
   1  -8  -3 386.648 215.332  23
   1  -8  -2 4142.54 547.876  14
   1  -8  -2 4669.99 568.856  23
   1  -8  -1 578.475 251.376  23
   1  -8  -1 87.1484 201.179  14
   1  -8   0 3669.66 522.781  14
   1  -8   1 340.237 239.015  14
   1  -8   2 20346.8 1116.89  27
  -1   8  -3 69832.0 2211.03   7
   1  -8   3 72103.8 2073.16  27
   1  -8   4 7566.31 694.934  27
   1  -8   5 846.968 263.022  27
  -1   8  -5 1430.28 369.539  12
  -1   8  -6 14716.0 1067.50  12
   1  -8   6 13471.3 841.682  27
   1  -8   7 1899.01 319.165  27
  -1   8  -7 1626.04 348.863  12
   1  -8   8 1480.71 241.779  27
  -1   8  -8 1477.69 298.985  12
  -1   7   6 4119.90 461.838  13
   1  -7  -6 4611.59 513.333  24
  -1   7   5 1936.08 368.844  13
   1  -7  -5 3126.99 493.176  24
  -1   7   4 1376.17 336.411  13
   1  -7  -4 955.106 274.088  23
   1  -7  -3 1078.72 292.282  23
   1  -7  -2 22618.4 1232.15  23
   1  -7  -2 22549.4 1241.55  14
   1  -7  -1 25356.6 1283.70  14
   1  -7   0 30508.3 1324.93  27
   1  -7   0 30086.4 1364.53  14
   1  -7   1 29194.1 1290.65  27
   1  -7   2 43286.4 1558.74  27
   1  -7   3 111428. 2501.60  27
  -1   7  -3 113694. 2957.26  12
   1  -7   4 49181.4 1691.46  27
  -1   7  -4 51459.6 2053.35  12
   1  -7   5 34821.1 1428.22  27
  -1   7  -5 35690.7 1754.97  12
  -1   7  -6 4349.09 645.553  12
   1  -7   6 6009.83 611.847  27
  -1   7  -7-360.086 240.071  12
   1  -7   7-5.30292 128.819  27
  -1   7  -8 460.982 217.963  12
   1  -7   8 101.436 122.572  27
   1  -7   9 1562.43 252.473  27
  -1   7  -9 1609.43 306.081  12
   1  -6  -7-56.4235 100.950  24
  -1   6   7 228.342 163.872  13
  -1   6   6 7566.05 698.843  13
   1  -6  -6 7365.85 715.692  24
  -1   6   5 50473.9 1854.97  13
  -1   6   4 75056.5 2294.99  13
   1  -6  -4 82164.8 2226.59  23
   1  -6  -3 91713.4 2332.03  23
   1  -6  -3 86917.9 2328.28  14
   1  -6  -2 1536.98 330.481  14
   1  -6  -1 93673.7 2232.95  14
   1  -6  -1 90633.1 1912.75  22
   1  -6   0 107948. 2248.25  27
   1  -6   0 104458. 1960.94  22
   1  -6   0 108447. 2037.21  15
   1  -6   0 110000. 2195.07  30
   1  -6   1 6055.23 488.633  15
   1  -6   1 6923.34 553.938  30
   1  -6   2 12162.4 720.813   3
   1  -6   2 12937.0 757.977  30
   1  -6   2 13362.6 785.708  27
   1  -6   3 162727. 2586.42   3
   1  -6   3 171362. 2704.53  30
  -1   6  -3 169421. 3373.12  12
   1  -6   3 166419. 2811.80  27
  -1   6  -4 40507.0 1728.73  12
   1  -6   4 43000.0 1467.31  27
   1  -6   5 9996.20 745.323  27
   1  -6   6 1149.86 287.027  27
   1  -6   7 259.028 165.337  27
   1  -6   8 29275.4 1250.38  27
   1  -6   9 3458.35 398.860  27
  -1   6 -10 766.620 243.949  12
  -1   5   8 212.309 144.390  13
   1  -5  -8 336.666 182.748  11
   1  -5  -7 11561.2 847.123  24
  -1   5   7 12339.3 875.269  13
  -1   5   6 18006.1 1103.80  13
   1  -5  -6 19932.1 1175.43  24
  -1   5   5 243867. 3993.99  13
   1  -5  -4 68875.2 1922.07  23
   1  -5  -3 3601.09 440.464  23
   1  -5  -3 2740.27 321.487  30
   1  -5  -3 3290.29 434.621  14
   1  -5  -2 48882.6 1351.71  22
   1  -5  -2 51091.7 1522.17  14
   1  -5  -2 49348.6 1325.95  30
   1  -5  -1 81433.8 1683.05  30
   1  -5   0 2460.74 304.322  30
   1  -5   1 155228. 2306.83  30
   1  -5   2 1473.13 238.092  30
   1  -5   3 451.092 140.688  30
   1  -5   4 4905.45 457.477  27
   1  -5   5 13347.8 792.414  27
   1  -5   5 12752.5 800.602   6
   1  -5   6 27278.2 1189.00  27
   1  -5   6 26467.1 1210.49   6
   1  -5   7 2210.34 393.436   6
   1  -5   8 30313.6 1293.20  27
   1  -5   8 28581.0 1334.57   6
   1  -5   9 6281.64 573.130  27
   1  -5   9 6397.18 604.882   6
   1  -5  10 11593.5 727.711   6
   1  -5  10 10644.7 648.420  27
   1  -4  -9 87.7867 136.426  11
  -1   4   8 23186.5 1177.54  13
   1  -4  -7 223.019 149.636  24
  -1   4   7 33.8321 117.811  13
   1  -4  -6 2399.37 401.698  24
  -1   4   6 2134.30 394.705  13
  -1   4   5 11916.4 837.526  13
   1  -4  -4 9713.98 659.647  23
   1  -4  -3 14273.3 637.848  30
   1  -4  -2 4226.69 341.023  30
   1  -4  -1 26221.2 828.807  30
   1  -4   1 22788.6 766.556  30
   1  -4   1 22592.9 586.093  29
   1  -4   2 165076. 2041.61  30
   1  -4   2 168470. 1684.07  29
   1  -4   2 166574. 2181.57  31
   1  -4   3 121027. 1739.70  30
   1  -4   3 118702. 1584.18  29
   1  -4   5 18214.8 879.260   6
   1  -4   5 18281.8 868.930   5
   1  -4   6 29618.0 1218.71   6
   1  -4   6 29331.8 1188.96   5
   1  -4   7 5532.71 549.275   5
   1  -4   7 5477.96 570.986   6
   1  -4   8 5884.74 624.545   6
   1  -4   8 5685.62 576.496   5
   1  -4   9 26247.4 1184.31   5
   1  -4   9 25827.3 1251.42   6
   1  -4  10 2213.07 360.980   6
   1  -3 -10 895.800 249.772  11
   1  -3  -9 8147.60 780.941  11
  -1   3   8 2463.97 424.595  13
  -1   3   7 235.223 184.581  13
  -1   3   6 3611.09 465.253  13
   1  -3  -6 3918.62 463.369  24
  -1   3   5 10515.0 723.696  13
   1  -3  -5 9987.91 696.578  26
   1  -3  -4 2533.76 330.402  26
   1  -3  -3 16182.7 584.940  30
   1  -3  -2 3384.47 256.909  25
   1  -3  -2 4905.20 313.990  30
   1  -3  -1 496396. 2692.20  25
   1  -3  -1 496541. 3046.83  30
   1  -3   0 272844. 1634.92  25
   1  -3   0 276108. 1665.61  29
   1  -3   0 276670. 2266.42  30
   1  -3   1 7653.96 280.404  29
   1  -3   1 7303.97 368.303  30
   1  -3   1 7020.47 394.313  31
   1  -3   2 28971.7 612.532  29
   1  -3   2 24820.7 670.474  30
   1  -3   3 2290.35 202.232  30
   1  -3   3 2164.29 207.315  29
   1  -3   4 414645. 3131.70  29
   1  -3   5 2454.53 281.934  29
   1  -3   6 13322.2 777.045   6
   1  -3   6 13045.7 715.253  29
   1  -3   7 20233.8 1021.65   5
   1  -3   7 20364.8 1053.08   6
   1  -3   8 61.7903 179.892   6
   1  -3   8-96.5808 211.606   5
   1  -3   9 772.125 243.685   5
   1  -3   9 1214.62 330.145   6
   1  -3  10 4399.40 509.415   6
   1  -3  10 4661.22 480.701   5
   1  -3  11 1315.24 231.417   6
   1  -2 -10 180.916 177.982  11
   1  -2  -9 26237.4 1451.18  11
   1  -2  -8 4006.04 596.515  11
  -1   2   8 4261.99 538.905  13
  -1   2   7 13245.4 883.239  13
  -1   2   6 84039.1 2026.74  13
   1  -2  -6 84072.4 2131.66  26
   1  -2  -5 42604.9 1363.38  26
   1  -2  -4 562436. 4334.01  26
   1  -2  -3 217.651 113.178  26
   1  -2  -2 139420. 1614.56  26
   1  -2  -2 145127. 1399.92  30
   1  -2  -1 138814. 1285.42  25
   1  -2   0 5332.21 167.057  29
  -1   2   0 5158.49 102.592   1
   1  -2   0 5357.32 227.441  25
   1  -2   1 471631. 2293.26  30
  -1   2  -2 15328.9 431.971   1
   1  -2   2 15690.2 406.347  30
  -1   2  -3 41177.6 870.828   1
   1  -2   3 44080.5 642.298  30
  -1   2  -4 839960. 4640.66   1
  -1   2  -5 147897. 2250.10   1
   1  -2   6 208465. 2918.27   5
  -1   2  -6 197710. 2868.83  26
   1  -2   7 215.281 164.704   5
  -1   2  -7 932.470 227.954  26
   1  -2   8 15650.5 958.653   5
   1  -2   9 9247.90 749.603   5
   1  -2  10 9921.14 711.471   5
   1  -2  10 9922.51 758.608   6
   1  -2  11 1202.13 232.521   6
   1  -1 -11 5178.30 539.016  11
   1  -1 -10 11088.8 914.843  11
   1  -1  -9 5182.51 680.933  11
   1  -1  -8 17034.2 1162.90  11
  -1   1   7 1272.89 293.151  13
  -1   1   6 181.812 92.0692  13
   1  -1  -6-5.26405 130.263  26
   1  -1  -5 223777. 2949.96  26
   1  -1  -4 214362. 2502.42  26
   1  -1  -3 7639.03 419.848  26
   1  -1  -2 85405.7 1137.35  26
  -1   1   0 38560.4 372.395   1
   1  -1   0 40955.3 561.217  25
  -1   1  -1 235419. 1226.87   1
  -1   1  -2 224826. 1575.95   1
  -1   1  -3 7651.42 365.420   1
  -1   1  -4 221906. 2336.85   1
  -1   1  -5 31286.4 1028.26   1
  -1   1  -6 6340.26 544.055  26
  -1   1  -6 5654.75 505.202   1
   1  -1   6 6595.90 482.513  19
  -1   1  -7 16109.1 963.730  11
   1  -1   8 33937.9 1398.46   5
  -1   1  -8 33610.6 1498.61  11
   1  -1   9 48584.7 1687.36   5
  -1   1  -9 48307.5 1826.72  11
   1  -1  10 7706.34 632.138   5
  -1   0  11 1208.03 220.755   3
   1   0 -11 1357.90 297.874  11
  -1   0  11 1361.64 252.640   6
   1   0 -10 2365.04 460.981  11
   1   0  -9 16311.7 1167.41  11
   1   0  -8 73423.7 2340.73  11
   1   0  -7 74225.3 2156.19  11
   1   0  -7 74894.7 2066.67  26
   1   0  -6 13694.7 790.606  26
   1   0  -5 4871.27 430.186  26
   1   0  -4 804846. 4535.23  26
   1   0  -3 19460.2 613.276  26
   1   0  -2 224203. 1695.02  26
   1   0  -1 5979.12 222.794  25
   1   0   0 477.573 79.1866  25
  -1   0   0 258.655 37.7841  29
  -1   0  -1 15755.5 338.470   1
  -1   0  -2 448836. 2219.81   1
  -1   0  -3 59600.9 996.683   1
  -1   0  -4 19704.4 684.625   1
  -1   0  -5 5263.97 429.190   1
   1   0   6 3545.09 419.565  13
  -1   0  -6 3891.17 444.201  26
   1   0   6 1736.68 256.684  19
   1   0   7 61711.5 1908.55  13
   1   0   7 61661.1 1575.55  19
  -1   0  -8 4072.99 564.517  11
  -1   0  -9 1408.78 297.871  11
   1   0   9 1257.42 316.367   5
  -1   0 -10 1433.23 293.689  11
   1   0  10 1222.71 271.282   5
  -1  -1  11 1870.10 302.130   6
   1   1 -11 2480.91 406.659  11
  -1  -1  10 3880.76 447.983   3
  -1  -1  10 4057.32 490.446   6
   1   1 -10 5355.98 665.178  11
   1   1  -9 920.868 337.048  11
   1   1  -8 4582.61 622.849  11
   1   1  -7 18152.3 1063.58  11
   1   1  -7 17306.2 950.148  26
   1   1  -6 15185.3 799.856  26
   1   1  -5 99658.4 1757.68  26
   1   1  -4 123256. 1689.65  26
   1   1  -3 166726. 1625.24  26
   1   1  -1 378741. 1624.56  25
  -1  -1   0 49452.4 639.355  29
  -1  -1  -2 24159.8 535.284   1
  -1  -1  -3 2316.62 208.489   1
  -1  -1  -4 175809. 2061.98   1
  -1  -1  -5 56909.3 1529.08  26
  -1  -1  -5 52984.8 1347.71   1
  -1  -1  -6 25381.3 1165.44  26
   1   1   6 25237.0 1157.99  13
   1   1   6 25339.2 939.273  19
  -1  -1  -6 23172.9 1029.40   1
   1   1   7 100500. 2526.48  13
  -1  -1  -8 23895.7 1339.71  11
  -1  -1  -9 8162.94 773.419  11
  -1  -1 -10 634.023 229.316  11
   1   1  10 288.232 147.871   5
  -1  -2  11 7312.89 565.834   6
   1   2 -10 29638.8 1515.30  11
  -1  -2  10 28346.7 1248.61   6
  -1  -2  10 29096.6 1198.98   3
  -1  -2   9 118165. 2494.85   3
   1   2  -9 113392. 3054.91  11
  -1  -2   9 112739. 2575.88   6
   1   2  -8 6007.28 700.585  11
  -1  -2   7 2629.56 363.100  29
   1   2  -7 2241.20 389.468  11
   1   2  -6 43471.6 1263.19  26
   1   2  -5 23773.8 806.977  26
  -1  -2   4 58270.8 1196.15  29
   1   2  -4 55688.8 1047.95  26
  -1  -2   3 57781.4 1090.19  29
   1   2  -3 95460.8 1021.38  25
  -1  -2   2 2561.89 211.675  29
   1   2  -2 2976.46 155.551  25
  -1  -2   1 6113.22 299.013  29
  -1  -2   0 992.380 137.446  29
  -1  -2  -1 27989.4 670.657  29
  -1  -2  -1 27829.0 534.164   1
  -1  -2  -2 178178. 1540.57   1
  -1  -2  -3 11445.9 462.825   1
  -1  -2  -4 322447. 2861.83   1
   1   2   5 18242.6 956.626  13
   1   2   5 18827.2 953.894   7
  -1  -2  -5 17462.2 907.247  26
  -1  -2  -5 17737.3 798.212   1
   1   2   6 8831.80 736.584  13
   1   2   7 196.097 171.265  13
   1   2   8 1746.24 395.676  13
  -1  -2  -9 2906.04 469.011  11
   1   2  10 8496.26 588.876   5
  -1  -3  11 4856.86 457.325   6
  -1  -3  10 5467.25 563.422   6
  -1  -3  10 5128.70 496.474   3
  -1  -3   9-7.63564 156.438   6
  -1  -3   9 253.117 194.128   3
  -1  -3   8 632.671 230.278   3
  -1  -3   8 650.040 238.471   6
   1   3  -8 298.035 248.623  11
   1   3  -7 54569.9 1911.11  11
  -1  -3   7 51846.7 1537.01   3
  -1  -3   7 54546.8 1629.84   6
  -1  -3   6 20789.7 913.880   6
  -1  -3   6 22802.4 1003.89  29
  -1  -3   6 20795.8 894.507   3
   1   3  -6 21291.5 1096.31  11
  -1  -3   5 138.504 107.028  29
  -1  -3   3 11338.0 519.271  29
  -1  -3   2 27122.2 746.152  29
  -1  -3   1 303659. 2399.59  29
  -1  -3   0 129892. 1558.09  29
  -1  -3  -1 95584.6 1043.65   1
  -1  -3  -1 91577.1 1417.57  29
  -1  -3  -2 82245.6 1087.83   1
  -1  -3  -3 12543.8 619.415  26
  -1  -3  -4 64415.4 1598.17  26
   1   3   4 62590.8 1732.43   7
   1   3   4 64137.6 1792.70  13
  -1  -3  -5 90.2566 137.890  26
   1   3   5 225.841 186.023  13
   1   3   5 173.685 122.724   7
   1   3   6 45555.1 1745.27  13
   1   3   7 1396.20 364.641  13
   1   3   8 468.440 240.521  13
  -1  -3  -9 23349.6 1191.49  11
   1   4 -11 87.8932 75.9329  12
  -1  -4  11-46.9688 80.8106   6
  -1  -4  10 16950.9 862.131   3
  -1  -4  10 16908.3 933.948   6
  -1  -4   9 13020.8 826.949   3
  -1  -4   9 12864.3 872.002   6
  -1  -4   8 9373.71 708.835   3
  -1  -4   8 7372.51 665.334   6
  -1  -4   7 184.656 138.198   6
  -1  -4   7-117.587 122.732   3
  -1  -4   6 8359.97 613.864   3
  -1  -4   6 9573.52 657.247  29
  -1  -4   6 8322.25 618.972   6
  -1  -4   5 40073.0 1253.81   6
  -1  -4   5 41619.5 1254.32   3
  -1  -4   5 40218.4 1235.30  29
  -1  -4   4 73608.4 1556.07  29
  -1  -4   3 545.318 145.621  29
  -1  -4   2 805.899 163.391  29
  -1  -4   1 37787.2 964.017  29
  -1  -4   0 20769.3 729.859  29
  -1  -4  -1 10505.4 557.172  29
  -1  -4  -2 97643.9 1653.13  30
   1   4   3 4538.12 496.109   7
   1   4   4 4797.46 549.340  13
   1   4   4 4261.85 509.715   7
   1   4   5 17602.1 1107.85  13
   1   4   5 17285.3 1045.65   7
   1   4   6 9440.78 839.023  13
   1   4   7 172.982 193.305  13
   1   4   8 11913.2 851.204  13
  -1  -5  10 19484.5 941.692   2
   1   5 -10 21223.3 1229.55  12
  -1  -5   9 4544.45 523.784   6
  -1  -5   9 5144.36 503.152   3
  -1  -5   8 343.755 183.604   6
  -1  -5   8 288.232 180.002   3
  -1  -5   7 6081.71 596.267   6
  -1  -5   7 4834.54 504.747   3
  -1  -5   6 6141.32 518.057  27
  -1  -5   6 5865.80 561.528   6
  -1  -5   6 5789.61 532.975   3
  -1  -5   5 11630.6 723.844   3
  -1  -5   5 12832.4 751.409  29
  -1  -5   5 12068.2 753.230   2
  -1  -5   5 13282.5 729.880  27
   1   5  -4 5401.62 613.717  12
  -1  -5   4 4568.66 437.927   3
  -1  -5   4 4658.21 425.526  27
  -1  -5   4 4819.39 460.106   2
  -1  -5   4 5125.46 450.528  29
  -1  -5   3 30975.3 1093.70   2
   1   5  -3 30578.1 1372.43  12
  -1  -5   3 30088.1 1024.70  29
  -1  -5   2 52574.1 1310.23  29
  -1  -5   1 22038.6 845.069  29
  -1  -5   0 214129. 2698.99  29
  -1  -5  -1 148901. 2514.27  14
   1   5   1 146768. 2840.49   7
  -1  -5  -2 31380.7 1242.96  14
   1   5   2 30947.6 1355.17   7
   1   5   3 13503.8 925.962   7
   1   5   4 548.523 231.288   7
   1   5   4 367.846 227.076  13
   1   5   5 670.874 314.043  13
   1   5   5 1099.02 295.043   7
   1   5   6 13315.4 997.490  13
   1   5   7 7537.16 690.651  13
   1   5   8-22.8597 87.9898  13
  -1  -6  10 223.331 119.718   2
   1   6 -10 57.3895 142.434  12
  -1  -6   9 1201.07 264.790   2
   1   6  -9 1589.33 384.318  12
  -1  -6   9 1488.25 262.289   3
   1   6  -8 35798.2 1794.31  12
  -1  -6   8 33434.0 1286.07   3
  -1  -6   8 32642.1 1348.03   2
   1   6  -7 119.598 223.837  12
  -1  -6   7 124.014 188.576   2
  -1  -6   7 349.957 191.177   3
  -1  -6   6-5.13684 152.048   2
  -1  -6   6 132.791 116.760  27
  -1  -6   6-17.4783 161.772   3
   1   6  -6 287.243 248.107  12
  -1  -6   5 4417.83 508.072   2
  -1  -6   5 4516.56 492.699   3
  -1  -6   5 4418.37 458.978  27
   1   6  -5 4062.44 626.651  12
  -1  -6   4 1935.50 332.187   2
   1   6  -4 1771.43 402.407  12
  -1  -6   4 2157.94 333.438  27
  -1  -6   4 1602.50 309.930   3
  -1  -6   3 6100.48 534.457  27
  -1  -6   3 6074.82 540.446   3
  -1  -6   3 5162.62 464.021  29
   1   6  -3 6054.14 701.705  12
  -1  -6   3 5192.56 523.076   2
  -1  -6   2 3552.15 415.210  27
  -1  -6   2 3423.92 368.975  29
  -1  -6   2 3165.51 402.076   3
  -1  -6   1 1023.87 239.657  27
  -1  -6   1 1063.63 255.504   3
  -1  -6   1 672.293 174.117  29
   1   6  -1 1281.08 309.912   7
  -1  -6   0 48158.1 1581.87  14
   1   6   0 48314.7 1788.70   7
  -1  -6  -1 2686.39 410.757  14
   1   6   1 2943.91 458.396   7
  -1  -6  -2 16.4420 159.988  14
   1   6   2 178.036 148.438   7
   1   6   3 3434.83 511.399   7
   1   6   4 41624.0 1777.90  13
   1   6   4 43761.1 1726.49   7
   1   6   5 137849. 3135.47  13
   1   6   5 139927. 2916.58   7
   1   6   6 11842.3 854.004  13
   1   6   7 581.933 185.434  13
  -1  -7   9 6783.84 517.605   2
   1   7  -9 7444.74 709.938  12
  -1  -7   8 8901.49 664.304   2
  -1  -7   8 7893.23 594.333   3
   1   7  -8 8205.08 824.761  12
   1   7  -7 820.364 335.070  12
  -1  -7   7 1123.69 290.096   2
  -1  -7   7 1194.76 280.547   3
  -1  -7   6 7889.17 624.432  27
  -1  -7   6 8111.52 691.904   2
   1   7  -6 8585.59 941.840  12
  -1  -7   6 7787.01 664.473   3
  -1  -7   5 643.851 195.494  27
  -1  -7   5 804.639 264.554   3
  -1  -7   5 670.167 260.282   2
   1   7  -5 590.569 308.893  12
  -1  -7   4 28511.5 1213.34  27
   1   7  -4 31759.5 1723.53  12
  -1  -7   4 30218.2 1286.70   3
  -1  -7   3 59909.7 1816.05   3
  -1  -7   3 59482.2 1765.85  27
   1   7  -2 902.382 298.508   7
  -1  -7   2 692.081 245.813  27
   1   7  -1 8695.25 822.718   7
  -1  -7   1 8966.58 728.084  14
  -1  -7   0 1571.59 341.100  14
   1   7   0 1421.13 365.633   7
   1   7   1 1425.09 357.202   7
  -1  -7  -1 1548.67 325.592  14
   1   7   2 1029.39 324.693   7
   1   7   3 45014.4 1738.39   7
   1   7   4 26819.0 1250.93   7
   1   7   4 27062.3 1356.71  13
   1   7   5 8813.71 713.992  13
   1   8  -8 102.166 125.619  12
   1   8  -7-208.475 204.194  12
  -1  -8   7 131.277 117.893   3
  -1  -8   6 12241.0 781.872   3
  -1  -8   5 14577.3 845.970  27
  -1  -8   5 13644.8 857.480   3
  -1  -8   4 19527.7 1047.75   3
  -1  -8   4 19056.4 989.652  27
   1   8  -4 19953.3 1268.82   7
   1   8  -3 67397.4 2308.19   7
  -1  -8   2 41339.0 1556.71  14
   1   8  -2 42899.4 1826.49   7
  -1  -8   1 212.302 178.531  14
   1   8  -1 26.8262 183.355   7
   1   8   0 200.776 178.725   7
  -1  -8   0 63.3194 150.471  14
  -1  -8  -1 1510.38 324.798  14
   1   8   1 1109.92 299.755   7
  -1  -8  -2 12365.2 804.964  23
   1   8   2 11739.3 852.764   7
   1   8   3 599.851 252.007  13
   1   8   4 862.710 225.896  13
   1   9  -6 4366.78 513.916   7
   1   9  -5 164.558 166.136   7
   1   9  -4 5770.74 627.534   7
  -1  -9   4 6470.65 552.399  14
  -1  -9   3 22766.4 1040.96  14
   1   9  -3 22972.4 1235.38   7
  -1  -9   2 5493.63 532.313  14
   1   9  -2 5748.28 624.084   7
  -1  -9   1 5790.04 544.411  14
   1   9  -1 6735.22 652.937   7
   1   9   0 102.737 122.635   7
   1   9   1 2040.37 316.428   7
  -1  -9  -1 1684.69 290.540  23
   1   9   2 816.459 230.722  13
   2  -9  -3 124.218 115.148  23
   2  -9  -2 1462.86 302.972  23
   2  -9  -2 977.959 231.806  24
   2  -9  -1 388.908 192.161  14
   2  -9  -1-64.3951 156.606  23
   2  -9   0 1851.68 349.923  23
   2  -9   0 1526.61 336.565  14
   2  -9   1-337.606 178.787  23
   2  -9   1-51.8446 143.085  14
   2  -9   2 446.216 175.156  23
   2  -9   2 57.1780 170.901  14
   2  -9   3 778.427 226.746  27
   2  -9   4 3210.17 414.117  27
   2  -9   5-55.1171 120.960  27
   2  -9   6 8048.58 558.790  27
   2  -8  -5 2385.72 367.007  24
   2  -8  -4 6083.12 586.186  23
   2  -8  -4 6536.50 639.492  24
  -2   8   3 2151.62 353.947  13
   2  -8  -3 1964.85 404.814  24
   2  -8  -3 1661.68 346.451  23
   2  -8  -2-161.610 165.094  24
   2  -8  -2-202.101 200.738  14
   2  -8  -2-36.5050 192.880  23
   2  -8  -1 52962.0 1818.37  24
   2  -8  -1 51407.8 1864.48  23
   2  -8  -1 49220.4 1763.36  14
   2  -8   0 9112.61 789.576  14
   2  -8   0 8413.75 623.500  22
   2  -8   0 8797.33 796.560  23
   2  -8   1 259.175 137.975  15
   2  -8   1 150.450 185.490  14
   2  -8   1 273.358 225.028  27
   2  -8   2 13004.0 900.349  27
   2  -8   3 30113.8 1360.66  27
   2  -8   4 1857.03 353.335  27
   2  -8   5 224.280 194.033  27
  -2   8  -6 3594.86 494.659  12
   2  -8   6 4685.70 500.565  27
   2  -8   7 5522.78 499.556  27
  -2   8  -7 4794.75 543.105  12
   2  -7  -6 9355.36 734.792  24
   2  -7  -6 9043.27 687.726  10
   2  -7  -5 706.157 237.151  23
  -2   7   5 1175.34 256.587  13
   2  -7  -5 1189.98 325.909  24
   2  -7  -5 1533.67 317.595  10
   2  -7  -4 5624.24 660.828  24
  -2   7   4 5049.40 564.104  13
   2  -7  -4 5825.27 632.955  23
   2  -7  -3 2204.44 444.871  23
   2  -7  -3 3015.80 511.547  24
   2  -7  -2 34353.8 1527.87  23
   2  -7  -2 36486.8 1608.77  24
   2  -7  -2 34550.9 1497.69  14
   2  -7  -1 4355.10 487.990  22
   2  -7  -1 4371.68 543.663  14
   2  -7  -1 5754.72 620.481  23
   2  -7   0 18067.7 956.795  15
   2  -7   0 18754.2 932.199  22
   2  -7   0 16993.2 993.674  27
   2  -7   1-54.6592 181.229  15
   2  -7   1 162.689 112.562  22
   2  -7   2 45667.7 1620.51  27
   2  -7   2 46381.0 1500.79  15
   2  -7   3 290.485 228.136  27
   2  -7   3 290.434 185.764  15
   2  -7   4 100841. 2438.77  27
   2  -7   4 102450. 2248.89  15
  -2   7  -5 153.309 177.814  12
   2  -7   5 47.3214 144.351  15
   2  -7   5-62.6403 217.603  27
  -2   7  -6 9068.90 862.244  12
   2  -7   6 8948.82 738.233  27
   2  -7   6 8447.12 638.124  15
   2  -7   7 26015.3 1181.39  27
  -2   7  -7 28065.2 1458.21  12
   2  -7   8 315.199 151.168  27
  -2   7  -8 224.614 161.626  12
   2  -6  -7 271.383 155.121  10
   2  -6  -7 193.443 159.942  24
  -2   6   6 24062.3 1152.49  13
   2  -6  -6 24932.2 1328.41  24
   2  -6  -5 9289.06 782.973  23
  -2   6   5 10013.9 799.327  13
   2  -6  -5 8829.60 848.130  24
   2  -6  -4 114643. 2932.15  24
  -2   6   4 105869. 2572.38  13
   2  -6  -4 108784. 2680.50  23
   2  -6  -3 780.496 286.190  14
   2  -6  -3 618.806 263.912  23
   2  -6  -2 103751. 2505.56  23
   2  -6  -2 98544.3 2148.98  22
   2  -6  -2 98196.4 2352.20  14
   2  -6  -1 2034.12 351.228  14
   2  -6  -1 2252.47 358.071  27
   2  -6  -1 1905.86 320.627  15
   2  -6  -1 2118.59 331.874  22
   2  -6   0 24290.0 1083.52  27
   2  -6   0 24495.2 1005.43  22
   2  -6   0 25224.4 1071.80  15
   2  -6   1 4193.65 446.898  27
   2  -6   1 4257.80 448.781  15
   2  -6   1 4203.99 440.245  30
   2  -6   2 5257.37 502.004  15
   2  -6   2 6069.68 487.412  22
   2  -6   2 6064.82 516.371  30
   2  -6   2 5581.61 536.022  27
   2  -6   3 70555.2 1882.54  27
   2  -6   3 68675.1 1630.00  22
   2  -6   3 69451.8 1786.27  15
   2  -6   4 171565. 3024.23  27
  -2   6  -4 176077. 3526.11  12
   2  -6   5 6910.59 644.455  27
   2  -6   6 75011.2 2107.88  27
   2  -6   7 4005.64 500.048  27
   2  -6   8 618.641 229.002  27
   2  -6   9 454.979 165.806  27
   2  -5  -8 2932.02 460.669  10
   2  -5  -8 2615.66 397.377  11
  -2   5   7 253.450 162.074  13
   2  -5  -7 346.993 207.414  24
  -2   5   6 3626.40 481.876  13
   2  -5  -6 3731.32 488.917  23
   2  -5  -6 3430.09 523.293  24
  -2   5   5 64266.3 1944.98  13
   2  -5  -5 62131.9 1969.58  23
   2  -5  -5 62384.6 2122.81  24
  -2   5   4 1036.68 258.917  13
   2  -5  -4 1908.31 370.757  23
   2  -5  -3 43774.5 1328.55  30
   2  -5  -3 43976.2 1493.83  14
   2  -5  -3 43034.2 1386.39  22
   2  -5  -3 46674.0 1581.52  23
   2  -5  -2 1879.75 299.395  14
   2  -5  -2 1664.84 307.841  23
   2  -5  -2 1843.07 289.147  22
   2  -5  -2 1747.28 295.022  15
   2  -5  -2 1736.12 274.101  30
   2  -5  -1 99052.2 1962.46  15
   2  -5  -1 93225.6 1846.80  30
   2  -5  -1 96185.5 1861.50  22
   2  -5   0 2544.25 311.803  30
   2  -5   1 110768. 1943.79  30
   2  -5   2 1773.92 251.628  30
   2  -5   2 1496.18 276.522  31
   2  -5   3 4814.78 482.524  31
   2  -5   3 5071.99 430.462  22
   2  -5   3 5379.77 474.824  27
   2  -5   3 5237.70 414.062  30
   2  -5   4 3232.84 432.729  31
   2  -5   4 3821.54 425.187  27
   2  -5   4 4000.14 399.117  22
   2  -5   5 75080.1 1956.49  27
   2  -5   5 78784.5 1985.84   6
   2  -5   6 6300.81 602.583   6
   2  -5   7 4377.18 543.398   6
   2  -5   8 1595.78 346.696  27
   2  -5   8 1154.70 297.118   6
   2  -5   9 462.900 218.476  27
   2  -5   9 33.3274 142.264   6
   2  -5  10 2934.07 338.792  27
   2  -4  -9 1717.67 344.910  11
   2  -4  -9 2034.27 368.725  10
   2  -4  -8 5086.74 625.965  11
  -2   4   7 6435.40 623.137  13
   2  -4  -7 7368.99 716.244  24
   2  -4  -6 5760.95 640.254  24
   2  -4  -6 5037.01 556.889  23
  -2   4   6 4470.78 522.256  13
  -2   4   5 1369.87 296.603  13
   2  -4  -5 1444.47 306.474  23
   2  -4  -5 1720.84 362.569  24
  -2   4   4 79326.2 1917.86  13
   2  -4  -4 78627.4 1872.58  25
   2  -4  -4 83390.1 2049.14  23
   2  -4  -3 11222.9 640.298  25
   2  -4  -3 10223.4 573.859  30
   2  -4  -2 16859.8 716.720  30
   2  -4  -1 19803.9 745.502  30
   2  -4   0 20992.3 753.887  30
   2  -4   1 262462. 3100.90  31
   2  -4   1 260353. 2598.24  30
   2  -4   2 10424.7 510.820  30
   2  -4   2 9913.92 628.679  31
   2  -4   3 19980.8 683.930  30
   2  -4   4 2617.24 340.797   5
   2  -4   5 6868.68 583.251   5
   2  -4   5 5734.43 479.818  22
   2  -4   5 6286.36 536.316   6
   2  -4   6 29128.7 1255.08   5
   2  -4   6 30572.3 1260.98   6
   2  -4   6 31480.6 1169.95  22
   2  -4   7 4208.13 504.268   6
   2  -4   7 4053.95 505.945   5
   2  -4   8 7198.21 670.882   6
   2  -4   8 7233.90 670.127   5
   2  -4   9 10740.6 775.324   5
   2  -4   9 10707.2 779.040   6
   2  -4  10 4734.12 463.057   6
   2  -3 -10 1186.83 268.591  10
   2  -3 -10 844.440 260.837  11
   2  -3  -9 1445.60 348.861  11
   2  -3  -9 1234.59 325.453  10
  -2   3   8 14938.0 934.311  13
   2  -3  -8 13444.2 1035.91  11
  -2   3   7 3355.18 441.187  13
   2  -3  -7 3029.03 447.315  24
   2  -3  -6 1040.16 271.469  24
  -2   3   6 911.690 235.287  13
   2  -3  -6 817.435 227.637  23
   2  -3  -5 53533.9 1562.22  25
  -2   3   5 56751.7 1576.86  13
   2  -3  -5 62251.2 1796.39  24
   2  -3  -5 61166.7 1700.51  23
   2  -3  -4 111507. 2052.36  25
   2  -3  -3 28180.7 947.234  25
   2  -3  -2 213697. 2365.32  25
   2  -3  -2 210575. 2213.94  30
   2  -3  -1 250251. 2305.21  30
   2  -3  -1 253346. 2339.62  25
   2  -3   0 235721. 2052.55  25
   2  -3   0 231365. 2656.27  31
  -2   3  -1 60305.2 752.760   1
   2  -3   1 56459.4 1330.50  31
   2  -3   1 58090.9 1032.78  30
  -2   3  -2 117.366 70.9609   1
   2  -3   2 47.5451 55.8111  30
  -2   3  -3 115721. 1597.61   1
   2  -3   3 116749. 1356.45  30
  -2   3  -4 49425.5 1229.86   1
   2  -3   5 18150.4 884.365   5
  -2   3  -5 16075.1 802.761   1
   2  -3   5 18276.2 858.784   6
   2  -3   6 117864. 2388.55   6
   2  -3   6 119056. 2480.90   5
   2  -3   7 9469.24 749.844   6
   2  -3   7 10070.2 773.694   5
   2  -3   8 14944.4 863.930  22
   2  -3   8 15739.9 993.884   5
   2  -3   8 15026.9 955.210   6
   2  -3   9 2636.22 404.136   5
   2  -3   9 2710.32 420.212   6
   2  -3  10 678.820 227.486   5
   2  -3  10 507.201 179.368   6
   2  -2 -10 3710.15 525.522  11
   2  -2  -9 30908.4 1461.23  10
   2  -2  -9 28444.9 1508.71  11
  -2   2   8 479.928 186.478  13
   2  -2  -8 365.681 227.083  11
  -2   2   7 13967.5 862.898  13
   2  -2  -7 12379.6 945.760  11
  -2   2   6 9203.58 645.058  13
   2  -2  -6 8164.08 642.503  25
   2  -2  -5 33209.9 1123.80  25
   2  -2  -4 27352.8 934.720  25
   2  -2  -3 53888.8 1202.81  25
   2  -2  -2 379299. 2933.94  25
   2  -2  -1 9836.71 436.336  25
   2  -2  -1 8402.91 376.993  30
   2  -2   0 54531.9 945.716  25
  -2   2   0 55022.7 614.956   1
   2  -2   0 55022.7 1159.62  31
   2  -2   0 56156.7 898.564  30
   2  -2   1 203683. 1640.88  30
  -2   2  -1 209994. 1443.16   1
   2  -2   2 387697. 2103.34  30
  -2   2  -2 383443. 2364.17   1
  -2   2  -3 10999.1 479.224   1
  -2   2  -4 24816.0 831.060   1
  -2   2  -5 8826.63 582.629   1
   2  -2   6 10940.6 742.585   5
   2  -2   6 11360.1 691.997  19
  -2   2  -6 10836.6 735.765   1
   2  -2   7-44.5856 150.969   5
   2  -2   8 54298.5 1829.90   5
   2  -2   9 2823.92 439.005   5
   2  -2   9 2315.86 393.785   6
   2  -2  10 3097.46 405.756   6
   2  -2  10 3463.09 418.294   5
   2  -1 -11 7313.68 653.116  11
   2  -1 -10 388.575 249.115  11
   2  -1  -9 618.251 316.101  11
   2  -1  -8 523.679 260.671  11
   2  -1  -7-12.5511 158.174  11
  -2   1   7 221.048 145.736  13
   2  -1  -6 37924.9 1450.06  11
   2  -1  -6 33949.7 1209.55  25
   2  -1  -5 163525. 2385.56  25
   2  -1  -4 54419.1 1214.46  25
   2  -1  -3 193357. 2106.82  25
   2  -1  -2 12496.6 510.674  25
   2  -1  -1 366194. 2493.69  25
   2  -1   0 14586.3 531.078  31
   2  -1   0 13345.6 458.603  25
  -2   1  -1 3749.15 209.799   1
  -2   1  -2 404526. 2418.56   1
  -2   1  -3 331189. 2570.19   1
  -2   1  -4 66517.9 1343.61   1
  -2   1  -5 47817.5 1319.69   1
   2  -1   6 22796.5 967.510  19
  -2   1  -6 21363.9 1026.45   1
   2  -1   7 25043.0 1205.02   5
   2  -1   7 27560.8 1146.81  19
   2  -1   8 53353.5 1817.99   5
   2  -1   9 92679.8 2346.35   5
   2  -1  10 2435.66 367.968   6
   2  -1  10 2155.40 328.729   5
  -2   0  11 99.7778 97.0070   3
   2   0 -11-30.1895 126.095  11
   2   0 -10 1484.68 372.258  11
   2   0  -9 24163.7 1450.62  11
   2   0  -8 21249.8 1302.98  11
   2   0  -7 28311.9 1171.03  25
   2   0  -7 34126.6 1488.66  11
   2   0  -6 66963.3 1625.84  25
   2   0  -6 85340.8 2102.76  11
   2   0  -5 59901.8 1363.22  25
   2   0  -4 263303. 2526.31  25
   2   0  -3 95063.7 1404.66  25
   2   0  -2 879.310 160.067  25
  -2   0   2 787.582 110.116  29
  -2   0   1 267867. 1504.20  29
   2   0  -1 263107. 2031.17  25
  -2   0  -1 327292. 2039.47   1
  -2   0  -2 518294. 2882.92   1
  -2   0  -3 81466.5 1296.44   1
  -2   0  -4 18008.5 708.276   1
  -2   0  -5 8179.61 552.324   1
   2   0   6 17301.1 976.692  13
   2   0   6 17426.9 856.737  19
   2   0   6 17116.8 783.275  28
  -2   0  -6 16970.9 911.205   1
   2   0   7 137.320 147.272  19
   2   0   8 254267. 4004.12   5
   2   0   9 3167.37 453.432   5
   2   0  10 1923.29 317.327   5
  -2  -1  11 4563.32 444.722   3
  -2  -1  10 57407.8 1733.80   3
  -2  -1  10 54247.2 1624.80   6
   2   1 -10 53901.6 2114.49  11
   2   1  -9 631.220 289.810  11
   2   1  -8 105685. 2883.85  11
   2   1  -7 6305.59 539.308  25
   2   1  -7 6708.93 675.170  11
   2   1  -6 51899.4 1387.70  25
   2   1  -5 14481.0 657.517  25
  -2  -1   4 4641.41 342.178  29
   2   1  -4 3834.31 313.587  25
   2   1  -3 376.456 114.352  25
  -2  -1   3 442.112 110.178  29
   2   1  -2 93280.3 1240.86  25
  -2  -1   2 94287.0 1196.20  29
  -2  -1  -2 366515. 2508.11   1
  -2  -1  -3 73884.4 1276.84   1
  -2  -1  -4 7657.97 477.215   1
  -2  -1  -5 4634.59 432.910   1
   2   1   5 4380.82 465.852  13
   2   1   5 4188.11 396.643  19
   2   1   6 11447.5 811.244  13
   2   1   6 9193.88 637.987  19
   2   1   7 39316.0 1613.28  13
   2   1   7 37912.4 1333.80  19
  -2  -1  -8 1681.45 362.580  11
   2   1   8 1893.91 310.409  19
   2   1   9 23.1071 145.862   5
   2   1  10 6388.48 515.271   5
  -2  -2  11 3696.87 406.024   3
  -2  -2  10 502.001 208.445   6
  -2  -2  10 1201.94 281.627   3
  -2  -2   9 17542.3 963.546   6
   2   2  -9 18758.2 1287.53  11
  -2  -2   9 19342.5 1040.96   3
   2   2  -8 282302. 4748.59  11
  -2  -2   8 287717. 3756.46   6
  -2  -2   7 523.250 188.411  29
   2   2  -7 483.576 233.913  11
  -2  -2   7 818.574 198.568   6
  -2  -2   6 11934.3 711.477  29
   2   2  -6 9362.88 579.380  25
   2   2  -6 11410.6 814.684  11
  -2  -2   5 57867.7 1411.47  29
   2   2  -5 48769.5 1190.81  25
  -2  -2   4 86125.5 1543.57  29
   2   2  -4 81425.7 1374.75  25
   2   2  -3 5927.29 333.269  25
  -2  -2   3 6305.38 386.848  29
  -2  -2   2 253430. 2258.05  29
   2   2  -2 258746. 1899.02  25
  -2  -2   1 14800.4 520.971  29
  -2  -2  -1 193501. 1780.80   1
  -2  -2  -1 191240. 1970.77  29
  -2  -2  -2 35525.4 829.226   1
  -2  -2  -3 16144.9 624.257   1
  -2  -2  -4 96904.3 1745.84   1
   2   2   4 99923.9 2199.98   7
  -2  -2  -5 173713. 2619.40   1
   2   2   5 174727. 3132.92   7
   2   2   5 172123. 3060.32  13
   2   2   6 2053.69 386.841  13
   2   2   6 1819.71 299.585  19
   2   2   7 32558.1 1492.11  13
   2   2   7 32074.0 1209.89  19
   2   2   8 24629.0 1278.51  13
  -2  -2  -9 11495.4 802.283  11
   2   2   9 12723.1 800.834   5
  -2  -3  11 8623.33 581.453   3
  -2  -3  10 174.287 135.402   6
  -2  -3  10 20.9594 127.465   3
  -2  -3   9 63583.3 1874.62   3
  -2  -3   9 64592.1 1849.49   6
  -2  -3   8 165916. 2903.82   6
  -2  -3   8 160638. 2936.68   3
  -2  -3   7 8599.69 629.155   6
  -2  -3   7 7863.28 627.880   3
  -2  -3   6 12889.2 769.642  29
  -2  -3   6 11983.5 712.608   3
  -2  -3   6 12411.6 693.426   6
  -2  -3   5 4675.54 422.617  29
  -2  -3   4 7886.79 507.157  29
  -2  -3   3 111184. 1756.36  29
  -2  -3   2 27025.3 825.399  29
  -2  -3   1 5306.84 361.981  29
  -2  -3   0 37238.7 952.858  29
  -2  -3  -1 421.056 142.405  29
  -2  -3  -1 199.830 82.7046   1
  -2  -3  -2 3245.41 272.369   1
  -2  -3  -3 98438.4 1593.16   1
   2   3   4 17033.7 977.187  13
  -2  -3  -4 17787.9 883.634  26
   2   3   4 16002.8 971.257   7
   2   3   5 237.382 197.268   7
   2   3   5 383.143 199.473  13
   2   3   6 76.0787 171.295  13
   2   3   6 377.394 138.304  19
   2   3   7 8196.26 766.531  13
   2   3   8 14637.4 947.516  13
   2   3   9 1430.48 252.895   5
  -2  -4  11 449.386 133.411   3
  -2  -4  10 12411.1 750.495   6
  -2  -4  10 11145.6 731.001   3
  -2  -4   9 607.144 208.951   6
  -2  -4   9 784.307 229.907   3
  -2  -4   8 13500.8 852.740   6
  -2  -4   8 12915.0 856.788   3
  -2  -4   7-2.06223 147.216   3
  -2  -4   7-114.279 137.061   6
  -2  -4   6 45704.1 1414.84   6
  -2  -4   6 43384.1 1418.81   3
  -2  -4   6 43058.2 1432.74  29
  -2  -4   5 6072.29 501.410   6
   2   4  -5 6428.84 656.498  12
  -2  -4   5 6443.21 519.823   3
  -2  -4   5 6211.24 521.594  29
  -2  -4   4 49341.6 1357.69  29
  -2  -4   3 47750.4 1264.73  29
  -2  -4   2 55902.5 1318.02  29
  -2  -4   1 13099.2 633.430  29
  -2  -4   0 16450.1 725.397  29
  -2  -4  -1 55303.3 1385.26  29
   2   4   2 97935.1 2321.14   7
   2   4   3 5449.26 585.264   7
   2   4   4 15330.4 1004.02  13
   2   4   4 18327.6 1112.73   7
   2   4   5 1048.50 311.964   7
   2   4   5 1134.89 323.151  13
   2   4   6 646.384 264.859  13
   2   4   7 16020.3 1018.37  13
   2   4   8 1833.14 323.138  13
   2   5 -10 1381.26 297.872  12
  -2  -5  10 1421.54 280.795   2
  -2  -5  10 1580.14 274.331   3
  -2  -5   9 416.632 183.386   3
   2   5  -9 103.288 183.899  12
  -2  -5   8 10664.4 775.826   3
   2   5  -8 9516.88 923.558  12
   2   5  -7 15378.9 1167.93  12
  -2  -5   7 15408.9 918.422   3
  -2  -5   6 64153.1 1795.57   3
   2   5  -6 59829.4 2239.81  12
   2   5  -5 1567.30 394.318  12
  -2  -5   5 1326.88 283.529   2
  -2  -5   5 1643.24 298.939   3
   2   5  -4 717.203 264.684  12
  -2  -5   4 482.995 187.188   2
  -2  -5   4 647.361 172.378  29
  -2  -5   4 540.702 191.921   3
  -2  -5   3 56410.1 1497.22  29
  -2  -5   3 55506.1 1515.94   3
  -2  -5   3 57503.4 1585.19   2
   2   5  -3 54295.2 1959.39  12
  -2  -5   2 219.151 131.831   2
  -2  -5   2 674.857 185.460   3
  -2  -5   2 334.082 143.245  29
  -2  -5   1 10767.9 662.420   3
  -2  -5   1 9043.42 595.093  29
   2   5  -1 9467.80 751.543   7
  -2  -5   0 35629.2 1205.44  29
  -2  -5   0 40298.7 1259.93  14
   2   5   0 38817.6 1535.70   7
  -2  -5  -1 1917.59 317.389  14
   2   5   1 1998.42 375.650   7
   2   5   2 3743.28 517.132   7
   2   5   3 5709.48 655.268   7
   2   5   4 2548.82 465.065  13
   2   5   4 3655.60 544.240   7
   2   5   5 681.596 272.326  13
   2   5   5 657.866 249.552   7
   2   5   6 3552.49 509.803  13
   2   5   7 3206.27 426.291  13
  -2  -6  10 354.498 147.434   2
   2   6 -10 104.216 122.299  12
  -2  -6  10 168.920 103.269   3
   2   6  -9 6329.67 695.535  12
  -2  -6   9 6319.83 538.246   3
  -2  -6   9 5209.99 518.123   2
   2   6  -8 286.336 222.324  12
  -2  -6   8 371.189 185.353   2
  -2  -6   8 129.616 187.138   3
  -2  -6   7 7157.25 672.975   2
   2   6  -7 7375.39 833.332  12
  -2  -6   7 7742.94 662.306   3
   2   6  -6 1543.98 430.229  12
  -2  -6   6 1150.88 285.384   2
  -2  -6   6 1055.71 279.375   3
  -2  -6   5 3123.82 435.498   3
  -2  -6   5 1995.83 364.669   2
   2   6  -5 2574.63 522.577  12
  -2  -6   4 4997.64 519.623   3
  -2  -6   4 4954.80 537.668   2
   2   6  -4 4824.35 667.556  12
  -2  -6   3 31989.9 1306.83   2
  -2  -6   3 32276.3 1267.98   3
  -2  -6   2 32916.1 1279.26   3
  -2  -6   2 31179.4 1168.53  27
   2   6  -2 30848.6 1501.01   7
  -2  -6   1 2856.47 379.598  14
   2   6  -1 2768.82 471.682   7
  -2  -6   0 372.815 187.782  14
   2   6   0 543.569 251.767   7
  -2  -6  -1 40322.0 1464.34  14
   2   6   1 39401.3 1697.73   7
   2   6   2 782.083 296.630   7
   2   6   3 396.165 247.133   7
   2   6   3 698.563 292.899  13
   2   6   4 148.825 184.427   7
   2   6   4-108.629 173.632  13
   2   6   5 3673.49 509.926  13
   2   6   5 3244.29 479.102   7
   2   6   6 7723.78 642.110  13
   2   7  -9 1033.54 283.760  12
  -2  -7   9 561.353 171.640   2
  -2  -7   9 825.945 194.172   3
   2   7  -8 789.961 301.591  12
  -2  -7   8 686.000 218.168   2
  -2  -7   8 872.281 228.028   3
  -2  -7   7 6412.14 605.660   2
   2   7  -7 5811.25 745.673  12
  -2  -7   7 7190.91 618.861   3
  -2  -7   6-35.5796 196.335   2
  -2  -7   6 340.094 211.388   3
  -2  -7   5 26426.1 1256.56   2
  -2  -7   5 27716.3 1254.33   3
  -2  -7   4 1893.11 377.017   3
   2   7  -3 13611.4 1079.25   7
  -2  -7   3 13837.2 898.595   3
   2   7  -2 4581.15 645.264   7
  -2  -7   2 4608.96 500.694  14
  -2  -7   1 110.525 150.923  14
   2   7  -1 531.857 274.461   7
  -2  -7   0 265.921 169.647  14
   2   7   0-64.7662 209.370   7
   2   7   1 468.334 266.355   7
   2   7   2 19369.4 1205.05   7
   2   7   3 11559.9 896.843  13
   2   7   3 10636.4 856.055   7
   2   7   4 13828.7 916.127  13
   2   7   4 12089.2 840.506   7
   2   7   5 2863.04 382.601  13
   2   8  -8 1066.66 250.937   7
  -2  -8   8 753.813 184.118   3
   2   8  -8 664.775 179.278   4
   2   8  -7 3524.36 491.626   7
  -2  -8   7 4016.52 422.279   3
  -2  -8   6 44107.1 1460.49   3
   2   8  -6 40206.2 1680.92   7
   2   8  -5-172.562 209.255   7
  -2  -8   5 54.7340 192.213   3
   2   8  -4 61368.9 2204.86   7
  -2  -8   4 61464.4 1826.66   3
   2   8  -3 10717.4 942.668   7
   2   8  -2 995.400 350.157   7
   2   8  -1 4845.68 617.551   7
   2   8   0 135.246 170.914   7
   2   8   1 2583.63 434.916   7
   2   8   2-42.7234 128.405   7
   2   8   2 134.825 183.055  13
   2   8   3 4885.69 509.786  13
   2   8   3 5163.04 504.306   7
   2   9  -6 176.154 126.827   7
   2   9  -6-59.9103 103.537   4
   2   9  -5 60.2129 133.820   7
   2   9  -4 1284.98 320.454   7
   2   9  -3 169.211 160.369   7
   2   9  -2 5292.06 583.878   7
   2   9  -1 4433.43 514.296   7
   2   9   0 2379.95 369.445   7
   2   9   1 9575.94 664.681  13
   3  -9  -2 5377.61 525.004  23
   3  -9  -1 1409.10 299.845  23
   3  -9   0 2627.99 381.674  14
   3  -9   0 2779.54 400.497  23
   3  -9   1 8157.24 644.639  14
   3  -9   1 8219.93 654.580  23
   3  -9   2 270.266 150.864  14
   3  -9   3 398.395 159.550  27
   3  -9   3-66.8285 130.422  14
   3  -9   4 5057.13 474.875  27
   3  -9   5 1674.08 267.810  27
   3  -8  -4 1387.95 282.729  23
   3  -8  -4 1618.87 328.629  24
   3  -8  -3 45.0527 152.599  23
   3  -8  -3-249.457 177.356  24
   3  -8  -2 15486.3 994.540  24
   3  -8  -2 14932.3 1002.13  23
   3  -8  -1 6398.41 628.473  14
   3  -8  -1 5763.63 641.006  23
   3  -8  -1 5656.91 540.608  22
   3  -8   0 2898.75 437.259  14
   3  -8   0 2792.68 445.302  23
   3  -8   0 3488.56 430.116  22
   3  -8   1 3466.15 459.312  27
   3  -8   1 3701.00 492.936  14
   3  -8   1 3253.73 473.166  23
   3  -8   1 3416.31 420.738  22
   3  -8   1 3360.16 442.936  15
   3  -8   2 6292.99 584.106  15
   3  -8   2 6721.89 634.072  27
   3  -8   2 7051.10 560.697  22
   3  -8   3 3055.68 445.587  27
   3  -8   3 2935.78 396.099  15
   3  -8   4 8363.91 689.757  27
   3  -8   4 8850.54 658.642  15
   3  -8   5 251.941 154.300  27
   3  -8   5 4.75266 115.475  15
   3  -8   6 3637.88 424.669  27
   3  -8   6 3202.23 359.757  15
   3  -8   7 251.054 129.816  27
   3  -7  -6-245.735 151.801  10
   3  -7  -6 76.6084 125.255  24
   3  -7  -6 161.903 118.044  23
   3  -7  -5 21.4378 162.053  23
   3  -7  -5 34.8222 166.502  24
   3  -7  -4 9547.84 857.892  24
   3  -7  -4 9029.86 797.908  23
   3  -7  -3 3842.52 558.445  24
   3  -7  -3 4442.34 591.247  23
   3  -7  -2 8463.89 786.211  24
   3  -7  -2 8161.95 713.555  14
   3  -7  -2 8676.05 699.862  22
   3  -7  -2 8276.60 781.651  23
   3  -7  -1 4949.75 548.777  15
   3  -7  -1 5112.52 577.683  24
   3  -7  -1 5264.60 608.246  23
   3  -7  -1 5751.65 573.007  22
   3  -7  -1 5702.84 615.217  14
   3  -7   0 8960.53 724.299  15
   3  -7   0 8080.19 673.376  27
   3  -7   0 8853.12 766.049  23
   3  -7   0 8881.01 733.651  14
   3  -7   0 8716.46 683.103  22
   3  -7   1 20625.7 1072.15  15
   3  -7   1 21990.1 1110.07  27
   3  -7   1 21137.3 1124.26  23
   3  -7   1 21135.8 1027.27  22
   3  -7   2 8320.75 700.228  27
   3  -7   2 8036.12 635.190  22
   3  -7   2 7544.89 668.895  15
   3  -7   3 112255. 2554.59  27
   3  -7   3 107291. 2254.02  22
   3  -7   3 110181. 2468.36  15
   3  -7   4 25076.3 1188.97  15
   3  -7   4 25378.4 1232.03  27
   3  -7   5-16.8979 210.887  27
   3  -7   5 42.0286 168.344  15
   3  -7   6 21001.4 1024.21  15
   3  -7   6 20435.3 1069.41  27
   3  -7   7 5014.75 507.883  27
   3  -7   7 3958.79 426.873  15
   3  -7   8 4817.73 445.380  27
   3  -6  -7 6100.50 610.328  10
   3  -6  -6-334.870 226.567  24
   3  -6  -6 10.1243 115.891  23
   3  -6  -6 239.898 210.275  10
   3  -6  -5 1132.16 359.667  24
   3  -6  -5 1918.44 433.273  23
   3  -6  -5 877.289 294.619  10
   3  -6  -4 4542.44 624.381  24
   3  -6  -4 5875.80 630.519  10
   3  -6  -4 5513.80 653.079  23
   3  -6  -3 3703.38 479.977  14
   3  -6  -3 4911.88 592.182  23
   3  -6  -3 3963.50 490.981  22
   3  -6  -3 4536.49 596.458  24
   3  -6  -2 51834.4 1692.89  14
   3  -6  -2 50460.7 1831.15  24
   3  -6  -2 51827.3 1832.86  23
   3  -6  -2 49437.1 1592.67  22
   3  -6  -1 363.234 199.677  22
   3  -6  -1 536.317 199.251  27
   3  -6  -1 337.631 176.086  14
   3  -6  -1 649.310 215.517  24
   3  -6  -1 208.977 184.641  23
   3  -6  -1 413.456 209.040  15
   3  -6   0 832.794 227.288  27
   3  -6   0 801.053 247.558  23
   3  -6   0 543.152 205.695  22
   3  -6   0 697.552 211.351  15
   3  -6   1 703.599 241.673  15
   3  -6   1 183.180 138.400  27
   3  -6   1 241.920 145.018  23
   3  -6   1 262.921 165.606  22
   3  -6   2 65713.3 1823.40  27
   3  -6   2 67052.0 1749.18  22
   3  -6   2 66088.8 1839.64  15
   3  -6   3 110766. 2417.91  15
   3  -6   3 107462. 2384.11  27
   3  -6   3 108042. 2233.06  22
   3  -6   4 62922.4 1888.73  27
   3  -6   4 65007.5 1740.77  22
   3  -6   5 42097.1 1409.32  22
   3  -6   5 41651.1 1571.77  27
   3  -6   6 1851.61 375.188  27
   3  -6   7 3203.66 443.828  27
   3  -6   8 9161.50 678.640  27
   3  -5  -8 505.706 252.342  10
   3  -5  -7 2909.00 467.294  24
   3  -5  -7 3300.08 454.819  23
   3  -5  -7 2797.03 491.335  10
   3  -5  -6 389.155 265.685  10
   3  -5  -6 830.487 313.690  24
   3  -5  -6 906.555 296.137  23
   3  -5  -5 179336. 3479.22  23
   3  -5  -5 178544. 3674.78  24
   3  -5  -4 157186. 3363.86  24
   3  -5  -4 163296. 3266.97  23
   3  -5  -3 48424.5 1550.31  14
   3  -5  -3 48668.1 1761.55  24
   3  -5  -3 47727.6 1696.68  23
   3  -5  -3 51091.4 1542.71  22
   3  -5  -3 50505.3 1726.29  10
   3  -5  -2 46807.5 1447.83  14
   3  -5  -2 45852.2 1607.69  24
   3  -5  -2 46899.8 1585.38  23
   3  -5  -2 48908.7 1451.07  22
   3  -5  -2 48083.6 1495.02  15
   3  -5  -1 925.096 190.545  27
   3  -5  -1 961.034 220.352  14
   3  -5  -1 1086.03 238.643  22
   3  -5  -1 996.855 218.853  24
   3  -5  -1 1121.95 248.705  23
   3  -5  -1 1139.95 244.968  15
   3  -5  -1 1167.83 232.760  30
   3  -5   0 4509.96 451.883  15
   3  -5   0 4043.43 400.067  27
   3  -5   0 4192.27 418.857  22
   3  -5   0 3975.92 402.464  30
   3  -5   1 18505.0 862.038  27
   3  -5   1 17135.7 848.023  23
   3  -5   1 18016.0 852.347  22
   3  -5   1 18897.4 902.040  15
   3  -5   1 19268.8 712.850  17
   3  -5   1 18099.2 831.097  30
   3  -5   2 47068.3 1647.85  31
   3  -5   2 48309.6 1423.90  27
   3  -5   2 47520.9 1400.90  22
   3  -5   2 47259.5 1160.35  18
   3  -5   2 47823.4 1187.50  17
   3  -5   2 49222.9 1334.44  30
   3  -5   3 177476. 2838.17  27
   3  -5   3 180204. 2777.80  22
   3  -5   3 175218. 3310.61  31
   3  -5   3 179103. 2394.65  18
   3  -5   4 33278.1 1237.65  22
   3  -5   4 31969.1 1268.22  27
   3  -5   5 25544.1 1132.45   6
   3  -5   5 25103.4 1102.74  22
   3  -5   5 23274.8 1141.84  27
   3  -5   6 1980.85 355.524   6
   3  -5   6 2604.83 377.995  22
   3  -5   7 7643.39 657.432   6
   3  -5   7 8057.40 619.535  22
   3  -5   8 3579.45 460.404  27
   3  -5   8 3797.23 451.341   6
   3  -5   9 15471.6 827.334  27
   3  -4  -9 1533.96 299.504  11
   3  -4  -9 2228.53 395.229  10
   3  -4  -8 7977.25 724.726  11
   3  -4  -8 8501.57 800.293  10
   3  -4  -7 1606.93 353.891  11
   3  -4  -7 2815.41 473.047  24
   3  -4  -7 2772.56 516.275  10
   3  -4  -7 2646.43 416.169  23
   3  -4  -6 61085.8 2127.06  24
   3  -4  -6 65924.4 2071.14  23
   3  -4  -5 183148. 3533.06  24
   3  -4  -5 184395. 3373.31  23
   3  -4  -4 43538.1 1620.85  24
   3  -4  -4 43402.1 1558.52  23
   3  -4  -4 43143.7 1375.57  22
   3  -4  -4 44245.2 1528.97  25
   3  -4  -3 304.434 141.937  25
   3  -4  -3 561.353 205.568  24
   3  -4  -3 611.079 189.912  23
   3  -4  -3 574.088 170.829  22
   3  -4  -2 4861.23 427.757  25
   3  -4  -1 7751.10 510.998  30
   3  -4   0 366991. 3372.90  30
   3  -4   1 16301.8 901.831  31
   3  -4   1 15903.6 685.752  30
   3  -4   2 1875.10 234.594  30
   3  -4   2 1494.93 298.750  31
   3  -4   3 5289.48 463.304  22
   3  -4   3 6756.19 451.540  18
   3  -4   3 5860.94 422.153  17
   3  -4   3 5822.13 582.458  31
   3  -4   4 1940.77 308.584  22
   3  -4   4 2166.44 348.781   5
   3  -4   4 1687.21 253.376  18
   3  -4   4 1910.74 264.269  17
   3  -4   5 2180.96 343.789  22
   3  -4   5 1761.33 337.892   5
   3  -4   6 719.547 220.330   6
   3  -4   6 343.486 173.108  22
   3  -4   6 155.072 171.446   5
   3  -4   7 4917.72 528.352   6
   3  -4   7 4652.30 578.137   5
   3  -4   7 4959.56 518.718  22
   3  -4   8 74155.2 2116.97   5
   3  -4   8 74964.0 1885.85  22
   3  -4   8 75611.0 2024.65   6
   3  -4   9 1067.42 233.752   6
   3  -3  -9 4168.31 553.893  11
   3  -3  -9 5238.61 600.664  10
   3  -3  -8 14796.0 1051.06  11
   3  -3  -8 15956.6 1119.95  10
   3  -3  -7 1636.30 344.506  23
   3  -3  -7 1683.79 367.513  11
   3  -3  -6 11670.3 879.586  24
   3  -3  -6 11485.3 846.114  23
   3  -3  -6 10529.9 820.887  11
   3  -3  -5 48875.0 1661.98  25
   3  -3  -5 46745.7 1660.62  24
   3  -3  -5 46516.8 1598.28  23
   3  -3  -4 20367.4 1024.01  24
   3  -3  -4 19966.6 977.871  23
   3  -3  -4 20482.0 995.156  25
   3  -3  -3 17320.5 838.241  25
   3  -3  -2 2782.82 323.574  25
   3  -3  -1 428006. 3527.39  25
   3  -3   0 269026. 2693.79  25
   3  -3   0 276461. 3309.22  31
   3  -3   1 39192.4 1287.17  31
  -3   3  -2 127728. 1566.62   1
   3  -3   2 129655. 2422.26  31
  -3   3  -3 68660.9 1337.98   1
   3  -3   4 64.4847 101.443  22
   3  -3   4-182.627 112.786   5
   3  -3   4 267.408 112.189  18
  -3   3  -4 267.988 114.285   1
   3  -3   4-32.8644 89.3059  17
  -3   3  -5 5392.51 495.411   1
   3  -3   5 6003.77 558.583   5
   3  -3   5 6091.19 513.295   6
   3  -3   5 5711.11 525.121  22
   3  -3   5 5611.57 457.224  18
   3  -3   6 1266.45 267.694   6
   3  -3   6 1457.08 299.258  22
   3  -3   6 1324.90 303.005   5
   3  -3   7 14907.0 926.255   6
   3  -3   7 15203.0 918.817  22
   3  -3   7 14063.2 952.175   5
   3  -3   8 15193.0 938.944   6
   3  -3   8 14804.3 897.614  22
   3  -3   8 14988.4 971.095   5
   3  -3   9 3522.03 410.286  22
   3  -3   9 2999.00 415.158   5
   3  -3   9 3335.66 420.766   6
   3  -2 -10 598.146 228.189  11
   3  -2 -10 525.994 207.304  10
   3  -2  -9 3905.45 545.488  10
   3  -2  -9 2755.72 499.226  11
   3  -2  -8 7905.39 813.451  11
   3  -2  -8 7778.03 780.925  10
   3  -2  -7 68.6254 116.229  23
   3  -2  -7 528.017 234.986  11
   3  -2  -7 589.508 297.433  10
   3  -2  -6 1511.36 320.030  24
   3  -2  -6 1742.65 327.488  23
   3  -2  -6 971.168 264.339  11
   3  -2  -6 1660.04 335.861  25
   3  -2  -5 3151.67 406.890  23
   3  -2  -5 3093.79 405.341  24
   3  -2  -5 2800.56 391.543  25
   3  -2  -4 5095.13 485.464  25
   3  -2  -3 1999.70 295.472  25
   3  -2  -2 44640.0 1185.36  25
   3  -2  -1 828.259 175.802  25
   3  -2   0 75667.8 1600.99  31
  -3   2   0 75494.6 985.604   1
   3  -2   0 75593.7 1388.57  25
  -3   2  -1 329773. 2246.81   1
   3  -2   1 328661. 3446.72  31
  -3   2  -2 103813. 1422.41   1
  -3   2  -3 2338.80 255.042   1
  -3   2  -4 238525. 2789.64   1
   3  -2   5 28510.3 1045.65  28
   3  -2   5 25384.8 1104.27   5
   3  -2   5 26905.7 1049.89  19
   3  -2   5 26505.1 925.365  18
   3  -2   5 26988.2 882.147  17
  -3   2  -5 27158.9 1080.00   1
   3  -2   6 18048.5 1008.62   5
   3  -2   6 18642.9 949.558  19
   3  -2   7 12416.1 900.362   5
   3  -2   8 27837.3 1331.64   5
   3  -2   8 27975.3 1269.28   6
   3  -2   9 2576.36 377.718   6
   3  -2   9 2727.34 382.124  22
   3  -2   9 2640.51 405.684   5
   3  -2  10 1611.99 274.466   5
   3  -1 -10 105.254 147.727  11
   3  -1  -9 40455.9 1629.90  10
   3  -1  -9 37734.7 1773.60  11
   3  -1  -8 551.038 260.716  11
   3  -1  -8 502.315 215.178  10
   3  -1  -7 2974.63 471.315  11
   3  -1  -7 3242.33 450.554  23
   3  -1  -7 3446.37 507.109  10
   3  -1  -6 62316.3 1872.05  25
   3  -1  -6 63021.7 1911.72  11
   3  -1  -6 65861.4 1946.40  10
   3  -1  -6 65635.9 1845.03  23
   3  -1  -5 18398.9 923.705  25
   3  -1  -4 461881. 4240.81  25
  -3   1   3 16683.0 532.386  29
   3  -1  -3 15689.2 731.957  25
   3  -1  -2 25382.2 863.879  25
  -3   1   2 28291.4 553.693  29
   3  -1  -1 1830.13 241.117  25
   3  -1   0 319542. 2807.02  25
   3  -1   0 317711. 2986.31  31
  -3   1  -1 332.260 96.6820   1
  -3   1  -2 34649.7 847.926   1
  -3   1  -3 107975. 1667.85   1
  -3   1  -4 193418. 2530.76   1
   3  -1   5 18367.0 840.470  28
  -3   1  -5 19890.4 926.058   1
   3  -1   5 18763.7 934.333   5
   3  -1   5 18810.0 876.260  19
   3  -1   5 18876.2 739.910  18
   3  -1   6 1510.19 276.012  28
   3  -1   6 1265.72 274.250  19
   3  -1   6 1423.49 314.561   5
   3  -1   7 63713.8 1976.08   5
   3  -1   7 63886.4 1859.36  19
   3  -1   8 3500.94 501.586   5
   3  -1   9 1306.94 269.070   6
   3  -1   9 1137.40 302.297   5
  -3   0  11 3849.61 401.004   3
   3   0 -10 10354.5 915.556  11
   3   0  -9 7416.76 824.440  11
   3   0  -8 19111.2 1256.79  11
   3   0  -7 4415.50 516.512  23
   3   0  -7 4169.47 567.353  11
   3   0  -7 4839.92 543.215  10
  -3   0   6 4596.32 435.324  29
   3   0  -6 3870.44 446.909  25
   3   0  -6 4265.45 472.257  23
   3   0  -6 4213.39 511.013  11
   3   0  -6 4031.19 458.513  10
  -3   0   5 96527.4 1765.66  29
   3   0  -5 88171.3 1940.61  25
  -3   0   4 122655. 1770.19  29
   3   0  -4 112370. 2006.99  25
  -3   0   3 37282.0 860.489  29
   3   0  -3 36179.0 1053.06  25
   3   0  -2 540.938 164.942  25
  -3   0   2 550.229 100.487  29
  -3   0   1 151569. 1311.89  29
   3   0  -1 148271. 1876.39  25
   3   0  -1 150904. 1780.94  31
  -3   0   0 102135. 1055.57  29
   3   0   0 101104. 1524.11  31
  -3   0  -1 521627. 3169.07   1
  -3   0  -2 216799. 2195.38   1
  -3   0  -3 30691.7 912.772   1
  -3   0  -4 74473.1 1591.99   1
  -3   0  -5 1123.49 241.254   1
   3   0   5 1022.75 230.567  13
   3   0   5 1541.84 282.017  19
   3   0   5 1400.60 250.629  28
   3   0   6 24065.8 1093.54  19
   3   0   6 25559.0 1065.81  28
   3   0   7 39243.0 1557.42   5
   3   0   7 40454.0 1473.97  19
   3   0   8 1768.66 322.531  19
   3   0   8 1247.23 332.037   5
   3   0   9 17664.7 966.248   5
  -3  -1  11 2061.94 313.938   3
  -3  -1  10 2548.21 388.401   3
   3   1  -9 2013.89 475.532  11
   3   1  -8 26276.9 1494.77  11
   3   1  -7 86807.0 2213.80  23
   3   1  -7 80942.7 2418.74  11
   3   1  -6 33751.7 1429.41  11
   3   1  -6 31608.9 1245.24  25
   3   1  -6 34176.0 1317.03  23
  -3  -1   6 37140.9 1266.07  29
  -3  -1   5 6430.15 490.297  29
   3   1  -5 6534.82 519.812  25
  -3  -1   4 310802. 2963.89  29
   3   1  -4 301593. 3186.93  25
  -3  -1   3 3939.33 304.133  29
   3   1  -3 3986.20 345.142  25
  -3  -1   2 864.244 143.719  29
   3   1  -2 730.995 157.895  25
   3   1  -1 1895.51 236.950  25
  -3  -1   1 1711.92 182.483  29
  -3  -1   0 512.319 117.116  29
   3   1   0 823.883 138.003  31
  -3  -1  -1 97345.4 1437.89   1
  -3  -1  -2 17426.5 656.307   1
  -3  -1  -3 477.034 135.931   1
  -3  -1  -4 51138.1 1363.84   1
   3   1   4 49052.3 1330.55  28
   3   1   4 53603.6 1637.65   7
  -3  -1  -5 44.2923 90.6066   1
   3   1   5 59.2335 112.768  28
   3   1   5 33.7499 117.805  13
   3   1   5 54.4647 121.367  19
   3   1   6 60382.8 1920.88  13
   3   1   6 59708.6 1611.99  28
   3   1   6 60596.7 1755.77  19
   3   1   7 7007.74 613.850  19
   3   1   8 484.175 195.717  19
   3   1   8 215.926 175.833   5
   3   1   9 30.4285 109.254   5
  -3  -2  11 4458.79 439.884   3
  -3  -2  10 14211.1 872.797   3
  -3  -2   9 15997.0 975.242   3
  -3  -2   8 1812.43 372.846   3
   3   2  -7 37822.3 1499.29  23
   3   2  -7 34343.2 1617.55  11
  -3  -2   7 38140.2 1366.36   3
  -3  -2   6 2702.96 351.315  29
   3   2  -6 2626.21 390.786  23
  -3  -2   6 2792.44 348.822   3
  -3  -2   5 4922.91 433.972  29
   3   2  -5 4478.89 409.331  25
  -3  -2   4 37502.9 1078.35  29
   3   2  -4 37947.5 1068.46  25
  -3  -2   3 108121. 1722.13  29
   3   2  -3 109376. 1656.70  25
  -3  -2   2 339422. 2858.58  29
   3   2  -2 344044. 2777.17  25
  -3  -2   1 42680.6 988.001  29
  -3  -2   0 4214.11 324.848  29
  -3  -2  -1 367246. 2972.27   1
  -3  -2  -1 367413. 3093.50  29
  -3  -2  -2 747.773 164.729   1
  -3  -2  -3 32357.9 1007.42   1
   3   2   3 31922.9 1258.57   7
   3   2   4 5319.69 515.927  13
   3   2   4 5292.76 468.683  28
  -3  -2  -4 5403.07 465.413   1
   3   2   4 5178.84 558.892   7
   3   2   5 6977.73 643.936  13
   3   2   5 5305.63 480.448  28
   3   2   6 36611.4 1536.13  13
   3   2   6 35779.5 1358.65  19
   3   2   7 1425.10 320.541  13
   3   2   7 1521.47 283.206  19
   3   2   8 10470.0 757.287   5
   3   2   8 10560.0 651.589  19
   3   2   9 643.896 183.842   5
  -3  -3  11 4836.35 436.071   3
  -3  -3  10 6351.19 581.445   3
  -3  -3   9 26182.4 1222.18   3
  -3  -3   8 32585.0 1358.38   3
  -3  -3   7 45886.0 1548.19   3
   3   3  -6 345.617 171.884   4
  -3  -3   6 112.602 110.192  29
  -3  -3   6 119.689 131.317   3
  -3  -3   5 1865.25 289.284  29
  -3  -3   5 609.163 179.027   3
  -3  -3   4 33648.6 1108.39  29
  -3  -3   3 21551.5 841.337  29
  -3  -3   2 733.662 167.373  29
  -3  -3   1 1870.72 247.855  29
  -3  -3   0 176.279 120.914  29
  -3  -3  -1 11266.8 555.292   1
  -3  -3  -2 5904.18 423.063   1
   3   3   2 5680.49 479.747   9
   3   3   2 5118.64 528.707   7
   3   3   3 1263.86 306.519   7
   3   3   3 873.334 231.267  13
  -3  -3  -3 1344.17 236.718   1
   3   3   4 104967. 2467.00  13
   3   3   4 98267.8 2049.54  28
   3   3   4 99543.5 2585.85   7
   3   3   5 11892.5 880.729  13
   3   3   5 11866.3 934.481   7
   3   3   6 6772.42 678.193  13
   3   3   6 6774.16 586.841  19
   3   3   7 7520.59 681.907  13
   3   3   7 7498.15 572.864  19
   3   3   8 725.831 180.003   5
  -3  -4  10 9601.73 674.834   3
  -3  -4   9 2884.29 427.599   3
  -3  -4   8 35531.2 1431.67   3
   3   4  -7 2914.32 433.311   4
   3   4  -7 2219.45 431.825  12
  -3  -4   7 2158.56 381.282   3
   3   4  -6 30663.2 1509.85  12
  -3  -4   6 35210.9 1327.23   3
   3   4  -5 14129.1 984.825  12
  -3  -4   5 13220.6 803.379  29
  -3  -4   5 13799.9 796.373   3
  -3  -4   4 267448. 3357.28  29
  -3  -4   4 271696. 3281.76   3
  -3  -4   4 271794. 3317.60   2
   3   4  -4 268438. 4097.19  12
  -3  -4   3 29784.4 1076.77  29
  -3  -4   3 30841.2 1066.53   3
  -3  -4   3 29793.2 1070.12   2
  -3  -4   2 4689.25 431.417  29
  -3  -4   1 84289.2 1762.31  29
   3   4   0 7230.18 639.691   7
  -3  -4   0 6229.58 421.651   1
  -3  -4   0 7225.17 541.793  29
   3   4   1 1879.19 356.416   7
   3   4   1 2106.40 310.864   9
   3   4   2 170.539 171.809   7
   3   4   3 9291.33 748.181  13
   3   4   3 8126.79 772.850   7
   3   4   4 58.0850 213.307   7
   3   4   4-165.422 162.356  13
   3   4   5 4180.51 544.478  13
   3   4   5 4401.40 593.200   7
   3   4   6 75.6742 144.242  13
   3   4   6 437.156 158.922  19
   3   4   7 1870.97 347.030  13
  -3  -5  10 2097.36 318.822   2
  -3  -5  10 2220.34 317.364   3
  -3  -5   9 240.631 191.849   2
  -3  -5   9 693.441 227.129   3
  -3  -5   8 5994.20 592.269   3
  -3  -5   8 5722.78 593.851   2
   3   5  -8 5742.50 685.936  12
   3   5  -8 5951.71 607.879   4
  -3  -5   7 16623.1 979.808   3
  -3  -5   7 17012.8 1003.07   2
   3   5  -7 15175.9 1130.82  12
   3   5  -7 16401.2 1050.44   4
   3   5  -6 1034.87 336.778  12
  -3  -5   6 1130.16 294.827   2
  -3  -5   6 1068.26 290.774   3
  -3  -5   5 5919.84 556.832   3
  -3  -5   5 5696.03 571.615   2
   3   5  -5 5690.11 708.102  12
  -3  -5   4 14803.9 883.258   2
  -3  -5   4 16249.3 878.663   3
   3   5  -4 13450.9 1057.10  12
  -3  -5   3 3053.10 383.842  29
  -3  -5   3 3359.33 415.952   2
  -3  -5   3 3090.98 387.155   3
  -3  -5   2 9601.32 656.580   3
   3   5  -2 9800.68 818.573   7
  -3  -5   2 11566.7 718.478  29
  -3  -5   1-170.863 124.845  29
   3   5  -1-39.6363 141.211   7
  -3  -5   1 101.786 122.999   3
   3   5   0 3758.60 520.037   7
   3   5   1 31088.1 1495.23   7
   3   5   2 773.540 285.939   7
   3   5   3 4022.51 544.327  13
   3   5   3 4570.90 626.551   7
   3   5   4 2618.60 467.811   7
   3   5   4 2170.84 408.704  13
   3   5   5 202.403 174.933  13
   3   5   5-79.7298 153.758   7
   3   5   6-132.809 155.335  13
  -3  -6   9 11343.1 706.549   3
  -3  -6   9 12397.6 759.893   2
  -3  -6   8 19363.8 993.461   3
  -3  -6   8 19513.1 1031.43   2
   3   6  -8 20015.2 1237.89  12
   3   6  -8 19346.8 1063.58   4
   3   6  -7 1339.58 344.717   4
   3   6  -7 2129.13 465.159  12
  -3  -6   7 1755.57 342.251   2
  -3  -6   7 1407.98 330.789   3
   3   6  -6 146.101 200.998  12
  -3  -6   6 182.955 219.526   2
  -3  -6   6 144.622 160.741   3
  -3  -6   5 2892.56 422.504   2
  -3  -6   5 2882.70 424.627   3
   3   6  -4 60.6964 165.480   7
  -3  -6   4-190.220 177.905   2
  -3  -6   4 208.465 210.042   3
   3   6  -3 1712.74 410.512   7
  -3  -6   3 539.972 215.186   3
   3   6  -2 1476.93 366.880   7
  -3  -6   2 1317.76 288.658   3
   3   6  -1 3093.95 508.914   7
   3   6   0 55088.5 2073.72   7
   3   6   1 7437.15 794.556   7
   3   6   2 3773.24 583.738   7
   3   6   3 2562.86 470.458   7
   3   6   3 2221.47 407.224  13
   3   6   4 182.237 163.739  13
   3   6   4-112.489 150.094   7
   3   6   5 7081.94 602.776  13
  -3  -7   9 6518.70 487.280   2
   3   7  -8 313.941 177.655   4
  -3  -7   8-130.642 146.061   2
  -3  -7   8-101.894 137.957   3
  -3  -7   7 9177.97 701.752   2
  -3  -7   7 9531.71 693.087   3
   3   7  -7 8900.84 744.925   4
   3   7  -6-414.182 246.025   7
  -3  -7   6 90.2605 184.655   2
  -3  -7   6 124.393 181.367   3
  -3  -7   5 8912.31 720.363   3
   3   7  -5 9566.41 890.171   7
   3   7  -4 570.155 289.563   7
  -3  -7   4 1357.81 319.069   3
   3   7  -3 17020.6 1187.54   7
  -3  -7   3 15775.1 952.484   3
   3   7  -2 154.923 170.340   4
   3   7  -2-66.8384 230.343   7
   3   7  -1 2937.31 525.924   7
   3   7   0 429.410 262.651   7
   3   7   1 1884.52 398.451   7
   3   7   2 6455.51 639.715  13
   3   7   2 6166.43 675.468   7
   3   7   3 1270.67 316.584   7
   3   7   3 1564.58 317.799  13
   3   7   4 21708.7 986.003  13
   3   7   4 21912.9 1046.81   7
   3   8  -7 483.083 182.949   4
   3   8  -7 514.354 194.208   7
  -3  -8   7 673.793 196.283   3
   3   8  -6 695.365 246.044   4
   3   8  -6 556.215 225.348   7
  -3  -8   6 681.201 204.104   3
   3   8  -5 4512.07 571.604   7
   3   8  -5 5162.33 553.477   4
  -3  -8   5 4245.71 477.817   3
   3   8  -4 9816.04 855.959   7
   3   8  -4 9204.63 734.925   4
   3   8  -3 8889.04 815.226   7
   3   8  -3 8705.69 694.227   4
   3   8  -2 7207.88 733.341   7
   3   8  -1 47.0686 166.058   7
   3   8   0 48.4956 166.857   7
   3   8   1 3284.54 435.444  13
   3   8   1 3546.37 479.007   7
   3   8   2 5314.15 502.607  13
   3   8   2 5352.80 534.602   7
   3   9  -4 10774.0 749.159   7
   3   9  -3 27867.6 1213.34   7
   3   9  -2 6988.19 611.711   7
   3   9  -1 2778.31 384.360   7
   4  -9  -1 69.3821 94.6929  23
   4  -9   0 1930.40 294.445  23
   4  -9   1 2153.61 279.816  22
   4  -9   2 1143.40 221.897  15
   4  -9   3 430.723 129.331  27
   4  -9   3 863.043 190.877  15
   4  -8  -4 159.810 146.866  23
   4  -8  -3 152.715 145.628  23
   4  -8  -2 455.379 223.382  23
   4  -8  -1 9229.40 763.524  23
   4  -8  -1 8604.39 663.257  22
   4  -8   0-173.106 141.361  23
   4  -8   0 356.832 185.153  22
   4  -8   0 361.614 203.633  15
   4  -8   1 1406.74 311.899  15
   4  -8   1 1317.64 266.835  27
   4  -8   1 1653.45 314.691  22
   4  -8   2 658.203 199.124  27
   4  -8   2 545.480 244.421  15
   4  -8   2 448.905 182.755  22
   4  -8   3 156.675 130.216  27
   4  -8   3 373.931 189.466  15
   4  -8   3 84.9382 109.780  22
   4  -8   4 5985.93 549.589  15
   4  -8   4 6141.27 543.975  27
   4  -8   5-2.59466 90.5247  27
   4  -8   5-205.222 134.037  15
   4  -7  -6 2913.53 375.241  23
   4  -7  -5-34.0735 107.041  23
   4  -7  -4 11738.3 913.498  24
   4  -7  -4 11899.5 896.300  23
   4  -7  -3 323.283 200.138  24
   4  -7  -3 190.708 203.176  23
   4  -7  -2 3930.26 545.742  24
   4  -7  -2 3865.29 551.632  23
   4  -7  -2 4374.04 525.365  22
   4  -7  -1 27989.6 1295.41  15
   4  -7  -1 26004.1 1343.02  23
   4  -7  -1 27883.4 1246.74  22
   4  -7   0 45942.7 1659.56  15
   4  -7   0 45290.0 1708.92  23
   4  -7   0 47401.5 1588.71  22
   4  -7   1 3218.69 427.946  27
   4  -7   1 2468.27 389.644  22
   4  -7   1 3207.43 462.233  15
   4  -7   2 21810.7 1153.94  15
   4  -7   2 22221.4 1097.21  27
   4  -7   2 22669.9 1090.86  22
   4  -7   3 15651.0 973.962  15
   4  -7   3 16600.0 958.292  27
   4  -7   3 16452.7 912.382  22
   4  -7   4 1215.97 319.183  15
   4  -7   4 1311.97 295.275  27
   4  -7   4 1078.62 264.952  22
   4  -7   5 609.350 231.906  15
   4  -7   5 466.992 201.538  27
   4  -7   5 284.538 143.447  22
   4  -7   6 297.579 176.711  15
   4  -7   6 50.2528 143.336  27
   4  -7   7 244.600 157.985  15
   4  -7   7 297.952 139.383  27
   4  -6  -7 1026.50 251.787  10
   4  -6  -7 1236.38 255.630  23
   4  -6  -6 2424.25 409.386  23
   4  -6  -6 2205.29 409.870  10
   4  -6  -5 813.097 343.631  24
   4  -6  -5 453.321 230.862  23
   4  -6  -5 899.420 307.871  10
   4  -6  -4 11864.9 974.218  24
   4  -6  -4 14601.8 1049.36  23
   4  -6  -4 13593.1 971.685  10
   4  -6  -3 12734.2 998.592  24
   4  -6  -3 13423.1 992.399  23
   4  -6  -3 13643.6 889.847  22
   4  -6  -2 7251.18 683.232  15
   4  -6  -2 5914.85 657.131  24
   4  -6  -2 6919.76 698.492  23
   4  -6  -2 6151.46 600.016  22
   4  -6  -1 13854.3 906.468  15
   4  -6  -1 13800.9 942.710  23
   4  -6  -1 15014.8 894.112  22
   4  -6   0 1285.34 292.304  23
   4  -6   0 1244.55 297.738  22
   4  -6   0 1389.84 320.769  15
   4  -6   1 4694.22 540.697  15
   4  -6   1 4453.15 505.343  22
   4  -6   2 25420.8 1224.94  15
   4  -6   2 24973.6 1131.10  27
   4  -6   2 25763.2 1171.18  22
   4  -6   3 1951.59 401.805  15
   4  -6   3 2872.41 419.060  27
   4  -6   3 2162.04 378.201  22
   4  -6   4 151118. 2890.28  27
   4  -6   4 146044. 2764.56  22
   4  -6   5 4477.98 510.167  27
   4  -6   5 4282.98 486.182  22
   4  -6   6 42473.5 1525.00  27
   4  -6   6 42689.7 1418.28  22
   4  -6   7 2435.93 365.133  27
   4  -6   8 950.007 222.089  27
   4  -5  -8 3906.70 487.715  10
   4  -5  -7 2962.99 437.143  23
   4  -5  -7 2314.89 434.000  10
   4  -5  -6 66289.2 2154.49  23
   4  -5  -6 64653.6 2243.38  10
   4  -5  -5-364.069 285.305  24
   4  -5  -5 216.498 240.049  23
   4  -5  -5 14.8051 212.166  10
   4  -5  -4 109445. 2890.49  24
   4  -5  -4 110286. 2804.84  23
   4  -5  -4 111006. 2406.01  22
   4  -5  -4 113989. 2862.84  10
   4  -5  -3 12086.3 929.485  24
   4  -5  -3 13250.0 948.927  23
   4  -5  -3 12481.0 810.693  22
   4  -5  -3 12836.2 914.136  10
   4  -5  -2 48879.6 1599.27  15
   4  -5  -2 45675.9 1703.41  24
   4  -5  -2 45389.9 1660.69  23
   4  -5  -2 48206.6 1532.10  22
   4  -5  -1 36.4144 114.402  24
   4  -5  -1 121.076 143.851  23
   4  -5  -1 379.621 183.204  22
   4  -5  -1 103.573 165.029  15
   4  -5   0 50219.1 1595.58  15
   4  -5   0 45687.8 1524.60  23
   4  -5   0 50112.2 1530.11  22
   4  -5   1-26.3723 166.551  15
   4  -5   1 197.609 130.393  22
   4  -5   1 140.466 97.8063  18
   4  -5   1 246.444 115.907  17
   4  -5   2 17660.8 891.979  27
   4  -5   2 19669.8 981.017  22
   4  -5   2 17848.8 785.674  18
   4  -5   2 17494.3 792.769  17
   4  -5   3 108948. 2308.10  27
   4  -5   3 108567. 2352.33  22
   4  -5   3 105872. 2006.77  18
   4  -5   3 108314. 2033.80  17
   4  -5   4 53904.7 1686.73  27
   4  -5   4 53896.3 1698.66  22
   4  -5   4 53678.3 1498.14  18
   4  -5   5 19425.3 1051.18  27
   4  -5   5 19865.6 1053.30  22
   4  -5   6 3132.15 441.436  27
   4  -5   6 3313.17 438.440  22
   4  -5   7 24221.0 1142.39  27
   4  -5   7 21414.0 1016.33  22
   4  -5   8 141.867 140.232  27
   4  -5   8 155.584 101.977  22
   4  -4  -9 3080.02 422.625  10
   4  -4  -8 10023.4 758.633  23
   4  -4  -8 10344.5 868.761  10
   4  -4  -7 765.044 282.182  23
   4  -4  -7 648.788 306.298  10
   4  -4  -6 5147.18 630.234  23
   4  -4  -6 3910.97 603.539  10
   4  -4  -5 12111.9 979.275  24
   4  -4  -5 12875.8 1015.56  10
   4  -4  -5 12366.4 949.792  23
   4  -4  -4 5766.12 646.430  24
   4  -4  -4 5396.36 608.361  23
   4  -4  -4 6177.07 550.410  22
   4  -4  -4 6002.78 664.527  10
   4  -4  -3 5018.00 498.842  15
   4  -4  -3 5500.89 546.716  25
   4  -4  -3 5493.95 602.548  24
   4  -4  -3 6024.60 601.898  23
   4  -4  -3 5524.79 503.098  22
   4  -4  -3 5174.36 579.483  10
   4  -4  -2-278.423 118.872  25
   4  -4  -2-97.6903 111.682  24
   4  -4  -2 96.3931 117.665  15
   4  -4  -2-71.6954 123.203  23
   4  -4  -2 196.752 129.619  10
   4  -4  -1 61032.8 1612.56  15
   4  -4  -1 58268.7 1681.42  24
   4  -4  -1 55715.5 1610.59  23
   4  -4  -1 62977.5 1571.20  22
   4  -4  -1 62547.8 1367.54  16
   4  -4   0 7616.74 574.674  15
   4  -4   0 7839.78 565.987  22
   4  -4   0 6901.87 441.532  17
   4  -4   0 7160.34 474.269  16
   4  -4   1 70954.1 2098.14  31
   4  -4   1 75097.6 1758.42  22
   4  -4   1 70951.6 1462.29  17
   4  -4   1 74374.1 1489.17  16
   4  -4   2 1325.94 269.937  22
   4  -4   2 1085.16 201.950  18
   4  -4   2 1051.62 204.040  17
   4  -4   2 1348.62 325.670  31
   4  -4   3 52548.4 1501.25  27
   4  -4   3 52115.9 1576.27  22
   4  -4   3 48183.0 1327.62  18
   4  -4   3 52112.5 1351.17  17
   4  -4   4 12679.7 824.666  22
   4  -4   4 11964.7 699.245  18
   4  -4   4 11515.8 679.405  17
   4  -4   5 8015.35 678.226  22
   4  -4   5 7670.14 591.638  18
   4  -4   6 8131.62 737.335   5
   4  -4   6 8352.61 706.146  22
   4  -4   7 9369.62 716.903  22
   4  -4   8 43.2708 97.6261  22
   4  -4   9 664.805 173.193  27
   4  -3  -9-105.152 170.272  10
   4  -3  -8 971.045 268.612  23
   4  -3  -8 170.652 232.847  10
   4  -3  -7 35338.2 1571.18  23
   4  -3  -7 31933.4 1622.42  10
   4  -3  -6 459.669 202.737  23
   4  -3  -6 315.182 227.132  10
   4  -3  -5 23385.2 1223.99  23
   4  -3  -5 23321.3 1300.31  10
   4  -3  -4 44927.4 1611.03  25
   4  -3  -4 45729.2 1655.15  24
   4  -3  -4 42977.4 1556.89  23
   4  -3  -4 44193.7 1312.34  22
   4  -3  -4 40720.9 1591.46  10
   4  -3  -3 11431.0 673.034  15
   4  -3  -3 12472.5 797.976  25
   4  -3  -3 12211.8 811.597  24
   4  -3  -3 11763.6 655.153  22
   4  -3  -3 12100.9 818.935  10
   4  -3  -3 11600.7 756.762  23
   4  -3  -2 1479.59 263.636  25
   4  -3  -1 18473.6 860.938  25
   4  -3   0 45163.2 1540.69  31
   4  -3   1 103216. 2370.57  31
   4  -3   2 14058.8 754.257  22
   4  -3   2 14338.5 660.009  17
   4  -3   2 14933.0 951.669  31
   4  -3   3 7242.32 507.452  28
   4  -3   3 6571.19 541.237   5
   4  -3   3 6524.60 551.873  22
   4  -3   3 6443.81 465.639  19
   4  -3   3 7024.10 490.652  18
   4  -3   3 6715.92 473.977  17
   4  -3   3 7196.47 704.215  31
  -4   3  -4 6034.88 503.407   1
   4  -3   4 6385.29 581.748  22
   4  -3   4 6810.79 593.863   5
   4  -3   4 6887.57 533.426  19
   4  -3   4 7211.31 529.619  18
   4  -3   4 6557.33 494.046  17
   4  -3   5 4631.30 519.391  22
   4  -3   5 4411.46 508.984   5
   4  -3   5 5426.00 503.152  18
   4  -3   5 5126.67 458.151  17
   4  -3   6 56497.9 1825.68  22
   4  -3   6 53398.3 1811.66   5
   4  -3   7 4707.66 535.129  22
   4  -3   7 3996.89 517.355   5
   4  -3   8 4380.40 526.037   5
   4  -3   8 4079.23 469.672  22
   4  -3   9 289.526 125.806  22
   4  -2 -10 691.639 216.693  11
   4  -2 -10 1460.40 193.674  10
   4  -2  -9 26342.7 1360.05  11
   4  -2  -9 26824.8 1341.63  10
   4  -2  -8 966.064 314.584  23
   4  -2  -8 1103.63 307.179  11
   4  -2  -8 1226.53 355.202  10
   4  -2  -7 9405.68 808.487  23
   4  -2  -7 8332.85 771.007  11
   4  -2  -7 8737.47 827.868  10
   4  -2  -6 9394.08 789.526  23
   4  -2  -6 8676.72 812.466  10
   4  -2  -5 2240.02 393.943  25
   4  -2  -5 2654.98 408.015  23
   4  -2  -5 2509.75 407.457  10
   4  -2  -4 26970.1 1199.47  25
   4  -2  -4 26529.4 1155.86  23
   4  -2  -4 25492.7 1199.04  10
   4  -2  -3 53885.8 1579.13  25
   4  -2  -2 127183. 2259.43  25
   4  -2  -1 86551.2 1801.69  25
  -4   2   1 86488.5 1290.84   1
   4  -2   0 15501.8 843.280  31
  -4   2   0 16332.8 571.558   1
  -4   2  -1 4112.96 310.098   1
   4  -2   1 4360.19 469.728  31
  -4   2  -2 23851.1 800.677   1
   4  -2   3 812.050 191.083  28
  -4   2  -3 1045.26 196.950   1
   4  -2   3 979.181 217.488  22
   4  -2   3 875.991 180.414  17
  -4   2  -4 48203.7 1401.75   1
   4  -2   4 48865.5 1501.89   5
   4  -2   4 48088.2 1400.23  19
   4  -2   4 47431.6 1299.87  18
   4  -2   4 47586.1 1239.33  17
   4  -2   4 48519.3 1394.96  28
   4  -2   5 527.379 195.174  28
   4  -2   5 696.761 231.564  19
   4  -2   5 772.123 207.470  18
   4  -2   5 551.831 171.558  17
   4  -2   6-274.881 202.837   5
   4  -2   6 86.1190 148.455  19
   4  -2   7 414.330 229.191  22
   4  -2   7 91.1202 195.106   5
   4  -2   8 266.833 183.525  22
   4  -2   8 328.884 175.524   5
   4  -2   9 32.8729 108.715  22
   4  -2   9 99.2116 143.279   5
   4  -1  -9 432.955 243.523  11
   4  -1  -9 833.276 283.470  10
   4  -1  -8 35147.0 1533.82  23
   4  -1  -8 31676.9 1585.69  11
   4  -1  -8 35607.2 1619.33  10
   4  -1  -7 5715.68 637.541  23
   4  -1  -7 5627.97 658.479  11
   4  -1  -7 6056.67 678.923  10
   4  -1  -6 5149.32 574.478  23
   4  -1  -6 4501.22 535.929  11
   4  -1  -6 4687.84 582.720  10
   4  -1  -5 5078.26 552.371  25
   4  -1  -5 4641.60 516.750  23
   4  -1  -5 4950.51 552.253  10
   4  -1  -4 16698.4 911.310  25
   4  -1  -3 6686.26 549.979  25
   4  -1  -2 31039.3 1090.14  25
   4  -1  -1 672.404 200.973  25
   4  -1   0 76.2460 100.160  31
  -4   1   0-4.08050 72.8617   1
   4  -1   1 253.423 124.738  31
  -4   1  -1 364.220 121.270   1
  -4   1  -2 12238.1 592.655   1
  -4   1  -3 75176.8 1588.65   1
   4  -1   3 74763.8 1613.88  19
   4  -1   3 78179.9 1665.48  28
   4  -1   4 9445.00 634.333  28
  -4   1  -4 9698.41 643.117   1
   4  -1   4 8130.77 610.097   5
   4  -1   4 8880.90 619.787  19
   4  -1   4 8278.60 522.962  18
   4  -1   4 9403.57 526.574  17
   4  -1   5 779.759 230.799  28
   4  -1   5 499.404 204.012   5
   4  -1   5 804.483 231.980  19
   4  -1   5 716.835 175.704  18
   4  -1   6 10937.7 816.941   5
   4  -1   6 11541.9 801.345  19
   4  -1   6 11682.0 768.648  28
   4  -1   7 117.434 164.558   5
   4  -1   7 409.237 222.620  19
   4  -1   8 12786.2 857.378   5
   4  -1   9 12943.0 737.752  22
   4  -1   9 12479.6 739.209   5
  -4   0  10 2091.31 347.658   3
   4   0  -9 30393.0 1593.24  11
   4   0  -8 50569.6 1843.11  23
   4   0  -8 47209.4 1983.95  11
   4   0  -8 52111.2 1847.96  10
   4   0  -7 44888.1 1721.08  23
   4   0  -7 42679.9 1782.81  11
   4   0  -7 44588.4 1721.80  10
   4   0  -6 344.885 177.359  25
   4   0  -6 612.430 218.361  23
   4   0  -6 879.901 262.157  11
   4   0  -6 319.063 202.887  10
   4   0  -5 85628.3 2122.71  25
   4   0  -5 85807.4 2128.59  23
   4   0  -5 90360.3 2190.18  10
   4   0  -4 144633. 2571.55  25
   4   0  -3 2920.78 360.860  25
   4   0  -2 45059.8 1271.42  25
   4   0  -1 145927. 2243.56  25
   4   0   0 13162.3 662.436  31
  -4   0  -1 31195.0 921.646   1
  -4   0  -2 19699.7 775.702   1
   4   0   3 5241.12 454.901  28
  -4   0  -3 5458.78 443.120   1
  -4   0  -4 23102.6 1003.39   1
   4   0   4 22714.0 1006.83   5
   4   0   4 21714.6 989.724  19
   4   0   4 24011.2 1008.51  28
   4   0   5 2760.95 384.278  28
   4   0   5 2413.07 371.328   5
   4   0   6-140.786 159.901  28
   4   0   6-80.4808 166.928  19
   4   0   6 70.5091 141.824   5
   4   0   7 9902.59 782.188   5
   4   0   7 10948.6 786.981  19
   4   0   8 49641.3 1617.39   5
   4   0   9 15608.8 782.534  22
  -4  -1  11-2.98977 82.2526   3
  -4  -1  10 1946.18 335.797   3
  -4  -1   9 370.186 202.398   3
   4   1  -8 9688.92 835.545  23
   4   1  -7 7386.31 715.929  23
  -4  -1   6 11547.6 713.981  29
   4   1  -6 10290.0 768.401  25
   4   1  -6 11347.5 842.654  23
   4   1  -6 11638.1 793.375  10
  -4  -1   5 34221.6 1120.22  29
   4   1  -5 33899.8 1291.66  25
   4   1  -5 34324.9 1345.49  23
   4   1  -5 34611.7 1310.44  10
   4   1  -5 35574.2 1234.72   4
  -4  -1   4 22739.3 845.967  29
   4   1  -4 23086.8 991.151  25
   4   1  -3 31110.4 1071.21  25
  -4  -1   3 31010.7 915.325  29
  -4  -1   2 150709. 1856.31  29
   4   1  -2 151005. 2272.12  25
  -4  -1   1 14270.5 554.585  29
  -4  -1   0 558231. 3510.63  29
  -4  -1  -1 446248. 3640.21   1
  -4  -1  -2 3513.89 353.318   1
   4   1   2 3279.06 375.690   9
   4   1   3 8881.55 614.222  28
   4   1   3 9773.35 700.077   7
  -4  -1  -3 9213.93 593.229   1
   4   1   4 1395.13 267.671  28
   4   1   5 1528.87 315.802  19
   4   1   5 1446.39 287.339  28
   4   1   6 1074.18 272.769  28
   4   1   6 878.842 302.217  19
   4   1   6 457.891 216.295   5
   4   1   7 13387.5 872.612   5
   4   1   7 13332.2 844.694  19
   4   1   8 34277.1 1277.05   5
   4   1   8 38125.7 1263.73  19
  -4  -2  11 237.380 136.954   3
  -4  -2  10 8851.07 666.338   3
  -4  -2   9 22399.4 1117.06   3
  -4  -2   8 200410. 3333.91   3
   4   2  -7 3303.16 522.938  23
  -4  -2   7 2955.64 414.001   3
   4   2  -6 10632.7 828.730  23
  -4  -2   6 11805.7 748.923   3
   4   2  -6 11578.5 769.959   4
   4   2  -5 3187.65 446.672  23
  -4  -2   5 2844.00 342.895   3
  -4  -2   5 2373.98 330.489  29
   4   2  -5 2300.36 361.390   4
  -4  -2   4 11327.3 647.634  29
   4   2  -4 10986.1 648.364  25
   4   2  -4 10125.8 722.678  23
   4   2  -4 11278.9 722.335   4
  -4  -2   3 87797.7 1680.69  29
   4   2  -3 88640.1 1747.59  25
  -4  -2   2 86252.7 1593.08  29
  -4  -2   1 239098. 2593.66  29
   4   2   1 53509.8 1515.54   9
  -4  -2  -1 56964.9 1366.20   1
  -4  -2  -2 12354.0 669.269   1
   4   2   2 12956.5 778.022   9
   4   2   2 12475.8 811.413   7
  -4  -2  -3 9568.96 626.033   1
   4   2   3 9800.80 767.916   7
   4   2   3 8433.61 635.222  28
   4   2   4 4167.80 462.923  28
   4   2   4 4526.31 540.084   7
   4   2   5 3013.71 397.850  28
   4   2   5 2901.64 426.153  19
   4   2   6 13653.2 786.900  28
   4   2   6 13253.2 857.350  19
   4   2   7 2824.22 379.499  19
   4   2   7 1549.34 310.254   5
   4   2   8 1389.12 230.969  19
   4   2   8 968.845 208.219   5
  -4  -3  10 305.818 186.148   3
  -4  -3   9 55631.1 1739.16   3
  -4  -3   8 38562.0 1475.95   3
  -4  -3   7 25132.2 1168.22   3
   4   3  -7 25444.3 1215.22   4
  -4  -3   6 4746.50 491.995   3
   4   3  -6 5183.17 559.821   4
  -4  -3   5 21703.8 978.441   3
  -4  -3   5 20412.3 980.429  29
   4   3  -5 20759.8 1091.79   4
  -4  -3   4 461.359 146.106   2
  -4  -3   4 685.461 171.003   3
  -4  -3   3 121727. 2167.33  29
   4   3  -3 124325. 2474.57   4
  -4  -3   2 1160.46 216.528  29
   4   3  -2 1151.91 253.599   4
  -4  -3   1 49719.5 1338.53  29
   4   3   0 31359.9 1273.50   7
  -4  -3   0 33381.7 1071.63   1
   4   3   0 30792.4 1202.02   9
  -4  -3   0 32528.7 1112.51  29
   4   3   1 2628.44 397.941   7
   4   3   1 2490.16 368.401   9
  -4  -3  -1 2846.11 328.973   1
  -4  -3  -2 17807.6 824.654   1
   4   3   2 17579.1 1045.15   7
   4   3   3 17134.9 1081.92   7
   4   3   3 15694.2 892.125  28
   4   3   4 21941.5 1058.21  28
   4   3   4 24280.7 1329.46   7
   4   3   5 29306.4 1164.42  28
   4   3   5 27872.3 1252.60  19
   4   3   6 49.9232 105.844  19
   4   3   7 260.099 126.318  19
   4   3   7 264.415 128.331   5
  -4  -4  10 7810.00 580.574   3
  -4  -4  10 8093.28 589.106   2
  -4  -4   9 3405.05 441.952   3
  -4  -4   8 127680. 2648.91   3
   4   4  -8 138278. 2781.20   4
  -4  -4   7 4139.66 499.145   3
   4   4  -7 3963.47 530.452   4
   4   4  -6 1113.24 304.889   4
  -4  -4   6 1003.64 255.505   2
  -4  -4   6 1016.98 254.987   3
  -4  -4   5 8954.72 666.299   3
  -4  -4   5 8460.05 653.755   2
   4   4  -5 7949.49 726.731   4
  -4  -4   4 18533.7 912.503   2
  -4  -4   4 18464.3 898.980   3
   4   4  -4 15799.7 991.425   4
   4   4  -3 583.631 231.563   4
  -4  -4   3 902.529 219.406  29
   4   4  -3 797.989 237.747   7
  -4  -4   3 739.108 212.127   2
   4   4  -3 640.061 190.490  20
  -4  -4   3 965.437 217.610   3
  -4  -4   2 22062.5 975.827  29
   4   4  -2 19528.7 1076.75   7
  -4  -4   2 22170.4 911.853   3
   4   4  -2 18951.9 1005.80   4
   4   4  -1 21578.7 1146.85   7
   4   4  -1 20244.4 1011.23   9
   4   4  -1 21398.1 1018.08   4
  -4  -4   1 20490.0 950.836  29
   4   4   0 225.875 193.526   7
   4   4   0 441.719 183.611   9
  -4  -4   0 289.209 147.200   1
   4   4   1 9797.46 725.372   9
   4   4   1 10199.1 834.967   7
   4   4   2 12664.9 955.617   7
   4   4   3 1476.01 304.758  28
   4   4   3 1344.11 358.957   7
   4   4   4 7763.83 615.534  28
   4   4   4 7501.10 762.423   7
   4   4   5 118.803 163.292  19
   4   4   6 197.435 133.224  19
  -4  -5  10 287.042 124.936   2
  -4  -5  10 222.247 125.338   3
  -4  -5   9 11441.6 727.106   3
  -4  -5   9 11233.5 729.641   2
  -4  -5   8 260.841 163.623   2
  -4  -5   8 124.601 166.858   3
   4   5  -8-83.6332 131.914   4
  -4  -5   7 107.450 162.863   2
  -4  -5   7 67.9788 164.685   3
   4   5  -7-255.369 203.872   4
  -4  -5   6 12107.7 815.596   3
  -4  -5   6 12192.5 821.705   2
   4   5  -6 12336.5 947.795   4
   4   5  -5 992.708 289.836   4
   4   5  -5 874.524 256.710   7
  -4  -5   5 530.207 194.923   2
  -4  -5   5 217.495 172.257   3
   4   5  -4 8333.39 774.255   7
  -4  -5   4 8568.77 682.596   2
  -4  -5   4 9450.64 691.847   3
   4   5  -4 7806.46 746.548   4
   4   5  -3 48354.2 1843.55   7
  -4  -5   3 52508.1 1564.26   3
   4   5  -3 46212.8 1710.82   4
   4   5  -2 838.784 273.686   4
  -4  -5   2 497.085 189.096   3
   4   5  -1 7873.37 764.112   7
   4   5  -1 8111.06 669.468   9
   4   5   0 584.178 260.240   7
   4   5   0 534.775 208.873   9
   4   5   1 14.0790 157.238   7
   4   5   2 7.09395 158.305   7
   4   5   3-287.800 159.655  28
   4   5   3-7.40893 147.006   7
   4   5   4 233.367 196.041   7
   4   5   5 676.093 185.712  19
  -4  -6   9 4825.35 440.410   2
  -4  -6   9 4864.87 438.193   3
  -4  -6   8 1417.01 284.886   2
  -4  -6   8 1149.50 249.098   3
   4   6  -8 1123.08 285.473   4
  -4  -6   7 330.973 208.582   2
  -4  -6   7 528.487 219.655   3
   4   6  -7 214.670 186.443   4
   4   6  -6 1251.20 358.340   4
   4   6  -6 602.908 233.427   7
  -4  -6   6 1212.31 288.993   2
  -4  -6   6 1225.32 288.599   3
  -4  -6   5 5057.18 544.129   2
  -4  -6   5 4857.73 526.717   3
   4   6  -5 4479.46 592.472   7
   4   6  -5 5040.44 630.640   4
   4   6  -4 7833.78 784.009   7
  -4  -6   4 7136.58 622.210   3
   4   6  -4 6017.75 665.486   4
   4   6  -3 1434.90 328.959   4
   4   6  -3 1171.88 352.453   7
  -4  -6   3 1455.97 305.991   3
   4   6  -3 1671.54 333.295   9
   4   6  -2 1153.14 352.609   7
   4   6  -2 1375.64 317.862   4
   4   6  -1 16324.2 1139.46   7
   4   6   0-82.6188 237.770   7
   4   6   1 786.262 308.328   7
   4   6   2 1282.07 336.015   7
   4   6   3 554.275 245.000   7
   4   6   4 2714.41 407.858   7
  -4  -7   8 324.093 143.444   3
   4   7  -8 473.232 158.709   4
   4   7  -7 128.044 126.906   7
  -4  -7   7 103.895 124.678   3
   4   7  -7-36.7806 132.628   4
  -4  -7   6 2985.85 394.195   3
   4   7  -6 2968.32 446.622   7
   4   7  -6 3252.99 459.568   4
   4   7  -5 463.363 224.361   4
   4   7  -5 472.520 225.567   7
  -4  -7   5 436.993 199.295   3
   4   7  -4 183.349 190.303   4
   4   7  -4 29.6324 160.036   7
  -4  -7   4-45.6422 177.510   3
   4   7  -3 5005.94 631.781   7
   4   7  -3 4920.49 552.706   4
   4   7  -2 13307.8 1012.38   7
   4   7  -1 1344.77 357.289   7
   4   7   0 1841.33 397.408   7
   4   7   1 5191.75 604.233   7
   4   7   2 291.746 195.916   7
   4   7   3 1166.88 259.060   7
   4   8  -6 5398.12 490.438   4
   4   8  -5 4073.63 483.778   7
   4   8  -5 4455.68 468.695   4
   4   8  -4 229.011 148.387   7
   4   8  -4 220.146 132.277   4
   4   8  -3 3267.62 467.672   7
   4   8  -2 5914.37 614.367   7
   4   8  -1 110.606 144.087   7
   4   8   0 565.174 201.811   7
   4   8   1 61.9595 112.842   7
   5  -8  -3 1048.97 259.923  23
   5  -8  -2 3427.55 429.274  23
   5  -8  -1 1845.39 316.200  23
   5  -8  -1 1509.29 287.945  22
   5  -8   0 1002.85 236.834  22
   5  -8   1 2066.22 345.974  15
   5  -8   1 1814.56 314.967  22
   5  -8   2 1794.35 313.871  15
   5  -8   2 1889.99 301.643  22
   5  -8   3 2141.39 306.587  22
   5  -8   3 1978.36 321.075  15
   5  -8   4 2721.07 339.616  15
   5  -8   4 2429.84 293.622  22
   5  -7  -5 2441.01 388.638  23
   5  -7  -4 1679.49 352.639  23
   5  -7  -3 13.2520 131.194  23
   5  -7  -2 14179.8 960.420  23
   5  -7  -2 14431.8 881.406  22
   5  -7  -1 5578.31 585.506  15
   5  -7  -1 5162.24 576.888  23
   5  -7  -1 5035.14 544.467  22
   5  -7   0 9388.98 754.527  15
   5  -7   0 9453.70 728.354  22
   5  -7   1 376.774 227.967  15
   5  -7   1 481.652 222.685  22
   5  -7   2 165.628 170.707  22
   5  -7   2 132.966 208.107  15
   5  -7   3 7015.64 640.437  15
   5  -7   3 6677.28 596.321  22
   5  -7   4 982.409 258.702  15
   5  -7   4 1080.58 255.946  22
   5  -7   5 3320.62 417.649  15
   5  -7   5 3157.85 368.552  27
   5  -7   5 3296.56 368.423  22
   5  -7   6 5802.83 480.844  15
   5  -6  -6 141.015 153.418  23
   5  -6  -6-76.6554 129.620  10
   5  -6  -5 911.730 293.087  23
   5  -6  -5 572.590 217.067  10
   5  -6  -4 7794.34 765.705  23
   5  -6  -3 10951.8 899.867  23
   5  -6  -3 11546.1 803.402  22
   5  -6  -2 12238.5 929.539  23
   5  -6  -2 12203.3 843.413  22
   5  -6  -1 4964.94 577.145  15
   5  -6  -1 4258.02 536.745  23
   5  -6  -1 4691.72 547.458  22
   5  -6   0 322.677 232.104  15
   5  -6   0 146.058 234.835  22
   5  -6   1 104.673 181.804  15
   5  -6   1 29.3146 210.901  22
   5  -6   1 83.7224 113.903  17
   5  -6   2 34968.1 1482.11  15
   5  -6   2 33548.4 1383.67  22
   5  -6   2 35163.0 1147.05  18
   5  -6   3 54453.2 1826.06  15
   5  -6   3 54654.0 1748.31  22
   5  -6   4 20267.3 1043.36  22
   5  -6   4 19238.1 1075.85  15
   5  -6   5 5341.42 561.538  15
   5  -6   5 4906.94 495.941  27
   5  -6   5 4920.76 515.404  22
   5  -6   6 8134.86 639.031  15
   5  -6   6 7882.05 580.049  27
   5  -6   6 7291.88 568.662  22
   5  -6   7 1416.46 254.772  15
   5  -5  -7-67.2492 137.919  23
   5  -5  -7 78.5040 152.932  10
   5  -5  -6 1200.14 334.535  23
   5  -5  -6 963.413 321.253  10
   5  -5  -5 600.088 301.499  23
   5  -5  -5 897.303 308.001  10
   5  -5  -4 167.547 232.127  23
   5  -5  -4 480.346 230.473  22
   5  -5  -4 90.8894 205.135  10
   5  -5  -3 25299.7 1343.66  23
   5  -5  -3 27557.6 1208.10  22
   5  -5  -3 27665.3 1385.25  10
   5  -5  -2 4524.45 520.526  15
   5  -5  -2 3987.62 526.025  23
   5  -5  -2 5521.12 554.904  22
   5  -5  -1 132.217 152.713  15
   5  -5  -1-79.8874 130.203  23
   5  -5  -1-198.198 181.781  22
   5  -5   0 2054.06 375.772  15
   5  -5   0 1598.22 335.267  22
   5  -5   0 2073.19 295.234  17
   5  -5   1 21372.3 1107.42  15
   5  -5   1 24829.8 1165.69  22
   5  -5   1 22529.6 916.446  18
   5  -5   1 22490.6 932.597  17
   5  -5   2 1011.03 279.813  15
   5  -5   2 1069.76 289.366  22
   5  -5   2 1196.67 254.696  18
   5  -5   2 865.249 250.859  17
   5  -5   3 110272. 2528.65  22
   5  -5   3 110774. 2189.79  18
   5  -5   3 110260. 2188.44  17
   5  -5   4 77675.0 2120.65  22
   5  -5   4 78928.6 1875.10  18
   5  -5   5 5914.72 565.405  27
   5  -5   5 5436.18 586.028  22
   5  -5   6 515.160 178.055  27
   5  -5   6 556.589 240.098  22
   5  -5   7 8.38779 86.2135  27
   5  -5   7-44.8000 102.741  22
   5  -4  -8 10848.6 776.613  23
   5  -4  -8 11912.7 882.612  10
   5  -4  -7 2873.08 478.958  23
   5  -4  -7 2773.38 502.798  10
   5  -4  -6 63.2444 232.770  23
   5  -4  -6 210.168 246.223  10
   5  -4  -5 202970. 3886.00  23
   5  -4  -5 198131. 3970.15  10
   5  -4  -4 139009. 3130.52  23
   5  -4  -4 133625. 3182.88  10
   5  -4  -3 337.440 206.524  23
   5  -4  -3 386.033 184.023  22
   5  -4  -3 497.039 250.576  10
   5  -4  -2 114.055 145.328  15
   5  -4  -2 299.004 177.108  23
   5  -4  -2 117.380 137.633  22
   5  -4  -2 151.710 149.897  10
   5  -4  -2 410.209 176.950  16
   5  -4  -1 7127.31 614.012  15
   5  -4  -1 6406.75 593.105  23
   5  -4  -1 7369.47 597.255  22
   5  -4  -1 6585.08 519.028  16
   5  -4   0 14060.7 860.232  15
   5  -4   0 14769.7 848.567  22
   5  -4   0 14338.2 717.383  17
   5  -4   0 13861.2 736.198  16
   5  -4   1 3627.05 450.774  22
   5  -4   1 4911.38 516.936  15
   5  -4   1 3392.40 378.698  17
   5  -4   1 4109.45 411.052  16
   5  -4   2 21157.0 1066.21  22
   5  -4   2 18804.0 881.708  18
   5  -4   2 20655.1 921.277  17
   5  -4   3 25706.0 1216.13  22
   5  -4   3 25847.2 1059.08  18
   5  -4   3 24658.2 1029.86  17
   5  -4   4 1888.62 384.152  22
   5  -4   4 2133.02 360.000  18
   5  -4   4 2001.03 337.985  17
   5  -4   5 8387.84 669.836  27
   5  -4   5 9239.25 762.444  22
   5  -4   5 9275.67 666.479  18
   5  -4   6-205.370 145.462  27
   5  -4   6-338.355 199.305  22
   5  -4   7 112.927 119.172  27
   5  -4   7 402.197 165.442  22
   5  -4   8 12873.6 688.210  22
   5  -3  -9 3170.41 390.095  23
   5  -3  -9 3649.52 463.485  10
   5  -3  -8 2171.73 388.243  23
   5  -3  -8 1579.76 377.374  10
   5  -3  -7 23001.6 1300.47  23
   5  -3  -7 21491.7 1333.77  10
   5  -3  -6 41278.5 1752.53  23
   5  -3  -6 39638.4 1829.58  10
   5  -3  -5 85328.4 2462.77  23
   5  -3  -5 81456.3 2538.83  10
   5  -3  -4 5216.45 602.127  23
   5  -3  -4 5098.19 641.200  10
   5  -3  -3 22674.4 1177.43  25
   5  -3  -3 22077.0 1146.22  23
   5  -3  -3 22362.4 956.242  22
   5  -3  -3 21823.9 1202.04  10
   5  -3  -3 22776.9 887.517  16
   5  -3  -2 35031.8 1208.14  15
   5  -3  -2 39300.3 1483.81  25
   5  -3  -2 36673.0 1398.24  23
   5  -3  -2 37599.5 1230.99  22
   5  -3  -2 37670.2 1509.62  10
   5  -3  -2 37353.7 1148.34  16
   5  -3  -1 12828.3 734.042  15
   5  -3  -1 12896.5 736.727  22
   5  -3  -1 12554.0 671.482  16
   5  -3   0 101554. 2059.79  15
   5  -3   0 101320. 2090.85  22
   5  -3   0 101176. 1890.43  16
   5  -3   1 62917.8 1700.25  22
   5  -3   1 61888.0 1478.27  16
   5  -3   2 38656.7 1175.09  28
   5  -3   2 36523.8 1344.10  22
   5  -3   2 35360.2 1159.35  17
   5  -3   2 36290.3 1108.83  16
   5  -3   3 1668.71 282.400  28
   5  -3   3 1862.71 338.331  22
   5  -3   3 1496.82 288.887  18
   5  -3   3 1516.27 268.415  17
   5  -3   4 874.262 278.822  22
   5  -3   4 479.076 195.884  18
   5  -3   4 595.671 202.454  17
   5  -3   5 546.650 214.912   5
   5  -3   5 479.415 218.588  22
   5  -3   5 544.391 208.591  18
   5  -3   5 895.419 237.123  17
   5  -3   6-1.55464 142.331   5
   5  -3   6 46.5050 182.014  22
   5  -3   7 7362.74 635.921  22
   5  -3   8 3970.41 424.920  22
   5  -2  -9 2841.77 403.814  23
   5  -2  -9 2477.06 419.240  10
   5  -2  -8 47021.6 1784.47  23
   5  -2  -8 41993.4 1784.78  10
   5  -2  -7 75.8514 205.243  23
   5  -2  -7-62.4643 203.800  10
   5  -2  -6 8601.90 806.192  23
   5  -2  -6 7686.83 790.279  10
   5  -2  -5 17505.7 1088.70  23
   5  -2  -5 15237.5 1081.66  10
   5  -2  -4 311.067 222.454  23
   5  -2  -4 611.042 254.675  10
   5  -2  -4 301.196 121.048  16
   5  -2  -3 24424.7 1189.20  25
   5  -2  -3 22959.8 1122.05  23
   5  -2  -3 24308.2 1224.96  10
   5  -2  -3 22409.7 868.574  16
   5  -2  -2 74682.3 1999.75  25
   5  -2  -2 72147.5 1849.50  23
   5  -2  -2 78044.5 2094.83  10
   5  -2  -2 77944.6 1829.72  20
   5  -2  -2 73211.2 1573.15  16
   5  -2  -1 33555.4 1063.23  16
   5  -2   0 127741. 2199.02  22
   5  -2   0 125543. 2049.04  16
  -5   2  -1 3696.93 340.046   1
   5  -2   1 3371.20 391.786  22
   5  -2   1 3483.35 469.897  31
   5  -2   1 3483.08 407.876   8
   5  -2   1 3598.80 359.075  16
   5  -2   2 8850.10 646.757  22
   5  -2   2 10142.7 623.913  28
  -5   2  -2 9071.55 570.924   1
   5  -2   2 9474.98 560.698  16
   5  -2   3 161.894 123.465  28
   5  -2   3 49.2279 113.489  22
   5  -2   3 176.327 96.4041  19
   5  -2   3-56.3135 131.771  17
   5  -2   4 622.493 213.090  28
   5  -2   4 388.661 213.393  22
   5  -2   4 476.620 174.296   5
   5  -2   4 569.855 192.725  19
   5  -2   4 476.494 183.675  18
   5  -2   4 572.006 186.067  17
   5  -2   5 2509.51 390.119  28
   5  -2   5 1944.36 387.911  22
   5  -2   5 2115.29 360.365   5
   5  -2   5 1976.85 329.903  19
   5  -2   5 2326.24 328.658  18
   5  -2   5 2250.83 307.543  17
   5  -2   6 4442.63 513.766   5
   5  -2   6 3769.85 501.134  22
   5  -2   7 483.117 222.226  22
   5  -2   7 361.802 171.141   5
   5  -2   8-199.824 148.158  22
   5  -2   8 266.806 163.534   5
  -5   1  10 2873.10 339.655   3
   5  -1  -9 27134.5 1271.55  23
   5  -1  -9 25574.5 1253.40  10
   5  -1  -8 42.4793 175.979  23
   5  -1  -8 245.322 209.331  10
   5  -1  -7 29.0446 187.068  23
   5  -1  -7 73.2409 142.970  10
   5  -1  -6 7431.66 749.316  23
   5  -1  -6 6825.18 737.177  10
   5  -1  -5 1131.57 307.330  23
   5  -1  -5 1155.38 315.921  10
   5  -1  -5 996.965 256.804  20
   5  -1  -4 31418.9 1371.18  25
   5  -1  -4 30391.1 1321.21  23
   5  -1  -4 31948.4 1420.43  10
   5  -1  -4 30696.5 1262.63  20
   5  -1  -4 28610.3 961.084  16
   5  -1  -3 41683.3 1506.23  25
   5  -1  -3 41167.3 1443.83  23
   5  -1  -3 41807.0 1566.78  10
   5  -1  -3 41067.1 1412.59  20
   5  -1  -2 3131.34 413.040  25
   5  -1  -2 3184.18 389.706  20
   5  -1  -1 40422.7 1260.48  21
   5  -1  -1 40261.9 1337.79  20
  -5   1   1 39144.2 1104.46   1
  -5   1   0 431.535 136.195   1
   5  -1   0 286.189 168.868   8
   5  -1   1 7719.76 524.775  28
  -5   1  -1 7873.23 522.483   1
   5  -1   1 6899.55 519.085  22
   5  -1   1 7786.97 611.419   8
   5  -1   1 8656.23 702.380  31
   5  -1   2 1513.31 263.979  28
   5  -1   2 1631.98 279.103  22
  -5   1  -2 1685.75 267.370   1
   5  -1   2 1382.57 229.213  19
   5  -1   2 2332.50 388.759  31
   5  -1   2 1494.82 230.795  16
   5  -1   3 1446.23 270.358  28
   5  -1   3 1064.21 256.693  22
   5  -1   3 808.464 201.855  19
   5  -1   3 1366.28 237.662  17
   5  -1   4 80347.9 1976.84  28
   5  -1   4 73881.6 2040.55  22
   5  -1   4 76743.5 1950.19  19
   5  -1   4 78302.8 1760.74  18
   5  -1   5 10382.2 759.066  28
   5  -1   5 10534.4 814.590  22
   5  -1   5 10359.2 761.199   5
   5  -1   5 10616.1 772.698  19
   5  -1   5 10051.6 628.229  18
   5  -1   6 141.479 164.703  28
   5  -1   6 392.204 223.175  22
   5  -1   6 17.5395 101.055   5
   5  -1   6 138.301 164.191  19
   5  -1   7 2663.45 412.847  22
   5  -1   7 2547.54 377.980   5
   5  -1   8 242.944 134.884  22
   5  -1   8-222.176 133.521   5
  -5   0  10 9641.06 631.176   3
  -5   0   9 1788.06 332.063   3
   5   0  -9 1498.79 339.133  23
   5   0  -8 6856.88 721.065  23
   5   0  -8 5972.52 644.651  10
  -5   0   8 5753.03 552.660   3
   5   0  -7 1178.53 355.470  23
   5   0  -7 1137.46 339.968  10
   5   0  -6 2533.33 460.695  23
   5   0  -6 2678.19 453.691  10
   5   0  -5 1357.17 341.567  23
   5   0  -5 1417.99 334.919  10
   5   0  -5 1399.56 313.213  20
   5   0  -4 28989.8 1276.88  25
   5   0  -4 27754.9 1252.09  23
   5   0  -4 29072.6 1073.83  21
   5   0  -4 28425.4 1261.45  20
   5   0  -3 29327.3 1231.95  25
   5   0  -3 27166.2 1173.39  23
   5   0  -3 28330.9 1070.31  21
   5   0  -3 26416.7 1169.37  20
   5   0  -2 54355.7 1628.41  25
   5   0  -2 52668.3 1455.03  21
   5   0  -2 52032.7 1578.41  20
   5   0  -1 18055.6 861.628  21
   5   0  -1 18494.6 923.411  20
   5   0  -1 16828.1 892.953   8
  -5   0   0 541.526 157.690   1
   5   0   0 223.419 128.730  21
   5   0   0 387.896 191.378   8
   5   0   1 30787.0 1102.94  28
   5   0   1 31579.4 1125.66  21
   5   0   1 30455.5 1148.65   9
  -5   0  -1 31351.0 1073.32   1
   5   0   1 31180.1 1259.74   8
   5   0   2 5776.34 513.833  28
  -5   0  -2 5858.58 490.868   1
   5   0   2 5442.43 471.148  21
   5   0   3 52273.2 1592.99  28
   5   0   3 51501.4 1555.98  19
   5   0   4 9859.71 723.242  28
   5   0   4 10032.6 743.884  19
   5   0   5 10389.2 759.175  28
   5   0   5 10950.5 798.012  19
   5   0   6 2930.67 413.906  28
   5   0   6 3067.30 433.413  19
   5   0   7 1846.02 341.399  22
   5   0   7 1935.82 315.710   5
   5   0   8 3194.00 371.041  22
  -5  -1  10 232.750 143.948   3
  -5  -1   9 19898.0 998.826   3
  -5  -1   8 2944.14 412.319   3
   5   1  -8 2714.33 489.229  23
   5   1  -7 42926.9 1794.26  23
  -5  -1   7 42819.1 1466.76   3
  -5  -1   6 249.289 131.144   3
   5   1  -6 363.730 261.610  23
   5   1  -5 15225.1 994.354  23
   5   1  -4 72765.0 1966.40  25
   5   1  -4 71784.8 2029.54  23
   5   1  -4 71564.9 1756.92  21
   5   1  -4 65893.5 1999.63  20
   5   1  -3 317.799 185.518  25
   5   1  -3-201.678 150.268  23
   5   1  -3 21.7732 98.5060  21
   5   1  -3 134.409 128.475  20
   5   1  -2 13679.6 782.683  21
   5   1  -2 13884.1 842.035  20
   5   1  -2 13994.5 835.357   8
   5   1  -1 60557.3 1640.85  21
   5   1  -1 61067.0 1718.18  20
   5   1  -1 57612.2 1635.54   9
   5   1  -1 63602.2 1758.13   8
   5   1   0 572.121 207.131  21
   5   1   0 534.027 211.770  20
   5   1   0 300.705 168.743   9
   5   1   0 240.291 180.294   8
  -5  -1   0 439.065 168.504   1
   5   1   1 16561.4 843.342  21
   5   1   1 16686.1 906.498   9
  -5  -1  -1 17014.7 825.718   1
   5   1   2 9429.55 684.957  28
   5   1   3 15585.8 908.700  28
   5   1   4 10592.2 770.332  28
   5   1   4 10530.9 791.612  19
   5   1   5 220.318 219.221  19
   5   1   5 133.650 183.866  28
   5   1   6 331.050 191.280  28
   5   1   6 189.101 184.001  19
   5   1   7 2897.13 384.035  19
  -5  -2  10 380.474 167.632   3
  -5  -2   9 1745.24 317.724   3
  -5  -2   8 15254.4 907.260   3
  -5  -2   7 535.539 209.939   3
   5   2  -6 2421.87 472.771  23
  -5  -2   6 2152.13 333.895   3
   5   2  -5 1792.49 374.645  23
   5   2  -5 1641.19 286.294  21
   5   2  -5 2323.60 398.202   4
   5   2  -4 10643.7 825.792  23
   5   2  -4 10439.1 718.293  21
   5   2  -4 10298.0 805.842  20
   5   2  -4 11908.6 833.037   4
   5   2  -4 11947.0 782.299   8
   5   2  -3 31972.1 1339.81  20
   5   2  -3 33769.4 1354.86   4
   5   2  -3 33156.1 1296.04   8
   5   2  -2 187.077 133.613  20
   5   2  -2 19.5689 160.122   8
   5   2  -1 2509.84 371.076  20
   5   2  -1 2279.61 376.101   9
   5   2  -1 2867.32 429.246   8
  -5  -2   0 9473.29 626.713   1
   5   2   0 11511.0 783.469   9
   5   2   1 4350.28 469.627  21
   5   2   1 3847.13 479.881   9
   5   2   2 370.211 181.038   7
   5   2   3 16.3019 156.840  28
   5   2   3 48.0285 118.751   7
   5   2   4 15150.0 924.482  28
   5   2   5 2835.36 391.244  28
   5   2   5 2763.51 428.725  19
   5   2   6 3669.67 396.153  28
   5   2   6 2368.96 370.522  19
   5   2   7 34.6726 83.5970  19
  -5  -3  10 14065.3 732.774   3
  -5  -3   9 11913.5 757.948   3
  -5  -3   9 11345.3 704.316   2
  -5  -3   8 20691.4 1041.43   3
  -5  -3   7 3021.56 409.439   3
  -5  -3   6 9234.15 680.981   3
   5   3  -6 8239.60 744.748   4
  -5  -3   5 393.339 161.369   3
   5   3  -5 334.764 196.461   4
   5   3  -4 1827.07 385.358  20
   5   3  -4 2224.66 391.684   4
   5   3  -3 8139.54 702.836  20
   5   3  -3 7327.13 625.193   8
   5   3  -3 7537.95 685.556   4
   5   3  -2 36890.5 1408.99  20
   5   3  -2 38339.8 1433.42   8
   5   3  -2 35568.8 1410.53   4
  -5  -3   2 34177.5 1191.91  29
   5   3  -1 3949.23 459.686  20
   5   3  -1 3759.52 481.626   9
   5   3   0 1863.26 377.272   9
   5   3   1 57781.4 1821.51   9
   5   3   1 57917.5 1890.13   7
   5   3   2 276.845 200.679   7
   5   3   3 3462.70 506.403   7
   5   3   3 2336.32 392.051  28
   5   3   4-149.960 146.356  28
   5   3   5 5922.28 520.393  28
   5   3   5 6895.34 612.732  19
   5   3   6 6577.38 531.086  19
  -5  -4   9 5231.13 483.703   3
  -5  -4   9 4963.57 456.460   2
  -5  -4   8 210.381 160.713   2
  -5  -4   8 101.799 167.276   3
  -5  -4   7 472.878 182.253   2
  -5  -4   7 372.816 203.971   3
   5   4  -7 622.046 254.247   4
  -5  -4   6 19312.3 985.857   3
   5   4  -6 16912.0 1092.80   4
   5   4  -5 368.479 207.669  20
  -5  -4   5 402.888 159.930   3
   5   4  -5 84.1521 202.573   4
   5   4  -4 15490.7 992.061  20
   5   4  -4 14387.7 1002.15   4
   5   4  -3 2531.49 389.299  20
   5   4  -3 1883.54 392.819   4
   5   4  -2 1968.06 378.189   9
   5   4  -2 2872.38 443.585   4
   5   4  -1-77.9298 179.315   9
   5   4   0 8110.44 709.119   9
   5   4   0 7133.65 709.529   7
   5   4   1 559.193 265.077   7
   5   4   1 854.772 267.933   9
   5   4   2 4422.48 572.194   7
   5   4   3 625.842 262.467   7
   5   4   3 679.127 228.203  28
   5   4   4 15257.7 833.362  28
   5   4   5 604.560 185.884  19
  -5  -5   9 770.095 180.201   2
   5   5  -9 844.689 226.607  20
  -5  -5   9 886.442 208.274   3
  -5  -5   8 1518.61 275.033   2
   5   5  -8 1555.11 332.323  20
  -5  -5   8 1650.70 288.743   3
  -5  -5   7 24644.1 1073.48   2
  -5  -5   7 24866.3 1093.14   3
   5   5  -7 23984.9 1218.82  20
   5   5  -7 25195.3 1255.74   4
  -5  -5   6 463.815 182.863   2
   5   5  -6 1217.54 310.792  20
  -5  -5   6 790.675 210.356   3
   5   5  -6 495.203 256.195   4
  -5  -5   5 1257.13 267.618   3
   5   5  -5 1247.95 272.724  20
   5   5  -5 1121.06 335.936   4
  -5  -5   4 22779.8 1030.06   3
   5   5  -4 20918.3 1218.75   4
   5   5  -3 13264.9 935.153   4
   5   5  -2-346.363 181.538   7
   5   5  -2-42.5762 160.414   9
   5   5  -2 45.6693 107.257   4
   5   5  -1 2144.72 402.579   7
   5   5  -1 2412.07 393.157   9
   5   5   0 6202.50 603.017   9
   5   5   0 6100.07 677.706   7
   5   5   1 6107.79 676.973   7
   5   5   2 1153.75 287.058  28
   5   5   2 1279.56 341.990   7
   5   5   3 801.788 248.214   7
   5   5   3 703.308 199.279  28
   5   5   4 583.569 181.986  19
  -5  -6   8 970.863 212.068   3
  -5  -6   7-24.0100 116.987   3
   5   6  -7 342.841 167.280   4
  -5  -6   6 4107.82 441.564   3
   5   6  -6 3663.81 497.181   4
  -5  -6   5 3648.73 425.478   3
   5   6  -5 4112.58 527.612   4
  -5  -6   4 1708.04 301.977   3
   5   6  -4 1744.13 340.847   9
   5   6  -4 1740.42 363.856   4
   5   6  -3 2160.10 390.635   7
   5   6  -3 2329.53 371.108   9
   5   6  -3 1710.57 348.414   4
   5   6  -2 2171.99 401.912   7
   5   6  -2 2206.02 357.477   9
   5   6  -1 1554.62 350.050   7
   5   6  -1 1638.64 309.614   9
   5   6   0 12902.0 953.228   7
   5   6   1 414.947 228.574   7
   5   6   2 3197.12 367.293  28
   5   6   2 3035.36 440.791   7
   5   6   3 665.869 216.298   7
   5   7  -7 2302.03 328.646   4
  -5  -7   6 581.150 176.507   3
   5   7  -6 625.900 200.399   4
   5   7  -5 923.259 243.608   4
   5   7  -4 49.9393 115.433   7
   5   7  -4 375.988 176.423   4
   5   7  -3 696.453 250.815   7
   5   7  -3 1288.49 269.710   4
   5   7  -2 2264.68 389.978   7
   5   7  -1 8576.17 716.632   7
   5   7   0 525.031 208.418   7
   5   7   1 9256.73 673.663   7
   6  -8  -1 384.722 152.689  22
   6  -8   0 3592.10 372.177  22
   6  -8   1 435.007 180.397  15
   6  -8   1 245.662 136.295  22
   6  -7  -4 429.486 162.415  23
   6  -7  -3 2362.70 357.773  23
   6  -7  -2 437.534 181.383  23
   6  -7  -2 944.597 244.276  22
   6  -7  -1 1176.17 268.598  22
   6  -7   0 4825.84 504.220  15
   6  -7   0 4008.53 460.270  22
   6  -7   1-0.33320 142.434  15
   6  -7   1-51.4557 146.754  22
   6  -7   2 1034.48 261.624  15
   6  -7   2 789.378 221.386  22
   6  -7   3 140.045 114.580  15
   6  -7   3 244.969 157.309  22
   6  -7   4 1195.28 252.237  15
   6  -7   4 984.101 214.290  22
   6  -6  -5 470.498 198.960  23
   6  -6  -4 7804.40 709.872  23
   6  -6  -3 2375.29 406.070  23
   6  -6  -3 2161.06 342.832  22
   6  -6  -2 105.518 135.917  23
   6  -6  -2 508.112 233.982  22
   6  -6  -1 51827.2 1703.79  15
   6  -6  -1 53118.5 1683.58  22
   6  -6   0 12088.4 850.305  15
   6  -6   0 12215.4 822.753  22
   6  -6   1 1546.11 325.818  15
   6  -6   1 1358.58 324.085  22
   6  -6   1 1740.70 275.830  17
   6  -6   2 16183.1 970.885  15
   6  -6   2 18402.1 998.502  22
   6  -6   2 17113.4 791.003  18
   6  -6   3 9813.67 739.107  15
   6  -6   3 9250.93 704.386  22
   6  -6   4 577.999 220.991  15
   6  -6   4 548.511 200.419  22
   6  -6   5 394.141 156.448  15
   6  -6   5 377.793 164.058  22
   6  -5  -7 963.490 238.692  23
   6  -5  -7 1265.58 284.731  10
   6  -5  -6 10535.2 808.704  23
   6  -5  -6 9722.90 778.774  10
   6  -5  -5 584.769 245.435  23
   6  -5  -5 756.963 283.004  10
   6  -5  -4 18090.3 1149.71  23
   6  -5  -4 20294.6 982.918  22
   6  -5  -3 4229.66 560.866  23
   6  -5  -3 3730.64 459.964  22
   6  -5  -2 7573.70 663.129  15
   6  -5  -2 6399.37 659.254  23
   6  -5  -2 7384.07 640.232  22
   6  -5  -1 223.534 182.090  15
   6  -5  -1 172.180 194.201  22
   6  -5  -1 26.5102 103.440  17
   6  -5   0 9699.53 751.792  15
   6  -5   0 9330.09 737.920  22
   6  -5   0 9185.68 596.366  18
   6  -5   0 9681.35 625.203  17
   6  -5   1 175.758 157.348  15
   6  -5   1-50.6697 187.677  22
   6  -5   1-79.5299 132.695  18
   6  -5   1 163.013 164.043  17
   6  -5   2 5236.46 576.006  15
   6  -5   2 6035.73 614.246  22
   6  -5   2 5497.55 501.953  18
   6  -5   2 5919.96 525.540  17
   6  -5   3 1802.90 369.851  15
   6  -5   3 2074.31 404.528  22
   6  -5   3 2311.19 359.288  17
   6  -5   4 71090.4 1958.01  15
   6  -5   4 72916.1 2001.83  22
   6  -5   4 74966.6 1772.64  18
   6  -5   5 501.592 200.344  15
   6  -5   5 829.261 245.000  22
   6  -5   6 8588.17 600.079  15
   6  -5   6 10515.5 665.538  22
   6  -4  -8 6395.19 579.310  10
   6  -4  -7 4463.18 532.844  23
   6  -4  -7 3344.17 496.644  10
   6  -4  -6 7114.37 724.527  23
   6  -4  -6 6646.31 725.757  10
   6  -4  -5 152.278 230.418  23
   6  -4  -5 215.205 264.425  10
   6  -4  -4 20448.5 1237.61  23
   6  -4  -4 20830.6 1280.92  10
   6  -4  -3 1339.82 349.429  23
   6  -4  -3 3615.08 442.634  22
   6  -4  -2 24546.9 1107.67  15
   6  -4  -2 22235.4 1185.67  23
   6  -4  -2 23568.7 1100.58  22
   6  -4  -2 23386.2 1004.95  16
   6  -4  -1 1490.67 297.556  15
   6  -4  -1 2003.80 355.658  22
   6  -4  -1 2548.75 362.012  16
   6  -4   0 2663.58 383.538  15
   6  -4   0 2537.75 389.252  22
   6  -4   0 2865.27 375.608  17
   6  -4   0 2350.15 365.960  16
   6  -4   1 3374.01 442.492  15
   6  -4   1 3785.31 476.980  22
   6  -4   1 2589.82 354.502  18
   6  -4   1 3155.28 405.348  17
   6  -4   1 3313.15 398.866  16
   6  -4   2 34974.5 1377.27  15
   6  -4   2 32924.8 1391.57  22
   6  -4   2 34936.9 1269.51  18
   6  -4   2 33708.7 1257.21  17
   6  -4   3 33547.3 1367.19  15
   6  -4   3 33455.2 1407.99  22
   6  -4   3 33759.7 1272.94  18
   6  -4   3 34520.4 1255.74  17
   6  -4   4 5813.37 613.193  22
   6  -4   4 6420.96 576.312  18
   6  -4   4 6524.15 551.116  17
   6  -4   5 870.223 267.550  22
   6  -4   6 4255.88 470.511  22
   6  -3  -8 315.319 184.465  23
   6  -3  -8 227.640 156.702  10
   6  -3  -7 17956.6 1123.82  23
   6  -3  -7 16278.8 1117.53  10
   6  -3  -6 813.372 322.140  23
   6  -3  -6 813.524 352.855  10
   6  -3  -5 4146.04 617.912  23
   6  -3  -5 3912.83 634.751  10
   6  -3  -4 25363.9 1349.26  23
   6  -3  -4 24547.7 1414.36  10
   6  -3  -4 26781.2 1005.67  16
   6  -3  -3 3196.76 478.072  23
   6  -3  -3 3348.51 389.627  16
   6  -3  -2 1.97071 124.928  23
   6  -3  -2 407.738 195.438  16
   6  -3  -1 22445.4 1028.12  22
   6  -3  -1 22475.2 988.538  16
   6  -3   0 102.486 133.443  22
   6  -3   0 261.729 192.341  16
   6  -3   1 10132.0 742.200  22
   6  -3   1 10682.0 677.285  16
   6  -3   2 6869.59 624.137  22
   6  -3   2 7064.21 591.610  17
   6  -3   2 7305.43 538.368  16
   6  -3   3 9317.81 756.034  22
   6  -3   3 9178.60 685.167  18
   6  -3   3 9629.58 666.995  17
   6  -3   4 5401.39 599.032  22
   6  -3   4 5239.07 513.636  18
   6  -3   4 5284.75 492.574  17
   6  -3   5 2757.43 423.219  22
   6  -3   5 2349.08 338.952  18
   6  -3   6 240.179 168.372  22
   6  -3   7 573.212 176.081  22
   6  -2  -9 131.233 113.597  23
   6  -2  -8 5644.70 620.724  23
   6  -2  -8 4929.01 597.425  10
   6  -2  -7 1418.37 382.248  23
   6  -2  -7 946.016 329.984  10
   6  -2  -6 16323.0 1143.07  23
   6  -2  -6 15907.7 1171.47  10
   6  -2  -5 9279.33 855.003  23
   6  -2  -5 9829.42 916.056  10
   6  -2  -4 8001.42 758.407  23
   6  -2  -4 8583.35 584.745  16
   6  -2  -3 7.94981 130.711  20
   6  -2  -3 58.0859 125.453  16
   6  -2  -2 2383.84 332.142  16
   6  -2  -1 11920.2 721.463  16
   6  -2   0 7424.35 585.687  22
   6  -2   0 7757.74 675.629   8
   6  -2   0 7459.51 574.397  16
   6  -2   1 26312.3 1141.17  22
   6  -2   1 25048.0 1189.18   8
   6  -2   1 26004.3 1035.54  16
   6  -2   2 647.850 187.930  28
   6  -2   2 597.016 212.203  22
   6  -2   2 659.291 175.017  16
   6  -2   3 600.676 205.029  28
   6  -2   3 270.234 180.368  22
   6  -2   3 598.133 229.870  18
   6  -2   3 309.431 171.305  17
   6  -2   4 17.5469 136.509  28
   6  -2   4 60.2558 160.595  22
   6  -2   4 319.507 151.671  19
   6  -2   4 113.498 148.506  18
   6  -2   4 20.0683 141.464  17
   6  -2   5 555.261 244.733  22
   6  -2   5 509.366 170.753  18
   6  -2   6 2871.18 421.917  22
   6  -2   7-17.5019 91.2307  22
   6  -1  -9 6477.50 609.507  23
   6  -1  -8 8775.85 794.815  23
   6  -1  -7 8079.99 828.559  23
   6  -1  -6 5091.45 663.424  23
   6  -1  -6 5837.81 600.627  20
   6  -1  -5 1526.27 375.477  23
   6  -1  -5 1520.28 329.592  20
   6  -1  -4-62.8679 153.918  20
   6  -1  -4-286.776 149.873  16
   6  -1  -3 20235.8 1109.67  23
   6  -1  -3 22940.0 1174.59  20
   6  -1  -3 20253.4 935.679  16
   6  -1  -2 5685.14 587.561  20
   6  -1  -1 261.414 240.084   8
   6  -1   0 5973.31 635.292   8
   6  -1   0 5966.60 521.429  16
   6  -1   1 11583.2 718.882  28
   6  -1   1 11303.9 842.418   8
   6  -1   1 10777.9 684.903  16
   6  -1   2 362.957 179.215  22
   6  -1   2 390.584 158.455  16
   6  -1   3 2125.35 339.999  28
   6  -1   3 1805.23 336.288  22
   6  -1   3 2143.47 328.970  19
   6  -1   3 1942.39 293.546  17
   6  -1   4 14125.8 875.835  28
   6  -1   4 12021.4 847.993  22
   6  -1   4 13354.5 827.791  19
   6  -1   4 13871.4 761.939  18
   6  -1   5 856.058 264.320  28
   6  -1   5 788.555 266.695  22
   6  -1   5 835.838 233.074  19
   6  -1   6 175.297 152.071  22
   6  -1   6 331.128 158.503  19
   6  -1   7 382.898 142.148  22
   6   0  -9 5975.01 609.147  23
   6   0  -8 1723.59 407.168  23
   6   0  -8 1526.06 308.643  20
   6   0  -7 13801.6 1058.40  23
   6   0  -7 14780.8 984.850  20
   6   0  -6 2598.63 514.781  23
   6   0  -6 2904.03 460.757  20
   6   0  -5 4439.43 603.891  23
   6   0  -5 4916.82 588.529  20
   6   0  -4 334.061 185.273  23
   6   0  -4 364.854 187.745  20
   6   0  -3 8787.56 733.754  23
   6   0  -3 8308.90 684.901  21
   6   0  -3 8165.65 741.095  20
   6   0  -2 6952.15 623.505  21
   6   0  -2 6812.09 592.554   9
   6   0  -2 5683.90 622.365   8
   6   0  -1 9700.21 718.615  21
   6   0  -1 8899.03 746.367  20
   6   0  -1 8977.45 680.060   9
   6   0  -1 8947.07 770.618   8
   6   0   0 24037.5 1043.25  28
   6   0   0 25920.1 1161.81  21
   6   0   0 24520.6 1126.74   9
   6   0   0 24318.0 1246.20   8
   6   0   1 9384.90 693.552  28
   6   0   2 696.290 178.738  16
   6   0   2 1066.16 266.027  28
   6   0   2 564.907 196.502  19
   6   0   3 10720.2 763.618  28
   6   0   3 9022.71 698.880  22
   6   0   3 10040.2 724.444  19
   6   0   4 9629.61 739.526  28
   6   0   4 8370.56 690.220  22
   6   0   4 9849.42 734.611  19
   6   0   5-27.3076 143.515  28
   6   0   5 325.754 173.446  22
   6   0   5 47.9387 112.530  19
   6   0   6 860.600 221.759  22
   6   0   6 646.393 204.715  19
   6   1  -9 915.490 233.223  20
   6   1  -8 265.645 151.712  20
   6   1  -7 496.867 318.607  23
   6   1  -7 1023.47 296.363  20
   6   1  -6 10712.2 944.591  23
   6   1  -6 10595.8 899.485  20
   6   1  -5 44564.5 1810.46  23
   6   1  -5 48793.9 1560.06  21
   6   1  -5 44150.5 1785.12  20
   6   1  -4 45212.6 1744.86  23
   6   1  -4 47749.9 1610.46  21
   6   1  -4 44423.0 1757.90  20
   6   1  -3 552.734 209.956  23
   6   1  -3 578.400 235.879  21
   6   1  -3 703.322 288.734  20
   6   1  -3 611.091 247.900   8
   6   1  -2 778.245 244.532  21
   6   1  -2 338.570 226.699  20
   6   1  -2 560.004 223.713   9
   6   1  -2 417.083 261.467   8
   6   1  -1 438.786 230.159  21
   6   1  -1 426.827 242.196  20
   6   1  -1 1048.46 276.668   9
   6   1  -1 866.643 297.103   8
   6   1   0 23191.3 1126.94  21
   6   1   0 24421.5 1181.96   9
   6   1   0 25244.2 1287.20   8
   6   1   1 9287.48 717.678  28
   6   1   1 10531.2 744.569  21
   6   1   1 10631.6 798.238   9
   6   1   2 3733.28 473.868  28
   6   1   3 1487.32 345.079  28
   6   1   3 1704.75 339.557  19
   6   1   4 360.624 202.807  28
   6   1   4 404.191 187.027  19
   6   1   5 239.346 166.625  28
   6   1   5 18.6003 64.2986  22
   6   1   5 166.177 166.660  19
   6   1   6 328.414 163.223  28
   6   1   6 57.1946 95.9811  22
   6   1   6 154.360 129.128  19
  -6  -2   9 8725.25 575.345   3
   6   2  -9 8997.25 707.194  20
   6   2  -8 5631.66 624.771  20
   6   2  -7 1301.49 347.635  20
   6   2  -6 21953.9 1304.86  20
   6   2  -5 496.701 188.483  21
   6   2  -5 456.202 258.917  20
   6   2  -5 393.578 212.995   8
   6   2  -4 2288.72 384.359  21
   6   2  -4 2260.65 430.961  20
   6   2  -4 1932.72 384.642   8
   6   2  -3 2143.09 378.474  21
   6   2  -3 2087.87 411.947  20
   6   2  -3 1684.99 380.858   8
   6   2  -2 3843.76 494.293  21
   6   2  -2 4328.05 542.096  20
   6   2  -2 3295.69 484.374   9
   6   2  -2 3956.47 535.789   8
   6   2  -1 3045.14 455.959  21
   6   2  -1 3429.43 509.153  20
   6   2  -1 2932.48 459.474   9
   6   2  -1 4025.46 559.805   8
   6   2   0 246390. 3731.79  21
   6   2   0 255917. 3958.51   9
   6   2   1 34297.3 1359.29  21
   6   2   1 36803.8 1529.15   9
   6   2   2 2816.61 431.729  28
   6   2   3 339.384 217.474  28
   6   2   4-198.560 164.995  28
   6   2   4 168.926 195.660  19
   6   2   5 4310.12 441.226  28
   6   2   5 4780.44 487.375  19
   6   2   6 834.971 202.932  19
   6   3  -9 917.044 244.186  20
  -6  -3   9 595.584 164.195   3
  -6  -3   8 10482.4 652.211   3
   6   3  -8 9561.26 798.015  20
   6   3  -7 10183.1 864.743  20
   6   3  -6 8369.41 813.735  20
   6   3  -5 280.034 170.840  21
   6   3  -5 591.088 243.580  20
   6   3  -4 291.156 213.949  21
   6   3  -4 196.291 193.560  20
   6   3  -4 174.925 175.859   8
   6   3  -3 5547.62 623.148  21
   6   3  -3 6271.04 654.311  20
   6   3  -3 6991.52 676.192   8
   6   3  -2 10536.3 836.101  21
   6   3  -2 11319.9 849.726  20
   6   3  -2 10062.8 835.324   9
   6   3  -1 141626. 2974.59  21
   6   3  -1 146655. 3086.73   9
   6   3   0 25548.7 1259.39  21
   6   3   0 26410.8 1323.21   9
   6   3   1 42130.4 1522.30  21
   6   3   2 1621.61 350.925  28
   6   3   3 1280.24 302.577  28
   6   3   4-289.597 153.856  28
   6   3   4 8.99758 131.718  19
   6   3   5 8083.64 527.125  28
   6   3   5 8823.05 597.680  19
   6   4  -9 4024.37 437.106  20
  -6  -4   8 36703.8 1150.22   3
   6   4  -8 35230.5 1416.00  20
   6   4  -7 2690.82 473.681  20
   6   4  -6 5566.63 623.682  20
   6   4  -5 3789.07 479.479  21
   6   4  -5 3917.36 528.506  20
   6   4  -4 28.6292 162.839  21
   6   4  -4 339.415 201.180  20
   6   4  -3 16318.7 976.864  20
   6   4  -3 14839.6 1018.60   9
   6   4  -2 7783.06 746.774   9
   6   4  -1 2968.43 477.717  21
   6   4  -1 3070.48 487.207   9
   6   4   0 28595.1 1305.74  21
   6   4   0 32925.6 1427.11   9
   6   4   1 1824.36 322.986  21
   6   4   2 586.604 228.950  28
   6   4   3 3568.43 420.711  28
   6   4   4 11747.2 637.351  28
   6   4   4 12388.3 709.504  19
   6   5  -8 11403.9 703.517  20
   6   5  -7 12193.7 785.876  20
   6   5  -6-96.8747 110.163  20
   6   5  -5 639.099 223.552  21
   6   5  -5 1119.31 260.008  20
   6   5  -4 6130.22 639.970   9
   6   5  -3 243.440 211.014   9
   6   5  -2 613.975 233.042   9
   6   5  -1 5303.71 564.093   9
   6   5   0 6024.16 574.895  21
   6   5   1 596.402 212.624  28
   6   5   2 1027.36 219.709  28
   6   5   3 133.326 112.522  19
   6   6  -6 147.352 139.188   9
   6   6  -5 1442.38 270.856  21
   6   6  -5 1508.41 289.501   9
   6   6  -4 1014.33 253.147  21
   6   6  -4 1759.81 319.375   9
   6   6  -3 7059.36 593.097   9
   6   6  -2 5319.82 502.442   9
   6   6  -1 1438.70 284.963  21
   6   6   0 2593.26 335.886  21
   6   6   1 92.3681 92.8667  28
   7  -7   0 1258.07 226.315  22
   7  -7   1 1501.53 250.908  22
   7  -6  -3 754.233 185.665  22
   7  -6  -2 3660.22 392.979  22
   7  -6  -1 890.634 251.224  22
   7  -6   0 154.228 122.307  15
   7  -6   0 181.489 140.653  22
   7  -6   1 495.207 182.745  15
   7  -6   1 479.234 203.482  22
   7  -6   2 985.418 222.080  15
   7  -6   2 802.533 224.186  22
   7  -6   3 3083.35 358.404  15
   7  -6   3 2145.05 305.745  22
   7  -5  -5 1053.03 263.332  23
   7  -5  -4 1559.78 322.641  23
   7  -5  -3 8969.04 724.103  23
   7  -5  -2 5701.26 518.134  22
   7  -5  -1 14910.2 855.323  22
   7  -5  -1 16836.6 773.184  17
   7  -5   0 7169.11 592.209  15
   7  -5   0 8872.45 674.220  22
   7  -5   0 9427.35 590.727  18
   7  -5   0 9417.63 604.713  17
   7  -5   1 1712.06 305.514  15
   7  -5   1 1617.98 305.732  22
   7  -5   1 1875.26 294.116  18
   7  -5   1 1996.93 308.643  17
   7  -5   2 10852.6 714.150  15
   7  -5   2 11192.9 750.787  22
   7  -5   2 12161.2 689.548  18
   7  -5   2 12159.3 701.787  17
   7  -5   3 20138.3 933.609  15
   7  -5   3 21455.4 1001.29  22
   7  -5   3 22398.0 906.308  18
   7  -5   4 10279.6 630.943  15
   7  -5   4 12478.1 726.295  22
   7  -4  -6 259.556 188.507  23
   7  -4  -5 134.409 165.459  23
   7  -4  -4 1574.21 361.785  23
   7  -4  -3 15686.2 1003.09  23
   7  -4  -2 1584.72 332.587   8
   7  -4  -2 1585.52 262.692  17
   7  -4  -1 12191.8 777.729  22
   7  -4  -1 12647.0 734.377  17
   7  -4   0 8592.63 670.035  22
   7  -4   0 8261.90 604.777  18
   7  -4   0 8468.47 619.246  17
   7  -4   1 251.688 186.852  22
   7  -4   1 160.636 157.897  18
   7  -4   1 51.2250 170.520  17
   7  -4   2 3222.00 436.094  22
   7  -4   2 3435.84 418.624  18
   7  -4   2 3585.97 431.143  17
   7  -4   3 49506.1 1444.98  18
   7  -4   3 50095.4 1415.66  17
   7  -4   4 35048.8 1285.03  22
   7  -4   4 37474.7 1183.11  18
   7  -4   5 589.903 194.418  22
   7  -3  -7 1505.24 309.353  23
   7  -3  -6 660.983 281.483  23
   7  -3  -5 101650. 2654.46  23
   7  -3  -4 55103.6 1945.20  23
   7  -3  -4 62027.6 1547.69  16
   7  -3  -3 418.343 218.494  23
   7  -3  -3 207.981 155.697  16
   7  -3  -2 1783.30 385.725   8
   7  -3  -2 2619.40 379.670  16
   7  -3  -1 6143.24 642.073   8
   7  -3  -1 6743.36 582.913  16
   7  -3   0 11059.3 737.133  22
   7  -3   0 11445.3 739.185  16
   7  -3   1 7342.57 628.661  22
   7  -3   1 6961.89 592.224  17
   7  -3   1 7641.18 583.427  16
   7  -3   2 11587.7 797.032  22
   7  -3   2 11837.0 763.861  18
   7  -3   2 12362.0 757.248  17
   7  -3   2 12464.6 697.473  16
   7  -3   3 3937.06 473.287  22
   7  -3   3 4098.58 458.704  18
   7  -3   3 3666.16 408.112  17
   7  -3   4 1385.54 290.800  22
   7  -3   4 1486.64 272.743  18
   7  -3   4 1429.05 258.150  17
   7  -3   5-156.686 141.191  22
   7  -2  -8 6021.29 572.705  23
   7  -2  -7 1215.00 300.320  23
   7  -2  -6 28233.0 1413.02  23
   7  -2  -5 20629.3 1236.64  23
   7  -2  -4 1054.81 331.645  23
   7  -2  -4 1204.65 263.797  16
   7  -2  -3 1166.57 288.492  23
   7  -2  -3 485.593 207.203  16
   7  -2  -2 614.412 281.422   8
   7  -2  -2 692.828 236.487  16
   7  -2  -1 2048.67 426.074   8
   7  -2  -1 2621.34 402.013  16
   7  -2   0 88579.6 2368.13   8
   7  -2   0 93067.4 2078.64  16
   7  -2   1 1153.67 269.807  16
   7  -2   2 1757.41 313.472  22
   7  -2   2 1798.07 315.976  17
   7  -2   2 2090.39 299.439  16
   7  -2   3 23.6733 115.036  28
   7  -2   3-300.382 170.491  22
   7  -2   3 62.0475 141.705  18
   7  -2   3 34.9089 144.272  17
   7  -2   4 53.1167 124.523  22
   7  -2   4 271.479 161.629  18
   7  -2   4 165.147 118.852  17
   7  -2   5 3038.51 369.756  22
   7  -1  -8 211.112 175.140  23
   7  -1  -7 4194.29 552.602  23
   7  -1  -6 2806.49 495.928  23
   7  -1  -6 2834.80 420.137  20
   7  -1  -5 234.598 218.856  23
   7  -1  -5 585.543 231.127  20
   7  -1  -5 186.785 152.869  16
   7  -1  -4 213.458 201.032  23
   7  -1  -4 60.8814 189.971  20
   7  -1  -4 247.770 191.380  16
   7  -1  -3 347.554 271.023   8
   7  -1  -3 1490.34 312.785  16
   7  -1  -2 777.413 339.363   8
   7  -1  -2 1442.70 324.626  16
   7  -1  -1 69245.9 2221.43   8
   7  -1  -1 69187.7 1859.89  16
   7  -1   0 66.9088 247.079   8
   7  -1   0 98.1717 231.158  16
   7  -1   1 3323.76 406.583  28
   7  -1   1 3534.32 427.807  16
   7  -1   2 1627.83 304.462  28
   7  -1   2 1655.93 292.492  17
   7  -1   2 2021.66 302.433  16
   7  -1   3 254.941 157.265  28
   7  -1   3 85.7789 122.543  18
   7  -1   3 276.846 138.811  17
   7  -1   4 1309.73 264.724  28
   7  -1   4 1069.14 247.261  22
   7  -1   4 1157.49 225.924  18
   7  -1   5 406.595 157.319  22
   7   0  -8 9006.86 650.297   8
   7   0  -7 2103.59 414.407  23
   7   0  -7 2548.80 386.809  20
   7   0  -6 1997.61 436.296  23
   7   0  -6 2811.18 440.999  20
   7   0  -5 2025.44 435.299  23
   7   0  -5 3298.63 496.992  20
   7   0  -5 2571.14 336.174  16
   7   0  -4 6194.73 671.408  23
   7   0  -4 6058.72 666.554  20
   7   0  -4 5263.42 656.224   8
   7   0  -4 5576.38 525.409  16
   7   0  -3 165.972 215.575  20
   7   0  -3-46.9745 297.805   8
   7   0  -2 15249.4 1086.14   8
   7   0  -1 7234.77 639.539   9
   7   0  -1 6035.80 698.885   8
   7   0   0 12214.1 771.207  28
   7   0   0 12362.0 964.017   8
   7   0   1 3952.51 454.342  28
   7   0   1 3047.93 390.381  16
   7   0   2 1228.94 274.445  28
   7   0   3 2143.50 347.650  28
   7   0   3 1333.17 262.242  19
   7   0   4 4027.05 439.084  28
   7   0   4 4029.13 426.524  19
   7   0   5 9296.07 588.824  19
   7   1  -8 183.863 134.299  20
   7   1  -7 4906.54 565.272  20
   7   1  -7 3949.69 485.532   8
   7   1  -6 99.6020 185.294  20
   7   1  -6-297.097 215.474   8
   7   1  -5 3404.86 520.593  20
   7   1  -5 2837.75 479.276   8
   7   1  -4 70.2109 236.972  20
   7   1  -4 143.729 166.312   9
   7   1  -4 312.629 262.903   8
   7   1  -3 717.480 257.597  21
   7   1  -3 662.854 298.896  20
   7   1  -3 171.434 179.013   9
   7   1  -3 535.731 319.611   8
   7   1  -2 7382.49 720.016  21
   7   1  -2 7280.53 672.889   9
   7   1  -2 7833.70 796.148   8
   7   1  -1 16675.6 927.038  28
   7   1  -1 16819.4 1038.76  21
   7   1  -1 18160.2 1044.73   9
   7   1  -1 19231.1 1210.09   8
   7   1   0 3105.35 412.011  28
   7   1   0 3126.45 452.135  21
   7   1   1 4068.33 482.869  28
   7   1   2 4288.14 490.613  28
   7   1   2 4623.93 483.557  19
   7   1   3 4267.23 476.806  28
   7   1   3 4119.66 446.572  19
   7   1   4 5029.93 488.850  28
   7   1   4 4668.46 459.543  19
   7   1   5 96.5848 94.3363  28
   7   2  -8 292.170 172.134  20
   7   2  -7 21877.7 1159.15  20
   7   2  -6 2607.51 462.408  20
   7   2  -6 2381.09 388.366   8
   7   2  -5 1004.51 248.582  21
   7   2  -5 671.524 250.065  20
   7   2  -5 668.536 280.779   8
   7   2  -4 18652.5 1054.07  21
   7   2  -4 18348.2 1155.50  20
   7   2  -4 17237.2 1054.42   9
   7   2  -4 15654.2 1016.26   8
   7   2  -3 6865.27 676.409  21
   7   2  -3 8399.12 779.882  20
   7   2  -3 7025.66 682.585   9
   7   2  -3 8310.36 770.331   8
   7   2  -2 10941.5 852.459  21
   7   2  -2 10601.8 844.710   9
   7   2  -1 1543.69 305.023  28
   7   2  -1 1840.09 379.459  21
   7   2  -1 1901.06 394.725   9
   7   2   0 1697.91 340.520  28
   7   2   0 1502.96 330.981  21
   7   2   1 78.8241 147.550  28
   7   2   1 346.420 182.477  21
   7   2   2 6.11354 152.626  28
   7   2   2 203.271 154.883  19
   7   2   3 789.304 207.818  28
   7   2   3 743.874 196.743  19
   7   2   4 65.1460 117.027  28
   7   2   4 18.0410 104.346  19
   7   3  -8 2744.83 378.058  20
   7   3  -7-29.9620 147.242  20
   7   3  -6-58.0724 197.513  20
   7   3  -5 8062.32 653.284  21
   7   3  -5 7613.48 706.279  20
   7   3  -5 6948.91 677.802   9
   7   3  -4 129.205 149.362  21
   7   3  -4 153.121 213.925   9
   7   3  -3 1972.29 379.798  21
   7   3  -3 2611.79 436.875  20
   7   3  -3 2091.43 413.301   9
   7   3  -2 21561.7 1166.28  21
   7   3  -2 21684.9 1191.06   9
   7   3  -1 5022.28 568.210  21
   7   3  -1 4534.61 567.656   9
   7   3   0 405.400 183.486  28
   7   3   0 570.329 217.493  21
   7   3   1 250.297 195.219  28
   7   3   1 290.870 135.262  21
   7   3   2 533.625 202.122  28
   7   3   2 377.750 172.802  19
   7   3   3 443.084 157.884  28
   7   3   3 663.845 180.525  19
   7   4  -7 72.7069 140.701  20
   7   4  -7-82.3523 115.413   9
   7   4  -6 49.0124 139.903  20
   7   4  -6-91.5137 139.541   9
   7   4  -5 2113.22 339.791  21
   7   4  -5 2477.92 376.301  20
   7   4  -5 1824.25 361.488   9
   7   4  -4 5615.26 559.354  21
   7   4  -4 6745.91 614.439  20
   7   4  -4 5829.96 605.813   9
   7   4  -3 4801.10 542.469  21
   7   4  -3 3846.33 493.468   9
   7   4  -2 2031.77 374.595  21
   7   4  -2 1793.64 350.655   9
   7   4  -1 1586.22 314.760  21
   7   4  -1 2005.71 359.817   9
   7   4   0 2526.04 376.270  28
   7   4   0 2510.11 351.433  21
   7   4   1 2067.44 326.343  28
   7   4   2 2038.68 292.446  28
   7   4   2 2224.09 296.628  19
   7   5  -6-2.30143 105.052   9
   7   5  -5 1767.00 278.873  21
   7   5  -5 1339.72 272.664   9
   7   5  -4 4912.04 487.356  21
   7   5  -4 5723.10 532.617   9
   7   5  -3 3182.73 407.188  21
   7   5  -3 3687.58 438.502   9
   7   5  -2 410.986 189.572  21
   7   5  -2 249.323 150.435   9
   7   5  -1 263.004 146.290  21
   7   5   0 482.899 178.886  28
   8  -5  -1 4744.41 362.701  17
   8  -5   0 8948.94 496.609  18
   8  -5   0 10097.2 541.670  17
   8  -5   1 642.474 157.928  18
   8  -5   1 882.388 175.196  17
   8  -4  -4 13545.0 809.304   8
   8  -4  -3 6135.90 555.892   8
   8  -4  -2 2524.67 296.012  17
   8  -4  -1 5260.76 427.047  18
   8  -4  -1 4960.86 432.325  17
   8  -4   0 626.560 169.996  18
   8  -4   0 1112.83 234.362  17
   8  -4   1 96.3962 117.190  18
   8  -4   1 222.699 144.597  17
   8  -4   2 87.5995 99.9165  22
   8  -4   2-42.2386 119.480  18
   8  -4   2 0.43426 98.1550  17
   8  -3  -6 2297.31 348.877   8
   8  -3  -5 3167.86 412.586  23
   8  -3  -5 3839.69 477.756   8
   8  -3  -4 558.477 243.814   8
   8  -3  -3 2672.68 429.059   8
   8  -3  -3 3254.37 367.765  16
   8  -3  -2 1720.31 352.507   8
   8  -3  -2 1622.81 280.414  16
   8  -3  -1 4561.43 454.136  17
   8  -3  -1 5288.64 474.302  16
   8  -3   0 138.210 152.878  17
   8  -3   0 230.663 159.114  16
   8  -3   1 8774.86 608.916  18
   8  -3   1 8636.82 595.116  17
   8  -3   2 9442.53 602.910  18
   8  -3   2 9352.51 581.457  17
   8  -3   3 5405.91 426.259  18
   8  -3   3 5389.88 405.733  17
   8  -2  -6 1586.09 320.536  23
   8  -2  -6 1138.32 290.130   8
   8  -2  -5 856.530 251.381  23
   8  -2  -5 885.798 288.614   8
   8  -2  -4 15961.9 1037.10   8
   8  -2  -4 18765.3 830.732  16
   8  -2  -3 2331.96 428.676   8
   8  -2  -3 3051.70 377.625  16
   8  -2  -2 11880.6 895.333   8
   8  -2  -2 11275.9 719.943  16
   8  -2  -1-112.878 194.804   8
   8  -2  -1-58.0328 159.706  16
   8  -2   0 248.896 167.388  16
   8  -2   1 1280.61 254.904  17
   8  -2   1 1189.98 235.063  16
   8  -2   2 332.996 160.367  18
   8  -2   2 330.056 160.196  17
   8  -2   3 375.117 148.150  18
   8  -2   3 336.336 125.759  17
   8  -1  -7 48.2687 135.056   8
   8  -1  -6 86.8663 154.211  23
   8  -1  -6 17.8516 149.643   8
   8  -1  -5 16339.9 983.810  23
   8  -1  -5 17761.1 1054.24   8
   8  -1  -5 20009.6 811.639  16
   8  -1  -4 1695.68 385.741   8
   8  -1  -4 1697.38 292.745  16
   8  -1  -3 590.238 317.006   8
   8  -1  -3 531.236 207.605  16
   8  -1  -2 2632.58 460.217   8
   8  -1  -2 2110.50 340.364  16
   8  -1  -1 7332.97 727.450   8
   8  -1  -1 7534.71 605.343  16
   8  -1   0 4184.47 440.620  16
   8  -1   1-71.4088 133.251  17
   8  -1   1 19.6583 107.610  16
   8  -1   2 2232.26 306.727  18
   8  -1   2 2019.82 280.887  17
   8  -1   3 124.226 81.3278  18
   8   0  -7 61.1223 115.812   8
   8   0  -6 1232.48 295.983   8
   8   0  -5 2416.99 427.511   8
   8   0  -5 2335.74 306.382  16
   8   0  -4 1005.00 309.880   8
   8   0  -4 1161.65 247.880  16
   8   0  -3-11.1211 240.449   8
   8   0  -3 58.3650 170.820  16
   8   0  -2 2927.93 493.986   8
   8   0  -2 3513.88 442.616  16
   8   0  -1 1294.51 283.144  16
   8   0   0 2797.48 378.018  16
   8   0   1 544.035 166.057  28
   8   0   1 323.674 126.966  17
   8   0   1 89.5921 84.8446  16
   8   0   2 2600.75 325.979  28
   8   0   2 2465.99 293.783  18
   8   0   3 518.637 157.562  28
   8   1  -7-4.36606 80.8806  20
   8   1  -6 6875.03 605.077  20
   8   1  -6 5489.83 527.650   8
   8   1  -5 839.313 262.078  20
   8   1  -5 909.671 278.677   8
   8   1  -5 842.363 191.290  16
   8   1  -4 876.838 301.145   8
   8   1  -4 226.272 137.137  16
   8   1  -3 556.956 187.075   9
   8   1  -3 116.417 227.666   8
   8   1  -3 195.019 158.614  16
   8   1  -2 2125.32 347.905   9
   8   1  -2 2083.18 344.690  16
   8   1  -1 17.5125 134.023  16
   8   1   0 171.232 123.356  28
   8   1   0-165.251 163.073  16
   8   1   1 1008.67 224.369  28
   8   1   1 798.696 180.318  16
   8   1   2 2855.99 342.131  28
   8   2  -6 3760.44 447.056  20
   8   2  -6 3366.73 384.624   9
   8   2  -5 1964.40 353.793  20
   8   2  -5 2318.06 351.541   9
   8   2  -5 2049.00 342.908   8
   8   2  -5 2060.51 281.856  16
   8   2  -4 7819.10 635.718   9
   8   2  -3 881.453 249.288   9
   8   2  -2 479.678 207.046   9
   8   2  -1 1237.31 244.561  28
   8   2   0 157.588 113.505  28
   8   2   0 212.559 126.582  16
   8   2   1-259.336 138.390  28
   8   2   2 8016.54 534.173  28
   8   3  -5 1847.36 308.415   9
   8   3  -4 401.391 170.253   9
   8   3  -3 265.031 161.381  21
   8   3  -3 449.688 197.665   9
   8   3  -2 493.079 159.578  28
   8   3  -2 702.791 206.621  21
   8   3  -2 672.726 214.630   9
   8   3  -1 4155.80 408.629  28
   8   3   0 15886.3 773.681  28
   8   4  -4 659.495 189.609   9
   8   4  -3-101.238 117.529  21
   8   4  -3 35.7601 129.888   9
   8   4  -2 6353.12 498.599  21
   9  -2  -3 415.583 134.214  16
   9  -2  -2 134.375 114.223  17
   9  -2  -2 58.4486 101.415  16
   9  -2  -1 637.985 165.741  17
   9  -2  -1 991.813 192.314  16
   9  -1  -4 572.438 217.668   8
   9  -1  -3 92.6563 146.972   8
   9  -1  -3 96.8697 92.0682  16
   9  -1  -2 133.681 112.126  16
   9  -1  -1 5791.35 437.749  17
   9  -1  -1 5864.94 434.017  16
   9   0  -3 46.1933 95.8445  16
   9   0  -2 3007.30 325.274  16
   9   0  -1 1655.05 241.099  16
   0   0   0    0.00    0.00   0
TITL LGQ-FYC- M-3 in P-1
REM P-1 (#2 in standard setting)
CELL 1.54184   7.945707   8.718989   9.996360 100.2537 100.0360  94.7601
ZERR    3.00   0.000734   0.000873   0.000980   0.0083   0.0080   0.0079
LATT  1
SFAC C H N O
UNIT 33.00 30.00 3.00 3.00
TREF
HKLF 4
END
;
loop_
_space_group_symop_operation_xyz
'x, y, z'
'-x, -y, -z'
loop_
_atom_site_label
_atom_site_type_symbol
_atom_site_fract_x
_atom_site_fract_y
_atom_site_fract_z
_atom_site_U_iso_or_equiv
_atom_site_adp_type
_atom_site_occupancy
_atom_site_site_symmetry_order
_atom_site_calc_flag
_atom_site_refinement_flags_posn
_atom_site_refinement_flags_adp
_atom_site_refinement_flags_occupancy
_atom_site_disorder_assembly
_atom_site_disorder_group
O1 O 0.2853(3) -0.0576(2) -0.36828(15) 0.0879(6) Uani 1 1 d . . . . .
O2 O 0.1968(2) 0.13506(19) -0.23470(15) 0.0832(5) Uani 1 1 d . . . . .
O3 O 0.1965(3) 0.13901(18) 0.25536(14) 0.0884(6) Uani 1 1 d . . . . .
O4 O 0.27762(19) 0.46201(19) 0.51114(14) 0.0700(4) Uani 1 1 d . . . . .
H4 H 0.394(5) 0.484(5) 0.563(4) 0.161(14) Uiso 1 1 d . . . . .
O5 O 0.40732(17) 0.49284(18) 0.33690(14) 0.0664(4) Uani 1 1 d . . . . .
N1 N 0.19438(18) 0.11165(15) 0.02634(14) 0.0452(4) Uani 1 1 d . . . . .
H1 H 0.1655 0.1568 -0.0427 0.054 Uiso 1 1 calc R . . . .
C1 C 0.2869(2) -0.0849(2) -0.14020(17) 0.0448(4) Uani 1 1 d . . . . .
C2 C 0.26012(19) -0.03218(18) -0.00531(17) 0.0412(4) Uani 1 1 d . . . . .
C3 C 0.3020(2) -0.1243(2) 0.09368(18) 0.0490(4) Uani 1 1 d . . . . .
H3 H 0.2846 -0.0914 0.1834 0.059 Uiso 1 1 calc R . . . .
C4 C 0.3691(2) -0.2636(2) 0.0594(2) 0.0544(5) Uani 1 1 d . . . . .
H4A H 0.3974 -0.3232 0.1267 0.065 Uiso 1 1 calc R . . . .
C5 C 0.3946(2) -0.3157(2) -0.0724(2) 0.0579(5) Uani 1 1 d . . . . .
H5 H 0.4390 -0.4103 -0.0947 0.070 Uiso 1 1 calc R . . . .
C6 C 0.3538(2) -0.2266(2) -0.1711(2) 0.0542(5) Uani 1 1 d . . . . .
H6 H 0.3713 -0.2618 -0.2605 0.065 Uiso 1 1 calc R . . . .
C7 C 0.2502(2) 0.0096(2) -0.24936(19) 0.0539(5) Uani 1 1 d . . . . .
C8 C 0.2589(5) 0.0282(4) -0.4805(3) 0.1086(11) Uani 1 1 d . . . . .
H8A H 0.2872 -0.0323 -0.5619 0.163 Uiso 1 1 calc GR . . . .
H8B H 0.3313 0.1266 -0.4542 0.163 Uiso 1 1 calc GR . . . .
H8C H 0.1406 0.0471 -0.4996 0.163 Uiso 1 1 calc GR . . . .
C9 C 0.1701(2) 0.1891(2) 0.14937(17) 0.0473(4) Uani 1 1 d . . . . .
C10 C 0.1076(2) 0.3475(2) 0.14634(18) 0.0488(4) Uani 1 1 d . . . . .
H10A H -0.0062 0.3335 0.0885 0.059 Uiso 1 1 calc R . . . .
H10B H 0.1842 0.4096 0.1054 0.059 Uiso 1 1 calc R . . . .
C11 C 0.1002(2) 0.4355(2) 0.29040(19) 0.0506(4) Uani 1 1 d . . . . .
H11 H 0.0240 0.3710 0.3312 0.061 Uiso 1 1 calc R . . . .
C12 C 0.2758(2) 0.4640(2) 0.38131(18) 0.0503(4) Uani 1 1 d . . . . .
C13 C 0.0291(3) 0.5926(2) 0.2852(2) 0.0688(6) Uani 1 1 d . . . . .
H13A H 0.1050 0.6587 0.2488 0.103 Uiso 1 1 calc GR . . . .
H13B H 0.0205 0.6428 0.3770 0.103 Uiso 1 1 calc GR . . . .
H13C H -0.0828 0.5747 0.2266 0.103 Uiso 1 1 calc GR . . . .
loop_
_atom_site_aniso_label
_atom_site_aniso_U_11
_atom_site_aniso_U_22
_atom_site_aniso_U_33
_atom_site_aniso_U_23
_atom_site_aniso_U_13
_atom_site_aniso_U_12
O1 0.1440(15) 0.0907(12) 0.0459(8) 0.0252(8) 0.0343(9) 0.0510(11)
O2 0.1339(14) 0.0775(11) 0.0559(9) 0.0313(8) 0.0280(9) 0.0544(10)
O3 0.1639(17) 0.0712(10) 0.0430(8) 0.0202(7) 0.0270(9) 0.0525(10)
O4 0.0658(9) 0.0972(11) 0.0431(8) 0.0048(7) 0.0115(6) 0.0044(8)
O5 0.0573(8) 0.0918(11) 0.0467(8) 0.0080(7) 0.0091(6) 0.0030(7)
N1 0.0572(8) 0.0414(8) 0.0377(8) 0.0104(6) 0.0056(6) 0.0116(6)
C1 0.0455(9) 0.0456(9) 0.0434(9) 0.0103(7) 0.0062(7) 0.0070(7)
C2 0.0409(8) 0.0385(8) 0.0427(9) 0.0091(7) 0.0031(7) 0.0036(6)
C3 0.0579(10) 0.0459(10) 0.0436(10) 0.0126(8) 0.0067(8) 0.0064(8)
C4 0.0591(11) 0.0478(10) 0.0593(12) 0.0221(9) 0.0055(9) 0.0104(8)
C5 0.0622(11) 0.0461(10) 0.0701(13) 0.0151(9) 0.0154(9) 0.0194(8)
C6 0.0603(11) 0.0529(11) 0.0520(11) 0.0085(8) 0.0149(8) 0.0159(8)
C7 0.0639(11) 0.0583(11) 0.0431(10) 0.0142(8) 0.0110(8) 0.0169(9)
C8 0.167(3) 0.128(2) 0.0548(15) 0.0460(15) 0.0402(17) 0.056(2)
C9 0.0556(10) 0.0445(9) 0.0401(9) 0.0077(7) 0.0049(7) 0.0064(7)
C10 0.0538(10) 0.0449(10) 0.0449(10) 0.0075(7) 0.0021(8) 0.0085(8)
C11 0.0534(10) 0.0479(10) 0.0504(10) 0.0067(8) 0.0110(8) 0.0098(8)
C12 0.0586(11) 0.0473(10) 0.0432(10) -0.0002(8) 0.0128(8) 0.0088(8)
C13 0.0756(13) 0.0560(12) 0.0781(15) 0.0089(10) 0.0214(11) 0.0218(10)
loop_
_atom_type_symbol
_atom_type_description
_atom_type_scat_dispersion_real
_atom_type_scat_dispersion_imag
_atom_type_scat_source
C C 0.0181 0.0091 'International Tables Vol C Tables 4.2.6.8 and 6.1.1.4'
H H 0.0000 0.0000 'International Tables Vol C Tables 4.2.6.8 and 6.1.1.4'
N N 0.0311 0.0180 'International Tables Vol C Tables 4.2.6.8 and 6.1.1.4'
O O 0.0492 0.0322 'International Tables Vol C Tables 4.2.6.8 and 6.1.1.4'
loop_
_geom_angle_atom_site_label_1
_geom_angle_atom_site_label_2
_geom_angle_atom_site_label_3
_geom_angle
_geom_angle_site_symmetry_1
_geom_angle_site_symmetry_3
C7 O1 C8 116.81(18) . .
C9 N1 C2 129.23(14) . .
C2 C1 C7 121.39(15) . .
C6 C1 C2 119.22(15) . .
C6 C1 C7 119.37(16) . .
C1 C2 N1 119.28(14) . .
C3 C2 N1 122.11(15) . .
C3 C2 C1 118.61(15) . .
C4 C3 C2 120.48(17) . .
C5 C4 C3 121.02(16) . .
C4 C5 C6 119.24(17) . .
C5 C6 C1 121.42(18) . .
O1 C7 C1 112.66(16) . .
O2 C7 O1 121.66(17) . .
O2 C7 C1 125.67(17) . .
O3 C9 N1 123.93(16) . .
O3 C9 C10 121.44(16) . .
N1 C9 C10 114.63(14) . .
C9 C10 C11 111.95(14) . .
C10 C11 C13 111.42(16) . .
C12 C11 C10 110.54(14) . .
C12 C11 C13 109.30(15) . .
O4 C12 C11 115.01(16) . .
O5 C12 O4 122.58(17) . .
O5 C12 C11 122.36(16) . .
loop_
_geom_bond_atom_site_label_1
_geom_bond_atom_site_label_2
_geom_bond_distance
_geom_bond_site_symmetry_2
O1 C7 1.315(2) .
O1 C8 1.451(3) .
O2 C7 1.199(2) .
O3 C9 1.208(2) .
O4 C12 1.299(2) .
O5 C12 1.229(2) .
N1 C2 1.404(2) .
N1 C9 1.347(2) .
C1 C2 1.404(2) .
C1 C6 1.391(2) .
C1 C7 1.485(2) .
C2 C3 1.395(2) .
C3 C4 1.378(3) .
C4 C5 1.370(3) .
C5 C6 1.373(3) .
C9 C10 1.510(2) .
C10 C11 1.520(2) .
C11 C12 1.502(3) .
C11 C13 1.530(3) .
