#------------------------------------------------------------------------------
#$Date: 2022-05-09 11:34:02 +0300 (Mon, 09 May 2022) $
#$Revision: 275270 $
#$URL: file:///home/coder/svn-repositories/cod/cif/8/10/51/8105183.cif $
#------------------------------------------------------------------------------
#
# This file is available in the Crystallography Open Database (COD),
# http://www.crystallography.net/
#
# All data on this site have been placed in the public domain by the
# contributors.
#
data_8105183
loop_
_publ_author_name
'Wang, Yin-Xin'
'Qin, Kun'
'Wang, Rui'
'Zhang, Wen-Li'
'Zhong, Qi-Di'
_publ_section_title
;
 Crystal structure of (E)-1-(4-benzyl-3,5-dioxomorpholin-2-ylidene)ethyl
 acetate, C15H15N1O5
;
_journal_issue                   2
_journal_name_full
'Zeitschrift f\"ur Kristallographie - New Crystal Structures'
_journal_page_first              217
_journal_page_last               218
_journal_paper_doi               10.1515/ncrs-2021-0450
_journal_volume                  237
_journal_year                    2022
_chemical_formula_sum            'C15 H15 N O5'
_chemical_formula_weight         289.28
_space_group_crystal_system      triclinic
_space_group_IT_number           2
_space_group_name_Hall           '-P 1'
_space_group_name_H-M_alt        'P -1'
_atom_sites_solution_hydrogens   geom
_cell_angle_alpha                106.064(10)
_cell_angle_beta                 96.091(11)
_cell_angle_gamma                98.189(10)
_cell_formula_units_Z            2
_cell_length_a                   5.075(4)
_cell_length_b                   11.147(8)
_cell_length_c                   13.319(9)
_cell_measurement_reflns_used    1547
_cell_measurement_temperature    296(2)
_cell_measurement_theta_max      25.89
_cell_measurement_theta_min      2.86
_cell_volume                     708.2(9)
_computing_structure_refinement  'SHELXL-2016/6 (Sheldrick, 2016)'
_computing_structure_solution    'SHELXS 2014/5 (Sheldrick, 2014)'
_diffrn_ambient_temperature      296(2)
_diffrn_measured_fraction_theta_full 0.984
_diffrn_measured_fraction_theta_max 0.975
_diffrn_measurement_device_type  'Bruker APEX-II CCD'
_diffrn_measurement_method       '\f and \w scans'
_diffrn_radiation_type           MoK\a
_diffrn_radiation_wavelength     0.71073
_diffrn_reflns_av_R_equivalents  0.0155
_diffrn_reflns_av_unetI/netI     0.0313
_diffrn_reflns_Laue_measured_fraction_full 0.984
_diffrn_reflns_Laue_measured_fraction_max 0.975
_diffrn_reflns_limit_h_max       5
_diffrn_reflns_limit_h_min       -6
_diffrn_reflns_limit_k_max       14
_diffrn_reflns_limit_k_min       -11
_diffrn_reflns_limit_l_max       16
_diffrn_reflns_limit_l_min       -16
_diffrn_reflns_number            4176
_diffrn_reflns_point_group_measured_fraction_full 0.984
_diffrn_reflns_point_group_measured_fraction_max 0.975
_diffrn_reflns_theta_full        25.242
_diffrn_reflns_theta_max         26.743
_diffrn_reflns_theta_min         1.610
_exptl_absorpt_coefficient_mu    0.103
_exptl_crystal_colour            colourless
_exptl_crystal_density_diffrn    1.357
_exptl_crystal_description       block
_exptl_crystal_F_000             304
_exptl_crystal_size_max          0.180
_exptl_crystal_size_mid          0.160
_exptl_crystal_size_min          0.150
_refine_diff_density_max         0.162
_refine_diff_density_min         -0.176
_refine_diff_density_rms         0.038
_refine_ls_extinction_coef       .
_refine_ls_extinction_method     none
_refine_ls_goodness_of_fit_ref   1.030
_refine_ls_hydrogen_treatment    constr
_refine_ls_matrix_type           full
_refine_ls_number_parameters     192
_refine_ls_number_reflns         2944
_refine_ls_number_restraints     0
_refine_ls_restrained_S_all      1.030
_refine_ls_R_factor_all          0.0611
_refine_ls_R_factor_gt           0.0444
_refine_ls_shift/su_max          0.000
_refine_ls_shift/su_mean         0.000
_refine_ls_structure_factor_coef Fsqd
_refine_ls_weighting_details
'w=1/[\s^2^(Fo^2^)+(0.1000P)^2^] where P=(Fo^2^+2Fc^2^)/3'
_refine_ls_weighting_scheme      calc
_refine_ls_wR_factor_gt          0.1403
_refine_ls_wR_factor_ref         0.1581
_reflns_Friedel_coverage         0.000
_reflns_Friedel_fraction_full    .
_reflns_Friedel_fraction_max     .
_reflns_number_gt                2137
_reflns_number_total             2944
_reflns_threshold_expression     'I > 2\s(I)'
_cod_data_source_file            suppl_j_ncrs-2021-0450_suppl.cif
_cod_data_source_block           202111101_0m
_cod_database_code               8105183
_shelx_space_group_comment
; 
The symmetry employed for this shelxl refinement is uniquely defined 
by the following loop, which should always be used as a source of 
symmetry information in preference to the above space-group names. 
They are only intended as comments. 
;
_shelx_estimated_absorpt_t_min   0.982
_shelx_estimated_absorpt_t_max   0.985
_shelx_res_file
; 
TITL 123 in P-1 
    202111101_0m.res 
    created by SHELXL-2016/6 at 16:33:38 on 10-Nov-2021
CELL 0.71073 5.0745 11.1474 13.3185 106.064 96.091 98.189
ZERR 2.00 0.0035 0.0080 0.0094 0.010 0.011 0.010
LATT 1
SFAC C H N O
UNIT 30 30 2 10
LIST 4! automatically inserted. Change 6 to 4 for CHECKCIF!!
TEMP 23.000
ACTA
L.S. 40
FMAP 2
PLAN -4 0 0.00
size  0.18 0.16 0.15
HTAB
BOND $H
CONF
WGHT    0.100000
FVAR       1.04307 
O1    4    0.275770    0.257632    0.773118    11.00000    0.04584    0.05470 =
         0.04702    0.01150    0.00857    0.01596
O2    4    0.555702    0.197196    0.883940    11.00000    0.06614    0.07203 =
         0.06254    0.02616    0.00610    0.02614
O3    4    0.746207    0.220414    0.586373    11.00000    0.06931    0.04016 =
         0.05168    0.00694    0.02360    0.00990
O4    4    0.694352    0.455836    0.824027    11.00000    0.07846    0.04298 =
         0.05229    0.00183    0.01839    0.00799
O5    4    1.236729    0.472102    0.576813    11.00000    0.06172    0.07617 =
         0.07616    0.02985    0.02050    0.00176
N1    3    0.977374    0.465016    0.705091    11.00000    0.04854    0.03740 =
         0.05024    0.01178    0.00498    0.00891
C1    1    1.158213    0.812082    0.859849    11.00000    0.07979    0.04875 =
         0.05327    0.00996   -0.00164   -0.00701
AFIX  43
H1    2    1.300609    0.810195    0.909143    11.00000   -1.20000
AFIX   0
C2    1    1.068205    0.925280    0.865002    11.00000    0.10522    0.03971 =
         0.06710    0.00009    0.01813   -0.00423
AFIX  43
H2    2    1.150879    0.998838    0.917953    11.00000   -1.20000
AFIX   0
C3    1    0.858974    0.929775    0.792939    11.00000    0.08761    0.04265 =
         0.09445    0.01348    0.02986    0.01871
AFIX  43
H3    2    0.798946    1.005732    0.796849    11.00000   -1.20000
AFIX   0
C4    1    0.739432    0.821091    0.715138    11.00000    0.06551    0.05549 =
         0.09590    0.01959    0.00438    0.02003
AFIX  43
H4    2    0.598107    0.823635    0.665680    11.00000   -1.20000
AFIX   0
C5    1    0.825891    0.707690    0.709103    11.00000    0.04990    0.04086 =
         0.05988    0.00507    0.00201    0.00792
AFIX  43
H5    2    0.741517    0.634717    0.655869    11.00000   -1.20000
AFIX   0
C6    1    1.035455    0.701372    0.780934    11.00000    0.04485    0.03831 =
         0.04224    0.01009    0.01098    0.00062
C7    1    1.141425    0.581403    0.779885    11.00000    0.04786    0.04546 =
         0.05867    0.01299   -0.00504    0.00359
AFIX  23
H7A   2    1.322547    0.589932    0.762390    11.00000   -1.20000
H7B   2    1.152946    0.572299    0.850493    11.00000   -1.20000
AFIX   0
C8    1    1.042835    0.420217    0.605095    11.00000    0.05411    0.04890 =
         0.05746    0.02108    0.01204    0.01384
C9    1    0.852423    0.306359    0.532497    11.00000    0.07774    0.05479 =
         0.04888    0.01143    0.01929    0.00170
AFIX  23
H9A   2    0.704602    0.334445    0.498345    11.00000   -1.20000
H9B   2    0.946114    0.262111    0.477833    11.00000   -1.20000
AFIX   0
C10   1    0.624459    0.276950    0.670695    11.00000    0.05214    0.03686 =
         0.04031    0.00860    0.00899    0.01410
C11   1    0.758854    0.404655    0.739863    11.00000    0.05056    0.03659 =
         0.04484    0.01159    0.00702    0.01193
C12   1    0.408381    0.207373    0.689403    11.00000    0.04722    0.04379 =
         0.04270    0.01084    0.00669    0.01295
C13   1    0.284482    0.075318    0.624709    11.00000    0.06419    0.04803 =
         0.06851    0.00359    0.01315    0.00026
AFIX 137
H13A  2    0.363514    0.053300    0.561203    11.00000   -1.50000
H13B  2    0.094045    0.070013    0.606696    11.00000   -1.50000
H13C  2    0.316132    0.017634    0.664583    11.00000   -1.50000
AFIX   0
C14   1    0.374127    0.251062    0.870999    11.00000    0.04508    0.04251 =
         0.04667    0.01199    0.00352    0.00031
C15   1    0.225156    0.317254    0.952807    11.00000    0.06553    0.07628 =
         0.05215    0.00901    0.01640    0.01179
AFIX 137
H15A  2    0.285295    0.304005    1.019070    11.00000   -1.50000
H15B  2    0.035783    0.284220    0.932244    11.00000   -1.50000
H15C  2    0.257792    0.406457    0.960155    11.00000   -1.50000
AFIX   0
HKLF 4 1 1 0 0 0 1 0 0 0 1 
  
  
  
  
REM  202111101_0m_a.res in P-1
REM R1 =  0.0444 for    2137 Fo > 4sig(Fo)  and  0.0611 for all    2944 data
REM    192 parameters refined using      0 restraints

END

WGHT      0.0772      0.0549

REM Instructions for potential hydrogen bonds
EQIV $1 -x+2, -y+1, -z+1
HTAB C9 O5_$1
EQIV $2 x-1, y, z
HTAB C13 O3_$2
HTAB C15 O2_$2

REM Highest difference peak  0.162,  deepest hole -0.176,  1-sigma level  0.038
Q1    1   1.0354  0.5145  0.7449  11.00000  0.05    0.16
Q2    1   0.4752  0.2746  0.6578  11.00000  0.05    0.15
Q3    1   0.4562  0.0295  0.6010  11.00000  0.05    0.15
Q4    1   0.2693  0.0707  0.5477  11.00000  0.05    0.15 
;
_shelx_hkl_file
; 
  -1   0   0  747.23   13.80
   1   0   0  733.13   13.80
  -2   0   0 1682.43   31.10
   2   0   0 1680.13   31.00
  -3   0   0   48.40    2.00
   3   0   0   46.80    1.90
  -4   0   0   48.80    2.30
  -4   0   0   52.29    2.40
  -5   0   0   15.70    1.70
  -6   0   0    1.50    0.90
  -6   1   0    1.50    0.90
  -5   1   0    5.10    1.20
  -5   1   0    5.70    1.10
  -4   1   0   29.50    1.90
   3  -1   0  337.47    7.20
  -3   1   0  340.07    7.80
   2  -1   0    4.00    0.40
  -2   1   0    4.20    0.60
  -1   1   0  204.58    4.30
  -1   1   0  201.78    3.90
   0   1   0 1486.45   27.40
  -1  -1   0  722.23   13.60
   1   1   0  748.73   14.00
  -2  -1   0  334.77    6.90
  -2  -1   0  335.07    7.00
  -3  -1   0   11.40    0.90
  -3  -1   0   12.20    0.90
   3   1   0   10.80    1.00
  -4  -1   0   41.80    2.10
   4   1   0   41.90    2.20
  -5  -1   0    7.30    1.20
  -6  -1   0    1.40    0.80
  -6   2   0    2.30    1.00
  -5   2   0   24.30    2.00
  -4   2   0   55.59    2.70
  -3   2   0    4.40    0.80
  -3   2   0    5.00    0.50
  -2   2   0    8.00    0.90
  -2   2   0   11.20    0.50
  -1   2   0 2978.40   53.59
  -1   2   0 2914.81   54.29
   0   2   0 1630.74   26.30
   0   2   0 1210.58   25.80
  -1  -2   0  227.58    4.50
   1   2   0  220.28    5.10
  -2  -2   0  109.59    2.80
  -2  -2   0  106.79    2.60
   2   2   0  109.49    3.30
  -3  -2   0   12.10    0.80
  -3  -2   0   12.40    1.00
   3   2   0   12.50    1.40
  -4  -2   0    0.60    0.50
   4   2   0    0.70    0.60
  -5  -2   0    2.70    0.90
  -6  -2   0    4.00    1.10
  -5   3   0    4.30    1.10
  -4   3   0   36.00    2.30
  -3   3   0    0.50    0.20
  -3   3   0    0.30    0.40
  -2   3   0   22.40    0.90
  -2   3   0   20.50    1.30
  -1   3   0  107.79    2.90
  -1   3   0  107.59    2.70
   0   3   0  410.06    8.60
   0   3   0  424.86    8.10
  -1  -3   0  563.24   10.50
   1   3   0  538.65   11.40
   1   3   0  558.44   10.10
  -2  -3   0    7.00    0.70
  -2  -3   0    7.00    0.40
  -3  -3   0   16.20    1.10
   3   3   0   18.40    1.50
  -4  -3   0   15.10    1.50
   4   3   0   16.50    1.90
  -5  -3   0    3.10    0.90
  -6   4   0   11.60    2.00
  -5   4   0    1.10    0.90
  -4   4   0   11.30    1.60
  -3   4   0    1.60    0.40
  -3   4   0    1.30    0.60
  -2   4   0   21.40    1.00
  -2   4   0   20.90    1.40
  -1   4   0  471.05    9.70
  -1   4   0  455.35    9.40
   0   4   0 1958.70   36.90
   0   4   0 1986.70   36.10
  -1  -4   0 1326.07   24.50
   1   4   0 1318.47   25.80
   1   4   0 1346.77   24.30
  -2  -4   0   87.69    2.50
   2   4   0   86.39    3.40
  -3  -4   0  229.38    5.50
   3   4   0  223.28    6.60
  -4  -4   0   15.90    1.60
   4   4   0   18.30    2.10
  -5  -4   0   14.30    1.60
  -6   5   0   14.40    2.20
  -5   5   0    0.40    0.80
  -4   5   0    0.00    0.70
  -3   5   0   23.10    1.80
  -2   5   0    0.50    0.30
  -2   5   0   -0.10    0.40
  -1   5   0  297.27    6.80
  -1   5   0  298.77    6.80
   0   5   0    0.40    0.30
   0   5   0    0.10    0.40
  -1  -5   0  317.17    6.50
   1   5   0  308.07    7.80
   1   5   0  312.57    6.00
  -2  -5   0    0.40    0.30
   2   5   0   -0.40    0.40
  -3  -5   0    7.40    0.90
   3   5   0    9.50    1.60
  -4  -5   0   -0.20    0.50
   4   5   0    0.70    0.80
  -5  -5   0   -0.20    0.70
  -6   6   0    4.90    1.50
  -5   6   0    0.30    0.70
  -4   6   0   78.99    3.80
  -3   6   0   22.30    1.80
  -2   6   0    2.80    0.70
  -2   6   0    2.40    0.60
  -1   6   0   73.59    2.60
  -1   6   0   71.69    2.70
   0   6   0  455.25    9.40
   0   6   0  469.95   10.60
  -1  -6   0    1.90    0.50
   1   6   0    1.70    0.30
   1   6   0    2.20    0.70
  -2  -6   0   72.99    2.40
   2   6   0   67.49    3.40
  -3  -6   0  153.38    4.40
   3   6   0  163.98    5.90
  -4  -6   0    9.10    1.30
   4   6   0    7.80    1.70
  -5  -6   0    2.70    1.00
  -5   7   0    0.50    0.90
  -4   7   0   39.60    2.70
  -3   7   0   26.80    2.10
  -2   7   0   15.80    1.40
  -2   7   0   15.70    1.30
  -1   7   0   51.79    2.50
  -1   7   0   53.19    2.30
   0   7   0    0.20    0.30
   0   7   0   -0.30    0.40
   1   7   0   46.20    2.70
  -2  -7   0   -0.50    0.50
   2   7   0   -0.80    0.60
  -3  -7   0   34.00    1.90
   3   7   0   34.60    2.80
  -4  -7   0    2.70    0.90
   4   7   0    4.50    1.60
  -5   8   0    1.30    1.10
  -4   8   0   14.80    2.10
  -3   8   0    7.10    1.40
  -2   8   0    1.30    0.60
  -2   8   0    1.60    0.70
  -1   8   0   77.39    3.30
  -1   8   0   78.09    2.90
   0   8   0  440.36   11.10
   0   8   0  459.25    9.60
   1   8   0   72.19    3.60
  -2  -8   0    2.20    0.70
   2   8   0    1.20    0.90
  -3  -8   0   16.60    1.60
   3   8   0   18.80    2.60
   4   8   0    3.10    1.40
  -5   9   0    1.20    1.10
  -4   9   0   -0.50    0.80
  -3   9   0    0.80    0.90
  -2   9   0    4.00    1.10
  -2   9   0    2.20    0.80
  -1   9   0    9.10    1.50
  -1   9   0    8.60    1.20
   0   9   0    5.90    1.30
   1   9   0   39.80    2.90
  -2  -9   0    3.50    0.90
   2   9   0    4.10    1.40
   3   9   0    0.70    0.90
  -5  10   0    8.20    2.00
  -4  10   0    2.00    1.20
  -3  10   0    7.90    1.60
  -2  10   0    5.00    1.20
  -2  10   0    4.40    1.10
  -1  10   0   21.00    2.00
  -1  10   0   10.70    1.40
   0  10   0   27.60    2.40
   1  10   0   61.89    3.80
   2  10   0    2.10    1.30
   3  10   0   90.09    5.30
  -4  11   0   13.50    2.20
  -3  11   0   17.70    2.30
  -2  11   0    1.70    0.90
  -1  11   0   49.80    3.20
   0  11   0   10.40    1.90
   1  11   0    2.80    1.30
   2  11   0    0.60    1.10
  -3  12   0    9.10    1.80
  -1  12   0    1.10    1.00
   0  12   0    0.20    1.10
   1  12   0    1.10    1.10
  -1  13   0   20.80    2.80
   0  13   0    5.20    1.60
   1  13  -1    0.40    1.10
   0  13  -1    5.40    1.70
  -1  13  -1   26.90    3.10
  -3  13  -1    8.90    1.80
   2  12  -1    5.30    1.80
   1  12  -1    1.30    1.10
   0  12  -1    6.10    1.70
  -1  12  -1   11.90    2.00
  -2  12  -1   28.90    2.50
  -3  12  -1    1.00    0.90
  -4  12  -1   11.20    2.10
   2  11  -1   22.50    3.10
   1  11  -1    1.80    1.20
   0  11  -1    2.10    1.10
  -1  11  -1    0.00    0.80
  -2  11  -1    5.30    1.30
  -2  11  -1    4.50    1.20
  -3  11  -1   11.40    1.90
  -4  11  -1   11.90    2.20
   3  10  -1    3.50    1.50
  -3 -10   1    2.70    1.10
   2  10  -1    0.10    0.90
   1  10  -1   27.10    2.70
   0  10  -1   13.00    1.90
  -1  10  -1   -0.20    0.30
  -1  10  -1    0.70    0.80
  -2  10  -1   36.30    2.50
  -2  10  -1   30.50    2.30
  -3  10  -1    1.80    1.00
  -4  10  -1    2.90    1.20
  -5  10  -1    1.50    1.20
   4   9  -1    0.40    1.20
  -4  -9   1    1.40    1.20
   3   9  -1   24.50    3.00
  -3  -9   1   23.50    2.00
   2   9  -1    0.80    1.00
  -2  -9   1    1.90    0.80
   1   9  -1  124.29    5.20
   0   9  -1  200.18    6.60
  -1   9  -1   75.29    3.00
  -1   9  -1   72.49    3.50
  -2   9  -1    0.90    0.60
  -2   9  -1    0.00    0.50
  -3   9  -1   39.50    2.70
  -4   9  -1   10.30    1.90
  -5   9  -1    0.30    1.00
   4   8  -1    0.70    1.10
  -4  -8   1    1.80    0.90
   3   8  -1   26.80    3.00
  -3  -8   1   22.90    1.70
   2   8  -1   40.40    3.00
  -2  -8   1   39.30    2.00
   1   8  -1   18.90    2.20
   0   8  -1   85.99    3.70
   0   8  -1   86.59    2.80
  -1   8  -1  109.99    3.70
  -1   8  -1  107.89    3.90
  -2   8  -1   74.29    3.10
  -2   8  -1   69.79    3.20
  -3   8  -1   -0.10    0.50
  -4   8  -1    0.90    0.90
  -5   8  -1    0.80    1.10
   4   7  -1    2.00    1.10
  -4  -7   1    1.00    0.80
   3   7  -1   -0.10    0.70
  -3  -7   1    0.20    0.60
   2   7  -1  544.85   13.20
  -2  -7   1  542.25   11.30
   1   7  -1   30.80    2.20
  -1  -7   1   29.20    1.40
   0   7  -1   20.30    1.70
   0   7  -1   23.70    1.20
  -1   7  -1  279.17    7.10
  -1   7  -1  271.97    6.70
  -2   7  -1   36.90    2.20
  -2   7  -1   42.90    2.10
  -3   7  -1   13.90    1.80
  -4   7  -1   65.49    3.60
  -5   7  -1   -0.40    0.80
  -5  -6   1    6.50    1.30
   4   6  -1   12.20    2.00
  -4  -6   1   11.90    1.40
   3   6  -1  146.59    5.50
  -3  -6   1  141.89    4.10
   2   6  -1   37.00    2.50
  -2  -6   1   38.60    1.70
   1   6  -1   73.29    3.20
   1   6  -1   76.99    1.90
  -1  -6   1   73.59    2.30
   0   6  -1   63.59    2.70
   0   6  -1   63.79    2.10
  -1   6  -1    2.00    0.60
  -1   6  -1    1.10    0.50
  -2   6  -1    0.00    0.40
  -2   6  -1    0.00    0.30
  -3   6  -1    3.60    1.10
  -4   6  -1    7.20    1.40
  -5   6  -1    6.80    1.60
  -6   6  -1    4.30    1.50
  -5  -5   1   42.60    2.50
   4   5  -1    4.90    1.20
  -4  -5   1    4.70    0.90
   3   5  -1  671.23   15.40
  -3  -5   1  681.03   13.80
   2   5  -1   59.09    2.80
  -2  -5   1   56.49    2.00
   1   5  -1  124.19    2.50
   1   5  -1  126.89    4.10
  -1  -5   1  123.49    3.10
   0   5  -1  886.21   16.70
   0   5  -1  863.51   17.50
  -1   5  -1   10.70    1.00
  -1   5  -1   10.00    0.90
  -2   5  -1  258.27    6.00
  -2   5  -1  261.87    6.70
  -3   5  -1   48.10    2.60
  -3   5  -1   49.10    1.80
  -4   5  -1  218.08    6.80
  -5   5  -1   88.29    4.30
  -6   5  -1   16.50    2.40
  -5  -4   1   -0.10    0.60
   4   4  -1   35.70    2.40
  -4  -4   1   30.50    1.80
   3   4  -1   92.89    3.80
  -3  -4   1   94.89    3.00
   2   4  -1  440.36   10.20
  -2  -4   1  456.95    9.20
   1   4  -1  322.97    7.60
  -1  -4   1  316.37    6.50
   0   4  -1  555.64   11.40
   0   4  -1  549.54   10.70
  -1   4  -1 1131.69   21.90
  -1   4  -1 1163.38   21.80
  -2   4  -1  295.77    7.10
  -2   4  -1  287.37    6.20
  -3   4  -1   21.30    1.60
  -3   4  -1   20.70    1.10
  -4   4  -1    2.50    0.90
  -5   4  -1   34.90    2.60
  -6   4  -1   -1.70    0.70
  -5  -3   1    4.60    0.90
  -4  -3   1   18.30    1.40
   3   3  -1   14.40    1.30
  -3  -3   1   14.10    1.00
   2   3  -1    7.30    1.00
  -2  -3   1    9.00    0.70
  -2  -3   1    7.10    0.30
   1   3  -1  376.36    8.30
  -1  -3   1  378.16    7.40
   0   3  -1  301.67    6.00
   0   3  -1  300.17    6.50
  -1   3  -1 1816.72   33.20
  -1   3  -1 1801.92   33.50
  -2   3  -1  367.86    8.20
  -2   3  -1  359.86    7.40
  -3   3  -1    5.80    0.70
  -3   3  -1    6.10    1.00
  -4   3  -1    1.60    0.80
  -5   3  -1   21.90    2.30
  -6  -2   1   -0.10    0.70
  -5  -2   1    0.50    0.60
   4   2  -1    8.90    1.30
  -4  -2   1    8.30    1.10
  -3  -2   1   34.40    1.40
  -3  -2   1   33.70    1.60
   2   2  -1  359.76    8.00
  -2  -2   1  365.36    7.10
  -2  -2   1  366.96    7.50
   1   2  -1 1218.78   22.60
  -1  -2   1 1178.78   22.00
   0   2  -1  133.79    3.10
  -1   2  -1    0.80    0.40
  -1   2  -1    2.70    0.40
  -2   2  -1   27.70    1.40
  -2   2  -1   27.30    1.10
  -3   2  -1   -0.30    0.30
  -3   2  -1    0.20    0.30
  -4   2  -1    8.20    1.30
  -5   2  -1   12.20    1.70
  -6   2  -1    0.50    0.70
  -6  -1   1    2.00    0.90
  -5  -1   1    4.30    1.00
  -4  -1   1   26.80    1.70
   3   1  -1   33.70    1.60
  -3  -1   1   33.90    1.60
  -3  -1   1   33.50    1.50
   2   1  -1  804.62   15.50
  -2  -1   1  797.12   15.40
  -2  -1   1  806.32   15.20
  -1  -1   1 1904.91   35.00
  -1  -1   1 1907.51   34.60
   0   1  -1  157.98    3.20
  -1   1  -1 7164.68  131.79
  -2   1  -1   18.50    1.10
   2  -1   1   17.90    0.90
  -3   1  -1  702.83   14.50
   3  -1   1  712.33   14.10
  -4   1  -1   15.00    1.40
  -5   1  -1    0.50    0.90
  -6   1  -1   27.00    2.50
  -6   0   1    1.90    0.90
  -5   0   1    0.90    0.60
  -4   0   1   91.69    3.20
  -4   0   1   87.09    3.20
   3   0  -1  102.29    2.90
  -3   0   1  102.09    3.20
   2   0  -1   47.40    1.50
  -2   0   1   45.20    1.60
   1   0  -1   49.90    1.20
  -1   0   1   52.79    1.40
   0   0   1  171.98    3.40
   0   0   1  168.08    3.40
   1   0   1  163.48    3.60
  -3   0  -1   10.40    1.10
   3   0   1    9.40    0.90
  -4   0  -1    0.20    0.50
  -4   0  -1   -0.30    0.40
   4   0   1   -0.20    0.50
  -5   0  -1    0.60    0.60
  -6   0  -1    0.60    0.80
  -6   1   1    9.00    1.50
  -5   1   1    0.30    0.60
  -5   1   1   -0.30    0.50
  -4   1   1   -0.40    0.40
   3  -1  -1   11.40    0.70
  -3   1   1   10.50    1.20
   2  -1  -1  233.48    4.60
  -2   1   1  234.58    5.40
  -1   1   1  352.46    7.10
   0   1   1 2144.69   41.30
   0   1   1 2323.97   41.20
  -1  -1  -1 1006.00   18.40
   1   1   1  998.00   19.00
  -2  -1  -1   85.09    2.40
   2   1   1   88.29    2.80
  -3  -1  -1  150.28    4.00
  -3  -1  -1  155.28    4.00
  -4  -1  -1   27.90    1.70
   4   1   1   31.30    2.00
  -5  -1  -1   16.00    1.60
  -6  -1  -1    9.50    1.50
  -6   2   1    5.40    1.30
  -5   2   1    0.50    0.60
  -4   2   1    0.20    0.50
  -3   2   1   59.49    1.50
  -3   2   1   64.09    2.60
  -2   2   1    3.70    0.20
  -2   2   1    2.70    0.50
  -1   2   1  521.25    9.90
  -1   2   1  538.05   10.50
   0   2   1  981.20   18.40
  -1  -2  -1    3.50    0.30
   1   2   1    3.10    0.30
   1   2   1    2.60    0.50
  -2  -2  -1   70.59    2.00
   2   2   1   65.59    2.50
  -3  -2  -1   13.40    0.90
  -3  -2  -1   14.50    1.00
   3   2   1   12.90    1.30
  -4  -2  -1  165.68    4.80
   4   2   1  173.88    5.50
  -5  -2  -1    7.30    1.20
  -5   3   1   16.80    2.00
  -4   3   1   17.30    1.60
  -3   3   1  267.77    6.90
  -2   3   1    2.00    0.50
  -2   3   1    1.80    0.30
  -1   3   1   89.39    2.60
  -1   3   1   85.59    2.30
   0   3   1   74.59    2.30
  -1  -3  -1 2729.63   50.29
   1   3   1 2789.92   50.99
   1   3   1 2741.13   50.89
  -2  -3  -1  153.18    3.70
   2   3   1  155.38    4.60
  -3  -3  -1    1.30    0.40
   3   3   1    0.80    0.60
  -4  -3  -1  467.35   10.50
   4   3   1  499.05   11.90
  -5  -3  -1   31.70    2.10
  -6   4   1    5.10    1.40
  -5   4   1   49.40    3.00
  -4   4   1  119.49    4.50
  -3   4   1  105.89    3.80
  -2   4   1    5.40    0.90
  -2   4   1    4.10    0.50
  -1   4   1    3.50    0.60
  -1   4   1    3.60    0.50
   0   4   1 1299.77   23.60
   0   4   1 1145.09   22.70
  -1  -4  -1  603.84   11.60
   1   4   1  611.74   11.50
   1   4   1  619.44   13.10
  -2  -4  -1  164.68    3.90
   2   4   1  155.98    5.00
  -3  -4  -1   58.19    2.20
   3   4   1   60.99    3.20
  -4  -4  -1    2.10    0.70
   4   4   1    2.80    1.10
  -5  -4  -1    0.10    0.60
  -6   5   1    1.50    1.10
  -5   5   1   40.00    2.90
  -4   5   1   35.30    2.40
  -3   5   1    0.10    0.50
  -2   5   1  505.25   11.10
  -2   5   1  504.55   10.30
  -1   5   1  258.47    6.10
  -1   5   1  261.97    6.20
   0   5   1 1387.86   25.60
   0   5   1 1359.06   26.60
  -1  -5  -1   70.59    2.00
   1   5   1   68.39    1.80
   1   5   1   70.19    3.00
  -2  -5  -1    2.30    0.50
   2   5   1    2.80    0.90
  -3  -5  -1  122.09    3.60
   3   5   1  129.39    5.00
  -4  -5  -1    0.90    0.60
   4   5   1    2.40    1.10
  -5  -5  -1   14.70    1.70
  -6   6   1   13.70    2.20
  -5   6   1   20.40    2.50
  -4   6   1  108.29    4.50
  -3   6   1  183.18    5.70
  -2   6   1   11.60    1.00
  -2   6   1   11.10    1.40
  -1   6   1   11.00    1.00
  -1   6   1   11.00    1.10
   0   6   1    6.60    0.70
   0   6   1    7.10    1.10
  -1  -6  -1  101.09    2.70
   1   6   1  101.89    2.50
   1   6   1  103.79    4.00
  -2  -6  -1   12.80    1.00
   2   6   1   10.60    1.50
  -3  -6  -1    0.00    0.50
   3   6   1    0.50    0.70
  -4  -6  -1    1.60    0.70
   4   6   1    2.60    1.20
  -5   7   1    4.90    1.50
  -4   7   1    0.60    0.80
  -3   7   1    2.30    0.90
  -2   7   1    0.30    0.50
  -2   7   1    0.20    0.40
  -1   7   1   49.90    2.20
  -1   7   1   54.59    2.50
   0   7   1   14.60    1.40
   0   7   1   15.00    1.00
   1   7   1    1.30    0.70
  -2  -7  -1    0.80    0.50
   2   7   1    0.60    0.70
  -3  -7  -1    4.10    0.80
   3   7   1    4.80    1.30
   4   7   1   12.10    2.30
  -5   8   1    5.00    1.50
  -4   8   1    9.10    1.60
  -3   8   1   47.40    2.80
  -2   8   1   -0.20    0.50
  -2   8   1    0.40    0.50
  -1   8   1   29.60    1.80
  -1   8   1   31.70    2.10
   0   8   1  123.99    4.70
   0   8   1  127.09    3.60
   1   8   1    1.10    0.90
  -2  -8  -1    1.70    0.70
   2   8   1    2.00    1.10
   3   8   1    1.80    1.10
   4   8   1    1.90    1.20
  -5   9   1    3.80    1.40
  -4   9   1    9.30    1.80
  -3   9   1   21.70    2.00
  -2   9   1   24.10    1.80
  -2   9   1   25.10    1.90
  -1   9   1   28.10    2.10
  -1   9   1   32.20    1.90
   0   9   1  106.49    4.50
   1   9   1   18.80    2.40
   2   9   1   -0.30    0.80
   3   9   1    0.80    1.10
  -5  10   1    3.90    1.50
  -4  10   1   -0.40    0.80
  -3  10   1  184.28    6.30
  -2  10   1    0.40    0.70
  -1  10   1  115.99    4.70
  -1  10   1   99.59    3.70
   0  10   1    0.20    0.80
   1  10   1    9.60    1.90
   2  10   1    0.60    0.90
   3  10   1    9.10    2.10
  -4  11   1    3.00    1.30
  -3  11   1    0.20    0.80
  -2  11   1    0.70    0.80
  -1  11   1    1.30    1.00
   0  11   1   13.10    2.20
   1  11   1   -0.80    1.00
   2  11   1    0.90    1.20
  -3  12   1   -0.40    0.80
  -1  12   1   38.50    3.10
   0  12   1    6.70    1.80
   1  12   1   20.00    2.90
  -1  13   1   25.10    3.10
   0  13   1   -0.10    1.20
   1  13  -2    0.80    1.20
   0  13  -2    4.00    1.50
  -1  13  -2    0.10    0.90
  -3  13  -2    0.20    1.10
   2  12  -2   37.80    4.20
   1  12  -2    1.30    1.00
   0  12  -2    8.40    1.90
  -1  12  -2    1.90    1.10
  -2  12  -2   10.10    1.70
  -3  12  -2   35.10    2.90
  -4  12  -2   26.40    3.30
   3  11  -2    5.60    1.80
  -3 -11   2    5.20    1.30
   2  11  -2    0.30    1.10
   1  11  -2    2.40    1.20
   0  11  -2   14.20    2.20
  -1  11  -2    9.60    1.70
  -2  11  -2    0.10    0.70
  -2  11  -2   -0.30    0.70
  -3  11  -2    0.30    0.80
  -4  11  -2    6.20    1.70
   3  10  -2   15.30    2.60
  -3 -10   2   14.00    1.80
   2  10  -2   54.99    3.70
   1  10  -2   39.30    3.00
   0  10  -2    6.30    1.50
  -1  10  -2   10.90    1.70
  -2  10  -2   50.19    2.80
  -2  10  -2   49.10    2.90
  -3  10  -2   24.70    2.30
  -4  10  -2    5.60    1.60
  -5  10  -2   14.70    2.40
   4   9  -2   24.90    3.20
  -4  -9   2   23.50    2.20
   3   9  -2    0.90    1.00
  -3  -9   2   -0.40    0.70
   2   9  -2   23.10    2.70
  -2  -9   2   24.70    1.70
   1   9  -2   -0.10    0.90
   0   9  -2    3.90    1.10
  -1   9  -2   20.10    1.60
  -1   9  -2   22.30    1.90
  -2   9  -2    2.00    0.80
  -2   9  -2    1.60    0.70
  -3   9  -2   27.60    2.30
  -4   9  -2    8.30    1.70
  -5   9  -2   -0.60    0.90
   4   8  -2   14.90    2.40
  -4  -8   2   15.20    1.70
   3   8  -2    2.40    1.10
  -3  -8   2    4.50    1.00
   2   8  -2  263.17    8.20
  -2  -8   2  267.37    6.50
   1   8  -2    7.10    1.30
   0   8  -2    0.00    0.50
   0   8  -2    1.10    0.50
  -1   8  -2   29.40    2.00
  -1   8  -2   28.10    1.80
  -2   8  -2    9.90    1.30
  -2   8  -2   11.20    1.50
  -3   8  -2   42.90    2.80
  -4   8  -2   31.90    2.70
  -5   8  -2    2.30    1.20
   4   7  -2   12.90    2.10
  -4  -7   2    8.10    1.20
   3   7  -2    1.20    0.90
  -3  -7   2    0.80    0.70
   2   7  -2  134.09    5.10
  -2  -7   2  126.89    3.70
   1   7  -2    6.70    1.20
  -1  -7   2    9.00    0.90
   0   7  -2   96.79    2.90
   0   7  -2  100.19    3.80
  -1   7  -2  141.09    4.40
  -1   7  -2  139.49    4.20
  -2   7  -2    0.40    0.40
  -2   7  -2    0.60    0.50
  -3   7  -2    3.00    1.00
  -4   7  -2   18.60    2.20
  -5   7  -2    4.60    1.40
  -5  -6   2   -0.40    0.70
   4   6  -2    0.30    0.80
  -4  -6   2   -0.80    0.50
   3   6  -2    1.00    0.80
  -3  -6   2    1.50    0.60
   2   6  -2  878.81   18.90
  -2  -6   2  870.71   17.10
   1   6  -2  119.99    4.20
   1   6  -2  127.59    2.70
  -1  -6   2  121.19    3.30
   0   6  -2  488.05    9.90
   0   6  -2  480.25   10.90
  -1   6  -2  104.99    3.40
  -1   6  -2  104.19    3.30
  -2   6  -2   96.49    3.10
  -2   6  -2   92.39    3.50
  -3   6  -2  101.59    3.20
  -3   6  -2   93.59    3.90
  -4   6  -2    6.20    1.40
  -5   6  -2   13.80    2.10
  -6   6  -2    4.30    1.50
  -5  -5   2    2.50    0.90
   4   5  -2   10.40    1.70
  -4  -5   2    8.30    1.20
   3   5  -2  226.18    6.80
  -3  -5   2  222.38    5.50
   2   5  -2   54.39    2.70
  -2  -5   2   61.89    2.10
   1   5  -2   53.59    1.20
   1   5  -2   50.99    2.40
  -1  -5   2   54.69    1.80
   0   5  -2  236.08    6.00
   0   5  -2  240.78    5.30
  -1   5  -2  840.22   16.60
  -1   5  -2  828.52   16.50
  -2   5  -2  391.66    8.50
  -2   5  -2  396.66    9.20
  -3   5  -2   50.09    2.60
  -3   5  -2   46.70    1.90
  -4   5  -2   61.89    3.30
  -5   5  -2    1.40    0.90
  -6   5  -2    0.20    0.90
  -5  -4   2   30.80    2.10
   4   4  -2   26.00    2.00
  -4  -4   2   29.10    1.80
   3   4  -2   25.90    1.80
  -3  -4   2   24.90    1.40
   2   4  -2  323.97    7.90
  -2  -4   2  322.07    6.90
   1   4  -2   18.80    1.30
  -1  -4   2   19.40    0.90
   0   4  -2   34.10    1.60
   0   4  -2   33.50    1.20
  -1   4  -2  655.63   12.90
  -1   4  -2  643.34   13.00
  -2   4  -2  374.66    7.90
  -2   4  -2  376.86    8.60
  -3   4  -2    3.60    0.60
  -3   4  -2    4.60    0.90
  -4   4  -2    3.10    1.00
  -5   4  -2    0.90    0.80
  -6   4  -2    5.50    1.60
  -5  -3   2    8.80    1.30
   4   3  -2    5.00    1.00
  -4  -3   2    5.60    0.90
   3   3  -2   51.89    2.40
  -3  -3   2   57.69    2.10
   2   3  -2  207.78    5.40
  -2  -3   2  207.88    4.70
  -2  -3   2  204.58    4.00
   1   3  -2 1325.87   25.20
  -1  -3   2 1324.07   24.40
   0   3  -2 2086.49   38.40
  -1   3  -2 4883.61   90.49
  -2   3  -2    0.90    0.40
  -2   3  -2    0.90    0.30
  -3   3  -2   12.10    1.30
  -3   3  -2   11.50    0.90
  -4   3  -2    0.20    0.60
  -5   3  -2   10.80    1.70
  -6  -2   2    1.30    0.90
  -5  -2   2    4.70    1.10
  -4  -2   2   20.30    1.40
   3   2  -2  183.48    5.00
  -3  -2   2  188.68    4.70
  -3  -2   2  186.08    4.30
  -2  -2   2  488.65    9.40
  -2  -2   2  502.45    9.90
   1   2  -2 5855.61  107.99
  -1  -2   2 5716.83  103.59
  -1  -2   2 5595.44  104.99
   0   2  -2  179.88    4.00
  -1   2  -2 9999.00  183.88
  -2   2  -2  418.56    8.60
  -3   2  -2  384.76    8.30
  -3   2  -2  366.06    8.70
  -4   2  -2   28.80    2.00
  -5   2  -2    7.00    1.40
  -6   2  -2    9.70    1.60
  -6  -1   2    4.80    1.10
  -5  -1   2    3.50    0.90
  -4  -1   2   17.00    1.30
  -4  -1   2   15.30    1.30
   3   1  -2   57.79    2.10
  -3  -1   2   60.09    2.20
  -3  -1   2   59.39    2.10
   2   1  -2    6.20    0.60
  -2  -1   2    6.40    0.50
  -2  -1   2    5.80    0.60
  -1  -1   2 2019.60   37.10
  -1  -1   2 2031.20   37.30
   0   1  -2 1111.39   20.30
   0  -1   2 1090.99   20.10
  -3   1  -2   77.49    2.90
   3  -1   2   83.29    2.80
  -4   1  -2   28.60    1.90
   4  -1   2   33.50    2.90
  -6   1  -2   13.50    1.80
  -6   0   2    8.90    1.50
  -5   0   2    8.30    1.30
  -4   0   2   -0.10    0.40
  -4   0   2    0.20    0.40
   3   0  -2   69.59    2.10
  -3   0   2   70.59    2.50
  -3   0   2   68.09    2.40
   2   0  -2  213.68    4.40
  -2   0   2  209.98    4.80
   1   0  -2  848.82   15.30
  -1   0   2  813.42   15.50
  -1   0   2  853.31   15.60
   0   0   2 4425.86   82.09
   0   0   2 4473.85   82.69
   1   0   2   70.59    2.10
   2   0   2  320.27    7.20
   3   0   2   34.00    1.80
  -4   0  -2    0.30    0.50
   4   0   2    0.30    0.50
  -5   0  -2   18.10    1.90
  -6   0  -2    1.40    0.90
  -6   1   2   13.20    1.80
  -5   1   2    1.90    0.90
  -5   1   2    3.30    0.90
  -4   1   2    0.60    0.50
   3  -1  -2  283.27    5.50
  -3   1   2  276.17    6.70
  -2   1   2   82.19    2.50
  -1   1   2 2143.69   39.10
   0   1   2   96.19    2.20
   0   1   2   98.29    2.40
  -1  -1  -2   17.60    0.70
   1   1   2   19.40    1.10
  -2  -1  -2   35.30    1.30
   2   1   2   33.40    1.70
  -3  -1  -2   19.10    1.20
   3   1   2   18.50    1.40
  -4  -1  -2    3.00    0.70
   4   1   2    2.10    0.80
  -5  -1  -2    0.40    0.60
  -6   2   2    1.40    0.90
  -5   2   2    4.10    1.10
  -4   2   2   25.90    1.80
  -3   2   2   65.59    2.60
  -2   2   2  135.29    3.70
  -1   2   2   41.90    1.50
  -1   2   2   39.90    1.20
   0   2   2  125.69    3.20
   0   2   2  129.19    2.90
  -1  -2  -2 1188.78   21.90
   1   2   2 1201.88   22.10
   1   2   2 1209.48   23.10
  -2  -2  -2  156.08    3.70
   2   2   2  156.68    4.60
  -3  -2  -2  126.79    3.50
   3   2   2  122.49    4.30
  -4  -2  -2    1.00    0.60
   4   2   2   -0.60    0.70
  -5  -2  -2   23.60    1.90
  -6   3   2    9.40    1.90
  -5   3   2    4.00    1.10
  -4   3   2    4.80    1.10
  -3   3   2  132.29    4.20
  -2   3   2    0.10    0.10
  -2   3   2    0.00    0.30
  -1   3   2   78.49    2.20
  -1   3   2   81.29    2.40
   0   3   2  311.17    6.40
   0   3   2  314.17    6.90
  -1  -3  -2 1189.48   21.70
   1   3   2 1190.88   21.90
   1   3   2 1170.08   23.10
  -2  -3  -2  173.48    3.90
   2   3   2  165.88    5.10
  -3  -3  -2   77.79    2.50
   3   3   2   77.69    3.50
  -4  -3  -2    8.00    1.10
   4   3   2   10.30    1.60
  -5  -3  -2    0.40    0.60
  -6   4   2    1.30    1.00
  -5   4   2   63.59    3.50
  -4   4   2    1.90    0.90
  -3   4   2  184.58    5.50
  -2   4   2  548.75   11.60
  -2   4   2  536.65   10.50
  -1   4   2    3.80    0.60
  -1   4   2    3.90    0.60
   0   4   2  118.49    3.60
  -1  -4  -2  885.21   16.20
   1   4   2  859.71   16.30
   1   4   2  865.11   17.90
  -2  -4  -2    0.60    0.30
   2   4   2   -0.30    0.40
  -3  -4  -2   81.09    2.60
   3   4   2   75.89    3.70
  -4  -4  -2    1.80    0.70
   4   4   2    2.10    1.00
  -5  -4  -2    0.30    0.70
  -6   5   2   44.10    3.20
  -5   5   2    0.50    0.90
  -4   5   2   18.70    2.10
  -3   5   2  673.33   14.80
  -2   5   2   16.30    1.00
  -2   5   2   15.20    1.30
  -1   5   2  105.99    3.20
  -1   5   2   96.69    3.10
   0   5   2  175.08    4.20
  -1  -5  -2    0.10    0.30
   1   5   2    0.00    0.40
   1   5   2    0.40    0.20
  -2  -5  -2  105.89    2.90
   2   5   2  103.49    4.20
  -3  -5  -2   35.70    1.70
   3   5   2   37.70    2.70
  -4  -5  -2    7.30    1.10
   4   5   2    7.20    1.60
  -6   6   2    2.30    1.30
  -5   6   2   11.20    1.90
  -4   6   2   24.80    2.20
  -3   6   2   14.50    1.80
  -2   6   2    2.00    0.50
  -2   6   2    1.20    0.50
  -1   6   2   32.90    1.80
  -1   6   2   30.50    1.60
   0   6   2   73.49    3.10
   0   6   2   75.39    2.40
   1   6   2   23.50    1.90
   1   6   2   24.80    1.10
  -2  -6  -2    0.80    0.50
   2   6   2    1.00    0.80
  -3  -6  -2    6.30    0.90
   3   6   2    3.20    1.20
   4   6   2   10.50    2.00
  -5   7   2    4.70    1.30
  -4   7   2   47.80    3.00
  -3   7   2   54.99    2.90
  -2   7   2   51.19    2.30
  -2   7   2   47.20    2.40
  -1   7   2   49.20    2.50
  -1   7   2   48.50    2.20
   0   7   2   77.09    2.50
   0   7   2   75.19    3.40
   1   7   2   10.50    1.60
  -2  -7  -2    0.50    0.50
   2   7   2    0.10    0.60
   3   7   2    2.50    1.20
   4   7   2   22.10    3.00
  -5   8   2    0.30    0.90
  -4   8   2    0.60    0.80
  -3   8   2    4.70    1.20
  -2   8   2   31.80    2.00
  -2   8   2   35.40    2.20
  -1   8   2   17.10    1.40
  -1   8   2   16.30    1.60
   0   8   2   67.79    2.50
   0   8   2   69.99    3.50
   1   8   2   38.40    2.70
   2   8   2   62.29    3.70
   3   8   2    3.10    1.30
   4   8   2    7.70    2.00
  -5   9   2   11.40    2.10
  -4   9   2    4.10    1.40
  -3   9   2   63.59    3.40
  -2   9   2  101.69    4.00
  -1   9   2   48.50    2.40
  -1   9   2   45.50    2.80
   0   9   2  209.28    7.00
   1   9   2    4.80    1.40
   2   9   2    3.80    1.40
   3   9   2    4.20    1.60
  -4  10   2    8.30    1.80
  -3  10   2   11.60    1.80
  -2  10   2    0.20    0.70
  -1  10   2   -0.30    0.50
  -1  10   2    0.10    0.70
   0  10   2    1.40    1.00
   1  10   2    1.90    1.20
   2  10   2    0.40    1.00
  -4  11   2    1.60    1.20
  -3  11   2   83.29    4.10
  -2  11   2    1.80    1.00
  -1  11   2   24.00    2.70
   0  11   2   18.70    2.60
   1  11   2    0.90    1.00
   2  11   2    2.90    1.50
  -3  12   2   13.70    2.10
  -1  12   2    0.20    0.90
   0  12   2   12.90    2.50
   1  12   2    5.70    1.80
  -1  14  -3   16.80    2.60
   1  13  -3    1.00    1.20
   0  13  -3    1.10    1.00
  -1  13  -3    4.80    1.60
  -3  13  -3    5.20    1.50
   2  12  -3   13.10    2.50
   1  12  -3    2.90    1.50
   0  12  -3   -0.60    0.80
  -1  12  -3    9.00    1.80
  -2  12  -3   16.40    2.00
  -2  12  -3   14.00    2.00
  -3  12  -3    0.60    0.90
  -4  12  -3    2.00    1.20
   3  11  -3   -1.20    1.00
  -3 -11   3   -1.60    0.80
   2  11  -3    3.30    1.40
   1  11  -3   30.60    2.90
   0  11  -3    1.70    1.00
  -1  11  -3   38.00    2.80
  -2  11  -3    9.00    1.50
  -2  11  -3    5.60    1.30
  -3  11  -3    8.80    1.70
  -4  11  -3   29.20    3.30
   3  10  -3    7.00    1.80
  -3 -10   3    7.30    1.30
   2  10  -3   33.80    3.10
   1  10  -3   81.59    4.30
   0  10  -3   -0.60    0.60
  -1  10  -3   35.70    2.50
  -2  10  -3   33.50    2.40
  -2  10  -3   32.60    2.40
  -3  10  -3    7.40    1.60
  -4  10  -3    4.00    1.50
  -5  10  -3    0.60    1.00
   4   9  -3    0.20    1.10
  -4  -9   3   -0.90    0.90
   3   9  -3    1.00    0.90
  -3  -9   3    0.90    0.80
   2   9  -3   79.59    4.30
  -2  -9   3   82.29    3.10
   1   9  -3  594.64   14.60
   0   9  -3   72.89    3.60
  -1   9  -3   37.10    2.10
  -1   9  -3   36.90    2.40
  -2   9  -3   26.00    2.00
  -2   9  -3   24.50    1.90
  -3   9  -3    5.00    1.30
  -4   9  -3   38.60    3.10
  -5   9  -3    3.80    1.40
   4   8  -3   11.10    2.10
  -4  -8   3    9.50    1.40
   3   8  -3   73.29    4.00
  -3  -8   3   67.89    2.80
   2   8  -3  200.98    6.90
  -2  -8   3  201.38    5.30
   1   8  -3   47.90    2.80
   0   8  -3   31.80    1.60
   0   8  -3   32.90    2.20
  -1   8  -3  207.88    6.00
  -1   8  -3  201.68    5.60
  -2   8  -3    3.10    0.90
  -2   8  -3    4.00    0.90
  -3   8  -3    1.30    0.80
  -4   8  -3    1.30    1.00
  -5   8  -3   13.70    2.30
  -5  -7   3    0.10    0.80
   4   7  -3    9.30    1.90
  -4  -7   3    5.90    1.10
   3   7  -3    7.90    1.60
  -3  -7   3    9.40    1.20
   2   7  -3  371.46    9.80
  -2  -7   3  351.06    8.00
   1   7  -3  115.09    4.40
  -1  -7   3  120.09    3.30
   0   7  -3   64.39    2.20
   0   7  -3   60.39    2.80
  -1   7  -3  550.24   12.10
  -1   7  -3  539.95   11.80
  -2   7  -3    3.60    0.90
  -2   7  -3    3.80    0.90
  -3   7  -3    0.60    0.60
  -3   7  -3    2.40    1.00
  -4   7  -3  116.59    4.90
  -5   7  -3   16.00    2.20
  -5  -6   3    2.20    1.00
   4   6  -3    1.90    1.00
  -4  -6   3    1.20    0.70
   3   6  -3   -0.50    0.60
  -3  -6   3    0.80    0.60
   2   6  -3    6.90    1.20
  -2  -6   3    9.10    0.90
   1   6  -3   29.40    1.00
   1   6  -3   29.80    1.90
  -1  -6   3   30.30    1.40
   0   6  -3   53.69    1.90
   0   6  -3   56.19    2.50
  -1   6  -3  309.97    7.50
  -1   6  -3  307.37    7.30
  -2   6  -3  190.68    5.10
  -2   6  -3  191.88    5.60
  -3   6  -3   40.90    2.00
  -3   6  -3   38.00    2.50
  -4   6  -3   21.30    2.40
  -5   6  -3    7.30    1.60
  -5  -5   3    7.20    1.30
   4   5  -3    8.50    1.50
  -4  -5   3   10.10    1.30
   3   5  -3   35.90    2.30
  -3  -5   3   34.30    1.70
   2   5  -3    9.40    1.30
  -2  -5   3    7.00    0.80
   1   5  -3  383.76    7.40
   1   5  -3  389.36    9.10
  -1  -5   3  392.46    8.00
   0   5  -3   45.90    2.10
  -1   5  -3  162.88    4.40
  -1   5  -3  164.18    4.40
  -2   5  -3   84.59    2.80
  -2   5  -3   87.59    3.20
  -3   5  -3   37.90    1.80
  -3   5  -3   36.30    2.30
  -4   5  -3  143.09    5.30
  -5   5  -3    0.80    0.80
  -6   5  -3    6.50    1.70
  -5  -4   3    1.40    0.80
   4   4  -3   -0.20    0.40
  -4  -4   3    0.10    0.50
   3   4  -3   14.70    1.40
  -3  -4   3   15.20    1.10
   2   4  -3   48.60    2.30
  -2  -4   3   53.49    1.90
   1   4  -3  135.59    4.00
  -1  -4   3  137.49    3.30
   0   4  -3   50.89    2.00
  -1   4  -3  749.73   14.80
  -2   4  -3  626.64   12.70
  -3   4  -3    3.30    0.70
  -3   4  -3    4.30    0.90
  -4   4  -3    2.90    1.00
  -5   4  -3    9.70    1.70
  -6   4  -3    3.60    1.30
  -6  -3   3    1.20    0.80
  -5  -3   3   18.90    1.80
  -4  -3   3    2.20    0.60
  -3  -3   3    9.30    1.00
   2   3  -3  152.48    4.20
  -2  -3   3  149.49    3.10
  -2  -3   3  156.08    3.80
   1   3  -3  662.73   13.40
  -1  -3   3  671.33   12.30
  -1  -3   3  664.63   12.70
   0   3  -3   90.59    2.60
  -1   3  -3   22.80    1.20
  -2   3  -3  583.84   11.80
  -3   3  -3   17.20    1.20
  -3   3  -3   16.10    1.40
  -4   3  -3    3.70    0.90
  -5   3  -3   -0.30    0.70
  -6  -2   3    4.40    1.10
  -5  -2   3   50.49    2.60
  -4  -2   3   17.80    1.40
   3   2  -3   11.80    1.00
  -3  -2   3   13.50    1.00
  -3  -2   3   13.30    0.80
   2   2  -3  936.31   19.00
  -2  -2   3 1012.90   18.70
  -2  -2   3 1006.30   18.30
   1   2  -3    6.20    0.60
  -1  -2   3    5.80    0.40
  -1  -2   3    4.90    0.50
   0   2  -3    3.40    0.50
  -1   2  -3 3860.61   70.79
  -2   2  -3   81.29    2.60
  -3   2  -3    4.10    0.70
  -4   2  -3    5.90    1.10
  -4   2  -3    6.50    1.00
  -5   2  -3   95.99    4.10
  -6   2  -3    2.10    0.90
  -6  -1   3    4.00    1.10
  -5  -1   3    2.90    0.90
  -4  -1   3    1.40    0.60
  -4  -1   3    1.00    0.50
   3   1  -3    5.30    0.70
  -3  -1   3    4.70    0.70
  -3  -1   3    2.80    0.50
   2   1  -3 1328.77   24.80
  -2  -1   3 1335.57   24.70
  -2  -1   3 1330.87   24.90
  -1  -1   3 2207.68   40.40
  -1  -1   3 2188.68   40.90
   0   1  -3 2698.53   50.29
   0  -1   3 2579.04   49.50
   2  -1   3   11.40    0.90
   3  -1   3  177.48    5.00
  -4   1  -3   21.40    1.70
   4  -1   3   22.40    1.70
  -6   1  -3   13.00    1.80
  -6   0   3   19.80    2.10
  -5   0   3   13.40    1.60
  -4   0   3   16.70    1.30
  -4   0   3   18.20    1.30
   3   0  -3  144.19    3.40
  -3   0   3  150.28    4.00
  -3   0   3  145.39    4.00
   2   0  -3  137.39    3.00
  -2   0   3  132.79    3.40
  -2   0   3  133.79    3.40
   1   0  -3 1447.26   26.90
  -1   0   3 1475.55   26.70
  -1   0   3 1476.45   26.90
   0   0   3  323.47    6.40
   0   0   3  320.57    6.60
   1   0   3  207.38    4.90
   2   0   3  145.29    4.10
   3   0   3   -0.10    0.30
  -4   0  -3   20.20    1.50
   4   0   3   15.10    1.50
  -5   0  -3   14.10    1.60
  -6   1   3    3.20    1.00
  -5   1   3   48.40    2.60
  -5   1   3   44.00    2.50
  -4   1   3   21.50    1.50
  -3   1   3   33.70    1.70
  -2   1   3   77.99    2.50
  -1   1   3  364.06    7.40
   0   1   3 1730.33   31.80
   0   1   3 1747.13   32.10
  -1  -1  -3 1421.46   25.70
   1   1   3 1411.66   26.10
   1   1   3 1413.26   26.80
  -2  -1  -3  467.55    9.40
   2   1   3  478.85   10.50
  -3  -1  -3    1.70    0.50
   3   1   3    1.00    0.60
  -4  -1  -3   10.50    1.20
   4   1   3   12.60    1.70
  -5  -1  -3   31.40    2.00
  -6   2   3   -0.10    0.80
  -5   2   3   67.89    3.20
  -4   2   3   13.70    1.50
  -3   2   3  198.38    5.30
  -2   2   3   36.50    1.70
  -1   2   3 1961.60   36.20
  -1   2   3 1970.50   35.90
   0   2   3   53.49    1.90
   0   2   3   51.19    1.60
  -1  -2  -3  436.86    8.40
   1   2   3  453.25    9.80
  -2  -2  -3   76.79    2.20
   2   2   3   79.19    3.10
  -3  -2  -3    1.50    0.50
   3   2   3    1.30    0.70
  -4  -2  -3   99.39    3.40
   4   2   3  100.29    4.30
  -5  -2  -3    8.80    1.30
  -6   3   3    2.30    1.00
  -6   3   3    1.20    1.00
  -5   3   3   22.80    2.10
  -4   3   3   81.79    3.40
  -3   3   3   75.79    3.00
  -2   3   3  522.15    9.80
  -2   3   3  522.45   11.10
  -1   3   3    9.10    0.80
  -1   3   3    8.50    0.70
   0   3   3    6.10    0.80
   0   3   3   10.00    0.70
  -1  -3  -3  336.67    6.50
   1   3   3  334.37    6.90
   1   3   3  338.37    8.10
  -2  -3  -3   40.60    1.40
   2   3   3   40.40    2.30
  -3  -3  -3    2.90    0.60
   3   3   3    1.10    0.80
  -4  -3  -3  108.59    3.50
   4   3   3  111.89    4.70
  -6   4   3    5.90    1.50
  -5   4   3  112.09    4.60
  -4   4   3    1.20    0.70
  -3   4   3  227.38    6.20
  -2   4   3  377.46    7.60
  -2   4   3  381.06    8.70
  -1   4   3  211.18    5.20
  -1   4   3  211.98    5.10
   0   4   3    0.00    0.40
   0   4   3    0.40    0.30
  -1  -4  -3  111.89    2.60
   1   4   3  111.09    3.90
   1   4   3  110.39    2.90
  -2  -4  -3    2.60    0.50
   2   4   3    2.40    0.80
  -3  -4  -3   27.10    1.40
   3   4   3   25.30    2.20
   4   4   3   24.90    2.40
  -6   5   3   14.10    2.20
  -5   5   3    0.60    0.90
  -4   5   3   29.60    2.20
  -3   5   3    0.60    0.80
  -2   5   3    6.30    0.70
  -2   5   3    6.00    0.90
  -1   5   3  110.09    3.50
  -1   5   3  114.59    3.40
   0   5   3   19.80    1.50
   0   5   3   16.70    1.00
  -1  -5  -3    8.70    0.60
   1   5   3    6.60    1.10
   1   5   3    8.60    0.70
  -2  -5  -3   -0.10    0.30
   2   5   3   -0.70    0.40
   3   5   3    3.50    1.20
   4   5   3    0.00    0.90
  -6   6   3    2.10    1.30
  -5   6   3    2.60    1.20
  -4   6   3    0.10    0.70
  -3   6   3  347.37    8.90
  -2   6   3   72.29    2.90
  -2   6   3   72.09    2.60
  -1   6   3   99.99    3.50
  -1   6   3   94.49    3.20
   1   6   3    2.90    0.50
   1   6   3    4.40    1.10
   2   6   3   34.50    2.60
   3   6   3   18.10    2.30
   4   6   3    0.90    1.10
  -5   7   3    7.10    1.70
  -4   7   3   24.80    2.30
  -3   7   3   30.90    2.20
  -2   7   3   50.19    2.50
  -2   7   3   50.19    2.30
  -1   7   3  148.79    4.80
  -1   7   3  145.99    4.40
   0   7   3   57.29    2.20
   0   7   3   54.69    2.90
   1   7   3   74.19    3.70
   2   7   3   13.20    1.90
   3   7   3   12.70    2.20
   4   7   3    2.10    1.40
  -5   8   3    2.60    1.30
  -4   8   3   14.70    2.00
  -3   8   3   54.39    3.00
  -2   8   3  631.44   14.00
  -1   8   3  151.58    4.60
  -1   8   3  151.28    5.20
   0   8   3    5.20    0.80
   0   8   3    5.30    1.20
   1   8   3   47.10    3.20
   2   8   3    0.70    0.90
   3   8   3    3.70    1.70
  -5   9   3    0.20    1.10
  -4   9   3    3.90    1.20
  -3   9   3   65.29    3.40
  -2   9   3    2.40    0.90
  -1   9   3    3.50    1.10
  -1   9   3    6.50    1.10
   0   9   3   69.69    3.70
   1   9   3    0.60    0.80
   2   9   3    9.10    1.90
   3   9   3    3.60    1.70
  -4  10   3    0.00    1.00
  -3  10   3  120.29    4.90
  -2  10   3   17.80    2.00
  -1  10   3    3.60    1.20
  -1  10   3    1.50    1.00
   0  10   3   30.20    2.70
   1  10   3    1.10    1.10
   2  10   3    0.70    1.10
  -4  11   3    2.50    1.30
  -3  11   3    0.50    1.00
  -2  11   3    0.10    0.80
  -1  11   3    0.90    0.90
   0  11   3   -0.10    0.80
   1  11   3    2.30    1.40
  -3  12   3   -0.20    1.00
  -1  12   3    5.20    1.60
   0  12   3   15.00    2.50
  -1  14  -4    0.40    1.00
   1  13  -4    0.80    1.20
   0  13  -4    6.40    1.70
  -1  13  -4    0.30    1.00
  -2  13  -4   20.90    2.60
  -3  13  -4   -0.20    0.90
   2  12  -4    9.70    2.10
   1  12  -4    2.80    1.30
   0  12  -4   -0.10    0.90
  -1  12  -4   -0.10    0.80
  -2  12  -4    5.20    1.30
  -2  12  -4    4.30    1.30
  -3  12  -4    1.30    1.10
  -4  12  -4    2.30    1.30
   3  11  -4    9.30    2.20
  -3 -11   4    6.20    1.40
   2  11  -4    0.10    0.90
   1  11  -4   14.90    2.30
   0  11  -4   17.50    2.30
  -1  11  -4    0.20    0.80
  -2  11  -4   23.80    2.30
  -2  11  -4   23.10    2.10
  -3  11  -4    0.40    0.80
  -4  11  -4    0.40    0.90
   3  10  -4   24.40    3.20
  -3 -10   4   22.60    2.10
   2  10  -4   56.69    3.80
  -2 -10   4   53.29    2.60
   1  10  -4   59.69    3.70
   0  10  -4   13.60    1.90
  -1  10  -4   -0.10    0.60
  -1  10  -4    0.50    0.50
  -2  10  -4    5.30    1.20
  -2  10  -4    3.70    1.10
  -3  10  -4    0.20    0.80
  -4  10  -4    3.40    1.40
  -5  10  -4   10.20    2.10
   4   9  -4   17.20    2.80
   3   9  -4   20.70    2.70
  -3  -9   4   16.40    1.70
   2   9  -4    2.40    1.30
  -2  -9   4    1.00    0.80
   1   9  -4  169.88    6.10
   0   9  -4   10.00    1.60
  -1   9  -4   57.19    3.00
  -1   9  -4   54.29    2.60
  -2   9  -4    5.70    1.20
  -2   9  -4    6.90    1.30
  -3   9  -4   48.70    3.10
  -4   9  -4    0.60    0.90
  -5   9  -4    2.60    1.30
   4   8  -4    2.80    1.20
  -4  -8   4   -0.60    0.70
   3   8  -4    0.80    0.80
  -3  -8   4   -0.10    0.60
   2   8  -4   57.79    3.50
  -2  -8   4   57.29    2.50
   1   8  -4   98.09    4.20
   0   8  -4    0.70    0.40
   0   8  -4    0.20    0.50
  -1   8  -4   34.10    2.20
  -1   8  -4   33.30    1.90
  -2   8  -4  103.09    4.00
  -2   8  -4  103.59    3.90
  -3   8  -4    1.00    0.80
  -3   8  -4    0.80    0.60
  -4   8  -4   15.60    2.20
  -5   8  -4    1.30    1.10
  -5  -7   4   -0.80    0.80
   4   7  -4    3.10    1.20
  -4  -7   4    1.70    0.80
  -3  -7   4    3.80    0.80
   2   7  -4  100.49    4.30
  -2  -7   4   97.99    3.20
   1   7  -4    1.80    0.80
  -1  -7   4    1.80    0.60
   0   7  -4  385.16    8.30
   0   7  -4  374.36    9.30
  -1   7  -4   52.49    2.40
  -1   7  -4   53.29    2.60
  -2   7  -4  297.87    7.50
  -2   7  -4  295.17    7.80
  -3   7  -4   61.19    3.30
  -3   7  -4   62.89    2.80
  -4   7  -4    3.50    1.20
  -5   7  -4    2.10    1.10
  -5  -6   4    1.20    0.90
   4   6  -4    7.00    1.40
  -4  -6   4    4.30    1.00
   3   6  -4   47.30    2.80
  -3  -6   4   44.60    2.10
   2   6  -4   61.89    3.00
  -2  -6   4   63.79    2.30
   1   6  -4    8.60    1.20
   1   6  -4    9.00    0.60
  -1  -6   4    9.30    0.90
   0   6  -4    6.50    1.00
  -1   6  -4  243.98    6.30
  -2   6  -4  256.37    6.50
  -2   6  -4  262.67    6.90
  -3   6  -4  432.36    9.70
  -3   6  -4  414.26   10.50
  -4   6  -4    4.70    1.20
  -5   6  -4    8.90    1.80
  -5  -5   4   25.80    2.10
   4   5  -4    5.80    1.30
  -4  -5   4    6.80    1.10
   3   5  -4   31.90    2.20
  -3  -5   4   30.30    1.70
   2   5  -4  280.77    7.40
  -2  -5   4  289.57    6.40
   1   5  -4  271.87    6.90
  -1  -5   4  272.77    5.90
   0   5  -4   67.79    2.60
  -1   5  -4   40.20    1.90
  -2   5  -4 1150.38   22.50
  -3   5  -4    2.70    0.90
  -3   5  -4    1.70    0.60
  -4   5  -4   19.20    2.20
  -5   5  -4    6.80    1.50
  -5  -4   4    0.20    0.70
  -4  -4   4   12.10    1.30
   3   4  -4   35.40    2.10
  -3  -4   4   35.60    1.70
   2   4  -4  133.29    4.20
  -2  -4   4  130.89    3.50
  -2  -4   4  134.49    2.80
   1   4  -4  423.56    9.50
  -1  -4   4  434.06    8.60
   0   4  -4  476.15   10.20
  -1   4  -4   48.00    2.00
  -2   4  -4  668.33   13.60
  -3   4  -4   20.60    1.40
  -4   4  -4    0.50    0.70
  -5   4  -4    2.10    1.00
  -6   4  -4    5.80    1.60
  -6  -3   4    3.70    1.10
  -5  -3   4   24.90    1.90
  -4  -3   4    3.90    0.80
   3   3  -4   32.80    1.80
  -3  -3   4   32.60    1.60
   2   3  -4  126.59    3.80
  -2  -3   4  124.99    3.30
  -2  -3   4  124.89    2.80
   1   3  -4   39.30    1.70
  -1  -3   4   40.00    1.20
  -1  -3   4   39.30    1.40
   0   3  -4  629.34   12.60
  -1   3  -4 1540.35   29.00
  -2   3  -4  278.07    6.60
  -3   3  -4   30.70    1.70
  -4   3  -4    5.70    1.20
  -4   3  -4    4.60    0.90
  -5   3  -4    0.70    0.70
  -6  -2   4   -1.00    0.60
  -5  -2   4   19.90    1.90
  -4  -2   4   20.80    1.50
   3   2  -4   71.49    2.60
  -3  -2   4   69.59    2.50
  -3  -2   4   71.89    2.20
   2   2  -4   18.00    1.10
  -2  -2   4   13.90    0.90
  -2  -2   4   15.50    0.80
   1   2  -4 1361.96   25.60
  -1  -2   4 1354.16   25.00
  -1  -2   4 1367.56   25.00
   0   2  -4   72.29    2.20
   0  -2   4   73.19    2.00
  -1   2  -4   38.90    1.60
  -2   2  -4  164.98    4.50
  -3   2  -4   18.30    1.40
  -4   2  -4    1.50    0.70
  -4   2  -4    1.50    0.60
  -5   2  -4    5.80    1.40
  -6   2  -4    1.50    0.80
  -6  -1   4    2.50    1.00
  -5  -1   4   50.09    2.60
  -4  -1   4   93.89    3.30
  -4  -1   4   91.99    3.00
   3   1  -4   18.10    1.10
  -3  -1   4   21.20    1.20
  -3  -1   4   19.90    1.20
   2   1  -4  980.90   18.20
  -2  -1   4  955.40   18.20
  -2  -1   4  932.81   18.10
  -1  -1   4 1097.89   20.00
  -1  -1   4 1075.49   20.20
   0   1  -4  791.32   15.10
   0  -1   4  765.52   14.80
   2  -1   4   93.09    3.10
   3  -1   4    4.60    0.90
   4  -1   4   -0.40    0.50
  -6   0   4    9.50    1.60
  -5   0   4    4.00    1.00
  -4   0   4   31.20    1.80
  -4   0   4   34.60    1.80
  -3   0   4    2.10    0.50
  -3   0   4    2.80    0.60
   2   0  -4   22.90    0.90
  -2   0   4   23.20    1.10
  -2   0   4   23.00    1.10
   1   0  -4  706.93   13.10
  -1   0   4  669.03   13.20
   0   0   4  135.59    3.50
   0   0   4  139.19    3.30
   1   0   4  156.88    4.20
   2   0   4  286.57    7.10
   3   0   4   26.70    1.80
   4   0   4    2.90    1.00
  -5   0  -4    2.70    0.90
  -6   1   4   20.80    2.20
  -5   1   4   19.40    1.70
  -5   1   4   20.60    2.00
  -4   1   4   70.29    2.80
  -4   1   4   69.59    2.90
  -3   1   4   40.50    1.90
   2  -1  -4   61.99    1.50
  -2   1   4   65.49    2.20
  -1   1   4    0.00    0.20
   0   1   4  603.64   11.70
   0   1   4  601.44   12.10
  -1  -1  -4  141.59    2.90
   1   1   4  138.89    4.00
   1   1   4  139.69    3.50
  -2  -1  -4  808.12   15.40
   2   1   4  806.82   16.80
  -3  -1  -4   90.89    2.80
   3   1   4   93.79    3.70
  -4  -1  -4    5.40    0.90
   4   1   4    5.70    1.30
  -5  -1  -4    9.30    1.30
  -6   2   4    8.20    1.50
  -5   2   4   90.79    3.60
  -5   2   4   77.19    3.50
  -4   2   4  208.78    5.90
  -3   2   4   14.20    1.20
   2  -2  -4  983.30   17.70
  -2   2   4  944.31   18.90
  -1   2   4   14.10    0.90
  -1   2   4   13.10    0.80
   0   2   4   10.10    0.90
   0   2   4   10.70    0.80
  -1  -2  -4  778.12   14.50
   1   2   4  794.12   15.20
   1   2   4  795.52   16.20
  -2  -2  -4   56.09    1.70
   2   2   4   55.69    2.70
  -3  -2  -4   58.09    2.10
   3   2   4   54.49    2.90
  -4  -2  -4   16.60    1.30
   4   2   4   20.40    2.30
  -6   3   4    5.40    1.30
  -6   3   4    7.60    1.50
  -5   3   4   56.59    3.10
  -4   3   4   26.60    1.90
  -3   3   4    1.80    0.70
  -2   3   4  564.24   10.80
  -2   3   4  568.24   11.90
  -1   3   4  148.59    3.80
  -1   3   4  146.19    3.90
   0   3   4  760.92   15.60
   0   3   4  773.52   14.90
  -1  -3  -4 1093.69   20.00
   1   3   4 1102.69   22.10
  -2  -3  -4    0.90    0.30
   2   3   4   -0.20    0.40
  -3  -3  -4  345.87    7.60
   3   3   4  363.66    9.60
   4   3   4   -0.20    0.70
  -6   4   4    5.90    1.50
  -5   4   4   20.90    2.30
  -4   4   4   85.19    3.70
  -3   4   4  128.39    4.30
  -2   4   4    1.40    0.40
  -2   4   4    1.70    0.70
  -1   4   4   32.70    1.60
  -1   4   4   32.40    1.60
   0   4   4   37.90    1.60
   0   4   4   40.50    2.00
  -1  -4  -4   91.79    2.20
   1   4   4   89.89    3.60
   1   4   4   92.09    2.70
  -2  -4  -4   82.79    2.30
   2   4   4   78.99    3.60
   3   4   4   23.50    2.20
   4   4   4   30.60    2.70
   5   4   4    4.80    1.50
  -6   5   4   11.20    2.00
  -5   5   4   -0.30    0.80
  -4   5   4   20.40    2.10
  -3   5   4   11.90    1.50
  -2   5   4  186.88    4.70
  -2   5   4  190.78    5.30
  -1   5   4   -0.10    0.30
  -1   5   4    0.10    0.40
   0   5   4  166.78    4.30
   0   5   4  176.08    5.20
   1   5   4   12.40    0.90
   1   5   4   12.30    1.60
   2   5   4    1.00    0.70
   3   5   4   21.70    2.60
   4   5   4    7.50    1.80
  -5   6   4    9.20    1.80
  -4   6   4   35.90    2.50
  -3   6   4   10.20    1.50
  -2   6   4   11.30    1.20
  -2   6   4    7.40    1.10
  -1   6   4    2.70    0.70
  -1   6   4    4.30    0.90
   0   6   4   50.79    2.70
   0   6   4   53.59    2.10
   1   6   4    8.00    1.50
   1   6   4    7.80    0.90
   2   6   4   12.40    1.90
   3   6   4   -0.50    0.70
   4   6   4    9.50    2.10
  -5   7   4    1.80    1.00
  -4   7   4    1.20    0.90
  -3   7   4    7.30    1.30
  -2   7   4   -0.60    0.50
  -1   7   4  318.57    8.20
  -1   7   4  315.67    7.70
   0   7   4  131.89    4.90
   1   7   4   12.80    1.80
   2   7   4    2.90    1.20
   3   7   4    5.30    1.50
   4   7   4   16.60    2.80
  -5   8   4   34.80    2.90
  -4   8   4    8.70    1.60
  -3   8   4    1.80    0.90
  -2   8   4  134.49    4.70
  -1   8   4   11.80    1.70
  -1   8   4   14.10    1.50
   0   8   4   14.20    1.90
   0   8   4   14.10    1.30
   1   8   4    6.00    1.40
   2   8   4   -0.60    0.90
   3   8   4    6.30    1.80
  -5   9   4    1.60    1.20
  -4   9   4    0.60    0.90
  -3   9   4   -0.70    0.80
  -2   9   4  150.28    5.10
  -1   9   4   25.50    1.90
  -1   9   4   26.60    2.30
   0   9   4   43.30    3.10
   1   9   4   43.40    3.30
   2   9   4    0.10    1.10
   3   9   4    1.00    1.20
  -4  10   4    0.80    1.00
  -3  10   4   19.90    2.40
  -2  10   4   32.90    2.40
  -1  10   4    6.90    1.50
   0  10   4    0.70    1.00
   1  10   4    0.20    1.00
   2  10   4    0.90    1.20
  -3  11   4   33.30    2.70
  -2  11   4    2.10    1.00
  -1  11   4    6.80    1.60
   0  11   4    9.40    2.10
   1  11   4   21.50    3.10
  -1  14  -5    0.50    1.20
   1  13  -5   16.20    2.80
   0  13  -5    1.80    1.20
  -1  13  -5   10.30    2.00
  -2  13  -5   -1.00    0.80
  -3  13  -5    4.00    1.30
   2  12  -5   -0.30    1.00
   1  12  -5   11.20    2.20
   0  12  -5   48.20    3.40
  -1  12  -5    3.30    1.30
  -2  12  -5    2.00    1.10
  -2  12  -5    1.00    0.80
  -3  12  -5    0.30    0.90
  -4  12  -5    3.00    1.50
   3  11  -5    5.60    1.90
  -3 -11   5    3.70    1.20
   2  11  -5   32.40    3.70
   1  11  -5    5.70    1.50
   0  11  -5   48.20    3.30
  -1  11  -5    5.50    1.40
  -2  11  -5   20.50    2.40
  -2  11  -5   20.40    2.30
  -3  11  -5   -1.30    0.70
  -4  11  -5   -0.30    0.80
   3  10  -5    5.30    1.70
  -3 -10   5    3.90    1.20
   2  10  -5   62.59    4.00
  -2 -10   5   61.79    2.80
   1  10  -5  306.57    9.30
   0  10  -5   29.00    2.40
  -1  10  -5    4.40    1.20
  -1  10  -5    4.40    1.00
  -2  10  -5   31.70    2.40
  -2  10  -5   30.00    2.30
  -3  10  -5   28.70    2.60
  -4  10  -5   -0.50    0.90
   4   9  -5    1.10    1.20
  -4  -9   5   -0.20    0.90
   3   9  -5    3.80    1.40
  -3  -9   5    1.00    0.90
   2   9  -5   88.69    4.50
  -2  -9   5   84.99    3.20
   1   9  -5   10.80    1.70
   0   9  -5   12.60    1.70
  -1   9  -5    7.80    1.40
  -1   9  -5    6.80    1.10
  -2   9  -5    6.80    1.30
  -2   9  -5   10.20    1.60
  -3   9  -5   34.50    2.30
  -3   9  -5   30.00    2.50
  -4   9  -5    2.80    1.20
  -5   9  -5    0.80    1.20
   4   8  -5   -0.20    0.90
  -4  -8   5   -0.70    0.60
   3   8  -5    1.20    1.00
  -3  -8   5    1.40    0.80
   2   8  -5    0.70    0.70
  -2  -8   5    2.40    0.70
   1   8  -5   15.60    1.90
   0   8  -5   25.10    1.90
   0   8  -5   19.40    1.30
  -1   8  -5   12.90    1.60
  -1   8  -5    9.10    1.20
  -2   8  -5    7.00    1.20
  -2   8  -5    7.10    1.20
  -3   8  -5   28.60    2.10
  -3   8  -5   32.70    2.50
  -4   8  -5    8.30    1.70
  -5   8  -5    3.00    1.40
  -5  -7   5   -0.70    0.80
   4   7  -5   10.10    1.80
  -4  -7   5    9.40    1.40
   3   7  -5    8.00    1.50
  -3  -7   5    7.80    1.10
   2   7  -5   70.29    3.50
  -2  -7   5   67.09    2.50
   1   7  -5   53.89    2.90
  -1  -7   5   61.59    2.20
   0   7  -5    0.90    0.60
  -1   7  -5    0.10    0.50
  -2   7  -5  113.79    4.20
  -2   7  -5  114.09    4.00
  -3   7  -5  130.29    4.40
  -3   7  -5  131.79    5.00
  -4   7  -5   15.40    2.20
  -5   7  -5   12.10    2.00
  -5  -6   5   -0.30    0.80
   4   6  -5    2.80    1.00
  -4  -6   5    2.30    0.90
   3   6  -5   16.40    2.00
  -3  -6   5   16.80    1.30
   2   6  -5    8.60    1.30
  -2  -6   5    9.40    1.00
   1   6  -5   45.80    2.40
  -1  -6   5   47.70    1.90
   0   6  -5  451.35   10.40
  -1   6  -5   77.59    3.00
  -2   6  -5   35.00    2.00
  -3   6  -5    0.80    0.60
  -3   6  -5    0.90    0.80
  -5   6  -5    5.00    1.50
  -5  -5   5    0.60    0.80
  -4  -5   5   81.59    3.20
   3   5  -5   31.30    2.20
  -3  -5   5   34.60    1.80
   2   5  -5   43.10    2.30
  -2  -5   5   45.70    1.80
   1   5  -5  250.57    6.50
  -1  -5   5  241.88    5.50
   0   5  -5    1.30    0.50
  -1   5  -5    3.80    0.70
  -2   5  -5   68.49    2.80
  -3   5  -5   29.00    1.80
  -4   5  -5   29.90    2.40
  -5   5  -5    4.60    1.40
  -5  -4   5    0.80    0.80
  -4  -4   5   33.10    1.90
   3   4  -5   64.49    2.90
   2   4  -5  180.08    5.20
  -2  -4   5  181.88    4.50
  -2  -4   5  186.78    4.00
   1   4  -5  668.43   13.90
  -1  -4   5  668.03   13.00
   0   4  -5   21.90    1.30
  -1   4  -5  748.63   15.20
  -2   4  -5  604.94   12.80
  -3   4  -5   81.59    3.10
  -4   4  -5   86.29    3.80
  -4   4  -5   85.99    3.40
  -5   4  -5    4.60    1.30
  -5  -3   5   41.60    2.40
  -4  -3   5    0.80    0.50
   3   3  -5    0.00    0.40
  -3  -3   5    0.10    0.40
  -3  -3   5    0.40    0.40
   2   3  -5    6.50    0.90
  -2  -3   5    6.60    0.70
  -2  -3   5    6.90    0.60
   1   3  -5   99.89    3.20
  -1  -3   5  103.89    2.60
  -1  -3   5  101.39    2.60
   0   3  -5   23.10    1.30
  -1   3  -5  199.38    5.10
  -2   3  -5  214.38    5.60
  -3   3  -5    6.00    1.00
  -4   3  -5   25.80    1.90
  -5   3  -5    0.60    0.80
  -6  -2   5    0.00    0.70
  -5  -2   5   62.89    2.90
  -4  -2   5   -0.50    0.40
   3   2  -5  156.38    4.30
  -3  -2   5  153.78    4.20
  -3  -2   5  158.78    3.90
   2   2  -5  504.95   10.50
  -2  -2   5  505.25   10.20
  -2  -2   5  508.75   10.00
   1   2  -5 1026.70   20.10
  -1  -2   5 1043.90   19.60
  -1  -2   5 1070.09   19.50
   0   2  -5 1352.36   25.70
   0  -2   5 1365.66   25.40
  -1   2  -5  287.77    6.70
  -2   2  -5   22.80    1.50
  -3   2  -5   24.80    1.70
  -4   2  -5   47.70    2.60
  -5   2  -5   10.40    1.60
  -6  -1   5    7.80    1.50
  -5  -1   5    5.20    1.10
  -4  -1   5   27.20    1.60
  -4  -1   5   25.20    1.60
   3   1  -5    0.40    0.30
  -3  -1   5    0.50    0.40
  -3  -1   5    0.30    0.40
   2   1  -5  513.65   10.20
  -2  -1   5  499.75   10.10
  -2  -1   5  501.45   10.10
   1   1  -5  121.79    3.20
  -1  -1   5  119.29    2.70
   0   1  -5  341.57    7.40
   0  -1   5  338.77    7.10
  -1   1  -5  891.21   17.70
   2  -1   5  218.48    5.90
   3  -1   5   81.89    3.40
   4  -1   5   19.80    1.80
  -6   0   5   -0.90    0.60
  -5   0   5   59.09    2.80
  -4   0   5   37.10    2.00
  -4   0   5   40.40    2.10
  -3   0   5   64.99    2.40
  -3   0   5   62.29    2.30
   2   0  -5  157.38    3.60
  -2   0   5  152.98    3.70
  -2   0   5  154.08    4.00
  -1   0   5  171.38    3.60
  -1   0   5  172.08    4.10
   0   0   5   13.30    1.00
   0   0   5   12.60    0.80
   1   0   5  221.58    5.20
   1   0   5  222.08    5.70
   2   0   5  604.74   13.20
   3   0   5   -0.20    0.50
  -4   0  -5   38.70    2.00
   4   0   5   33.30    2.40
  -6   1   5    2.10    0.90
  -5   1   5    1.30    0.80
  -5   1   5    1.30    0.80
  -4   1   5   81.49    3.20
  -4   1   5   83.69    3.10
  -3   1   5   86.49    2.80
  -3   1   5   86.29    3.00
   2  -1  -5  200.08    4.20
  -2   1   5  191.88    4.50
  -2   1   5  196.48    4.90
   1  -1  -5 1449.85   27.00
  -1   1   5 1459.15   26.30
  -1   1   5 1418.26   27.00
   0   1   5   22.40    1.10
   0   1   5   24.90    1.40
  -1  -1  -5    9.30    0.40
   1   1   5    7.70    1.00
   1   1   5    9.90    0.80
  -2  -1  -5   97.19    2.50
   2   1   5   97.89    3.70
  -3  -1  -5   13.80    1.00
   3   1   5   14.30    1.70
  -4  -1  -5    5.70    1.00
   4   1   5    5.20    1.30
  -6   2   5   -0.90    0.70
  -5   2   5    1.70    0.80
  -5   2   5    1.40    0.80
  -4   2   5  145.89    4.70
  -3   2   5    4.90    0.90
   2  -2  -5   69.29    1.90
  -2   2   5   67.89    2.50
  -1   2   5  176.78    4.30
  -1   2   5  177.08    4.40
   0   2   5  327.17    7.10
   0   2   5  328.57    7.60
  -1  -2  -5   17.00    0.60
   1   2   5   17.00    1.50
   1   2   5   19.20    1.10
  -2  -2  -5    2.00    0.40
   2   2   5    1.80    0.70
  -3  -2  -5   30.40    1.70
   3   2   5   30.10    2.40
   4   2   5  119.99    5.10
  -6   3   5    0.60    0.80
  -6   3   5   -0.40    0.80
  -5   3   5   63.39    3.30
  -4   3   5    0.60    0.70
  -3   3   5   33.20    1.90
  -2   3   5 1147.59   22.60
  -2   3   5 1164.18   21.70
  -1   3   5   27.80    1.40
  -1   3   5   27.60    1.50
   0   3   5   20.00    1.20
   0   3   5   20.30    1.40
  -1  -3  -5   64.79    1.50
   1   3   5   63.89    2.90
   1   3   5   63.99    2.20
   2   3   5  222.68    6.70
   3   3   5   11.80    1.80
   4   3   5    1.40    1.00
   5   3   5    1.00    1.10
  -6   4   5   13.60    2.00
  -6   4   5   18.00    2.10
  -5   4   5  102.29    4.40
  -4   4   5   12.60    1.60
  -3   4   5    2.50    0.80
  -2   4   5  229.88    5.40
  -2   4   5  239.18    6.10
  -1   4   5    9.40    1.10
  -1   4   5    7.90    1.00
   0   4   5    2.70    0.70
   0   4   5    3.40    0.60
   1   4   5   31.40    2.10
   2   4   5   13.90    1.90
   3   4   5    1.30    0.90
   4   4   5   12.20    2.10
  -6   5   5   10.50    1.90
  -5   5   5   24.40    2.60
  -4   5   5   39.90    2.60
  -3   5   5   56.69    2.80
  -2   5   5    0.70    0.40
  -2   5   5    1.00    0.60
  -1   5   5  536.15   11.40
  -1   5   5  517.95   11.60
   0   5   5   38.40    2.20
   0   5   5   34.70    1.70
   1   5   5   15.50    1.90
   1   5   5   14.30    1.00
   2   5   5    0.90    0.80
   3   5   5    0.60    1.00
   4   5   5   -0.70    0.70
  -5   6   5    5.60    1.40
  -4   6   5   10.20    1.60
  -3   6   5   58.49    3.00
  -2   6   5   35.50    2.10
  -1   6   5   50.29    2.60
  -1   6   5   50.59    2.40
   0   6   5   53.89    2.20
   0   6   5   53.99    2.90
   1   6   5    0.80    0.50
   1   6   5    0.60    0.70
   2   6   5    0.20    0.80
   3   6   5    3.50    1.40
   4   6   5    1.40    1.20
  -5   7   5    5.10    1.50
  -4   7   5   77.79    3.80
  -3   7   5   10.70    1.60
  -2   7   5  237.88    6.70
  -1   7   5   32.50    2.00
  -1   7   5   30.60    2.20
   0   7   5   -0.80    0.60
   0   7   5    0.10    0.50
   1   7   5   55.69    3.40
   2   7   5   22.40    2.80
   3   7   5    1.50    1.30
  -5   8   5    0.30    1.00
  -4   8   5    7.30    1.50
  -3   8   5    6.40    1.30
  -2   8   5  163.08    5.30
  -1   8   5   30.80    2.30
  -1   8   5   30.20    2.00
   0   8   5    2.20    1.00
   0   8   5    0.10    0.50
   1   8   5    3.10    1.40
   2   8   5   18.00    2.60
   3   8   5    4.40    1.70
  -4   9   5    7.80    1.70
  -2   9   5   23.60    2.00
  -1   9   5   11.00    1.50
  -1   9   5    8.40    1.60
   0   9   5    0.40    0.90
   1   9   5    0.30    1.00
   2   9   5    1.00    1.20
  -4  10   5    3.90    1.40
  -3  10   5   -0.70    0.80
  -2  10   5    0.80    0.90
  -1  10   5   -0.10    0.80
   0  10   5    3.40    1.40
   1  10   5    0.20    1.00
  -3  11   5    1.90    1.10
  -2  11   5    5.10    1.40
   0  11   5    5.20    1.70
  -1  14  -6    0.50    1.00
   1  13  -6    5.60    1.90
   0  13  -6   -0.30    0.90
  -1  13  -6   -0.30    0.90
  -2  13  -6    1.30    1.10
  -3  13  -6    0.80    1.10
   2  12  -6    0.00    1.10
   1  12  -6   -0.30    1.00
   0  12  -6   35.10    3.00
  -1  12  -6   17.20    2.30
  -2  12  -6    3.00    1.20
  -2  12  -6    3.40    1.10
  -3  12  -6   10.20    1.90
   3  11  -6   20.20    2.90
  -3 -11   6   14.60    1.80
   2  11  -6   16.60    2.70
   1  11  -6    6.50    1.60
   0  11  -6  129.39    5.60
  -1  11  -6    0.50    0.80
  -2  11  -6    7.40    1.50
  -2  11  -6    8.80    1.70
  -3  11  -6   23.10    2.70
  -4  11  -6   18.10    2.60
   3  10  -6    3.50    1.60
  -3 -10   6    2.90    1.10
   2  10  -6    8.40    1.90
  -2 -10   6    7.80    1.30
   1  10  -6  174.28    6.60
   0  10  -6    1.20    0.90
  -1  10  -6   78.89    3.90
  -1  10  -6   80.49    3.40
  -2  10  -6   27.10    2.30
  -2  10  -6   22.30    2.20
  -3  10  -6    8.30    1.60
  -3  10  -6    8.00    1.70
  -4  10  -6   21.70    2.80
   4   9  -6    2.30    1.30
  -4  -9   6    0.30    1.00
   3   9  -6    2.60    1.20
  -3  -9   6    5.10    1.20
   2   9  -6   35.30    2.80
  -2  -9   6   38.60    2.20
   1   9  -6  118.19    5.00
   0   9  -6    0.10    0.60
  -1   9  -6   30.50    2.00
  -1   9  -6   32.60    2.40
  -2   9  -6   19.90    2.20
  -2   9  -6   15.50    1.90
  -3   9  -6   74.19    3.90
  -3   9  -6   69.09    3.50
  -4   9  -6    6.40    1.50
  -5   9  -6    1.20    1.10
   4   8  -6    0.50    0.90
  -4  -8   6    0.20    0.80
   3   8  -6   18.40    2.50
  -3  -8   6   14.40    1.60
   2   8  -6    7.00    1.40
  -2  -8   6    6.50    1.10
   1   8  -6   11.70    1.70
   0   8  -6   48.20    2.80
  -1   8  -6    8.30    1.40
  -2   8  -6   22.50    1.90
  -2   8  -6   23.10    2.00
  -3   8  -6   34.60    2.60
  -3   8  -6   36.50    2.40
  -4   8  -6    0.40    0.90
  -5   8  -6    2.00    1.20
  -5  -7   6   -1.40    0.80
   4   7  -6    7.30    1.50
  -4  -7   6    7.00    1.20
   3   7  -6   41.20    2.90
  -3  -7   6   37.90    2.10
   2   7  -6   25.40    2.10
  -2  -7   6   30.30    1.70
   1   7  -6    0.80    0.60
  -1  -7   6    1.30    0.60
   0   7  -6   19.70    1.70
  -1   7  -6    0.70    0.60
  -2   7  -6  132.49    4.50
  -3   7  -6  114.19    4.60
  -3   7  -6  111.69    4.10
  -4   7  -6    9.10    1.70
  -5   7  -6    1.10    1.10
  -5  -6   6    0.80    0.80
  -4  -6   6    1.20    0.80
   3   6  -6   15.30    1.90
  -3  -6   6   12.90    1.30
   2   6  -6    0.60    0.50
  -2  -6   6    1.10    0.60
   1   6  -6  771.62   16.60
  -1  -6   6  772.32   15.20
   0   6  -6   41.90    2.30
  -1   6  -6   48.50    2.40
  -2   6  -6  277.27    7.30
  -3   6  -6   21.60    1.80
  -4   6  -6    3.50    1.20
  -5  -5   6   17.70    1.90
  -4  -5   6    0.90    0.80
   3   5  -6   25.90    1.90
  -3  -5   6   25.50    1.60
   2   5  -6   24.10    1.70
  -2  -5   6   25.10    1.40
   1   5  -6  255.17    6.80
  -1  -5   6  254.27    5.70
   0   5  -6   44.20    2.20
  -1   5  -6  115.99    3.90
  -2   5  -6   53.29    2.50
  -3   5  -6    0.80    0.60
  -4   5  -6   29.40    2.00
  -4   5  -6   30.50    2.40
  -5   5  -6    8.00    1.70
  -5  -4   6    2.40    0.90
  -4  -4   6  114.99    3.90
   2   4  -6    3.90    0.80
  -2  -4   6    3.30    0.60
  -2  -4   6    4.50    0.60
   1   4  -6  169.68    4.80
  -1  -4   6  166.98    4.00
  -1  -4   6  160.48    3.90
   0   4  -6  151.18    4.40
  -1   4  -6    1.60    0.50
  -2   4  -6  139.19    4.30
  -3   4  -6    0.60    0.60
  -4   4  -6   -0.20    0.50
  -5   4  -6    3.80    1.20
  -5  -3   6    8.40    1.30
  -4  -3   6   51.89    2.40
   3   3  -6   55.99    2.50
  -3  -3   6   60.19    2.00
  -3  -3   6   54.19    2.20
   2   3  -6  617.74   13.70
  -2  -3   6  680.53   12.90
  -2  -3   6  678.43   13.00
   1   3  -6    3.70    0.70
  -1  -3   6    2.50    0.50
   0   3  -6    3.80    0.70
  -1   3  -6  295.67    7.10
  -2   3  -6   85.69    3.20
  -3   3  -6  138.29    4.60
  -4   3  -6    1.50    0.80
  -5   3  -6   15.10    2.00
  -6  -2   6    6.10    1.30
  -5  -2   6   -0.50    0.60
  -4  -2   6    6.80    1.00
   3   2  -6   11.80    1.00
  -3  -2   6   14.90    1.00
  -3  -2   6   13.30    1.20
   2   2  -6  101.79    3.10
  -2  -2   6   97.49    2.70
  -2  -2   6   98.69    2.80
   1   2  -6   26.20    1.40
  -1  -2   6   27.90    1.30
  -1  -2   6   27.70    1.10
   0   2  -6   46.30    1.90
   0  -2   6   44.70    1.70
  -1   2  -6  399.06    9.00
  -2   2  -6  119.09    4.00
  -3   2  -6   69.29    3.10
  -4   2  -6   28.80    2.20
  -5   2  -6    7.10    1.50
  -6  -1   6    0.60    0.80
  -5  -1   6    4.70    1.00
  -4  -1   6    2.90    0.70
  -4  -1   6    3.00    0.80
  -3  -1   6   30.90    1.60
  -3  -1   6   32.20    1.60
   2   1  -6 1465.05   27.40
  -2  -1   6 1424.46   27.10
  -2  -1   6 1486.15   27.40
   1   1  -6   89.79    2.80
  -1  -1   6   86.69    2.20
  -1  -1   6   91.99    2.60
   0   1  -6   87.89    2.90
   0  -1   6   85.69    2.60
  -1   1  -6  106.39    3.50
   2  -1   6    2.50    0.80
   3  -1   6   42.70    2.50
  -6   0   6    9.60    1.60
  -5   0   6   24.90    1.90
  -4   0   6  199.98    5.50
  -4   0   6  200.18    5.50
  -3   0   6   83.29    2.80
  -3   0   6   77.29    2.70
   2   0  -6   33.20    1.40
  -2   0   6   30.70    1.30
  -2   0   6   32.20    1.50
  -1   0   6  803.02   15.70
  -1   0   6  802.62   14.90
   0   0  -6  150.28    4.10
   0   0   6  144.39    3.80
   1   0   6   64.59    2.70
   1   0   6   70.79    2.40
   2   0   6  234.98    6.50
   3   0   6    1.00    0.70
   4   0   6   43.40    2.90
  -6   1   6    0.50    0.80
  -5   1   6    2.70    0.90
  -5   1   6    0.70    0.80
  -4   1   6   45.40    2.30
  -4   1   6   42.60    2.20
  -3   1   6    4.40    0.70
  -3   1   6    4.90    0.90
   2  -1  -6   31.40    1.30
  -2   1   6   35.00    1.70
  -1   1   6  514.95   10.80
  -1   1   6  529.55    9.90
   0   1   6   28.60    1.60
   0   1   6   28.00    1.40
  -1  -1  -6  116.99    2.40
   1   1   6  120.19    4.00
   1   1   6  118.39    3.40
  -2  -1  -6  633.64   12.10
   2   1   6  624.54   14.10
   3   1   6   87.79    3.90
   4   1   6   50.39    3.20
  -6   2   6    0.70    0.90
  -5   2   6    8.60    1.50
  -5   2   6    9.70    1.40
  -4   2   6   47.10    2.50
  -4   2   6   48.80    2.40
  -3   2   6    6.20    0.90
   2  -2  -6   95.99    2.70
  -2   2   6   90.89    3.10
  -1   2   6  795.12   16.00
  -1   2   6  817.92   15.00
  -1   2   6  807.82   16.00
   0   2   6   91.49    3.20
   0   2   6   87.59    2.80
   1   2   6    6.70    0.90
   1   2   6    6.10    1.10
   2   2   6   20.40    1.80
   3   2   6   47.30    3.00
   4   2   6   14.30    2.20
   5   2   6   24.60    3.00
  -6   3   6    8.30    1.70
  -6   3   6   10.20    1.60
  -5   3   6    1.40    0.80
  -5   3   6    0.40    0.90
  -4   3   6    0.40    0.60
  -3   3   6   50.29    2.40
  -2   3   6    4.10    0.80
  -1   3   6  487.85   10.50
  -1   3   6  497.15   10.60
   0   3   6   10.70    1.00
   0   3   6    9.60    1.20
   1   3   6    1.90    0.50
   1   3   6    2.40    0.80
   2   3   6   69.89    3.50
   3   3   6   25.80    2.40
   4   3   6    0.60    0.90
  -6   4   6    1.20    1.10
  -6   4   6    1.60    0.90
  -5   4   6    4.20    1.30
  -4   4   6    0.00    0.70
  -3   4   6    0.10    0.50
  -2   4   6   32.00    1.90
  -2   4   6   29.70    1.50
  -1   4   6   81.59    3.00
  -1   4   6   81.59    2.90
   0   4   6   38.50    1.80
   0   4   6   37.60    2.20
   1   4   6   17.70    2.00
   1   4   6   20.00    1.30
   2   4   6   19.80    2.20
   3   4   6   -0.50    0.60
   4   4   6    9.10    1.90
  -5   5   6   14.40    2.10
  -4   5   6    8.00    1.50
  -3   5   6   -0.30    0.50
  -2   5   6   35.70    2.00
  -1   5   6    4.30    0.90
  -1   5   6    3.70    0.80
   0   5   6   78.29    3.50
   0   5   6   78.19    2.80
   1   5   6    0.00    0.50
   1   5   6    0.40    0.30
   2   5   6   13.20    1.90
   3   5   6   -0.40    0.80
   4   5   6   11.00    2.20
  -5   6   6    2.10    1.10
  -4   6   6   50.99    3.10
  -3   6   6   14.80    1.80
  -2   6   6   44.70    2.40
  -1   6   6  577.94   12.80
  -1   6   6  532.05   12.10
   0   6   6   17.90    1.40
   0   6   6   15.40    1.90
   1   6   6    0.30    0.80
   1   6   6    1.30    0.60
   2   6   6    4.90    1.40
   3   6   6   20.60    2.90
  -5   7   6   -0.90    0.80
  -4   7   6    0.60    0.90
  -3   7   6    0.10    0.70
  -2   7   6  361.06    9.10
  -1   7   6  376.86    9.70
  -1   7   6  377.86    9.20
   0   7   6    0.40    0.60
   0   7   6   -0.50    0.50
   1   7   6   18.40    2.40
   2   7   6    0.50    0.80
   3   7   6   -0.80    0.90
  -4   8   6   -1.30    0.70
  -3   8   6    3.00    1.10
  -2   8   6   56.79    3.00
  -1   8   6    8.60    1.60
  -1   8   6   10.70    1.50
   0   8   6    2.20    1.00
   1   8   6   13.10    2.20
   2   8   6    6.20    1.80
  -4   9   6    2.80    1.20
  -3   9   6    2.80    1.10
  -2   9   6    0.10    0.80
  -1   9   6    9.40    1.70
  -1   9   6   12.40    1.60
   0   9   6    4.60    1.40
   1   9   6    0.60    1.00
   2   9   6   -0.10    1.00
  -3  10   6   11.10    1.90
  -2  10   6    0.70    0.90
   0  10   6   22.60    2.90
   1  10   6    1.50    1.30
  -2  11   6    8.20    1.60
   1  13  -7    0.50    1.10
   0  13  -7   15.10    2.50
  -1  13  -7    0.10    1.00
  -2  13  -7    0.80    1.10
   2  12  -7   16.30    2.90
   1  12  -7   -0.50    0.90
   0  12  -7   19.40    2.70
  -1  12  -7    1.60    1.10
  -2  12  -7   31.90    2.60
  -2  12  -7   25.00    2.90
  -3  12  -7    2.90    1.40
   3  11  -7   20.40    3.10
  -3 -11   7   19.20    2.10
   2  11  -7   11.50    2.30
   1  11  -7   25.80    3.10
   0  11  -7    1.00    1.00
  -1  11  -7    0.20    0.70
  -2  11  -7   26.20    2.40
  -2  11  -7   29.40    2.50
  -3  11  -7    5.20    1.80
  -3  11  -7    4.60    1.50
  -4  11  -7    1.30    1.20
   3  10  -7   11.10    2.20
  -3 -10   7    7.60    1.50
   2  10  -7    0.50    0.90
  -2 -10   7   -0.10    0.80
   1  10  -7   19.90    2.50
   0  10  -7    9.30    1.70
  -1  10  -7   15.40    2.10
  -1  10  -7   14.00    1.70
  -2  10  -7   25.10    2.60
  -2  10  -7   21.20    2.40
  -3  10  -7   11.30    1.80
  -3  10  -7   13.00    2.10
  -4  10  -7    0.00    1.00
   4   9  -7    0.70    1.10
  -4  -9   7   -0.30    1.00
   3   9  -7    0.90    1.00
  -3  -9   7    0.20    0.80
   2   9  -7    2.90    1.20
  -2  -9   7    1.90    0.90
   1   9  -7   24.00    2.20
   0   9  -7    1.30    0.90
  -1   9  -7    5.90    1.30
  -2   9  -7   27.30    2.20
  -2   9  -7   25.10    2.20
  -3   9  -7    9.10    1.70
  -3   9  -7   10.80    1.80
  -4   9  -7   27.00    3.10
   4   8  -7    8.20    1.90
  -4  -8   7    4.70    1.20
   3   8  -7   -0.70    0.70
  -3  -8   7   -1.10    0.70
   2   8  -7   43.50    2.90
  -2  -8   7   39.60    2.20
   1   8  -7    3.30    1.00
   0   8  -7   -0.10    0.60
  -1   8  -7   66.89    3.30
  -2   8  -7  132.49    4.80
  -3   8  -7   19.50    2.30
  -3   8  -7   16.80    2.00
  -4   8  -7    6.10    1.50
  -5   8  -7    0.20    0.90
  -4  -7   7   12.20    1.50
   3   7  -7   28.20    2.30
  -3  -7   7   30.60    2.00
   2   7  -7    0.40    0.60
  -2  -7   7   -0.30    0.60
   1   7  -7   13.20    1.70
  -1  -7   7   11.10    1.10
   0   7  -7  509.75   12.10
  -1   7  -7   32.50    2.20
  -2   7  -7   56.79    2.90
  -3   7  -7  285.77    7.90
  -4   7  -7    1.20    0.80
  -5   7  -7    2.50    1.20
  -5  -6   7    0.40    0.90
  -4  -6   7    1.40    0.80
   3   6  -7   31.40    2.30
  -3  -6   7   29.50    1.90
   2   6  -7   -0.20    0.40
  -2  -6   7    0.10    0.50
   1   6  -7   41.10    2.40
  -1  -6   7   42.80    1.80
   0   6  -7  521.25   12.00
  -1   6  -7   24.70    1.80
  -2   6  -7  211.48    6.20
  -3   6  -7    8.20    1.30
  -4   6  -7   27.60    2.50
  -4   6  -7   30.50    2.30
  -5   6  -7    1.20    1.10
  -5  -5   7    1.10    0.90
  -4  -5   7   92.69    3.50
   3   5  -7    7.90    1.30
  -3  -5   7    8.70    1.10
   2   5  -7    0.00    0.40
  -2  -5   7    0.30    0.30
  -2  -5   7    0.90    0.50
   1   5  -7  148.49    4.70
  -1  -5   7  141.99    3.80
   0   5  -7  221.78    6.10
  -1   5  -7   81.39    3.30
  -2   5  -7  145.89    4.70
  -3   5  -7   36.20    2.20
  -4   5  -7    1.90    0.90
  -5   5  -7    4.10    1.40
  -5  -4   7    0.70    0.70
  -4  -4   7    3.60    0.90
   3   4  -7    4.00    0.90
  -3  -4   7    6.30    1.00
   2   4  -7   69.89    3.00
  -2  -4   7   70.59    2.30
  -2  -4   7   74.79    2.40
   1   4  -7   57.89    2.60
  -1  -4   7   64.09    2.10
  -1  -4   7   61.79    2.00
   0   4  -7    0.20    0.40
  -1   4  -7  144.39    4.40
  -2   4  -7    1.30    0.60
  -3   4  -7   42.30    2.40
  -4   4  -7   25.20    2.00
  -5   4  -7    2.90    1.20
  -5  -3   7    3.80    1.00
  -4  -3   7   51.29    2.40
   3   3  -7  134.29    4.30
  -3  -3   7  139.89    4.00
  -3  -3   7  140.09    3.70
   2   3  -7   37.20    1.90
  -2  -3   7   38.30    1.60
  -2  -3   7   40.10    1.60
   1   3  -7    0.20    0.30
  -1  -3   7   -0.40    0.30
  -1  -3   7    0.00    0.30
   0   3  -7  891.81   18.10
   0  -3   7  904.21   17.60
  -1   3  -7    0.70    0.40
  -2   3  -7   59.49    2.70
  -3   3  -7  170.58    5.40
  -4   3  -7    4.40    1.10
  -5   3  -7   -0.20    0.80
  -5  -2   7    3.90    1.00
  -4  -2   7   40.50    2.10
  -3  -2   7   90.09    2.90
  -3  -2   7   87.29    2.90
   2   2  -7   58.19    2.30
  -2  -2   7   59.99    2.10
  -2  -2   7   56.49    2.00
   1   2  -7  508.45   10.80
  -1  -2   7  492.15   10.30
   0   2  -7  114.39    3.60
   0  -2   7  111.49    3.30
  -1   2  -7   70.09    2.80
  -2   2  -7   21.00    1.60
  -3   2  -7    1.90    0.80
  -4   2  -7   32.50    2.50
  -5   2  -7    4.00    1.20
  -6  -1   7   17.10    2.10
  -5  -1   7   -0.50    0.50
  -4  -1   7   -0.60    0.50
  -4  -1   7    0.80    0.50
  -3  -1   7  173.88    4.60
  -3  -1   7  161.48    4.40
   2   1  -7   62.29    2.20
  -2  -1   7   56.69    2.20
  -2  -1   7   60.19    1.90
   1   1  -7   19.90    1.30
  -1  -1   7   17.70    1.20
  -1  -1   7   19.40    0.90
   0   1  -7    5.00    0.80
   0  -1   7    5.80    0.80
  -1   1  -7   24.20    1.60
  -4   1  -7    0.60    0.70
  -6   0   7    0.00    0.80
  -5   0   7   -0.30    0.50
  -4   0   7  116.09    3.90
  -4   0   7  114.29    3.80
  -3   0   7    3.50    0.60
  -3   0   7    4.50    0.80
   2   0  -7    0.20    0.20
  -2   0   7   -0.10    0.10
  -2   0   7    1.60    0.50
   1   0  -7  116.89    3.50
  -1   0   7  112.19    3.40
  -1   0   7  118.39    2.60
   0   0  -7  242.48    6.20
   0   0   7  239.48    5.80
   1   0   7  101.49    3.70
   1   0   7  103.39    3.30
   2   0   7    9.70    1.40
   3   0   7    8.90    1.50
   4   0   7   19.90    2.40
  -6   1   7    7.10    1.40
  -5   1   7    2.80    1.00
  -5   1   7    1.20    0.80
  -4   1   7  150.68    4.80
  -4   1   7  151.18    4.50
  -3   1   7    8.30    0.90
  -3   1   7    8.40    1.10
   2  -1  -7   69.89    2.30
  -2   1   7   71.69    2.10
  -2   1   7   72.99    2.70
  -1   1   7  114.29    3.40
  -1   1   7  116.19    2.50
   0   1   7   47.00    2.00
   0   1   7   50.49    2.30
   1   1   7   76.29    2.70
   1   1   7   80.49    3.30
   2   1   7   14.30    1.70
   3   1   7   18.70    2.20
   4   1   7   18.70    2.40
   5   1   7    2.40    1.40
  -6   2   7    3.90    1.20
  -5   2   7   34.00    2.20
  -5   2   7   29.10    2.30
  -4   2   7   69.49    3.10
  -4   2   7   68.39    2.90
  -3   2   7   18.20    1.40
  -3   2   7   17.40    1.20
   2  -2  -7    0.30    0.30
  -2   2   7    0.50    0.30
  -2   2   7    0.40    0.40
  -1   2   7   82.79    2.90
  -1   2   7   88.39    3.00
  -1   2   7   86.69    2.00
   0   2   7   47.20    2.30
   0   2   7   49.80    2.10
   1   2   7  135.09    4.00
   1   2   7  133.29    4.70
   2   2   7  119.69    4.70
   3   2   7   68.99    3.80
   4   2   7   19.30    2.60
  -5   3   7    7.40    1.50
  -5   3   7    6.40    1.20
  -4   3   7   53.99    2.50
  -4   3   7   49.80    2.70
  -3   3   7    8.00    1.20
   2  -3  -7    4.50    0.80
  -2   3   7    5.40    1.00
  -1   3   7   31.10    1.80
  -1   3   7   35.20    1.90
   0   3   7  361.06    8.30
   0   3   7  367.86    9.00
   1   3   7   43.60    2.60
   1   3   7   42.20    2.00
   2   3   7    0.00    0.70
   3   3   7    0.10    0.70
   4   3   7   -0.20    0.90
  -5   4   7   15.30    2.00
  -5   4   7   13.60    1.70
  -4   4   7    4.90    1.10
  -3   4   7   31.70    2.10
  -2   4   7    5.40    1.00
  -1   4   7   36.90    2.00
  -1   4   7   40.10    2.10
   0   4   7  106.29    4.00
   0   4   7   97.69    3.40
   1   4   7    2.50    0.90
   1   4   7    1.50    0.60
   2   4   7    3.00    1.10
   3   4   7    5.60    1.50
   4   4   7    0.00    0.90
  -5   5   7   10.30    1.70
  -4   5   7    0.90    0.80
  -3   5   7   49.80    2.70
  -2   5   7    7.50    1.20
  -1   5   7  332.57    8.50
  -1   5   7  339.17    8.20
   0   5   7   28.30    2.10
   0   5   7   30.80    1.90
   1   5   7   31.80    2.50
   1   5   7   31.40    1.80
   2   5   7    1.30    0.90
   3   5   7    0.90    1.00
  -5   6   7    3.20    1.30
  -4   6   7    0.40    0.90
  -3   6   7   25.20    2.10
  -2   6   7    2.30    0.90
  -1   6   7   79.79    3.60
  -1   6   7   77.09    3.30
   0   6   7   31.90    2.40
   0   6   7   31.00    1.90
   1   6   7   69.59    3.90
   2   6   7    0.40    0.80
   3   6   7    2.40    1.40
  -5   7   7    4.60    1.40
  -4   7   7    2.10    1.10
  -3   7   7    2.80    1.10
  -2   7   7   96.39    4.00
  -1   7   7   46.70    2.60
  -1   7   7   46.70    2.80
   0   7   7    7.80    1.60
   0   7   7    6.50    1.10
   1   7   7   22.40    2.80
   2   7   7    6.80    1.80
   3   7   7    2.40    1.50
  -4   8   7   15.80    2.20
  -3   8   7   -0.80    0.70
  -2   8   7    0.20    0.80
  -1   8   7    2.70    1.00
  -1   8   7    1.70    0.90
   0   8   7    6.70    1.60
   1   8   7    9.40    1.90
   2   8   7   -0.30    0.90
  -4   9   7    4.50    1.40
  -3   9   7    3.90    1.30
  -2   9   7    0.00    0.80
  -1   9   7    1.90    1.00
  -1   9   7    1.80    1.40
   0   9   7    5.60    1.60
   1   9   7    1.30    1.20
  -3  10   7    0.30    1.10
  -2  10   7    0.90    1.00
   0  10   7    0.20    1.10
   1  13  -8    0.10    1.00
   0  13  -8    4.80    1.80
  -1  13  -8    3.20    1.40
  -2  13  -8    0.20    1.00
   2  12  -8   11.30    2.40
   1  12  -8    2.10    1.30
   0  12  -8  153.28    6.60
  -1  12  -8    0.60    1.10
  -2  12  -8    2.40    1.20
  -2  12  -8    2.70    1.20
  -3  12  -8    9.70    2.00
   3  11  -8   22.50    3.20
  -3 -11   8   13.60    1.80
   2  11  -8    3.70    1.40
   1  11  -8    1.30    1.00
   0  11  -8    5.60    1.60
  -1  11  -8   14.20    2.10
  -2  11  -8   10.30    1.80
  -2  11  -8   12.70    2.00
  -3  11  -8   23.00    2.80
  -3  11  -8   23.80    2.80
  -4  11  -8   10.60    2.00
   3  10  -8    1.40    1.20
  -3 -10   8   -1.20    0.90
   2  10  -8    2.00    1.10
   1  10  -8    4.40    1.30
   0  10  -8   18.30    2.30
  -1  10  -8    3.70    1.30
  -1  10  -8    3.40    1.00
  -2  10  -8   25.30    2.30
  -2  10  -8   27.90    2.50
  -3  10  -8    0.40    0.80
  -3  10  -8   -0.70    0.80
  -4  10  -8    5.80    1.70
  -4  -9   8   -1.10    0.90
   3   9  -8    0.50    0.90
  -3  -9   8    1.50    0.90
   2   9  -8   14.00    2.20
  -2  -9   8   10.50    1.40
   1   9  -8    7.30    1.60
   0   9  -8   26.20    2.30
  -1   9  -8   46.80    3.00
  -2   9  -8    0.50    0.90
  -3   9  -8    1.50    0.90
  -3   9  -8    1.60    1.10
  -4   9  -8   10.70    2.00
  -4  -8   8    0.10    0.80
   3   8  -8    2.00    1.10
  -3  -8   8    2.00    1.00
   2   8  -8   19.50    2.30
  -2  -8   8   21.40    1.80
   1   8  -8    0.90    0.70
   0   8  -8   60.79    3.30
  -1   8  -8   42.80    2.70
  -2   8  -8  145.99    5.30
  -3   8  -8   52.29    3.00
  -4   8  -8    0.40    0.90
  -4  -7   8   17.40    1.80
   3   7  -8   10.60    1.70
  -3  -7   8    8.90    1.30
   2   7  -8    2.00    0.80
  -2  -7   8   -0.20    0.50
   1   7  -8   78.69    3.70
   0   7  -8    8.00    1.40
  -1   7  -8   43.90    2.60
  -2   7  -8    5.60    1.20
  -3   7  -8   47.40    2.90
  -4   7  -8    3.70    1.30
  -5   7  -8    1.60    1.20
  -5  -6   8   -0.30    0.70
  -4  -6   8   11.30    1.50
   3   6  -8  134.89    5.10
  -3  -6   8  134.89    4.20
   2   6  -8   13.30    1.70
  -2  -6   8   14.20    1.40
   1   6  -8    3.30    0.90
  -1  -6   8    1.80    0.60
   0   6  -8   75.39    3.30
  -1   6  -8   12.90    1.60
  -2   6  -8  281.37    7.80
  -3   6  -8   85.59    3.70
  -4   6  -8    1.30    0.80
  -5   6  -8    0.20    1.00
  -5  -5   8   -1.10    0.60
  -4  -5   8   20.90    1.90
   3   5  -8   59.69    3.00
  -3  -5   8   58.49    2.50
   2   5  -8   38.70    2.30
  -2  -5   8   36.70    1.60
  -2  -5   8   38.70    1.80
   1   5  -8   10.10    1.30
  -1  -5   8   10.60    1.00
   0   5  -8    0.20    0.50
  -1   5  -8   19.00    1.60
  -2   5  -8   54.99    2.80
  -3   5  -8    3.70    1.00
  -4   5  -8   17.00    2.00
  -5   5  -8    1.50    1.10
  -5  -4   8    1.10    0.80
  -4  -4   8   11.90    1.40
   3   4  -8    7.60    1.20
  -3  -4   8    5.50    0.90
   2   4  -8   44.20    2.30
  -2  -4   8   48.70    1.90
  -2  -4   8   44.00    1.90
   1   4  -8    1.70    0.60
  -1  -4   8    3.50    0.70
  -1  -4   8    3.70    0.60
   0   4  -8    8.40    1.20
  -1   4  -8    0.40    0.50
  -2   4  -8   70.09    3.10
  -3   4  -8   19.60    1.80
  -4   4  -8   61.19    3.30
  -5   4  -8    2.30    1.20
  -5  -3   8   -0.60    0.70
  -4  -3   8    7.20    1.10
   3   3  -8   44.30    2.30
  -3  -3   8   47.50    2.10
   2   3  -8    9.70    1.20
  -2  -3   8   10.70    1.00
  -2  -3   8    9.20    0.90
   1   3  -8    3.20    0.80
  -1  -3   8    2.60    0.50
  -1  -3   8    2.80    0.60
   0   3  -8  297.77    7.40
   0  -3   8  294.27    6.90
  -1   3  -8    5.90    1.00
  -2   3  -8    0.00    0.40
  -3   3  -8   35.30    2.40
  -4   3  -8    6.30    1.30
  -5  -2   8   18.70    1.90
  -4  -2   8    0.20    0.50
  -3  -2   8  364.76    8.10
  -3  -2   8  348.97    8.00
   2   2  -8    3.30    0.70
  -2  -2   8    3.50    0.60
  -2  -2   8    3.20    0.60
   1   2  -8    1.10    0.50
  -1  -2   8    1.30    0.50
  -1  -2   8    0.90    0.40
   0   2  -8   36.20    2.00
   0  -2   8   37.50    1.80
  -1   2  -8  193.48    5.60
  -2   2  -8   23.10    1.80
  -3   2  -8  150.58    5.40
  -4   2  -8   11.30    1.80
  -5  -1   8    0.90    0.70
  -4  -1   8   71.29    2.90
  -4  -1   8   71.89    2.90
  -3  -1   8    4.80    0.70
  -3  -1   8    5.00    0.90
   2   1  -8    6.80    0.90
  -2  -1   8    5.20    0.60
  -2  -1   8    5.40    0.80
   1   1  -8   43.30    2.00
  -1  -1   8   40.40    1.90
  -1  -1   8   43.60    1.40
   0   1  -8  192.08    5.40
   0  -1   8  193.78    5.10
  -1   1  -8   16.70    1.50
  -2   1  -8   39.50    2.40
  -3   1  -8   -0.40    0.50
  -4   1  -8   10.90    1.80
  -5   1  -8    9.60    2.20
  -5   0   8    0.50    0.70
  -4   0   8   26.80    1.80
  -4   0   8   28.70    2.00
  -3   0   8   95.39    3.30
  -3   0   8   91.59    3.00
   2   0  -8   10.60    0.90
  -2   0   8   11.30    1.20
  -2   0   8    9.80    0.80
   1   0  -8   50.99    2.20
  -1   0   8   50.69    2.20
  -1   0   8   51.29    1.40
   0   0  -8    2.70    0.70
   0   0   8    3.00    0.70
   1   0   8   46.60    2.10
   1   0   8   51.49    2.60
   2   0   8    2.80    0.90
   3   0   8   27.80    2.40
   4   0   8    8.50    1.80
  -5   1   8   -0.50    0.60
  -5   1   8    0.70    0.80
  -4   1   8  135.39    4.10
  -4   1   8  121.79    4.40
  -3   1   8    0.40    0.40
  -3   1   8    0.90    0.60
   2  -1  -8   57.49    2.20
  -2   1   8   62.49    2.60
  -2   1   8   65.39    2.00
   1  -1  -8    8.00    1.10
  -1   1   8   11.90    1.20
   0   1   8   74.39    2.80
   0   1   8   74.19    3.10
   1   1   8   69.99    2.70
   1   1   8   77.59    3.40
   2   1   8   66.69    3.40
   3   1   8   50.29    3.20
   4   1   8    2.30    1.20
  -5   2   8    6.90    1.40
  -5   2   8    8.50    1.40
  -4   2   8   63.99    2.70
  -4   2   8   60.19    3.00
  -3   2   8   38.10    2.10
   2  -2  -8   10.90    1.00
  -2   2   8   10.20    0.70
  -2   2   8   12.70    1.40
  -1   2   8   59.59    2.50
  -1   2   8   66.49    2.70
   0   2   8  177.58    4.90
   0   2   8  172.98    5.40
   1   2   8    0.30    0.50
   1   2   8    0.50    0.70
   2   2   8    0.20    0.70
   3   2   8    1.40    1.00
   4   2   8   -1.30    0.60
  -5   3   8    0.20    0.90
  -5   3   8    0.20    0.60
  -4   3   8   -0.20    0.50
  -4   3   8    0.40    0.80
  -3   3   8   68.49    3.10
  -3   3   8   63.69    2.40
  -2   3   8   34.80    2.10
  -1   3   8   17.50    1.40
  -1   3   8   19.10    1.50
   0   3   8  234.68    6.70
   0   3   8  230.58    6.10
   1   3   8   40.20    2.10
   1   3   8   45.50    2.80
   2   3   8   27.50    2.40
   3   3   8   -0.20    0.80
   4   3   8    2.30    1.30
  -5   4   8    5.80    1.20
  -5   4   8    4.40    1.20
  -4   4   8    5.80    1.00
  -4   4   8    5.20    1.20
  -3   4   8   24.90    2.00
  -2   4   8    5.00    1.10
  -1   4   8    1.30    0.70
  -1   4   8    0.60    0.70
   0   4   8  214.88    6.00
   0   4   8  224.58    6.70
   1   4   8   62.99    2.70
   1   4   8   60.49    3.40
   2   4   8   31.10    2.70
   3   4   8    2.40    1.20
   4   4   8   -0.60    0.90
  -5   5   8    0.90    1.00
  -4   5   8    3.80    1.20
  -3   5   8   68.99    3.40
  -2   5   8   42.70    2.50
  -1   5   8  273.27    7.60
  -1   5   8  282.87    7.40
   0   5   8   94.39    3.60
   0   5   8   97.19    4.30
   1   5   8   26.80    2.50
   1   5   8   24.50    1.70
   2   5   8    7.20    1.80
   3   5   8   -0.30    1.10
  -5   6   8    0.20    1.00
  -4   6   8   13.00    1.80
  -3   6   8   34.70    2.50
  -2   6   8    0.30    0.80
  -1   6   8  128.39    4.90
  -1   6   8  136.99    4.70
   0   6   8   39.80    2.80
   0   6   8   44.30    2.40
   1   6   8   10.20    1.90
   2   6   8    4.10    1.50
   3   6   8   16.40    2.80
  -4   7   8   13.70    2.00
  -3   7   8   10.30    1.70
  -2   7   8   23.90    2.10
  -1   7   8    2.10    0.90
  -1   7   8    2.50    1.00
   0   7   8    0.10    0.70
   0   7   8    1.40    0.70
   1   7   8    1.10    0.90
   2   7   8    1.90    1.20
  -4   8   8   11.60    2.00
  -3   8   8    9.00    1.70
  -2   8   8    8.30    1.50
  -1   8   8   -0.30    0.70
  -1   8   8   -0.40    0.70
   0   8   8    9.60    1.90
   1   8   8    0.20    1.00
  -3   9   8   -0.10    0.80
  -2   9   8    0.00    0.90
  -1   9   8   24.60    2.20
   0   9   8    8.70    1.90
   1   9   8   19.60    2.90
  -2  10   8    2.00    1.10
   1  13  -9    4.80    1.70
   0  13  -9   15.10    2.60
  -1  13  -9   39.10    3.40
  -2  13  -9    1.60    1.30
   2  12  -9    3.60    1.60
   1  12  -9    0.10    1.10
   0  12  -9    1.40    1.10
  -1  12  -9   -0.90    0.80
  -2  12  -9   13.80    2.30
  -2  12  -9   11.10    2.00
  -3  12  -9    2.20    1.30
  -3  12  -9    2.50    1.30
   2  11  -9    8.70    1.90
   1  11  -9   27.10    3.20
   0  11  -9   15.10    2.30
  -1  11  -9    5.30    1.50
  -2  11  -9    2.40    1.20
  -2  11  -9    2.60    1.10
  -3  11  -9    4.00    1.50
  -3  11  -9    4.70    1.40
   3  10  -9   10.90    2.10
  -3 -10   9   10.20    1.60
   2  10  -9   10.50    2.00
   1  10  -9    0.90    1.00
   0  10  -9    0.30    0.90
  -1  10  -9   31.20    2.70
  -2  10  -9    7.60    1.70
  -3  10  -9    3.50    1.20
  -3  10  -9    3.40    1.40
  -4  10  -9    4.70    1.50
  -4  -9   9   -1.20    0.90
   3   9  -9    1.90    1.10
  -3  -9   9    1.10    0.90
   2   9  -9   15.50    2.30
  -2  -9   9   10.60    1.40
   1   9  -9   31.70    2.70
   0   9  -9   -0.30    0.70
  -1   9  -9  110.09    4.80
  -2   9  -9    3.30    1.10
  -3   9  -9   20.10    2.30
  -4   9  -9   23.10    3.00
  -4  -8   9   -1.70    0.70
   3   8  -9    5.60    1.50
  -3  -8   9    4.80    1.10
   2   8  -9    8.60    1.60
  -2  -8   9    8.40    1.30
   1   8  -9    4.70    1.20
   0   8  -9   60.19    3.40
  -1   8  -9   64.79    3.50
  -2   8  -9   70.99    3.60
  -3   8  -9    5.40    1.40
  -4   8  -9    2.00    1.20
  -4  -7   9    3.40    1.10
   3   7  -9    2.20    1.00
  -3  -7   9    1.80    0.90
   2   7  -9    1.90    0.90
  -2  -7   9    1.50    0.70
   1   7  -9   45.50    2.80
   0   7  -9   43.00    2.70
  -1   7  -9   39.40    2.60
  -2   7  -9   37.30    2.60
  -3   7  -9   71.99    3.60
  -4   7  -9    3.00    1.10
  -5  -6   9    0.30    0.90
  -4  -6   9    1.50    0.80
   3   6  -9   12.80    1.80
  -3  -6   9   12.50    1.40
   2   6  -9    4.40    1.10
  -2  -6   9    3.30    0.80
   1   6  -9   39.20    2.50
  -1  -6   9   41.50    1.90
   0   6  -9    5.00    1.10
  -1   6  -9    8.50    1.40
  -2   6  -9   80.59    3.70
  -3   6  -9    7.40    1.40
  -4   6  -9    1.70    1.00
  -5  -5   9    0.00    0.80
  -4  -5   9    2.40    0.80
   3   5  -9   25.60    2.00
  -3  -5   9   23.70    1.70
   2   5  -9    4.40    1.00
  -2  -5   9    3.50    0.70
  -2  -5   9    3.70    0.80
   1   5  -9   91.39    3.70
  -1  -5   9   94.19    2.90
   0   5  -9   22.00    1.80
  -1   5  -9   19.30    1.70
  -2   5  -9    5.20    1.10
  -3   5  -9   88.59    3.90
  -4   5  -9    5.20    1.30
  -5   5  -9    1.80    1.20
  -5  -4   9   -0.10    0.80
  -4  -4   9   -0.10    0.60
   3   4  -9    4.50    1.00
  -3  -4   9    5.30    0.90
   2   4  -9   15.10    1.50
  -2  -4   9   15.50    1.20
  -2  -4   9   18.30    1.30
   1   4  -9   58.19    2.80
  -1  -4   9   57.39    2.30
  -1  -4   9   55.29    2.00
   0   4  -9   60.79    2.80
  -1   4  -9   82.99    3.40
  -2   4  -9   -0.30    0.40
  -3   4  -9   22.60    2.00
  -4   4  -9    0.30    0.80
  -5  -3   9    0.30    0.70
  -4  -3   9   10.00    1.20
  -3  -3   9   45.70    2.20
  -3  -3   9   49.50    2.20
   2   3  -9  134.29    4.40
  -2  -3   9  130.39    3.60
  -2  -3   9  130.29    3.90
   1   3  -9  108.49    3.90
  -1  -3   9  108.09    3.40
   0   3  -9   35.90    2.10
   0  -3   9   35.50    1.80
  -1   3  -9   59.39    2.90
  -2   3  -9    1.30    0.80
  -3   3  -9   54.39    3.10
  -4   3  -9   11.20    1.80
  -5  -2   9   12.10    1.60
  -4  -2   9    5.60    1.00
  -3  -2   9  665.73   13.60
  -3  -2   9  659.13   13.90
  -2  -2   9  193.88    4.70
  -2  -2   9  200.08    5.30
   1   2  -9  272.27    7.00
  -1  -2   9  277.97    6.70
  -1  -2   9  268.47    5.80
   0   2  -9  128.49    4.30
   0  -2   9  133.69    4.00
  -1   2  -9    0.20    0.50
  -2   2  -9    1.60    0.70
  -3   2  -9    5.00    1.30
  -4   2  -9    1.40    0.90
  -5  -1   9   -0.70    0.60
  -4  -1   9    2.20    0.80
  -4  -1   9    1.10    0.70
  -3  -1   9  190.28    4.90
  -3  -1   9  191.38    5.40
   2   1  -9    2.60    0.70
  -2  -1   9    2.40    0.50
  -2  -1   9    5.60    0.90
   1   1  -9   23.10    1.60
  -1  -1   9   20.80    1.40
  -1  -1   9   22.40    1.00
   0   1  -9   46.50    2.40
   0  -1   9   46.50    2.20
  -1   1  -9   28.70    2.00
  -2   1  -9   21.90    1.90
  -3   1  -9   11.30    1.70
  -4   1  -9    6.50    1.60
  -5   0   9    0.70    0.70
  -4   0   9   73.09    3.20
  -4   0   9   77.39    3.00
  -3   0   9    0.70    0.50
  -3   0   9    1.90    0.80
   2   0  -9   32.60    1.70
  -2   0   9   30.40    1.80
  -2   0   9   29.90    1.30
   1   0  -9  255.37    6.60
  -1   0   9  241.18    6.30
   0   0  -9   19.30    1.60
   0   0   9   19.20    1.40
  -1   0  -9    2.00    0.70
   1   0   9    1.50    0.60
   2   0   9   24.70    2.10
   3   0   9    2.90    1.10
  -5   1   9    2.10    0.80
  -5   1   9    0.60    0.90
  -4   1   9    7.40    1.30
  -4   1   9    5.00    1.00
  -3   1   9    7.00    1.10
   2  -1  -9   71.69    2.70
  -2   1   9   64.89    2.80
   1  -1  -9   55.39    2.60
  -1   1   9   52.89    2.40
   0   1   9   27.30    1.70
   1   1   9   52.99    2.50
   1   1   9   52.69    3.00
   2   1   9   30.10    2.50
   3   1   9    5.20    1.40
   4   1   9    0.20    1.00
  -5   2   9    2.40    0.90
  -5   2   9    2.30    1.00
  -4   2   9    7.70    1.10
  -4   2   9    6.80    1.30
  -3   2   9   66.29    3.00
  -2   2   9   19.10    1.50
   1  -2  -9   68.99    3.00
  -1   2   9   70.69    2.90
   0   2   9  255.97    6.60
   0   2   9  240.28    7.00
   1   2   9   11.70    1.40
   1   2   9    7.30    1.40
   2   2   9   31.90    2.60
   3   2   9    2.90    1.20
   4   2   9    1.60    1.20
  -5   3   9    3.90    1.30
  -5   3   9    4.40    1.00
  -4   3   9   -0.40    0.70
  -3   3   9   13.20    1.70
  -2   3   9    4.40    1.00
  -1   3   9    6.30    1.10
  -1   3   9    6.00    1.10
   0   3   9    1.30    0.90
   0   3   9   -0.10    0.60
   1   3   9    1.20    0.90
   1   3   9    2.30    0.80
   2   3   9   13.30    2.10
   3   3   9    3.90    1.40
  -5   4   9    0.10    0.90
  -4   4   9    2.30    1.00
  -3   4   9   34.40    2.40
  -2   4   9   12.60    1.50
  -1   4   9  101.09    3.80
  -1   4   9   96.49    3.90
   0   4   9  243.58    7.50
   0   4   9  256.67    6.80
   1   4   9   46.00    3.10
   1   4   9   46.80    2.40
   2   4   9   30.40    2.70
   3   4   9    1.50    1.30
  -5   5   9    2.50    1.30
  -4   5   9    8.40    1.60
  -3   5   9   36.40    2.50
  -2   5   9   19.30    1.80
  -1   5   9   -0.80    0.60
  -1   5   9   -0.10    0.70
   0   5   9   17.50    2.20
   0   5   9   19.00    1.90
   1   5   9   64.49    3.90
   1   5   9   67.49    3.00
   2   5   9    2.30    1.20
   3   5   9    3.40    1.40
  -4   6   9    1.70    1.10
  -3   6   9   35.50    2.50
  -2   6   9   28.60    2.30
  -1   6   9   11.60    1.70
  -1   6   9   16.30    1.90
   0   6   9   23.70    2.00
   0   6   9   21.00    2.50
   1   6   9    5.80    1.70
   2   6   9    8.40    2.10
  -4   7   9    3.60    1.30
  -3   7   9    1.70    1.10
  -2   7   9    9.80    1.60
  -1   7   9    1.60    1.00
   0   7   9    8.70    1.80
   0   7   9    6.30    1.30
   1   7   9   -0.10    0.90
   2   7   9    3.30    1.60
  -3   8   9    1.70    1.00
  -2   8   9   18.40    2.30
  -1   8   9    2.10    1.00
   0   8   9   69.79    4.30
   1   8   9   -0.20    0.90
  -2   9   9    9.10    1.80
  -1   9   9    7.00    1.50
   0   9   9   11.60    2.30
   0  13 -10   -0.70    1.00
  -1  13 -10    0.40    1.20
   1  12 -10    0.90    1.10
   0  12 -10   34.80    3.30
  -1  12 -10    6.80    1.70
  -2  12 -10    2.60    1.30
  -2  12 -10    5.10    1.50
   2  11 -10    3.20    1.50
   1  11 -10    0.20    0.90
   0  11 -10    2.00    1.20
  -1  11 -10    6.70    1.70
  -2  11 -10    4.60    1.40
  -2  11 -10    0.70    1.00
  -3  11 -10    1.90    1.20
  -3  11 -10   -1.30    0.80
   3  10 -10    6.80    1.80
  -3 -10  10    3.70    1.30
   2  10 -10    5.30    1.60
   1  10 -10    1.40    1.00
   0  10 -10    6.10    1.50
  -1  10 -10   33.00    2.80
  -2  10 -10   10.50    1.90
  -3  10 -10    0.30    1.00
  -3  10 -10    1.80    1.10
   3   9 -10    1.30    1.00
  -3  -9  10   -0.30    0.90
   2   9 -10   42.40    3.20
  -2  -9  10   43.20    2.50
   1   9 -10    0.90    1.00
   0   9 -10   20.60    2.50
  -1   9 -10   98.69    4.70
  -2   9 -10    0.30    0.90
  -3   9 -10    4.80    1.40
  -4   9 -10   -0.60    0.90
  -4  -8  10    0.30    0.90
   3   8 -10   -0.20    0.70
  -3  -8  10   -1.10    0.80
   2   8 -10    1.10    0.90
  -2  -8  10    0.10    0.80
   1   8 -10    0.50    0.70
   0   8 -10    1.50    0.90
  -1   8 -10   36.20    2.70
  -2   8 -10   23.40    2.30
  -3   8 -10   30.20    2.60
  -4   8 -10    1.70    1.00
  -4  -7  10    1.10    0.90
   3   7 -10   42.10    2.90
  -3  -7  10   43.60    2.40
   2   7 -10    1.00    0.80
  -2  -7  10    0.20    0.70
   1   7 -10    0.20    0.70
   0   7 -10    4.40    1.20
  -1   7 -10  118.59    4.80
  -2   7 -10   20.30    2.30
  -3   7 -10    1.70    1.00
  -4   7 -10    2.70    1.10
  -4  -6  10    0.30    0.80
   3   6 -10    0.30    0.70
  -3  -6  10   -0.50    0.60
   2   6 -10   37.60    2.60
  -2  -6  10   41.00    2.10
   1   6 -10   11.70    1.70
   0   6 -10   25.90    2.10
  -1   6 -10   14.20    1.80
  -2   6 -10    6.40    1.30
  -3   6 -10    0.90    0.80
  -4   6 -10    1.50    0.90
  -5  -5  10    0.60    0.90
  -4  -5  10    0.60    0.70
   3   5 -10   -0.20    0.60
  -3  -5  10    0.10    0.60
   2   5 -10   47.10    2.80
  -2  -5  10   48.10    2.20
  -2  -5  10   48.50    2.20
   1   5 -10    3.70    1.00
   0   5 -10   -0.60    0.40
  -1   5 -10    1.40    0.70
  -2   5 -10    8.10    1.40
  -3   5 -10    0.60    0.80
  -4   5 -10    0.00    0.80
  -5  -4  10    3.90    1.20
  -4  -4  10   12.20    1.50
  -3  -4  10    0.30    0.60
   2   4 -10    1.20    0.80
  -2  -4  10    1.00    0.70
  -2  -4  10    0.70    0.70
   1   4 -10    6.50    1.10
  -1  -4  10    6.70    1.00
  -1  -4  10    6.90    0.90
   0   4 -10   99.89    4.00
  -1   4 -10    7.90    1.30
  -2   4 -10    0.10    0.50
  -3   4 -10    0.30    0.70
  -4   4 -10   17.70    2.20
  -5  -3  10   25.20    2.20
  -4  -3  10   11.30    1.30
  -3  -3  10    7.40    1.10
  -3  -3  10    5.10    1.00
   2   3 -10  121.49    4.20
  -2  -3  10  114.69    3.80
  -2  -3  10  114.19    3.30
   1   3 -10   16.50    1.60
  -1  -3  10   18.30    1.40
  -1  -3  10   19.30    1.10
   0   3 -10  182.98    5.70
   0  -3  10  182.48    5.20
  -1   3 -10    3.50    1.00
  -2   3 -10    6.90    1.30
  -3   3 -10    0.30    0.80
  -4   3 -10    4.00    1.30
  -5  -2  10   -1.30    0.70
  -4  -2  10    0.90    0.60
  -3  -2  10    2.30    0.80
  -3  -2  10    2.70    0.90
   2   2 -10    0.20    0.30
  -2  -2  10    4.60    0.90
   1   2 -10   14.70    1.40
  -1  -2  10   16.10    1.40
  -1  -2  10   16.10    1.00
   0   2 -10   34.40    2.20
   0  -2  10   37.00    2.00
  -1   2 -10   24.20    1.90
  -2   2 -10    0.30    0.60
  -3   2 -10    4.00    1.10
  -4   2 -10    2.20    1.10
  -5  -1  10    1.10    0.80
  -4  -1  10    0.70    0.70
  -4  -1  10    0.70    0.60
  -3  -1  10  201.18    5.10
  -3  -1  10  195.38    5.70
   2   1 -10   17.80    1.50
  -2  -1  10   16.50    1.10
  -2  -1  10   14.80    1.40
   1   1 -10  267.27    7.10
  -1  -1  10  272.77    6.90
   0   1 -10   77.19    3.40
   0  -1  10   84.79    3.20
  -1   1 -10    1.10    0.70
  -2   1 -10    0.70    0.70
  -3   1 -10    0.30    0.80
  -4   1 -10    0.90    0.90
  -5   0  10    0.40    0.70
  -4   0  10    0.10    0.50
  -4   0  10    0.60    0.70
  -3   0  10   19.30    1.70
   2   0 -10    2.80    0.70
  -2   0  10    2.70    0.80
   1   0 -10  126.69    4.40
  -1   0  10  121.89    4.10
   0   0 -10   39.10    2.40
   0   0  10   39.80    2.20
  -1   0 -10  153.98    5.50
   1   0  10  156.98    4.90
  -2   0 -10   77.19    3.80
  -3   0 -10    0.50    0.80
  -4   0 -10    1.70    1.20
  -5   1  10    0.60    0.60
  -5   1  10   -0.30    0.80
  -4   1  10    1.00    0.60
  -4   1  10    0.40    0.80
  -3   1  10    8.10    1.30
  -2   1  10   63.49    2.90
   1  -1 -10   30.80    2.00
  -1   1  10   32.60    2.00
   0  -1 -10   26.70    2.10
   0   1  10   22.00    1.70
   1   1  10  549.85   12.30
   1   1  10  534.55   13.20
   2   1  10   80.09    4.10
   3   1  10    1.10    1.00
   4   1  10   -1.40    0.80
  -5   2  10    0.10    0.90
  -4   2  10   -0.50    0.60
  -3   2  10   12.40    1.60
  -2   2  10   25.90    1.90
   1  -2 -10   15.80    1.60
  -1   2  10   16.70    1.50
   0   2  10   23.70    1.80
   0   2  10   20.80    1.90
   1   2  10    9.00    1.30
   1   2  10   10.60    1.80
   2   2  10    0.00    0.80
   3   2  10    0.00    1.00
  -5   3  10   -0.40    0.90
  -4   3  10   -0.50    0.70
  -3   3  10   61.89    3.10
  -2   3  10   20.70    1.80
  -1   3  10   86.79    3.70
  -1   3  10   95.79    3.70
   0   3  10  428.46   11.10
   0   3  10  434.26   10.40
   1   3  10    1.30    0.70
   1   3  10    1.10    1.00
   2   3  10   29.70    2.80
   3   3  10    0.00    1.00
  -5   4  10    1.70    1.10
  -4   4  10    1.20    0.90
  -3   4  10    6.40    1.30
  -2   4  10   -0.30    0.60
  -1   4  10    8.50    1.40
  -1   4  10   10.40    1.60
   0   4  10    1.90    0.80
   0   4  10    1.10    1.00
   1   4  10   11.60    2.00
   1   4  10   10.80    1.50
   2   4  10   15.90    2.50
   3   4  10    3.50    1.70
  -4   5  10    0.30    0.90
  -3   5  10    0.20    0.80
  -2   5  10    5.30    1.20
  -1   5  10   21.00    2.30
  -1   5  10   19.40    2.00
   0   5  10    6.70    1.60
   0   5  10    7.00    1.30
   1   5  10   19.30    2.60
   1   5  10   21.00    1.80
   2   5  10    4.40    1.60
  -4   6  10    5.30    1.50
  -3   6  10   25.40    2.30
  -2   6  10   -0.40    0.80
  -1   6  10    1.60    1.00
  -1   6  10    0.80    0.90
   0   6  10    3.20    1.00
   0   6  10    4.50    1.30
   1   6  10    3.30    1.40
   2   6  10    5.00    1.70
  -3   7  10    2.20    1.20
  -2   7  10    0.50    0.90
  -1   7  10   -0.10    0.80
   0   7  10   23.40    2.10
   0   7  10   21.60    2.80
   1   7  10   23.40    3.10
  -2   8  10    2.70    1.20
  -1   8  10    6.70    1.50
   0   8  10    2.40    1.50
   1  12 -11    8.00    2.00
   0  12 -11    1.80    1.40
  -1  12 -11    1.20    1.20
  -2  12 -11    5.60    1.80
  -2  12 -11    5.20    1.50
   2  11 -11    0.10    1.00
   1  11 -11    1.80    1.20
   0  11 -11    1.10    1.10
  -1  11 -11    1.20    1.10
  -2  11 -11   15.00    2.40
   3  10 -11    3.60    1.40
  -3 -10  11    3.30    1.20
   2  10 -11    1.80    1.20
   1  10 -11   -0.60    0.80
   0  10 -11    6.40    1.60
  -1  10 -11    1.60    1.20
  -2  10 -11    0.40    0.80
  -3  10 -11    2.70    1.30
   3   9 -11    0.60    1.10
  -3  -9  11    0.10    0.90
   2   9 -11   -0.20    0.80
   1   9 -11    2.20    1.10
   0   9 -11    0.70    0.90
  -1   9 -11   39.70    3.00
  -2   9 -11    9.80    1.80
  -3   9 -11    1.40    1.00
  -4  -8  11    2.70    1.30
   3   8 -11   11.50    2.00
  -3  -8  11    8.80    1.40
   2   8 -11   43.60    3.20
  -2  -8  11   41.70    2.30
   1   8 -11    1.90    0.90
   0   8 -11   17.00    2.30
  -1   8 -11   32.10    2.60
  -2   8 -11   14.50    2.10
  -3   8 -11    0.80    0.90
  -4   8 -11    8.10    1.70
  -4  -7  11    0.70    0.90
   3   7 -11   17.90    2.30
  -3  -7  11   14.70    1.70
   2   7 -11   20.60    2.40
  -2  -7  11   20.20    1.80
   1   7 -11   10.70    1.80
   0   7 -11    0.10    0.70
  -1   7 -11   -0.20    0.70
  -2   7 -11   24.20    2.30
  -3   7 -11    0.30    0.80
  -4   7 -11    2.40    1.20
  -4  -6  11    0.70    0.90
   3   6 -11   39.00    2.80
  -3  -6  11   43.10    2.40
   2   6 -11   -0.80    0.60
  -2  -6  11    0.10    0.70
   1   6 -11   40.20    2.70
   0   6 -11    0.70    0.60
  -1   6 -11   14.40    2.00
  -2   6 -11    5.70    1.30
  -3   6 -11    0.50    0.80
  -4   6 -11   -0.10    0.70
  -4  -5  11   11.90    1.60
  -3  -5  11    0.30    0.70
   2   5 -11  133.09    5.20
  -2  -5  11  141.89    4.10
  -2  -5  11  142.89    4.40
   1   5 -11    1.50    0.80
   0   5 -11    2.50    0.90
  -1   5 -11    0.40    0.60
  -2   5 -11    9.70    1.60
  -3   5 -11    0.00    0.80
  -4   5 -11    0.30    0.90
  -5  -4  11    0.40    0.90
  -4  -4  11   39.70    2.30
  -3  -4  11   32.90    1.90
   2   4 -11  495.25   12.00
  -2  -4  11  506.85   10.60
  -2  -4  11  494.65   11.20
   1   4 -11   53.49    2.90
  -1  -4  11   49.90    2.40
   0   4 -11   12.20    1.70
  -1   4 -11    8.20    1.50
  -2   4 -11   13.50    1.90
  -3   4 -11    2.30    1.10
  -4   4 -11    1.10    1.00
  -5  -3  11    0.20    0.80
  -4  -3  11    9.70    1.30
  -3  -3  11   95.99    3.50
  -3  -3  11   95.19    3.30
   2   3 -11    2.60    0.90
  -2  -3  11    2.00    0.90
  -2  -3  11    2.70    0.80
   1   3 -11   25.70    2.00
  -1  -3  11   26.30    1.80
   0   3 -11    2.10    0.80
   0  -3  11    3.00    0.90
  -1   3 -11    6.80    1.30
  -2   3 -11   21.50    2.50
  -3   3 -11   14.90    2.20
  -4   3 -11    2.60    1.30
  -5  -2  11    1.20    0.80
  -4  -2  11    1.10    0.70
  -3  -2  11  124.39    4.30
  -3  -2  11  119.49    3.70
   2   2 -11   34.80    2.20
  -2  -2  11   47.80    2.40
  -2  -2  11   43.00    2.00
   1   2 -11   67.39    3.10
  -1  -2  11   65.29    2.90
   0   2 -11   84.69    3.70
   0  -2  11   84.29    3.40
  -1   2 -11   20.90    1.90
  -2   2 -11    1.50    0.90
  -3   2 -11    0.40    0.80
  -4   2 -11   -0.40    0.90
  -5  -1  11    0.40    0.70
  -4  -1  11    2.60    0.90
  -4  -1  11    1.60    0.70
  -3  -1  11    1.20    0.80
   2   1 -11   43.30    2.40
  -2  -1  11   53.99    2.60
   1   1 -11   41.70    2.40
  -1  -1  11   40.00    2.20
   0   1 -11   -0.10    0.60
   0  -1  11    0.40    0.50
  -1   1 -11    3.30    1.10
  -2   1 -11   -0.40    0.70
  -3   1 -11    0.10    0.90
  -4   1 -11    0.70    1.20
  -5   0  11   10.10    1.40
  -4   0  11   21.70    2.20
  -3   0  11    1.40    0.80
  -2   0  11   27.70    2.00
   1   0 -11    4.60    1.10
  -1   0  11    5.20    1.10
   0   0 -11  193.18    6.20
   0   0  11  189.78    5.70
  -1   0 -11    1.00    0.90
   1   0  11    2.20    0.90
  -2   0 -11   14.80    2.10
  -3   0 -11    2.00    1.10
  -5   1  11   -0.90    0.90
  -4   1  11   -0.60    0.70
  -3   1  11    1.20    0.80
  -2   1  11   53.69    2.80
   1  -1 -11    5.80    1.20
  -1   1  11    5.50    1.10
   0  -1 -11    3.30    1.10
   0   1  11    2.50    0.90
  -1  -1 -11    1.00    0.80
   1   1  11    1.10    0.80
   2   1  11   -0.40    0.80
  -5   2  11    8.50    1.70
  -4   2  11   17.30    2.10
  -3   2  11    2.70    1.00
  -2   2  11   61.09    3.10
   1  -2 -11    5.40    1.20
  -1   2  11    4.40    1.10
   0   2  11  189.08    5.90
   1   2  11   96.49    3.90
   1   2  11   95.19    4.60
   2   2  11   10.70    2.00
   3   2  11    7.50    1.90
  -4   3  11    0.20    0.90
  -3   3  11    4.00    1.20
  -2   3  11    8.70    1.50
   1  -3 -11    3.90    1.10
  -1   3  11    5.60    1.20
   0   3  11   -0.20    0.70
   0   3  11    0.20    0.60
   1   3  11    1.00    0.70
   1   3  11    3.90    1.30
   2   3  11   -0.80    0.90
   3   3  11    1.50    1.30
  -4   4  11    7.90    1.60
  -3   4  11    0.10    0.80
  -2   4  11   16.50    2.00
  -1   4  11    2.30    0.90
  -1   4  11    3.60    1.10
   0   4  11   58.49    3.10
   0   4  11   55.49    3.50
   1   4  11    0.70    1.00
   1   4  11    1.20    0.70
   2   4  11    2.40    1.30
  -4   5  11    5.00    1.40
  -3   5  11   27.80    2.40
  -2   5  11    4.20    1.30
  -1   5  11    7.00    1.40
  -1   5  11    4.60    1.20
   0   5  11    3.20    1.00
   0   5  11    2.70    1.10
   1   5  11   20.10    2.20
   1   5  11   20.00    2.70
   2   5  11    4.90    1.70
  -3   6  11    8.50    1.70
  -2   6  11    2.60    1.10
  -1   6  11   25.20    2.30
   0   6  11   18.40    2.60
   0   6  11   18.60    2.10
   1   6  11   65.49    4.40
  -3   7  11    6.30    1.60
  -1   7  11    1.00    1.00
   0   7  11    4.40    1.20
   0   7  11    6.00    1.90
   0  12 -12   -0.60    1.00
  -1  12 -12    0.70    1.10
   2  11 -12   -0.90    1.10
   1  11 -12    7.60    2.00
   0  11 -12    5.90    1.80
  -1  11 -12    0.30    0.80
  -2  11 -12   -0.50    0.80
   2  10 -12    3.10    1.40
   1  10 -12   -0.30    0.80
   0  10 -12    0.10    0.90
  -1  10 -12    0.60    0.90
  -2  10 -12    0.40    1.00
   3   9 -12   17.90    2.70
  -3  -9  12   14.70    1.80
   2   9 -12   18.30    2.60
   1   9 -12   -0.50    0.80
   0   9 -12   14.30    2.30
  -1   9 -12    8.50    1.90
  -2   9 -12   -1.40    0.60
  -3   9 -12   30.90    2.80
   3   8 -12    6.10    1.50
  -3  -8  12    7.60    1.50
   2   8 -12    3.60    1.20
  -2  -8  12    1.90    1.00
   1   8 -12    8.40    1.80
   0   8 -12   32.50    2.70
  -1   8 -12    4.60    1.30
  -2   8 -12    2.80    1.20
  -3   8 -12    0.90    1.00
  -4  -7  12   -1.40    0.80
   3   7 -12   11.00    2.20
  -3  -7  12    9.50    1.50
   2   7 -12   17.90    2.40
  -2  -7  12   16.70    1.60
   1   7 -12   23.40    2.70
   0   7 -12    7.20    1.60
  -1   7 -12    1.60    1.00
  -2   7 -12    5.30    1.40
  -3   7 -12   10.90    2.00
  -4  -6  12    0.10    0.90
  -3  -6  12    0.60    0.80
   2   6 -12    6.80    1.50
  -2  -6  12    6.30    1.10
   1   6 -12   11.30    1.80
   0   6 -12    1.20    1.00
  -1   6 -12    6.00    1.40
  -2   6 -12    1.10    0.80
  -3   6 -12    4.20    1.30
  -4  -5  12   -0.10    0.80
  -3  -5  12    9.30    1.30
   2   5 -12   22.80    2.30
  -2  -5  12   25.40    1.80
  -2  -5  12   26.00    1.80
   1   5 -12  195.28    6.50
   0   5 -12   32.80    2.50
  -1   5 -12    6.50    1.30
  -2   5 -12    2.50    1.10
  -3   5 -12    0.60    0.80
  -4  -4  12    3.00    1.00
  -3  -4  12   10.30    1.30
   2   4 -12  158.38    5.60
  -2  -4  12  160.08    5.10
  -2  -4  12  160.28    4.50
   1   4 -12    2.20    0.90
  -1  -4  12    0.20    0.60
   0   4 -12    8.00    1.40
  -1   4 -12   21.80    2.00
  -2   4 -12   13.30    1.90
  -3   4 -12   21.40    2.60
  -4  -3  12   -1.20    0.60
  -3  -3  12    3.30    1.00
  -3  -3  12    1.00    0.70
   2   3 -12  234.88    6.90
  -2  -3  12  225.68    6.50
   1   3 -12   16.00    2.00
  -1  -3  12   15.10    1.70
   0   3 -12   85.19    3.90
   0  -3  12   82.09    3.50
  -1   3 -12   15.30    1.90
  -2   3 -12   49.70    3.30
  -3   3 -12   17.80    2.50
  -4  -2  12    4.20    1.00
  -3  -2  12    0.40    0.70
   2   2 -12    0.40    0.60
  -2  -2  12    0.70    0.70
   1   2 -12   41.60    2.50
  -1  -2  12   33.60    2.20
   0   2 -12   15.10    1.90
   0  -2  12   16.90    1.80
  -1   2 -12   -0.80    0.60
  -2   2 -12   44.70    3.10
  -3   2 -12    2.10    1.20
  -4  -1  12    7.40    1.40
  -3  -1  12    7.80    1.40
  -2  -1  12    9.30    1.40
   1   1 -12   35.80    2.40
  -1  -1  12   40.50    2.50
   0   1 -12    1.50    0.90
   0  -1  12    0.10    0.60
  -1   1 -12   14.00    2.00
  -2   1 -12   26.40    2.50
  -3   1 -12    8.40    1.80
  -4   0  12   11.10    1.70
  -3   0  12   16.10    1.90
  -2   0  12   34.80    2.40
   1   0 -12    5.50    1.20
  -1   0  12    4.60    1.10
   0   0 -12   51.49    3.10
   0   0  12   51.19    2.80
  -1   0 -12  124.49    5.30
   1   0  12  131.49    4.80
  -2   0 -12    8.20    1.80
  -3   0 -12    0.30    1.00
  -4   1  12    1.80    1.00
  -3   1  12   12.40    1.70
  -2   1  12  124.29    4.70
   1  -1 -12   12.40    1.80
  -1   1  12   11.10    1.60
   0  -1 -12   23.40    2.30
   0   1  12   26.20    2.10
  -1  -1 -12  134.09    5.50
   1   1  12  126.89    4.70
  -2  -1 -12    1.90    1.00
  -3  -1 -12   17.40    2.70
  -4   2  12   -0.40    0.90
  -3   2  12    6.90    1.50
  -2   2  12    0.40    0.70
   1  -2 -12    0.70    0.80
  -1   2  12    1.30    0.80
   0  -2 -12    9.80    1.70
   0   2  12    8.80    1.40
   1   2  12    1.30    0.80
   2   2  12    1.60    1.20
  -4   3  12    1.00    1.00
  -3   3  12   -0.10    0.70
  -2   3  12   -0.70    0.80
   1  -3 -12   15.50    2.10
  -1   3  12   13.30    1.80
   0   3  12    4.90    1.20
   1   3  12    9.40    1.90
   1   3  12    9.00    1.40
   2   3  12    1.50    1.30
  -4   4  12   15.70    2.30
  -3   4  12    2.10    1.10
  -2   4  12   -0.10    0.90
  -1   4  12    0.20    0.80
   0   4  12    1.70    1.00
   0   4  12    0.60    0.90
   1   4  12    1.10    0.70
   2   4  12   10.20    2.30
  -3   5  12    0.90    1.00
  -2   5  12    1.20    1.10
  -1   5  12    8.50    1.60
   0   5  12    5.20    1.50
   0   5  12    5.20    1.30
   1   5  12   11.50    1.80
   1   5  12   10.90    2.40
  -2   6  12    2.60    1.20
  -1   6  12    0.40    1.00
   0   6  12   -0.40    1.00
   0   6  12    1.70    0.90
   1  11 -13    2.30    1.50
   0  11 -13    2.10    1.60
  -1  11 -13    5.90    1.80
   2  10 -13    7.90    1.90
   1  10 -13    0.10    0.90
   0  10 -13    1.10    1.20
  -1  10 -13   -0.30    0.90
  -2  10 -13    2.30    1.20
   2   9 -13    3.00    1.20
   1   9 -13   21.60    2.90
   0   9 -13   41.70    3.40
  -1   9 -13    6.20    1.60
  -2   9 -13   10.00    2.00
  -3  -8  13    0.30    1.00
   2   8 -13   29.00    2.80
   1   8 -13   28.70    2.80
   0   8 -13   34.00    3.00
  -1   8 -13   14.50    2.20
  -2   8 -13    1.20    1.10
  -3   8 -13    6.20    1.60
  -3  -7  13    4.00    1.20
   2   7 -13    7.50    1.70
  -2  -7  13    6.40    1.20
   1   7 -13   68.89    4.10
   0   7 -13    3.80    1.30
  -1   7 -13   -0.90    0.80
  -2   7 -13   -0.20    0.90
  -3   7 -13    0.40    1.00
  -4  -6  13    3.50    1.20
  -3  -6  13    1.20    1.00
   2   6 -13   19.60    2.50
  -2  -6  13   15.20    1.60
   1   6 -13   69.39    3.90
   0   6 -13    2.80    1.10
  -1   6 -13   28.10    2.60
  -2   6 -13    6.00    1.50
  -3   6 -13    0.90    1.00
  -4  -5  13   14.60    1.70
  -3  -5  13   -0.70    0.70
   2   5 -13   17.80    2.30
  -2  -5  13   16.20    1.60
  -2  -5  13   16.30    1.80
   1   5 -13    7.40    1.60
   0   5 -13   13.30    2.00
  -1   5 -13    1.80    0.90
  -2   5 -13    3.50    1.30
  -3   5 -13    1.30    1.00
  -4  -4  13    4.60    1.20
   2   4 -13   82.99    4.00
  -2  -4  13   76.49    3.40
   1   4 -13   10.20    1.70
  -1  -4  13    9.80    1.40
   0   4 -13    5.50    1.40
  -1   4 -13   21.30    2.50
  -2   4 -13    0.30    0.80
  -3   4 -13    5.40    1.50
  -3  -3  13    0.80    0.70
   2   3 -13    4.50    1.20
  -2  -3  13    5.40    1.20
   1   3 -13    3.80    1.10
  -1  -3  13    2.40    0.90
   0   3 -13    1.80    1.00
   0  -3  13    1.10    0.80
  -1   3 -13    4.40    1.30
  -2   3 -13    3.20    1.30
  -3   3 -13    0.10    0.90
  -3  -2  13   -0.10    0.70
  -2  -2  13    4.90    1.10
   1   2 -13   33.70    2.50
  -1  -2  13   30.80    2.30
   0   2 -13    0.60    0.70
   0  -2  13   -0.50    0.70
  -1   2 -13    8.20    1.70
  -2   2 -13    0.30    0.80
  -3   2 -13    9.90    2.00
  -4  -1  13    3.60    1.10
  -3  -1  13   12.30    1.80
  -2  -1  13    4.30    1.20
   1   1 -13   94.39    4.20
  -1  -1  13  100.69    4.10
   0   1 -13   41.50    3.00
   0  -1  13   40.50    2.60
  -1   1 -13   -1.00    0.80
  -2   1 -13   42.80    3.30
  -3   1 -13    1.40    1.10
  -4   0  13   -1.00    0.80
  -3   0  13    1.30    0.80
  -2   0  13    1.80    0.90
   1   0 -13  151.78    5.50
  -1   0  13  138.29    5.10
   0   0 -13    2.20    1.00
   0   0  13    2.80    1.00
  -1   0 -13    9.00    1.70
  -2   0 -13    8.70    2.00
  -4   1  13    4.20    1.30
  -3   1  13   -0.10    0.90
  -2   1  13   47.90    2.90
   1  -1 -13    0.70    0.80
  -1   1  13    0.40    0.80
   0  -1 -13   36.50    2.90
   0   1  13   32.90    2.40
  -1  -1 -13   -0.20    0.90
   1   1  13    0.80    0.80
  -2  -1 -13    0.40    1.00
  -4   2  13    0.90    1.10
  -3   2  13    4.10    1.30
  -2   2  13    4.90    1.30
   1  -2 -13    0.50    0.70
  -1   2  13    1.20    0.90
   0  -2 -13    9.30    1.80
   0   2  13    7.00    1.40
  -1  -2 -13    0.10    0.90
   1   2  13    1.70    0.70
  -2  -2 -13    0.80    1.00
  -3   3  13    3.00    1.10
  -2   3  13   -0.80    0.80
  -1   3  13    0.80    0.80
   0  -3 -13    1.30    1.00
   0   3  13    3.00    1.00
   1   3  13    2.10    1.00
  -3   4  13    0.40    1.00
  -2   4  13    3.40    1.20
  -1   4  13    5.30    1.30
   0   4  13    1.70    0.90
   1   4  13    2.70    1.00
   1   4  13    2.50    1.30
  -2   5  13    1.80    1.10
  -1   5  13    1.90    1.10
   0   5  13    0.30    0.80
   0   5  13   -1.40    0.90
   1  10 -14   11.20    2.30
   0  10 -14    0.30    1.00
  -1  10 -14    5.80    1.90
   2   9 -14    0.50    1.10
   1   9 -14   11.30    2.20
   0   9 -14   15.20    2.70
  -1   9 -14    1.20    1.00
  -2   9 -14    2.50    1.40
   2   8 -14    0.20    1.10
   1   8 -14    3.30    1.40
   0   8 -14   10.80    2.10
  -1   8 -14    0.20    1.00
  -2   8 -14    1.80    1.10
  -3  -7  14    1.10    1.10
   2   7 -14    0.90    1.00
   1   7 -14    0.30    0.80
   0   7 -14    3.80    1.40
  -2   7 -14    1.20    1.10
  -3  -6  14    6.80    1.40
   2   6 -14   -0.70    0.70
   1   6 -14   58.69    3.70
   0   6 -14    0.10    0.80
  -2   6 -14    1.00    1.00
   2   5 -14    0.60    0.90
  -2  -5  14    0.40    0.70
   1   5 -14   63.09    3.70
   0   5 -14    7.20    1.60
  -1   5 -14   11.00    1.90
   2   4 -14    0.00    0.80
  -2  -4  14    2.30    0.90
   1   4 -14    0.60    0.80
  -1  -4  14    0.90    0.70
   0   4 -14    3.50    1.10
  -1   4 -14   12.80    2.10
  -2   4 -14    4.90    1.60
  -3  -3  14    8.00    1.50
  -2  -3  14    1.10    0.90
   1   3 -14    0.90    0.90
  -1  -3  14    0.70    0.80
   0   3 -14   13.20    2.10
  -1   3 -14    3.50    1.40
  -2   3 -14    0.00    0.80
  -3  -2  14    8.90    1.50
  -2  -2  14   -0.70    0.80
   1   2 -14    4.40    1.30
  -1  -2  14    3.40    1.10
   0   2 -14   11.50    1.80
   0  -2  14    9.20    1.50
  -1   2 -14   26.60    2.60
  -2   2 -14   14.90    2.40
  -4  -1  14   -0.80    0.90
  -3  -1  14    2.50    1.10
  -2  -1  14   -0.10    0.80
   1   1 -14   14.00    2.00
  -1  -1  14   11.60    1.80
   0   1 -14   27.10    2.60
   0  -1  14   28.30    2.30
  -1   1 -14    2.80    1.30
  -2   1 -14   16.00    2.60
  -3   0  14    1.00    0.90
  -2   0  14    5.20    1.30
   1   0 -14    0.90    0.90
  -1   0  14    2.60    1.00
   0   0 -14    0.40    0.90
   0   0  14    1.50    0.90
  -1   0 -14   40.10    3.20
  -2   0 -14    1.90    1.30
  -3   1  14    1.00    0.90
  -2   1  14    1.30    1.00
   1  -1 -14    0.20    0.90
  -1   1  14    0.80    0.90
   0  -1 -14    2.50    1.20
   0   1  14    1.40    0.90
  -1  -1 -14    0.90    1.20
   1   1  14    0.00    0.80
  -3   2  14    2.40    1.20
  -2   2  14    0.20    0.90
  -1   2  14   -0.30    0.80
   0  -2 -14    6.60    1.70
   0   2  14    7.70    1.50
  -1  -2 -14   -0.70    0.90
   1   2  14    0.90    0.80
  -3   3  14   -0.10    1.10
  -2   3  14    1.40    1.00
  -1   3  14    1.40    1.00
   0  -3 -14    4.50    1.60
   0   3  14    2.10    1.20
  -2   4  14    0.80    1.10
  -1   4  14    2.10    1.10
   1   9 -15    4.50    1.60
   0   9 -15   45.80    3.90
  -1   9 -15    0.60    1.20
   2   8 -15    1.70    1.30
   1   8 -15    0.00    1.00
   0   8 -15    4.20    1.50
  -1   8 -15    0.60    1.00
   2   7 -15    2.70    1.30
   1   7 -15   14.20    2.40
   0   7 -15    8.00    1.90
  -1   7 -15    0.70    1.10
  -2   7 -15    0.80    1.10
   2   6 -15    0.20    1.00
   1   6 -15    0.60    1.00
   0   6 -15    3.50    1.50
  -1   6 -15    3.80    1.40
  -2   6 -15   -0.30    1.00
   2   5 -15    4.40    1.40
  -2  -5  15    4.30    1.20
   1   5 -15    2.00    1.20
   0   5 -15    2.20    1.20
  -1   5 -15    2.10    1.20
  -2   5 -15    1.70    1.20
  -2  -4  15   -0.80    0.60
   1   4 -15    2.40    1.20
  -1  -4  15    5.50    1.30
   0   4 -15    2.20    1.00
  -1   4 -15    0.70    1.00
  -2   4 -15    0.10    1.00
  -3  -3  15    3.60    1.10
  -2  -3  15   11.50    1.80
   1   3 -15   -0.40    0.80
  -1  -3  15    0.60    0.90
   0   3 -15    2.30    1.20
  -1   3 -15    2.30    1.10
  -2   3 -15    3.00    1.40
  -3  -2  15    6.50    1.50
  -2  -2  15    4.90    1.30
   1   2 -15   15.10    2.20
  -1  -2  15   16.40    2.10
   0   2 -15   10.40    2.00
   0  -2  15    8.30    1.60
  -1   2 -15   -0.10    0.90
  -2   2 -15   -0.10    1.00
  -3  -1  15    5.70    1.50
  -2  -1  15    6.70    1.50
   1   1 -15   52.59    3.40
  -1  -1  15   54.19    3.30
   0   1 -15   32.90    2.90
   0  -1  15   31.50    2.60
  -1   1 -15   24.90    3.00
  -3   0  15    1.60    1.10
  -2   0  15    0.90    1.00
   1   0 -15    0.40    0.80
  -1   0  15    2.00    1.10
   0   0 -15    1.10    1.20
   0   0  15    1.10    0.90
  -1   0 -15    0.30    1.10
  -2   1  15    5.30    1.40
  -1   1  15    0.30    1.00
   0  -1 -15    7.40    1.80
   0   1  15   10.10    1.80
  -2   2  15    0.30    0.90
  -1   2  15    0.30    0.90
   0  -2 -15    0.30    1.00
   0   2  15    0.50    0.90
   1   7 -16    0.00    1.00
   0   7 -16    0.70    1.00
   2   6 -16    7.20    2.10
   1   6 -16    2.70    1.40
   0   6 -16   -0.10    1.00
  -1   6 -16   -0.90    0.80
  -2  -5  16    2.30    1.10
   1   5 -16    2.00    1.10
   0   5 -16    8.10    1.90
  -1   5 -16    3.80    1.40
  -2  -4  16    1.50    1.00
   1   4 -16   -0.40    0.90
  -1  -4  16    0.00    0.80
   0   4 -16    7.50    1.80
  -1   4 -16    0.60    1.10
  -2  -3  16    1.30    1.00
   1   3 -16    6.80    1.70
  -1  -3  16   10.10    1.80
   0   3 -16    5.80    1.60
  -1   3 -16    9.10    2.00
  -2  -2  16    2.10    1.10
   1   2 -16    3.50    1.30
  -1  -2  16    4.10    1.30
   0   2 -16    8.70    1.90
  -1   2 -16    2.80    1.30
  -2  -1  16    0.30    0.90
   1   1 -16    1.20    1.10
  -1  -1  16    2.60    1.20
   0   1 -16    8.30    1.90
   0  -1  16    7.80    1.60
  -1   0  16    6.40    1.60
   0   0  16    0.60    1.00
   0   0   0    0.00    0.00

_computing_structure_solution     'SHELXT 2014/5 (Sheldrick, 2014)'
;
loop_
_space_group_symop_operation_xyz
'x, y, z'
'-x, -y, -z'
loop_
_atom_site_label
_atom_site_type_symbol
_atom_site_fract_x
_atom_site_fract_y
_atom_site_fract_z
_atom_site_U_iso_or_equiv
_atom_site_adp_type
_atom_site_occupancy
_atom_site_site_symmetry_order
_atom_site_calc_flag
_atom_site_refinement_flags_posn
_atom_site_refinement_flags_adp
_atom_site_refinement_flags_occupancy
_atom_site_disorder_assembly
_atom_site_disorder_group
O1 O 0.2758(2) 0.25763(11) 0.77312(9) 0.0491(3) Uani 1 1 d . . . . .
O2 O 0.5557(3) 0.19720(14) 0.88394(11) 0.0645(4) Uani 1 1 d . . . . .
O3 O 0.7462(3) 0.22041(11) 0.58637(9) 0.0540(4) Uani 1 1 d . . . . .
O4 O 0.6944(3) 0.45584(11) 0.82403(10) 0.0601(4) Uani 1 1 d . . . . .
O5 O 1.2367(3) 0.47210(14) 0.57681(12) 0.0702(4) Uani 1 1 d . . . . .
N1 N 0.9774(3) 0.46502(13) 0.70509(11) 0.0457(4) Uani 1 1 d . . . . .
C1 C 1.1582(4) 0.81208(19) 0.85985(15) 0.0645(5) Uani 1 1 d . . . . .
H1 H 1.300609 0.810195 0.909143 0.077 Uiso 1 1 calc R U . . .
C2 C 1.0682(5) 0.92528(19) 0.86500(18) 0.0753(7) Uani 1 1 d . . . . .
H2 H 1.150879 0.998838 0.917953 0.090 Uiso 1 1 calc R U . . .
C3 C 0.8590(5) 0.9298(2) 0.7929(2) 0.0744(7) Uani 1 1 d . . . . .
H3 H 0.798946 1.005732 0.796849 0.089 Uiso 1 1 calc R U . . .
C4 C 0.7394(4) 0.8211(2) 0.7151(2) 0.0726(6) Uani 1 1 d . . . . .
H4 H 0.598107 0.823635 0.665680 0.087 Uiso 1 1 calc R U . . .
C5 C 0.8259(4) 0.70769(17) 0.70910(15) 0.0527(5) Uani 1 1 d . . . . .
H5 H 0.741517 0.634717 0.655869 0.063 Uiso 1 1 calc R U . . .
C6 C 1.0355(3) 0.70137(15) 0.78093(12) 0.0426(4) Uani 1 1 d . . . . .
C7 C 1.1414(3) 0.58140(16) 0.77989(15) 0.0527(5) Uani 1 1 d . . . . .
H7A H 1.322547 0.589932 0.762390 0.063 Uiso 1 1 calc R U . . .
H7B H 1.152946 0.572299 0.850493 0.063 Uiso 1 1 calc R U . . .
C8 C 1.0428(4) 0.42022(17) 0.60509(15) 0.0517(4) Uani 1 1 d . . . . .
C9 C 0.8524(5) 0.30636(19) 0.53250(15) 0.0616(5) Uani 1 1 d . . . . .
H9A H 0.704602 0.334445 0.498345 0.074 Uiso 1 1 calc R U . . .
H9B H 0.946114 0.262111 0.477833 0.074 Uiso 1 1 calc R U . . .
C10 C 0.6245(3) 0.27695(15) 0.67069(12) 0.0429(4) Uani 1 1 d . . . . .
C11 C 0.7589(3) 0.40466(15) 0.73986(13) 0.0437(4) Uani 1 1 d . . . . .
C12 C 0.4084(3) 0.20737(16) 0.68940(13) 0.0445(4) Uani 1 1 d . . . . .
C13 C 0.2845(4) 0.07532(18) 0.62471(17) 0.0638(5) Uani 1 1 d . . . . .
H13A H 0.363514 0.053300 0.561203 0.096 Uiso 1 1 calc R U . . .
H13B H 0.094045 0.070013 0.606696 0.096 Uiso 1 1 calc R U . . .
H13C H 0.316132 0.017634 0.664583 0.096 Uiso 1 1 calc R U . . .
C14 C 0.3741(3) 0.25106(16) 0.87100(13) 0.0460(4) Uani 1 1 d . . . . .
C15 C 0.2252(4) 0.3173(2) 0.95281(16) 0.0663(6) Uani 1 1 d . . . . .
H15A H 0.285295 0.304005 1.019070 0.099 Uiso 1 1 calc R U . . .
H15B H 0.035783 0.284220 0.932244 0.099 Uiso 1 1 calc R U . . .
H15C H 0.257792 0.406457 0.960155 0.099 Uiso 1 1 calc R U . . .
loop_
_atom_site_aniso_label
_atom_site_aniso_U_11
_atom_site_aniso_U_22
_atom_site_aniso_U_33
_atom_site_aniso_U_23
_atom_site_aniso_U_13
_atom_site_aniso_U_12
O1 0.0458(6) 0.0547(7) 0.0470(7) 0.0115(5) 0.0086(5) 0.0160(5)
O2 0.0661(8) 0.0720(9) 0.0625(8) 0.0262(7) 0.0061(7) 0.0261(7)
O3 0.0693(8) 0.0402(7) 0.0517(7) 0.0069(5) 0.0236(6) 0.0099(6)
O4 0.0785(9) 0.0430(7) 0.0523(8) 0.0018(6) 0.0184(7) 0.0080(6)
O5 0.0617(8) 0.0762(10) 0.0762(10) 0.0298(8) 0.0205(7) 0.0018(7)
N1 0.0485(8) 0.0374(8) 0.0502(8) 0.0118(6) 0.0050(6) 0.0089(6)
C1 0.0798(13) 0.0487(11) 0.0533(11) 0.0100(9) -0.0016(10) -0.0070(9)
C2 0.1052(18) 0.0397(11) 0.0671(14) 0.0001(9) 0.0181(13) -0.0042(11)
C3 0.0876(15) 0.0427(11) 0.0945(17) 0.0135(11) 0.0299(14) 0.0187(10)
C4 0.0655(12) 0.0555(13) 0.0959(17) 0.0196(12) 0.0044(12) 0.0200(10)
C5 0.0499(9) 0.0409(9) 0.0599(11) 0.0051(8) 0.0020(8) 0.0079(7)
C6 0.0449(8) 0.0383(9) 0.0422(9) 0.0101(7) 0.0110(7) 0.0006(7)
C7 0.0479(9) 0.0455(10) 0.0587(11) 0.0130(8) -0.0050(8) 0.0036(7)
C8 0.0541(10) 0.0489(10) 0.0575(11) 0.0211(8) 0.0120(8) 0.0138(8)
C9 0.0777(13) 0.0548(11) 0.0489(10) 0.0114(8) 0.0193(9) 0.0017(9)
C10 0.0521(9) 0.0369(9) 0.0403(9) 0.0086(7) 0.0090(7) 0.0141(7)
C11 0.0506(9) 0.0366(9) 0.0448(9) 0.0116(7) 0.0070(7) 0.0119(7)
C12 0.0472(9) 0.0438(9) 0.0427(9) 0.0108(7) 0.0067(7) 0.0129(7)
C13 0.0642(12) 0.0480(11) 0.0685(13) 0.0036(9) 0.0131(10) 0.0003(9)
C14 0.0451(9) 0.0425(9) 0.0467(9) 0.0120(7) 0.0035(7) 0.0003(7)
C15 0.0655(12) 0.0763(14) 0.0522(11) 0.0090(10) 0.0164(9) 0.0118(10)
loop_
_atom_type_symbol
_atom_type_description
_atom_type_scat_dispersion_real
_atom_type_scat_dispersion_imag
_atom_type_scat_source
C C 0.0033 0.0016 'International Tables Vol C Tables 4.2.6.8 and 6.1.1.4'
H H 0.0000 0.0000 'International Tables Vol C Tables 4.2.6.8 and 6.1.1.4'
N N 0.0061 0.0033 'International Tables Vol C Tables 4.2.6.8 and 6.1.1.4'
O O 0.0106 0.0060 'International Tables Vol C Tables 4.2.6.8 and 6.1.1.4'
loop_
_geom_angle_atom_site_label_1
_geom_angle_atom_site_label_2
_geom_angle_atom_site_label_3
_geom_angle
_geom_angle_site_symmetry_1
_geom_angle_site_symmetry_3
C14 O1 C12 117.66(13) . .
C10 O3 C9 113.40(14) . .
C8 N1 C11 122.96(15) . .
C8 N1 C7 119.51(15) . .
C11 N1 C7 117.53(14) . .
C2 C1 C6 120.1(2) . .
C2 C1 H1 120.0 . .
C6 C1 H1 120.0 . .
C3 C2 C1 120.72(19) . .
C3 C2 H2 119.6 . .
C1 C2 H2 119.6 . .
C4 C3 C2 119.2(2) . .
C4 C3 H3 120.4 . .
C2 C3 H3 120.4 . .
C3 C4 C5 120.9(2) . .
C3 C4 H4 119.6 . .
C5 C4 H4 119.6 . .
C6 C5 C4 120.78(17) . .
C6 C5 H5 119.6 . .
C4 C5 H5 119.6 . .
C5 C6 C1 118.42(17) . .
C5 C6 C7 124.03(14) . .
C1 C6 C7 117.55(17) . .
N1 C7 C6 114.58(15) . .
N1 C7 H7A 108.6 . .
C6 C7 H7A 108.6 . .
N1 C7 H7B 108.6 . .
C6 C7 H7B 108.6 . .
H7A C7 H7B 107.6 . .
O5 C8 N1 122.20(18) . .
O5 C8 C9 122.38(18) . .
N1 C8 C9 115.37(15) . .
O3 C9 C8 112.72(17) . .
O3 C9 H9A 109.0 . .
C8 C9 H9A 109.0 . .
O3 C9 H9B 109.0 . .
C8 C9 H9B 109.0 . .
H9A C9 H9B 107.8 . .
C12 C10 O3 117.17(15) . .
C12 C10 C11 124.89(15) . .
O3 C10 C11 117.62(14) . .
O4 C11 N1 119.67(15) . .
O4 C11 C10 123.66(15) . .
N1 C11 C10 116.64(14) . .
C10 C12 O1 120.47(15) . .
C10 C12 C13 125.21(15) . .
O1 C12 C13 114.30(15) . .
C12 C13 H13A 109.5 . .
C12 C13 H13B 109.5 . .
H13A C13 H13B 109.5 . .
C12 C13 H13C 109.5 . .
H13A C13 H13C 109.5 . .
H13B C13 H13C 109.5 . .
O2 C14 O1 121.94(16) . .
O2 C14 C15 126.93(18) . .
O1 C14 C15 111.13(16) . .
C14 C15 H15A 109.5 . .
C14 C15 H15B 109.5 . .
H15A C15 H15B 109.5 . .
C14 C15 H15C 109.5 . .
H15A C15 H15C 109.5 . .
H15B C15 H15C 109.5 . .
loop_
_geom_bond_atom_site_label_1
_geom_bond_atom_site_label_2
_geom_bond_distance
_geom_bond_site_symmetry_2
O1 C14 1.371(2) .
O1 C12 1.3895(19) .
O2 C14 1.192(2) .
O3 C10 1.3808(19) .
O3 C9 1.428(2) .
O4 C11 1.211(2) .
O5 C8 1.217(2) .
N1 C8 1.381(2) .
N1 C11 1.402(2) .
N1 C7 1.473(2) .
C1 C2 1.389(3) .
C1 C6 1.393(2) .
C1 H1 0.9300 .
C2 C3 1.370(3) .
C2 H2 0.9300 .
C3 C4 1.368(3) .
C3 H3 0.9300 .
C4 C5 1.381(3) .
C4 H4 0.9300 .
C5 C6 1.376(3) .
C5 H5 0.9300 .
C6 C7 1.508(3) .
C7 H7A 0.9700 .
C7 H7B 0.9700 .
C8 C9 1.501(3) .
C9 H9A 0.9700 .
C9 H9B 0.9700 .
C10 C12 1.337(2) .
C10 C11 1.485(2) .
C12 C13 1.491(3) .
C13 H13A 0.9600 .
C13 H13B 0.9600 .
C13 H13C 0.9600 .
C14 C15 1.480(3) .
C15 H15A 0.9600 .
C15 H15B 0.9600 .
C15 H15C 0.9600 .
loop_
_geom_torsion_atom_site_label_1
_geom_torsion_atom_site_label_2
_geom_torsion_atom_site_label_3
_geom_torsion_atom_site_label_4
_geom_torsion
_geom_torsion_site_symmetry_1
_geom_torsion_site_symmetry_2
_geom_torsion_site_symmetry_3
_geom_torsion_site_symmetry_4
C6 C1 C2 C3 -0.1(3) . . . .
C1 C2 C3 C4 -0.2(3) . . . .
C2 C3 C4 C5 0.4(3) . . . .
C3 C4 C5 C6 -0.3(3) . . . .
C4 C5 C6 C1 0.0(3) . . . .
C4 C5 C6 C7 179.90(18) . . . .
C2 C1 C6 C5 0.2(3) . . . .
C2 C1 C6 C7 -179.70(18) . . . .
C8 N1 C7 C6 94.23(18) . . . .
C11 N1 C7 C6 -85.68(19) . . . .
C5 C6 C7 N1 -8.8(2) . . . .
C1 C6 C7 N1 171.13(15) . . . .
C11 N1 C8 O5 -178.35(16) . . . .
C7 N1 C8 O5 1.7(3) . . . .
C11 N1 C8 C9 4.0(2) . . . .
C7 N1 C8 C9 -175.95(16) . . . .
C10 O3 C9 C8 54.6(2) . . . .
O5 C8 C9 O3 146.41(19) . . . .
N1 C8 C9 O3 -35.9(2) . . . .
C9 O3 C10 C12 144.87(17) . . . .
C9 O3 C10 C11 -41.3(2) . . . .
C8 N1 C11 O4 -172.02(16) . . . .
C7 N1 C11 O4 7.9(2) . . . .
C8 N1 C11 C10 10.0(2) . . . .
C7 N1 C11 C10 -170.09(14) . . . .
C12 C10 C11 O4 4.4(3) . . . .
O3 C10 C11 O4 -168.97(16) . . . .
C12 C10 C11 N1 -177.72(15) . . . .
O3 C10 C11 N1 8.9(2) . . . .
O3 C10 C12 O1 179.75(13) . . . .
C11 C10 C12 O1 6.4(3) . . . .
O3 C10 C12 C13 -1.8(3) . . . .
C11 C10 C12 C13 -175.23(17) . . . .
C14 O1 C12 C10 -84.7(2) . . . .
C14 O1 C12 C13 96.77(19) . . . .
C12 O1 C14 O2 -4.8(2) . . . .
C12 O1 C14 C15 175.53(15) . . . .
