#------------------------------------------------------------------------------
#$Date: 2022-06-10 11:50:55 +0300 (Fri, 10 Jun 2022) $
#$Revision: 275959 $
#$URL: file:///home/coder/svn-repositories/cod/cif/8/10/53/8105380.cif $
#------------------------------------------------------------------------------
#
# This file is available in the Crystallography Open Database (COD),
# http://www.crystallography.net/
#
# All data on this site have been placed in the public domain by the
# contributors.
#
data_8105380
loop_
_publ_author_name
'Yu, Xiang'
'Peng, Lu'
'Wang, Xin'
'Chen, Ya-Fang'
_publ_section_title
;
 Synthesis and crystal structure of
 3-N-acetyl-5-(pyridin-3-yl)-2-(quinolin-2-yl)-1,3,4-oxadiazoline,
 C18H14N4O2
;
_journal_issue                   5
_journal_name_full
'Zeitschrift f\"ur Kristallographie - New Crystal Structures'
_journal_page_first              1067
_journal_page_last               1068
_journal_paper_doi               10.1515/ncrs-2020-0174
_journal_volume                  235
_journal_year                    2020
_chemical_formula_moiety         'C18 H14 N4 O2'
_chemical_formula_sum            'C18 H14 N4 O2'
_chemical_formula_weight         318.33
_space_group_crystal_system      triclinic
_space_group_IT_number           2
_space_group_name_Hall           '-P 1'
_space_group_name_H-M_alt        'P -1'
_atom_sites_solution_hydrogens   geom
_cell_angle_alpha                61.6430(10)
_cell_angle_beta                 73.600(2)
_cell_angle_gamma                75.397(2)
_cell_formula_units_Z            2
_cell_length_a                   7.6557(7)
_cell_length_b                   11.0905(8)
_cell_length_c                   11.3544(9)
_cell_measurement_reflns_used    1358
_cell_measurement_temperature    298(2)
_cell_measurement_theta_max      28.114
_cell_measurement_theta_min      2.801
_cell_volume                     805.86(11)
_computing_molecular_graphics
;
O. V. Dolomanov, L. J. Bourhis, R. J. Gildea, J. A. K. Howard and H. Puschmann,
OLEX2: a complete structure solution, refinement and analysis program.
J. Appl. Cryst. (2009). 42, 339-341.
;
_computing_publication_material
;
O. V. Dolomanov, L. J. Bourhis, R. J. Gildea, J. A. K. Howard and H. Puschmann,
OLEX2: a complete structure solution, refinement and analysis program.
J. Appl. Cryst. (2009). 42, 339-341.
;
_computing_structure_refinement
;
XL, G.M. Sheldrick, Acta Cryst.
(2008). A64, 112-122
;
_diffrn_ambient_temperature      298.15
_diffrn_measured_fraction_theta_full 0.963
_diffrn_measured_fraction_theta_max 0.963
_diffrn_measurement_device_type  'CCD area detector'
_diffrn_radiation_type           MoK\a
_diffrn_radiation_wavelength     0.71073
_diffrn_reflns_av_R_equivalents  0.0293
_diffrn_reflns_av_unetI/netI     0.0669
_diffrn_reflns_Laue_measured_fraction_full 0.963
_diffrn_reflns_Laue_measured_fraction_max 0.963
_diffrn_reflns_limit_h_max       6
_diffrn_reflns_limit_h_min       -9
_diffrn_reflns_limit_k_max       12
_diffrn_reflns_limit_k_min       -13
_diffrn_reflns_limit_l_max       12
_diffrn_reflns_limit_l_min       -13
_diffrn_reflns_number            3916
_diffrn_reflns_point_group_measured_fraction_full 0.963
_diffrn_reflns_point_group_measured_fraction_max 0.963
_diffrn_reflns_theta_full        25.020
_diffrn_reflns_theta_max         25.020
_diffrn_reflns_theta_min         2.801
_exptl_absorpt_coefficient_mu    0.089
_exptl_crystal_density_diffrn    1.312
_exptl_crystal_description       block
_exptl_crystal_F_000             332
_exptl_crystal_size_max          0.450
_exptl_crystal_size_mid          0.440
_exptl_crystal_size_min          0.400
_refine_diff_density_max         0.214
_refine_diff_density_min         -0.240
_refine_diff_density_rms         0.056
_refine_ls_extinction_coef       .
_refine_ls_extinction_method     none
_refine_ls_goodness_of_fit_ref   0.939
_refine_ls_hydrogen_treatment    constr
_refine_ls_matrix_type           full
_refine_ls_number_parameters     218
_refine_ls_number_reflns         2736
_refine_ls_number_restraints     0
_refine_ls_restrained_S_all      0.939
_refine_ls_R_factor_all          0.0976
_refine_ls_R_factor_gt           0.0609
_refine_ls_shift/su_max          0.000
_refine_ls_shift/su_mean         0.000
_refine_ls_structure_factor_coef Fsqd
_refine_ls_weighting_details
'w=1/[\s^2^(Fo^2^)+(0.0937P)^2^] where P=(Fo^2^+2Fc^2^)/3'
_refine_ls_weighting_scheme      calc
_refine_ls_wR_factor_gt          0.1478
_refine_ls_wR_factor_ref         0.1633
_reflns_Friedel_coverage         0.000
_reflns_Friedel_fraction_full    .
_reflns_Friedel_fraction_max     .
_reflns_number_gt                1688
_reflns_number_total             2736
_reflns_threshold_expression     'I > 2\s(I)'
_cod_data_source_file            suppl_ncrs-2020-0174_suppl.cif
_cod_data_source_block           191105c
_cod_database_code               8105380
_shelx_estimated_absorpt_t_max   0.965
_shelx_estimated_absorpt_t_min   0.961
_shelx_hkl_file
;
  -1   0   0   40.65    2.08
  -2   0   0 1690.56   50.29
  -2   0   0 1627.19   41.98
  -3   0   0   59.98    3.28
  -3   0   0   63.53    3.93
  -4   0   0   46.63    3.92
  -4   0   0   50.05    3.40
  -5   0   0   15.85    2.85
  -5   0   0   12.74    2.92
  -6   0   0   64.83    5.44
  -6   0   0   63.37    4.39
  -7   0   0   -0.93    1.92
  -8   0   0   -0.32    2.74
  -9   0   0    3.41    3.53
  -8   1   0   27.78    5.54
  -7   1   0   14.03    3.62
  -6   1   0    0.42    2.16
  -6   1   0   -0.71    1.75
  -5   1   0    9.76    2.71
  -5   1   0    9.98    2.73
  -4   1   0  143.13    7.21
  -4   1   0  140.55    6.18
  -3   1   0   68.57    4.13
  -3   1   0   66.63    3.57
  -2   1   0   31.41    2.23
  -2   1   0   29.89    2.01
  -1   1   0  831.16   21.36
  -1   1   0  830.91   25.43
  -1  -1   0 1122.76   33.98
  -2  -1   0   -1.81    0.72
  -2  -1   0   -0.56    0.48
  -3  -1   0   26.31    2.43
  -3  -1   0   25.02    2.00
  -4  -1   0    0.71    1.58
  -4  -1   0    0.58    1.40
  -5  -1   0    9.22    2.49
  -5  -1   0    9.39    2.66
  -6  -1   0   22.98    3.76
  -6  -1   0   20.22    4.26
  -7  -1   0   -0.67    2.27
  -8  -1   0   -0.10    2.95
  -9  -1   0    1.91    3.21
  -7   2   0    1.63    2.57
  -7   2   0    0.63    3.02
  -6   2   0   11.99    3.10
  -6   2   0   10.10    3.41
  -5   2   0    8.87    2.52
  -5   2   0    6.91    2.65
  -4   2   0    7.31    2.18
  -4   2   0    7.61    2.04
  -3   2   0   -1.03    1.08
  -3   2   0   -1.49    0.99
  -2   2   0   63.11    3.17
  -2   2   0   61.23    3.25
  -1   2   0  483.08   13.08
  -1   2   0  457.31   14.99
   0  -2   0 4283.24  129.65
   0   2   0 4204.90  104.89
   1   2   0  406.67   10.69
  -1  -2   0  364.37   12.62
  -1  -2   0  398.97   13.07
  -2  -2   0  561.42   18.66
   2   2   0  552.18   15.13
  -2  -2   0  579.92   18.55
  -3  -2   0  198.47    8.46
  -3  -2   0  191.12    6.44
  -4  -2   0  171.73    6.33
  -4  -2   0  165.31    8.22
  -5  -2   0    6.36    2.43
  -5  -2   0    8.01    2.28
  -6  -2   0   19.13    4.00
  -7  -2   0    0.78    2.51
  -8  -2   0   -0.22    2.85
  -9  -2   0   -0.12    3.22
  -7   3   0   -1.14    2.88
  -6   3   0   28.82    4.49
  -6   3   0   27.11    4.62
  -5   3   0   29.05    3.27
  -5   3   0   30.91    3.29
  -4   3   0   17.25    3.02
  -4   3   0   12.46    2.59
  -3   3   0  149.34    6.36
  -3   3   0  133.04    6.48
  -2   3   0  151.42    5.81
  -2   3   0  143.16    6.04
   1  -3   0   82.46    4.42
  -1   3   0   73.28    3.58
   0   3   0  720.23   19.11
   0  -3   0  690.88   23.11
   1   3   0 3130.44   76.93
  -1  -3   0 3052.75   94.37
  -1  -3   0 3079.86   91.43
   2   3   0    1.24    0.90
  -2  -3   0    0.31    0.61
  -2  -3   0    0.79    0.78
   3   3   0  305.44    9.60
  -3  -3   0  298.86   12.06
  -3  -3   0  333.27   11.61
  -4  -3   0   73.48    4.18
  -4  -3   0   73.04    5.08
  -5  -3   0   45.95    3.29
  -5  -3   0   44.92    4.39
  -6  -3   0   41.62    4.63
  -7  -3   0    2.06    2.31
  -8  -3   0    0.18    2.93
  -9  -3   0    2.38    3.21
  -7   4   0    5.71    3.24
  -6   4   0   -1.28    2.59
  -5   4   0   59.02    4.70
  -4   4   0   34.37    3.43
  -4   4   0   32.46    3.22
  -3   4   0   35.39    2.94
  -3   4   0   40.17    3.37
  -2   4   0   85.53    4.41
  -2   4   0   96.01    4.78
   1  -4   0   60.44    4.09
  -1   4   0   55.78    3.35
   0   4   0   12.55    2.16
   0  -4   0    9.96    1.84
   1   4   0   44.98    2.96
  -1  -4   0   49.14    3.30
  -1  -4   0   60.85    3.15
  -2  -4   0  696.82   22.54
  -2  -4   0  679.93   23.06
   2   4   0  674.72   18.86
  -3  -4   0   84.91    5.16
  -3  -4   0   98.76    5.02
   3   4   0   90.38    4.18
  -4  -4   0   17.56    2.09
   4   4   0   16.50    2.24
  -4  -4   0   16.01    2.53
  -5  -4   0   55.76    4.93
   5   4   0   57.85    3.91
  -6  -4   0    5.42    2.91
  -7  -4   0    0.83    2.51
  -8  -4   0   27.16    4.31
  -9  -4   0   15.95    5.26
  -7   5   0   -0.71    2.40
  -6   5   0    3.71    2.76
  -5   5   0    0.96    2.46
  -4   5   0   29.88    3.51
  -3   5   0   88.37    5.34
  -3   5   0   89.20    4.90
  -2   5   0   42.26    2.98
  -2   5   0   35.60    3.26
  -1   5   0  100.27    5.17
   1  -5   0  109.72    6.26
   0  -5   0  458.00   16.87
   0   5   0  444.78   13.90
  -1  -5   0 2010.96   60.11
   1   5   0 1940.81   51.26
  -1  -5   0 2006.27   62.74
  -2  -5   0  243.96   10.01
  -2  -5   0  265.12   10.71
   2   5   0  254.07    8.77
  -3  -5   0    1.02    1.15
  -3  -5   0    3.48    1.68
   3   5   0    2.53    1.64
   4   5   0    3.30    1.82
  -4  -5   0    1.79    1.79
  -4  -5   0    0.20    1.14
   5   5   0   91.76    5.05
  -5  -5   0   99.08    6.81
  -6  -5   0    7.02    3.00
  -7  -5   0    6.00    3.48
  -8  -5   0    1.21    3.40
  -9  -5   0    4.31    3.80
  -7   6   0    1.98    3.13
  -6   6   0    0.17    2.43
  -5   6   0    1.36    2.94
  -4   6   0   -1.14    2.46
  -3   6   0   24.91    4.05
  -2   6   0   10.72    3.20
   1  -6   0   14.33    3.14
  -1   6   0   12.48    2.92
   0  -6   0   63.70    4.79
   0   6   0   62.75    4.03
  -1  -6   0   29.78    2.59
  -1  -6   0   27.75    3.14
   1   6   0   21.77    2.78
   2   6   0  491.38   15.20
  -2  -6   0  485.51   18.41
  -2  -6   0  494.23   17.48
   3   6   0    2.68    1.73
  -3  -6   0    2.03    1.40
  -3  -6   0    3.30    1.79
  -4  -6   0    6.33    2.38
  -4  -6   0    5.17    1.91
   4   6   0    8.49    2.70
  -5  -6   0    4.75    2.85
  -6  -6   0    7.27    3.32
  -7  -6   0    1.49    2.77
  -8  -6   0   -1.96    3.20
  -9  -6   0    3.17    3.65
  -7   7   0   -1.16    3.29
  -6   7   0    2.56    2.60
  -5   7   0    7.84    3.52
  -4   7   0    4.40    3.41
  -3   7   0   15.97    3.98
  -2   7   0   21.82    4.25
  -1   7   0    1.02    2.07
   1  -7   0    1.73    2.23
   0   7   0   22.34    2.85
   0  -7   0   20.31    3.36
   1   7   0   22.82    2.95
  -1  -7   0   29.18    3.53
  -2  -7   0   53.08    3.96
   2   7   0   46.03    3.88
  -2  -7   0   50.03    4.51
  -3  -7   0  249.21   11.06
  -3  -7   0  239.64   11.34
   3   7   0  243.00    9.41
   4   7   0    1.78    1.96
  -4  -7   0   -0.32    1.56
  -4  -7   0   -0.80    1.63
  -5  -7   0   84.26    6.61
  -6  -7   0    0.77    3.01
  -7  -7   0   -3.32    2.52
  -8  -7   0    3.69    3.97
  -6   8   0    9.37    3.57
  -5   8   0    3.34    3.87
  -4   8   0   17.07    4.65
  -3   8   0   21.44    4.99
  -2   8   0   71.60    5.65
  -1   8   0   23.40    4.54
   0  -8   0    8.83    2.99
   0   8   0    6.32    3.23
   1   8   0   28.50    4.85
  -1  -8   0   21.44    3.47
  -2  -8   0   43.40    4.58
  -2  -8   0   38.90    3.68
   2   8   0   40.23    4.12
   3   8   0  302.83   11.52
  -3  -8   0  293.34   13.01
  -3  -8   0  307.43   14.01
   4   8   0   54.93    4.35
  -4  -8   0   58.83    5.17
  -4  -8   0   47.39    4.71
  -5  -8   0   17.32    4.16
  -6  -8   0    2.08    3.16
  -7  -8   0    1.83    3.35
  -8  -8   0    1.54    3.32
  -5   9   0    2.99    4.21
  -4   9   0   40.21    7.32
  -3   9   0    7.63    4.02
  -2   9   0   51.02    5.05
  -1   9   0   12.36    4.20
   0   9   0   21.62    4.58
   0  -9   0   19.57    4.65
   1   9   0    0.99    2.61
  -1  -9   0   -0.04    2.22
  -2  -9   0   -1.24    2.02
   2   9   0   -1.26    2.21
   3   9   0   19.39    4.19
  -3  -9   0   10.52    3.54
  -4  -9   0   21.17    4.22
  -4  -9   0   25.98    4.73
  -5  -9   0   -0.76    2.33
  -6  -9   0   -2.56    2.78
  -7  -9   0    0.99    3.13
  -8  -9   0    2.25    3.64
  -4  10   0   -1.12    4.78
  -3  10   0   27.64    6.03
  -2  10   0   12.66    4.62
  -1  10   0   17.71    5.01
   0  10   0    1.84    3.06
   1  10   0    7.95    3.69
  -1 -10   0    3.42    3.19
  -2 -10   0    1.41    2.82
   2  10   0    1.92    2.49
   3  10   0   49.61    4.41
  -3 -10   0   30.12    4.61
  -6 -10   0   15.07    4.36
  -7 -10   0   -2.11    3.26
  -3  11   0    7.39    4.66
  -2  11   0   11.44    4.37
  -1  11   0    6.02    4.21
   0  11   0    6.88    3.73
  -1 -11   0   -0.82    2.91
   1  11   0    3.23    3.40
   2  11   0   -1.78    2.82
  -2 -11   0   -1.04    2.73
  -3 -11   0    6.91    4.01
  -1  12   0    4.43    4.30
   0  12   0   35.47    4.68
   1  12   0    4.34    4.04
   2  12   0   20.86    5.17
  -2 -12   0   13.91    5.14
  -3 -12   0   12.13    4.82
   1  13   0    1.41    4.30
   2  12  -1    5.97    4.34
   1  12  -1    4.36    3.77
   0  12  -1   21.63    5.45
  -1  12  -1    5.82    4.69
   3  11  -1    1.01    3.50
   2  11  -1   -0.51    3.23
   1  11  -1    3.37    3.49
   0  11  -1    6.61    4.09
  -1  11  -1    4.53    4.05
  -2  11  -1    9.52    5.00
  -3  11  -1    1.78    4.36
  -6 -10   1   -0.59    3.07
  -3 -10   1   37.55    5.27
   3  10  -1   55.75    4.95
   2  10  -1   -2.62    2.90
  -2 -10   1   -1.44    2.47
   1  10  -1    9.55    3.90
   0  10  -1   -2.21    3.02
  -1  10  -1   -0.51    3.48
  -2  10  -1   -0.33    3.68
  -3  10  -1    1.21    3.93
  -4  10  -1   -5.77    4.27
  -7  -9   1    0.07    3.42
  -6  -9   1    0.07    2.51
  -5  -9   1    1.40    2.61
  -4  -9   1    0.68    2.52
  -3  -9   1   16.54    4.32
   3   9  -1   30.97    5.42
  -2  -9   1   -0.12    2.52
   2   9  -1   -3.46    2.57
   1   9  -1    1.89    2.94
   0   9  -1   29.23    5.28
  -1   9  -1   -5.61    2.48
  -2   9  -1   19.35    5.19
  -3   9  -1    1.08    3.71
  -4   9  -1   17.89    5.55
  -5   9  -1   -1.76    4.59
  -8  -8   1   -4.51    3.48
  -7  -8   1   12.47    4.31
  -6  -8   1    0.12    2.99
  -5  -8   1    1.60    2.82
  -4  -8   1   23.50    3.63
   4   8  -1   35.24    5.18
  -3  -8   1   25.47    4.56
   3   8  -1   39.83    5.41
  -3  -8   1   25.30    4.48
  -2  -8   1    9.94    3.13
  -2  -8   1    6.99    3.20
   2   8  -1    2.61    3.04
  -1  -8   1   76.60    6.34
   1   8  -1   73.97    5.46
   0   8  -1   18.29    4.06
  -1   8  -1   59.06    4.93
  -2   8  -1   54.87    4.94
  -3   8  -1   31.84    5.60
  -4   8  -1   12.02    4.54
  -5   8  -1   -4.86    3.72
  -6   8  -1    6.96    4.05
  -8  -7   1   -1.93    3.21
  -7  -7   1   11.22    4.08
  -6  -7   1   17.54    4.54
  -5  -7   1   -0.22    2.60
  -4  -7   1   72.16    5.98
   4   7  -1   84.21    5.43
  -3  -7   1  158.88    8.69
  -3  -7   1  169.90    9.08
   3   7  -1  154.67    7.51
  -2  -7   1  379.95   15.16
   2   7  -1  384.77   13.52
  -2  -7   1  366.98   16.05
  -1  -7   1  130.87    8.12
   1   7  -1  127.42    6.74
   0   7  -1   23.12    3.02
  -1   7  -1   31.81    3.49
  -2   7  -1   80.46    5.56
  -3   7  -1   12.38    3.83
  -4   7  -1    0.10    3.36
  -5   7  -1    5.00    3.85
  -6   7  -1   -1.58    2.99
  -7   7  -1    2.14    2.75
  -8  -6   1   -0.71    3.54
  -7  -6   1   -2.90    2.79
  -6  -6   1   -0.94    2.27
  -5  -6   1   22.55    3.64
   5   6  -1   33.37    4.85
  -4  -6   1   11.87    3.13
   4   6  -1   12.74    3.53
   3   6  -1  187.50    8.02
  -3  -6   1  179.67    9.14
  -3  -6   1  194.92    9.19
  -2  -6   1   76.35    4.96
   2   6  -1   66.83    4.53
  -2  -6   1   72.73    5.23
  -1  -6   1   29.20    3.55
   1   6  -1   33.73    4.40
   0   6  -1   23.76    2.78
   0  -6   1   20.98    3.08
  -1   6  -1   22.17    2.80
  -2   6  -1  190.92    8.58
  -3   6  -1   -1.53    2.08
  -4   6  -1    0.95    2.55
  -5   6  -1   -0.90    2.59
  -6   6  -1    0.14    2.74
  -7   6  -1    3.17    3.07
  -9  -5   1    1.45    3.60
  -8  -5   1    1.68    3.32
  -7  -5   1   -1.13    2.57
  -6  -5   1   28.78    4.16
  -5  -5   1   51.91    4.97
   5   5  -1   48.48    4.21
  -4  -5   1   18.38    2.30
   4   5  -1   20.83    2.71
  -4  -5   1   21.54    2.95
   3   5  -1   21.49    2.63
  -3  -5   1   23.50    2.58
  -3  -5   1   24.79    2.82
  -2  -5   1  955.45   30.61
  -2  -5   1  919.71   31.24
   2   5  -1  919.53   26.01
   1   5  -1   56.88    3.85
  -1  -5   1   62.50    3.94
  -1  -5   1   53.43    4.26
   0  -5   1   58.47    4.52
   0   5  -1   55.90    3.76
  -1   5  -1   23.85    2.68
  -2   5  -1  575.75   20.61
  -2   5  -1  602.35   18.48
  -3   5  -1   22.10    3.70
  -3   5  -1   13.45    2.94
  -4   5  -1    8.09    3.27
  -5   5  -1    9.33    3.77
  -6   5  -1    0.40    2.64
  -7   5  -1    1.12    2.85
  -9  -4   1   -1.24    3.17
  -8  -4   1   32.12    6.30
  -7  -4   1    0.67    2.97
  -6  -4   1   36.81    4.44
   5   4  -1   49.08    4.05
  -5  -4   1   45.69    4.53
  -4  -4   1   47.31    3.20
   4   4  -1   44.37    3.55
  -4  -4   1   43.74    4.02
  -3  -4   1   13.76    2.77
   3   4  -1   15.47    2.88
  -3  -4   1   10.75    1.63
   2   4  -1  183.14    7.10
  -2  -4   1  188.44    8.08
  -2  -4   1  200.89    8.37
  -1  -4   1  698.10   22.32
  -1  -4   1  662.36   23.08
   1   4  -1  674.08   19.18
   0   4  -1   46.28    3.14
   0  -4   1   45.71    3.58
  -1   4  -1   52.53    3.30
  -2   4  -1    3.38    1.68
  -2   4  -1    8.00    2.22
  -3   4  -1   -0.47    1.44
  -3   4  -1    0.04    1.45
  -4   4  -1    6.21    2.33
  -4   4  -1    9.91    2.89
  -5   4  -1   26.02    4.52
  -5   4  -1   16.31    3.48
  -6   4  -1   10.60    3.27
  -7   4  -1    9.99    3.86
  -9  -3   1   -0.24    3.28
  -8  -3   1   -0.94    2.95
  -7  -3   1    2.01    2.64
  -6  -3   1   -0.18    2.18
  -5  -3   1    0.67    1.75
   4   3  -1   42.42    3.26
  -4  -3   1   46.95    2.90
  -4  -3   1   48.82    4.18
  -3  -3   1   39.68    3.38
  -3  -3   1   41.02    2.70
   3   3  -1   50.77    3.25
  -2  -3   1 1349.16   41.37
  -2  -3   1 1343.65   41.68
   2   3  -1 1284.90   34.62
   1   3  -1  199.12    7.06
  -1  -3   1  216.01    8.07
  -1  -3   1  206.75    8.18
   0   3  -1  185.09    6.46
   0  -3   1  173.24    7.60
  -1   3  -1   22.50    2.01
  -2   3  -1   19.57    2.66
  -2   3  -1   13.99    1.92
  -3   3  -1  140.00    7.03
  -3   3  -1  161.20    6.50
  -4   3  -1    1.40    1.86
  -4   3  -1    1.10    1.52
  -5   3  -1   13.43    3.35
  -5   3  -1   13.86    3.40
  -6   3  -1   -0.70    2.67
  -6   3  -1    0.52    1.89
  -7   3  -1   -2.59    3.01
  -9  -2   1   -2.42    3.13
  -8  -2   1   -0.55    2.99
  -7  -2   1   -2.39    2.27
  -6  -2   1    1.90    2.18
  -6  -2   1    0.07    2.12
  -5  -2   1   73.83    5.56
  -5  -2   1   64.61    4.12
  -4  -2   1  307.62   10.49
  -4  -2   1  318.84   13.06
  -3  -2   1  356.10   11.22
  -3  -2   1  367.44   13.82
  -3  -2   1  373.20   12.39
  -2  -2   1   20.80    2.00
  -2  -2   1   26.16    1.64
   2   2  -1   18.44    1.92
  -1  -2   1 4186.13  123.13
   1   2  -1 4320.06  103.46
  -1  -2   1 4021.36  127.26
   0   2  -1 2129.83   53.55
  -1   2  -1  256.87    8.03
  -2   2  -1   72.94    4.06
  -2   2  -1   72.36    3.51
  -3   2  -1  365.34   11.53
  -3   2  -1  369.34   13.66
  -4   2  -1   86.50    4.65
  -4   2  -1   72.55    5.05
  -5   2  -1   11.23    2.67
  -5   2  -1    7.52    2.52
  -6   2  -1   14.58    3.52
  -6   2  -1   14.56    3.50
  -7   2  -1   11.12    3.52
  -9  -1   1   -2.59    2.66
  -8  -1   1   -0.48    2.81
  -7  -1   1    2.47    2.38
  -6  -1   1   10.60    3.32
  -6  -1   1    5.12    2.62
  -5  -1   1    1.24    1.77
  -5  -1   1    3.91    2.00
  -4  -1   1  292.92   10.07
  -4  -1   1  290.02   12.24
  -3  -1   1    1.66    1.37
  -3  -1   1    0.66    0.93
  -2  -1   1    0.18    0.58
  -2  -1   1   -0.43    0.72
   1   1  -1  727.60   18.50
  -1  -1   1  682.28   21.90
   0   1  -1  141.47    4.45
  -1   1  -1   24.75    1.56
  -2   1  -1   78.96    4.16
  -2   1  -1   83.71    3.45
  -3   1  -1  737.42   20.53
  -3   1  -1  763.15   24.89
  -4   1  -1   29.14    2.68
  -4   1  -1   30.84    3.20
  -5   1  -1   -1.73    1.35
  -5   1  -1    0.62    1.59
  -6   1  -1    0.31    1.83
  -6   1  -1    1.50    2.40
  -7   1  -1   32.50    5.66
  -8   1  -1    1.01    2.74
  -9   1  -1    1.90    3.69
  -9   0   1    8.81    4.27
  -8   0   1    0.68    2.97
  -6   0   1    3.28    2.50
  -6   0   1    8.62    2.87
  -5   0   1   25.60    3.70
  -5   0   1   18.00    3.67
  -4   0   1  384.86   14.71
  -4   0   1  364.18   12.20
  -3   0   1  284.83    9.42
  -3   0   1  290.96   11.22
  -2   0   1   -1.17    0.49
  -2   0   1    0.56    0.74
  -1   0   1 3722.82   92.27
  -1   0  -1   -3.18    1.10
  -2   0  -1 9999.16  293.05
  -2   0  -1 9732.76  244.78
  -3   0  -1 1545.92   40.16
  -3   0  -1 1594.44   48.81
  -4   0  -1  508.26   15.18
  -4   0  -1  523.44   18.97
  -5   0  -1   32.18    3.51
  -5   0  -1   27.86    2.81
  -6   0  -1   44.78    3.66
  -6   0  -1   48.54    4.75
  -7   0  -1   -0.04    2.83
  -8   0  -1   14.48    4.31
  -9   0  -1    1.82    4.00
  -8   1   1   12.14    3.84
  -7   1   1    0.13    3.04
  -7   1   1   -1.58    2.24
  -6   1   1   18.43    3.90
  -6   1   1    9.15    3.11
  -5   1   1   11.53    2.89
  -5   1   1   11.55    2.87
  -4   1   1   49.53    3.82
  -4   1   1   44.74    3.45
  -3   1   1   32.48    2.63
  -3   1   1   32.43    2.67
  -2   1   1   16.94    1.59
  -2   1   1   17.71    1.65
  -1   1   1 1548.44   40.96
  -1   1   1 1689.76   48.66
   1  -1  -1 1633.88   50.15
  -1  -1  -1   25.99    1.58
  -2  -1  -1  351.07    9.58
  -2  -1  -1  357.86   12.40
  -3  -1  -1    2.83    1.04
  -3  -1  -1    1.19    1.24
  -4  -1  -1   29.71    2.44
  -4  -1  -1   36.79    3.34
  -5  -1  -1   28.26    3.40
  -5  -1  -1   31.68    2.68
  -6  -1  -1   -1.86    1.91
  -7  -1  -1   23.77    4.72
  -8  -1  -1    5.90    3.53
  -9  -1  -1   -1.68    3.18
 -10  -1  -1   -4.76    3.32
  -7   2   1    0.91    2.57
  -7   2   1    0.88    2.71
  -6   2   1    2.89    2.47
  -6   2   1    1.62    2.70
  -5   2   1    2.31    2.07
  -5   2   1    0.37    1.57
  -4   2   1    0.33    1.52
  -4   2   1    1.81    1.38
  -3   2   1   78.21    4.22
  -3   2   1   73.87    4.19
  -2   2   1   52.28    2.95
  -2   2   1   55.56    2.91
  -1   2   1  132.70    5.02
   1  -2  -1  163.61    5.83
   0  -2  -1   18.60    1.40
   0   2   1   15.34    1.10
  -1  -2  -1  310.96   10.81
  -1  -2  -1  353.76   11.62
  -2  -2  -1   11.82    1.42
   2   2   1   14.83    0.97
  -3  -2  -1    2.11    1.14
  -3  -2  -1    7.81    1.04
  -4  -2  -1   -0.65    0.94
  -4  -2  -1   -0.08    1.07
  -5  -2  -1  219.23   10.49
  -5  -2  -1  215.45    7.69
  -6  -2  -1   24.51    3.67
  -7  -2  -1    3.73    3.03
  -8  -2  -1   26.19    4.19
  -9  -2  -1   -0.70    3.19
 -10  -2  -1    0.89    3.70
  -7   3   1    3.17    3.00
  -6   3   1   16.05    3.57
  -6   3   1   14.52    3.91
  -5   3   1   32.32    3.41
  -5   3   1   39.22    3.84
  -4   3   1   15.41    2.22
  -4   3   1   22.71    3.66
  -3   3   1   35.22    3.05
  -3   3   1   38.18    2.84
  -2   3   1    1.53    1.11
  -2   3   1    1.57    0.78
  -1   3   1    3.83    1.17
   1  -3  -1    2.92    0.95
   0   3   1  156.31    5.28
   0  -3  -1  155.30    6.37
  -1  -3  -1 2805.22   84.08
   1   3   1 2831.50   68.16
  -1  -3  -1 2571.27   80.99
  -2  -3  -1    9.64    1.50
   2   3   1    8.91    1.01
  -2  -3  -1    9.81    1.33
   3   3   1    7.86    1.33
  -3  -3  -1    5.35    1.57
  -4  -3  -1  260.68   11.19
  -5  -3  -1  213.67   10.47
  -5  -3  -1  221.42    7.72
  -6  -3  -1   36.04    4.32
  -7  -3  -1    0.09    2.09
  -8  -3  -1    0.98    2.62
  -9  -3  -1    1.12    2.88
  -7   4   1   -0.97    2.74
  -6   4   1   13.35    3.73
  -5   4   1   55.74    4.65
  -4   4   1    0.63    1.81
  -4   4   1    0.33    1.29
  -3   4   1   36.33    2.73
  -3   4   1   40.13    3.39
  -2   4   1  171.43    6.70
  -2   4   1  181.85    7.21
   2  -4  -1  184.89    8.21
   1  -4  -1   43.73    3.12
  -1   4   1   35.72    2.55
   0   4   1    8.94    1.79
   0  -4  -1    7.46    1.47
   1   4   1   -0.07    0.86
  -1  -4  -1    0.40    0.75
  -1  -4  -1    1.28    0.67
  -2  -4  -1    5.68    1.31
  -2  -4  -1    5.07    1.39
   2   4   1    6.43    1.35
  -3  -4  -1    0.07    0.98
  -3  -4  -1   -0.65    0.87
   3   4   1    0.04    0.96
  -4  -4  -1  136.38    6.83
   4   4   1  129.78    5.12
  -4  -4  -1  135.00    7.24
  -5  -4  -1   43.40    3.63
  -5  -4  -1   41.20    4.10
  -6  -4  -1   18.50    4.23
  -7  -4  -1    1.60    2.70
  -8  -4  -1   42.68    5.27
  -9  -4  -1    3.14    3.26
  -8   5   1    1.98    3.18
  -7   5   1   -0.67    2.73
  -6   5   1    0.58    2.95
  -5   5   1    9.30    3.10
  -4   5   1   96.79    6.01
  -3   5   1   34.86    3.54
   2  -5  -1   41.41    3.71
  -2   5   1   34.23    3.13
  -2   5   1   34.39    2.28
  -1   5   1  232.32    8.70
   1  -5  -1  254.51   10.50
  -1   5   1  242.50    8.30
   0   5   1  325.98   10.54
   0  -5  -1  312.77   12.48
  -1  -5  -1   63.22    3.28
   1   5   1   61.09    3.51
  -1  -5  -1   67.29    4.34
  -2  -5  -1   85.92    4.57
   2   5   1   85.51    4.07
  -2  -5  -1   91.96    5.24
   3   5   1  321.40    9.90
  -3  -5  -1  325.95   12.55
  -3  -5  -1  313.33   12.76
  -4  -5  -1   26.41    2.80
  -4  -5  -1   23.95    2.94
   4   5   1   24.97    2.20
  -5  -5  -1   13.62    2.16
  -5  -5  -1   20.40    3.95
  -6  -5  -1    5.62    2.80
  -7  -5  -1    3.80    3.25
  -8  -5  -1    2.79    2.95
  -9  -5  -1   23.97    5.66
  -8   6   1    2.39    3.71
  -7   6   1    0.86    2.89
  -6   6   1    1.71    3.18
  -5   6   1   11.71    3.29
  -4   6   1   13.28    3.65
  -3   6   1   72.89    5.19
   2  -6  -1   23.74    3.14
  -2   6   1   21.15    2.79
  -1   6   1   41.50    3.40
   1  -6  -1   42.16    3.94
   0  -6  -1   91.06    5.54
   0   6   1   81.49    4.67
   1   6   1   21.02    3.16
  -1  -6  -1   19.61    1.92
  -1  -6  -1   17.88    2.44
  -2  -6  -1    2.77    1.27
   2   6   1    2.15    1.56
  -2  -6  -1    0.52    1.21
  -3  -6  -1   20.76    2.61
   3   6   1   18.32    2.14
  -3  -6  -1   17.03    2.27
   4   6   1    9.76    2.27
  -4  -6  -1    5.51    2.32
  -4  -6  -1    4.85    1.79
  -5  -6  -1   20.37    3.18
  -5  -6  -1   17.63    2.61
  -6  -6  -1    7.34    3.26
  -7  -6  -1   -2.03    2.58
  -8  -6  -1   10.87    4.28
  -9  -6  -1   -0.73    3.35
  -7   7   1    5.54    3.44
  -6   7   1   -0.18    3.00
  -5   7   1   -1.69    2.42
  -4   7   1   40.06    4.41
  -3   7   1   17.94    4.41
  -2   7   1    0.97    2.10
   1  -7  -1    1.82    1.96
  -1   7   1   -0.02    1.84
   0  -7  -1    5.86    2.20
   0   7   1    6.69    2.47
  -1  -7  -1   61.14    3.63
  -1  -7  -1   60.05    4.68
   1   7   1   56.19    3.98
   2   7   1    4.35    2.11
  -2  -7  -1    6.81    1.97
  -2  -7  -1    6.60    2.02
  -3  -7  -1   39.01    3.80
   3   7   1   37.38    3.17
  -3  -7  -1   36.74    3.44
   4   7   1   27.94    2.82
  -4  -7  -1   27.66    3.36
  -4  -7  -1   25.87    3.38
  -5  -7  -1  186.72   10.21
  -5  -7  -1  192.89    9.83
  -6  -7  -1   31.15    4.32
  -7  -7  -1   -4.14    2.72
  -8  -7  -1   -2.52    3.23
  -9  -7  -1   -0.90    3.50
  -6   8   1   61.02    6.03
  -5   8   1    7.79    4.02
  -4   8   1   20.67    4.82
  -3   8   1   15.46    4.49
  -2   8   1   -0.20    2.71
  -1   8   1   62.94    4.77
   1  -8  -1   51.41    5.14
   0   8   1  154.08    7.63
   0  -8  -1  160.61    9.19
   1   8   1   -3.67    1.63
  -1  -8  -1    0.56    1.56
  -2  -8  -1   32.44    3.75
   2   8   1   26.82    3.09
  -3  -8  -1   78.51    5.32
  -3  -8  -1   78.75    5.94
   3   8   1   77.57    4.88
  -4  -8  -1    9.03    3.08
  -4  -8  -1    3.41    2.32
  -5  -8  -1   45.71    4.73
  -6  -8  -1   42.91    4.91
  -7  -8  -1    5.37    3.24
  -8  -8  -1   -1.64    3.33
  -6   9   1   10.06    4.36
  -5   9   1   14.46    4.76
  -4   9   1    9.66    4.54
  -3   9   1   13.16    4.71
  -2   9   1  134.58    7.88
   1  -9  -1    2.80    2.83
  -1   9   1    0.77    2.76
   0  -9  -1   65.23    6.15
   0   9   1   67.55    5.12
   1   9   1   -1.53    2.33
  -1  -9  -1    0.01    2.05
   2   9   1   31.35    4.90
  -2  -9  -1   21.92    3.57
  -3  -9  -1    5.36    2.57
   3   9   1    6.22    2.75
  -4  -9  -1   10.49    3.07
  -4  -9  -1   12.97    3.25
  -5  -9  -1    1.15    2.49
  -6  -9  -1    9.41    3.69
  -7  -9  -1    3.93    3.37
  -8  -9  -1    1.47    3.73
  -5  10   1    1.11    4.67
  -4  10   1    8.48    4.77
  -3  10   1   50.82    5.63
  -2  10   1   25.05    5.04
  -1  10   1   83.14    6.23
   0  10   1    1.79    2.85
   0 -10  -1    1.57    2.72
  -1 -10  -1    2.33    2.31
   1  10   1   -2.57    2.33
   2  10   1   -1.89    2.31
  -2 -10  -1   -1.47    1.99
  -3 -10  -1   24.90    3.95
   3  10   1   25.59    3.19
  -4 -10  -1    5.70    2.97
  -6 -10  -1   -1.40    2.79
  -7 -10  -1   -1.11    2.87
  -4  11   1    0.24    4.76
  -3  11   1    5.40    5.05
  -2  11   1   13.14    5.14
  -1  11   1   12.95    4.37
   0  11   1    4.84    3.67
   0 -11  -1    4.23    3.61
   1  11   1   -3.25    2.54
  -1 -11  -1   -3.21    2.53
   2  11   1    7.22    3.37
  -2 -11  -1    5.38    3.28
  -3 -11  -1   -0.96    2.10
  -4 -11  -1    0.41    2.21
  -2  12   1    8.07    4.97
  -1  12   1   14.04    4.68
   0  12   1    9.98    4.16
  -1 -12  -1   -1.13    3.06
   1  12   1    0.75    3.40
   2  12   1   68.93    5.74
  -2 -12  -1   57.00    6.90
  -4 -12  -1    6.49    4.18
   0  13   1    6.14    4.20
   1  13   1   13.66    4.58
  -2 -13  -1   -0.02    3.51
   2  12  -2   -3.91    4.32
   1  12  -2   13.61    4.97
   3  11  -2   -3.29    3.66
   2  11  -2    1.70    3.98
   1  11  -2    7.31    4.31
   0  11  -2    4.94    3.76
  -1  11  -2    4.81    4.23
  -2  11  -2   -0.45    4.45
  -6 -10   2   -1.12    3.48
   3  10  -2   29.07    5.61
   2  10  -2   -1.26    3.39
   1  10  -2    4.67    3.32
   0  10  -2    9.55    4.30
  -1  10  -2    2.24    3.76
  -2  10  -2    2.05    3.75
  -3  10  -2    0.96    4.58
  -7  -9   2   -0.56    3.44
  -6  -9   2    8.82    3.74
  -5  -9   2   -2.67    2.60
   4   9  -2    0.65    3.51
  -4  -9   2    1.71    2.85
   3   9  -2   70.08    5.88
   2   9  -2   47.48    4.89
   1   9  -2   32.09    5.63
   0   9  -2   -1.06    2.64
  -1   9  -2   -1.73    3.11
  -2   9  -2    4.36    3.82
  -3   9  -2   10.14    4.56
  -4   9  -2    9.39    4.96
  -5   9  -2    3.28    5.30
  -7  -8   2    0.05    3.57
  -6  -8   2    5.48    3.47
  -5  -8   2    3.65    2.69
   4   8  -2    3.55    3.39
  -4  -8   2    5.53    3.09
   3   8  -2  125.01    7.30
  -3  -8   2  120.65    7.91
   2   8  -2   42.42    4.63
   1   8  -2   99.11    6.46
   0   8  -2   10.45    3.46
  -1   8  -2    0.53    2.61
  -2   8  -2   -2.50    2.95
  -3   8  -2   15.91    4.54
  -4   8  -2   11.00    4.46
  -5   8  -2    5.47    4.26
  -6   8  -2   -1.25    3.44
  -7  -7   2    2.87    3.39
  -6  -7   2   22.91    5.31
  -5  -7   2   -1.00    2.45
  -4  -7   2   31.51    4.11
   4   7  -2   35.88    4.06
   3   7  -2  173.84    8.36
  -3  -7   2  162.11    9.42
  -3  -7   2  159.61    9.23
  -2  -7   2  331.02   14.29
   2   7  -2  324.46   12.60
   1   7  -2  307.43   12.16
   0   7  -2   44.73    4.15
  -1   7  -2   10.14    3.22
  -2   7  -2    1.70    2.62
  -3   7  -2   14.99    4.27
  -4   7  -2   11.06    3.84
  -5   7  -2   -1.43    3.69
  -6   7  -2   -3.75    3.04
  -7   7  -2    6.81    3.44
  -8  -6   2    0.38    3.84
  -7  -6   2   -0.68    3.13
  -6  -6   2   14.75    4.49
   5   6  -2   -1.49    2.63
  -5  -6   2    2.19    2.79
   4   6  -2   -2.33    2.56
  -4  -6   2   -0.53    1.80
  -3  -6   2    1.96    2.11
  -3  -6   2   -0.60    1.83
   3   6  -2   -0.11    2.46
  -2  -6   2   36.32    4.25
  -2  -6   2   44.58    4.09
   2   6  -2   42.91    3.96
   1   6  -2   21.99    4.03
   0   6  -2    4.26    2.34
  -1   6  -2   47.29    3.92
  -2   6  -2   24.11    3.24
  -3   6  -2    9.56    3.22
  -4   6  -2   28.28    5.00
  -5   6  -2   10.61    4.27
  -6   6  -2    2.69    3.40
  -7   6  -2    0.61    2.83
  -8  -5   2   -2.15    3.64
  -7  -5   2    8.08    3.73
  -6  -5   2    2.80    3.05
   5   5  -2   26.15    5.09
  -5  -5   2   12.94    3.96
   4   5  -2   25.39    3.37
  -4  -5   2   27.54    3.53
   3   5  -2   34.01    3.43
  -3  -5   2   37.16    3.67
  -3  -5   2   42.04    3.89
   2   5  -2  375.57   12.96
  -2  -5   2  375.56   14.97
  -2  -5   2  377.14   14.76
   1   5  -2   20.14    2.65
   0   5  -2   -1.23    1.23
  -1   5  -2  230.18    9.14
  -2   5  -2   15.09    3.27
  -3   5  -2    5.43    2.48
  -3   5  -2    8.25    2.93
  -4   5  -2   24.84    4.64
  -5   5  -2   30.28    4.09
  -6   5  -2    2.29    3.17
  -7   5  -2    3.28    3.14
  -8  -4   2    2.71    3.80
  -7  -4   2    4.66    3.40
  -6  -4   2  108.19    7.99
   5   4  -2    9.43    3.52
  -5  -4   2    7.79    3.34
   4   4  -2   44.33    3.94
  -4  -4   2   47.74    4.43
   3   4  -2    1.10    2.15
  -3  -4   2    3.54    1.55
  -3  -4   2    2.05    1.75
  -2  -4   2   25.10    2.76
   2   4  -2   24.78    2.71
  -2  -4   2   26.53    2.90
  -1  -4   2  253.59   10.21
   1   4  -2  247.35    9.07
   0   4  -2   24.21    3.34
  -1   4  -2    2.46    1.72
  -2   4  -2   11.32    2.73
  -3   4  -2   73.18    5.28
  -3   4  -2   73.87    4.65
  -4   4  -2    0.91    1.76
  -4   4  -2    2.04    2.18
  -5   4  -2    4.91    2.43
  -5   4  -2    0.61    2.75
  -6   4  -2    1.93    2.78
  -7   4  -2   10.46    3.66
  -9  -3   2   -1.47    3.45
  -8  -3   2    4.02    3.55
  -7  -3   2   13.33    4.12
  -6  -3   2   13.15    3.74
   5   3  -2   28.25    4.86
  -5  -3   2   29.29    3.77
   4   3  -2   76.30    4.81
  -4  -3   2   83.11    5.72
  -3  -3   2   27.86    2.31
  -3  -3   2   21.55    2.67
   3   3  -2   30.58    4.10
  -2  -3   2   36.81    3.04
   2   3  -2   37.61    3.07
  -2  -3   2   41.02    2.96
  -1  -3   2  307.50   11.47
   1   3  -2  301.92    9.97
   0   3  -2   95.69    4.45
  -1   3  -2   17.25    2.54
  -2   3  -2  355.23   11.54
  -2   3  -2  356.16   13.94
  -3   3  -2   24.22    2.91
  -3   3  -2   25.08    2.63
  -4   3  -2   19.14    3.58
  -4   3  -2   25.94    3.55
  -5   3  -2   -1.98    2.19
  -5   3  -2   -0.66    1.79
  -6   3  -2    9.23    3.28
  -6   3  -2    8.52    3.48
  -9  -2   2   -0.15    3.45
  -8  -2   2    5.80    3.32
  -7  -2   2   -0.73    2.50
  -6  -2   2    6.62    3.19
  -6  -2   2    6.08    2.77
  -5  -2   2   -1.07    1.66
  -5  -2   2   -0.23    2.13
  -4  -2   2   19.88    2.77
  -4  -2   2   26.17    2.79
  -3  -2   2   56.06    4.08
  -2  -2   2   44.21    3.14
   2   2  -2   37.15    2.76
  -1  -2   2 1547.62   47.79
   1   2  -2 1581.49   40.43
   0   2  -2  165.92    5.99
  -1   2  -2  325.52   10.08
  -2   2  -2   62.75    3.34
  -2   2  -2   58.94    4.10
  -3   2  -2  178.23    6.80
  -3   2  -2  172.06    8.34
  -4   2  -2   17.34    2.32
  -4   2  -2   15.53    2.45
  -5   2  -2    7.78    2.63
  -5   2  -2    2.82    2.18
  -6   2  -2   -1.34    2.20
  -6   2  -2    1.16    2.18
  -7   2  -2   22.64    3.66
  -8   2  -2    6.41    3.08
  -9  -1   2    0.58    3.16
  -8  -1   2   -0.40    2.76
  -7  -1   2    1.29    2.40
  -6  -1   2   10.90    3.44
  -6  -1   2   15.05    3.52
  -5  -1   2    1.29    2.24
  -5  -1   2    0.89    1.83
  -4  -1   2   21.48    2.94
  -4  -1   2   28.65    3.86
  -3  -1   2    7.83    2.04
  -3  -1   2    8.16    2.04
  -2  -1   2    3.71    1.42
  -2  -1   2    3.36    1.22
  -1  -1   2  219.00    8.39
   1   1  -2  233.80    7.31
   0   1  -2  213.91    6.72
  -1   1  -2 1797.21   45.45
  -2   1  -2    0.69    1.14
  -2   1  -2    0.27    0.86
  -3   1  -2    1.41    1.17
  -3   1  -2   -0.65    1.08
  -4   1  -2   31.02    3.30
  -4   1  -2   35.90    2.89
  -5   1  -2   44.81    4.32
  -5   1  -2   44.47    3.41
  -6   1  -2    5.16    2.48
  -6   1  -2    6.48    2.57
  -7   1  -2   17.14    4.26
  -8   1  -2    1.73    2.87
  -9   1  -2    6.66    3.72
  -9   0   2   -0.59    3.19
  -8   0   2   -2.06    2.67
  -7   0   2   41.42    4.82
  -7   0   2   41.00    4.37
  -6   0   2   18.92    4.15
  -6   0   2   33.59    5.04
  -5   0   2  115.80    7.14
  -5   0   2  121.15    6.32
  -4   0   2  199.60    8.14
  -4   0   2  208.61    9.55
  -3   0   2  111.04    5.77
  -3   0   2  104.25    4.97
  -2   0   2  707.42   19.28
  -2   0   2  680.32   22.44
  -1   0   2  156.01    5.30
  -1   0   2  152.38    5.94
   0   0  -2  484.37   12.98
  -1   0  -2 1239.91   31.43
  -2   0  -2 8613.56  219.10
  -2   0  -2 9040.02  260.09
  -3   0  -2   43.30    2.46
  -3   0  -2   48.73    3.64
  -4   0  -2  544.40   15.85
  -4   0  -2  556.85   20.18
  -5   0  -2   10.99    2.36
  -5   0  -2   11.29    3.07
  -6   0  -2   20.41    4.32
  -7   0  -2   63.00    6.06
  -8   0  -2    7.04    3.27
  -9   0  -2   39.82    5.83
 -10   0  -2    0.04    3.77
  -8   1   2    8.34    3.80
  -7   1   2   35.67    5.60
  -7   1   2   24.66    5.02
  -6   1   2   27.07    3.45
  -6   1   2   20.40    3.20
  -5   1   2    1.75    1.94
  -5   1   2    2.02    2.27
  -4   1   2   64.08    4.21
  -4   1   2   66.14    4.58
  -3   1   2    0.77    1.24
  -3   1   2   -0.13    0.91
  -1   1   2  135.02    4.75
  -1   1   2  123.49    4.90
   0   1   2 1344.96   34.02
  -1  -1  -2 1330.34   40.64
  -2  -1  -2 1104.80   34.60
  -3  -1  -2  112.72    5.89
  -3  -1  -2  119.11    4.06
  -4  -1  -2   86.89    3.80
  -4  -1  -2   80.63    5.36
  -5  -1  -2   20.87    2.29
  -5  -1  -2   22.15    3.04
  -6  -1  -2    5.91    2.82
  -7  -1  -2   -0.37    2.13
  -8  -1  -2   15.39    4.18
  -9  -1  -2    2.49    3.37
 -10  -1  -2    4.29    4.37
  -7   2   2    1.16    3.04
  -6   2   2   33.10    3.87
  -6   2   2   29.73    3.71
  -5   2   2   54.82    4.58
  -5   2   2   61.35    4.70
  -4   2   2    2.18    1.40
  -4   2   2    2.93    1.89
  -3   2   2   21.46    3.13
  -3   2   2   14.96    1.93
   2  -2  -2   12.81    1.46
  -2   2   2   13.27    1.37
  -2   2   2   16.05    2.32
  -1   2   2  121.83    4.52
   1  -2  -2  126.45    4.91
   0  -2  -2  196.88    7.61
   0   2   2  209.82    6.22
  -1  -2  -2  505.98   16.30
  -2  -2  -2   70.61    3.83
  -3  -2  -2   13.00    1.86
  -4  -2  -2  172.20    5.67
  -4  -2  -2  174.77    8.56
  -5  -2  -2  132.58    5.19
  -5  -2  -2  135.52    7.81
  -6  -2  -2   -2.17    1.33
  -7  -2  -2  112.51    8.10
  -8  -2  -2   -1.27    2.92
  -9  -2  -2    1.44    3.63
 -10  -2  -2    0.03    3.36
  -7   3   2    5.87    3.52
  -6   3   2   14.97    4.03
  -6   3   2   16.79    3.64
  -5   3   2   20.97    2.99
  -5   3   2   27.60    4.71
  -4   3   2  458.34   16.99
  -4   3   2  471.55   15.68
  -3   3   2  236.52    9.17
  -3   3   2  223.23    8.83
  -2   3   2    9.00    1.12
   2  -3  -2   10.06    1.59
  -2   3   2    9.96    2.10
   1  -3  -2   74.17    3.65
  -1   3   2   68.02    2.65
  -1   3   2   68.14    3.42
   0   3   2    4.23    1.15
   0  -3  -2    5.42    1.19
  -1  -3  -2    1.22    0.58
  -1  -3  -2   -0.20    0.69
   1   3   2    0.05    0.50
  -2  -3  -2   16.15    1.75
  -3  -3  -2  177.47    7.97
  -4  -3  -2   38.58    3.52
  -5  -3  -2   25.30    3.19
  -6  -3  -2    7.85    2.97
  -7  -3  -2    8.70    3.55
  -8  -3  -2   10.02    3.87
  -9  -3  -2   -1.44    2.77
 -10  -3  -2    1.75    3.26
  -8   4   2   15.48    4.39
  -7   4   2    3.32    3.33
  -6   4   2    2.70    2.63
  -5   4   2    0.31    2.56
  -4   4   2  136.45    6.75
  -4   4   2  127.25    6.86
  -3   4   2   17.76    1.94
  -3   4   2   20.62    3.45
  -2   4   2   54.92    2.71
   2  -4  -2   54.64    3.71
  -2   4   2   49.65    3.47
   1  -4  -2   54.73    3.45
  -1   4   2   54.93    3.27
   0   4   2   73.67    3.40
   0  -4  -2   69.25    4.04
  -1  -4  -2  125.21    4.78
  -1  -4  -2  121.17    5.95
   1   4   2  123.92    4.40
  -2  -4  -2  208.19    8.90
   2   4   2  207.94    6.15
  -2  -4  -2  194.70    7.92
  -3  -4  -2  230.57    9.86
   3   4   2  217.45    6.45
  -3  -4  -2  215.59    9.26
  -4  -4  -2   16.48    3.03
   4   4   2   20.05    1.54
  -5  -4  -2   16.86    3.39
  -6  -4  -2   29.41    4.00
  -7  -4  -2   -2.05    2.08
  -8  -4  -2    0.79    3.17
  -9  -4  -2   -0.01    3.03
  -8   5   2    7.74    3.79
  -7   5   2    3.87    3.32
  -6   5   2    0.49    2.83
  -5   5   2    6.24    2.86
  -4   5   2   25.68    4.39
  -3   5   2    4.26    2.36
   2  -5  -2  110.49    6.27
  -2   5   2  125.52    6.02
  -2   5   2  112.21    4.41
  -1   5   2   19.99    2.32
   1  -5  -2   12.83    1.97
   0  -5  -2  553.68   20.10
   0   5   2  586.79   16.47
  -1  -5  -2  349.58   11.28
  -1  -5  -2  328.81   13.17
   1   5   2  340.48   10.40
  -2  -5  -2  477.48   16.62
   2   5   2  510.06   13.91
  -2  -5  -2  496.33   18.18
   3   5   2   62.48    2.96
  -3  -5  -2   64.54    4.53
  -3  -5  -2   64.44    4.19
   4   5   2    1.33    1.08
  -4  -5  -2   -1.98    1.16
  -4  -5  -2    1.05    1.41
  -5  -5  -2   15.75    3.48
  -5  -5  -2   10.88    2.50
  -6  -5  -2    2.14    1.73
  -6  -5  -2    1.00    1.94
  -7  -5  -2   -1.84    2.22
  -8  -5  -2    6.82    3.52
  -9  -5  -2    1.26    3.16
  -8   6   2    2.27    3.60
  -7   6   2    0.50    2.67
  -6   6   2    2.72    3.11
  -5   6   2    2.06    2.71
  -4   6   2   68.12    5.28
  -3   6   2   32.21    3.55
   2  -6  -2   26.13    3.34
  -2   6   2   32.28    3.25
   1  -6  -2  125.00    6.76
  -1   6   2  113.88    5.74
   0   6   2   21.33    2.46
   0  -6  -2   24.59    2.71
   1   6   2  176.45    6.98
  -1  -6  -2  187.21    6.91
  -1  -6  -2  192.60    8.96
  -2  -6  -2  103.11    4.91
  -2  -6  -2   94.01    5.83
   2   6   2   99.17    4.43
  -3  -6  -2    1.50    1.26
   3   6   2    4.93    1.69
  -3  -6  -2    1.76    1.47
  -4  -6  -2   37.40    3.68
   4   6   2   37.91    2.57
  -4  -6  -2   36.94    3.56
  -5  -6  -2   16.23    3.16
  -5  -6  -2   25.20    4.37
  -6  -6  -2   14.39    3.98
  -7  -6  -2   -1.82    2.81
  -8  -6  -2    5.24    3.50
  -9  -6  -2    7.87    4.17
  -7   7   2    2.70    3.58
  -6   7   2    4.31    3.34
  -5   7   2   -2.61    2.51
  -4   7   2    5.04    3.13
  -3   7   2   51.87    4.65
  -2   7   2    0.47    2.25
   2  -7  -2    0.47    1.73
  -1   7   2   34.77    3.28
   1  -7  -2   33.27    3.64
   0  -7  -2   38.71    3.81
   0   7   2   38.76    3.36
   1   7   2   -1.07    1.42
  -1  -7  -2    2.01    1.12
  -1  -7  -2    1.20    1.11
  -2  -7  -2   34.31    2.71
  -2  -7  -2   34.14    3.55
   2   7   2   34.21    2.80
  -3  -7  -2    2.34    1.65
   3   7   2    2.66    1.58
  -3  -7  -2    1.74    1.49
  -4  -7  -2  100.17    6.11
  -4  -7  -2   83.12    6.02
  -5  -7  -2  205.68   10.46
  -5  -7  -2  192.52   10.18
  -6  -7  -2   -1.76    2.26
  -7  -7  -2   35.21    4.77
  -8  -7  -2   10.89    4.56
  -9  -7  -2   -0.31    3.50
  -6   8   2   45.68    5.50
  -5   8   2   -3.13    2.95
  -4   8   2   69.59    6.08
  -3   8   2  197.20   10.04
   2  -8  -2    0.77    2.22
  -2   8   2    1.24    2.76
   1  -8  -2   13.84    3.33
  -1   8   2   15.64    3.53
   0   8   2  165.08    7.72
   0  -8  -2  160.80    9.07
   1   8   2  161.44    7.34
  -1  -8  -2  162.77    8.98
   2   8   2   37.82    3.31
  -2  -8  -2   35.21    3.94
   3   8   2   25.56    3.44
  -3  -8  -2   18.94    3.00
  -3  -8  -2   15.65    2.38
  -4  -8  -2   44.89    4.10
  -4  -8  -2   41.55    4.33
  -5  -8  -2  172.87    9.72
  -5  -8  -2  176.90    9.74
  -6  -8  -2    7.69    3.31
  -7  -8  -2   10.81    3.89
  -8  -8  -2    3.86    3.76
  -9  -8  -2    6.04    4.22
  -6   9   2    1.93    4.30
  -5   9   2    9.80    5.13
  -4   9   2   21.36    5.45
  -3   9   2   95.34    7.21
   2  -9  -2    1.66    2.64
  -2   9   2    6.24    3.69
   1  -9  -2    0.90    2.33
  -1   9   2    5.63    2.94
   0   9   2   84.56    5.67
   0  -9  -2   78.27    6.35
  -1  -9  -2   35.16    4.24
   1   9   2   26.55    3.45
   2   9   2  140.90    7.07
  -2  -9  -2  143.82    8.77
   3   9   2    1.76    2.19
  -3  -9  -2    0.35    1.81
  -4  -9  -2    5.69    2.52
  -4  -9  -2    5.38    2.48
  -5  -9  -2    0.93    1.84
  -5  -9  -2    0.96    2.23
  -6  -9  -2   15.85    4.18
  -7  -9  -2   -0.09    2.96
  -8  -9  -2   -1.01    2.92
  -5  10   2    6.05    5.29
  -4  10   2   -0.21    4.19
  -3  10   2    7.52    4.52
  -2  10   2   27.06    5.86
   1 -10  -2   40.88    5.21
  -1  10   2   49.11    4.77
   0  10   2   -0.70    2.62
   0 -10  -2    0.16    2.17
   1  10   2  138.00    7.46
  -1 -10  -2  135.59    9.10
   2  10   2   -0.49    2.24
  -2 -10  -2    1.68    2.04
  -4 -10  -2    4.20    2.27
  -5 -10  -2   48.53    5.16
  -6 -10  -2   -1.51    2.47
  -7 -10  -2   -0.96    2.88
  -8 -10  -2    3.33    3.60
  -4  11   2    4.02    5.08
  -3  11   2   13.16    5.31
  -2  11   2   22.60    5.82
  -1  11   2    0.54    3.21
   1 -11  -2   -2.05    2.53
   0  11   2    2.75    3.02
   0 -11  -2    2.53    3.04
   1  11   2    2.70    2.84
  -1 -11  -2   -0.30    2.01
   2  11   2   12.61    3.82
  -2 -11  -2   12.18    3.79
  -3 -11  -2    0.43    2.22
  -4 -11  -2    2.27    2.53
  -5 -11  -2   -0.80    1.96
  -3  12   2    7.48    5.42
  -2  12   2   24.92    6.51
  -1  12   2   25.73    6.16
   0 -12  -2   -2.22    2.53
   0  12   2   -0.76    3.30
  -1 -12  -2    0.73    2.86
   1  12   2    4.68    3.50
  -2 -12  -2   27.77    5.36
   2  12   2   29.56    5.38
  -3 -12  -2    0.22    2.90
  -4 -12  -2   25.99    5.39
  -1  13   2    2.43    4.43
   0 -13  -2   -1.26    3.19
   0  13   2    4.56    3.78
   1  13   2    4.16    3.77
  -1 -13  -2    0.97    2.66
  -2 -13  -2    3.85    3.57
  -3 -13  -2    1.29    3.14
  -4 -13  -2   -0.26    2.78
   3  11  -3   24.69    6.30
   2  11  -3    4.79    4.94
   1  11  -3    1.28    3.75
   0  11  -3   -1.34    3.78
   3  10  -3    3.54    4.19
   2  10  -3    0.29    4.05
   1  10  -3    5.14    4.31
   0  10  -3    3.62    3.67
  -1  10  -3    5.72    4.08
  -2  10  -3    3.82    4.03
  -3  10  -3    1.15    4.66
  -6  -9   3   -4.12    3.30
  -5  -9   3   -0.41    2.82
  -4  -9   3    3.75    3.29
   4   9  -3    2.46    4.18
   3   9  -3   41.64    4.83
   2   9  -3   11.48    4.82
   1   9  -3   10.35    4.36
   0   9  -3    5.70    3.96
  -1   9  -3   11.82    4.51
  -2   9  -3   -1.27    3.59
  -3   9  -3    4.41    4.43
  -4   9  -3   21.06    5.76
  -6  -8   3   -0.91    3.16
  -5  -8   3   -2.12    2.81
  -4  -8   3    3.37    3.09
   4   8  -3    2.32    3.72
  -3  -8   3    6.35    3.38
   3   8  -3    7.14    3.82
   2   8  -3   38.64    6.22
   1   8  -3   51.87    4.98
   0   8  -3    8.96    3.87
  -1   8  -3   73.38    5.70
  -2   8  -3   11.04    4.08
  -3   8  -3    4.00    4.15
  -4   8  -3    3.12    4.08
  -5   8  -3   29.35    6.17
  -6   8  -3    2.55    4.76
  -7  -7   3    1.85    4.02
  -6  -7   3    1.36    3.06
  -5  -7   3    2.28    3.08
   5   7  -3   13.81    4.76
   4   7  -3    2.28    3.87
  -4  -7   3    5.81    3.19
  -3  -7   3   34.04    4.21
   3   7  -3   41.48    4.57
   2   7  -3   93.90    6.34
   1   7  -3   59.48    5.07
   0   7  -3    5.15    2.87
  -1   7  -3  133.20    7.51
  -2   7  -3    4.00    3.35
  -3   7  -3   -0.21    2.95
  -4   7  -3   31.76    6.01
  -5   7  -3    0.77    3.71
  -6   7  -3    9.90    4.59
  -7   7  -3    4.28    3.42
  -7  -6   3    0.53    2.91
  -6  -6   3    3.18    3.49
  -5  -6   3   -1.67    2.18
   5   6  -3   -3.57    2.96
  -4  -6   3   -0.40    2.30
   4   6  -3   -0.04    2.94
  -3  -6   3   13.21    3.53
   3   6  -3   15.37    4.88
  -2  -6   3   19.73    4.10
   2   6  -3   15.60    4.31
   1   6  -3   20.14    4.33
   0   6  -3    4.18    2.56
  -2   6  -3   -0.25    2.18
  -3   6  -3    1.26    2.87
  -4   6  -3   10.37    4.09
  -5   6  -3   15.00    4.81
  -6   6  -3    2.16    3.78
  -7   6  -3    4.94    3.43
  -8  -5   3   -2.52    2.99
  -7  -5   3    0.97    3.15
  -6  -5   3   -0.28    2.66
   5   5  -3    2.75    3.65
  -5  -5   3    3.29    2.64
  -4  -5   3   -1.58    1.95
   4   5  -3   -1.53    2.76
  -3  -5   3    9.03    2.92
   3   5  -3   17.72    4.15
   2   5  -3   28.57    4.83
  -2  -5   3   22.46    3.95
   1   5  -3   27.07    4.20
   0   5  -3   -0.94    1.70
  -1   5  -3    5.88    2.40
  -2   5  -3   33.93    3.37
  -3   5  -3   25.94    4.61
  -3   5  -3   13.40    3.51
  -4   5  -3   54.54    4.79
  -5   5  -3   36.03    4.28
  -6   5  -3    9.87    4.21
  -8  -4   3    0.61    3.77
  -7  -4   3    0.23    2.64
  -6  -4   3   92.12    7.57
   6   4  -3   96.73    6.47
  -5  -4   3   -0.30    2.82
   5   4  -3    3.76    3.39
  -4  -4   3  112.62    7.43
   4   4  -3  117.38    6.67
   3   4  -3    0.69    2.08
  -3  -4   3    0.25    1.48
   2   4  -3   95.27    5.37
  -2  -4   3  101.56    6.11
   1   4  -3    4.41    2.20
   0   4  -3  146.79    6.66
  -1   4  -3   12.52    2.96
  -2   4  -3    0.83    1.79
  -3   4  -3   -1.64    1.82
  -3   4  -3    0.69    2.06
  -4   4  -3   28.82    4.51
  -4   4  -3   18.93    4.20
  -5   4  -3    0.80    2.35
  -5   4  -3   -2.32    2.44
  -6   4  -3   10.95    4.15
  -7  -3   3   57.19    6.32
  -6  -3   3    7.01    3.33
   6   3  -3   22.01    4.66
   5   3  -3   34.96    4.16
  -5  -3   3   40.89    4.64
   4   3  -3   -0.36    2.45
  -4  -3   3    0.66    1.76
   3   3  -3    1.84    2.09
  -3  -3   3    3.91    1.93
   2   3  -3   80.62    4.61
  -2  -3   3   78.42    5.00
  -1  -3   3  146.60    7.19
   1   3  -3  153.60    6.45
   0   3  -3   28.23    2.66
  -1   3  -3  345.30   11.46
  -2   3  -3    4.22    2.02
  -3   3  -3    3.48    1.86
  -3   3  -3    3.47    2.18
  -4   3  -3   33.16    3.29
  -4   3  -3   23.02    3.38
  -5   3  -3   18.48    4.09
  -5   3  -3   22.63    3.97
  -6   3  -3   26.08    4.93
  -6   3  -3   26.93    3.62
  -8  -2   3    0.53    3.13
  -7  -2   3    3.42    2.88
  -6  -2   3  125.62    7.27
  -6  -2   3  132.39    8.84
  -5  -2   3    9.34    3.44
  -5  -2   3    4.47    2.64
  -4  -2   3    1.82    1.83
   3   2  -3   68.07    4.37
  -3  -2   3   83.49    5.31
   2   2  -3   41.49    3.18
  -2  -2   3   46.96    3.56
   1   2  -3  151.78    6.21
  -1  -2   3  164.16    7.22
   0   2  -3   50.60    3.07
  -1   2  -3   16.08    1.88
  -2   2  -3   72.35    3.94
  -3   2  -3  108.59    5.20
  -3   2  -3  110.25    6.74
  -4   2  -3    1.63    1.75
  -4   2  -3    3.36    1.91
  -5   2  -3    0.70    2.27
  -5   2  -3    0.12    2.19
  -6   2  -3   11.33    3.52
  -6   2  -3    6.94    3.04
  -7   2  -3   -0.74    2.49
  -8   2  -3    0.50    2.73
  -9  -1   3   -3.16    3.67
  -8  -1   3   -2.67    2.59
  -7  -1   3    6.77    3.30
  -6  -1   3   24.90    3.80
  -6  -1   3   26.19    3.51
  -5  -1   3   26.83    4.34
  -5  -1   3   25.70    3.62
  -4  -1   3   16.45    3.37
  -4  -1   3   25.35    3.87
  -3  -1   3   31.26    3.04
  -3  -1   3   29.22    2.86
  -2  -1   3  107.29    5.03
  -2  -1   3  108.96    5.57
  -1  -1   3   55.63    3.44
   1   1  -3   54.12    3.09
   0   1  -3    5.24    1.58
  -1   1  -3    8.27    1.61
  -2   1  -3   16.26    1.79
  -3   1  -3  309.82   12.94
  -3   1  -3  301.47    9.84
  -4   1  -3   37.99    3.84
  -4   1  -3   33.08    2.84
  -5   1  -3   -0.34    1.53
  -5   1  -3    0.30    1.76
  -6   1  -3    5.96    2.54
  -6   1  -3    5.10    2.96
  -7   1  -3    4.12    3.17
  -8   1  -3    0.99    2.54
  -9   1  -3    5.56    3.71
  -9   0   3   -6.23    3.32
  -8   0   3    2.05    3.49
  -7   0   3   17.34    4.65
  -7   0   3   10.12    4.05
  -6   0   3   62.87    5.07
  -6   0   3   58.41    5.60
  -5   0   3   41.30    4.24
  -5   0   3   41.62    4.03
  -4   0   3    7.18    2.29
  -4   0   3   13.72    3.21
  -3   0   3   90.20    4.87
  -3   0   3  100.42    5.59
  -2   0   3   84.73    4.24
  -2   0   3   84.73    4.59
  -1   0   3  661.09   21.75
  -1   0   3  685.24   18.67
   0   0  -3   14.25    1.47
  -1   0  -3  163.07    5.41
  -2   0  -3 1594.43   41.02
  -2   0  -3 1633.40   50.52
  -3   0  -3   14.50    1.77
  -3   0  -3   17.09    2.51
  -4   0  -3 1552.65   40.78
  -4   0  -3 1608.74   50.74
  -5   0  -3  112.79    7.24
  -5   0  -3  109.02    5.11
  -6   0  -3    8.49    3.43
  -7   0  -3    3.43    3.41
  -8   0  -3    1.74    2.78
  -9   0  -3   -0.01    3.52
 -10   0  -3    8.41    4.36
  -8   1   3   -2.00    2.79
  -7   1   3   60.81    5.97
  -7   1   3   50.42    5.03
  -6   1   3    7.61    3.66
  -6   1   3    3.21    2.36
  -5   1   3  167.01    9.21
  -5   1   3  186.58    8.67
  -4   1   3   18.52    3.62
  -4   1   3   18.19    2.57
  -3   1   3  151.91    6.67
  -3   1   3  156.15    7.32
  -2   1   3    3.01    1.31
  -2   1   3    6.31    1.57
  -1   1   3  410.40   13.90
  -1   1   3  418.47   12.24
   0   1   3    8.87    1.35
  -1  -1  -3 1820.17   45.57
  -2  -1  -3 1036.98   34.25
  -2  -1  -3 1106.61   27.35
  -3  -1  -3  407.48   15.09
  -3  -1  -3  381.98   10.84
  -4  -1  -3   73.85    3.45
  -4  -1  -3   76.04    5.31
  -5  -1  -3    3.26    2.70
  -5  -1  -3    6.08    1.86
  -6  -1  -3   -0.82    2.55
  -7  -1  -3    5.47    3.04
  -8  -1  -3    0.85    2.68
  -9  -1  -3   -0.43    2.98
 -10  -1  -3    1.68    3.55
  -7   2   3   20.83    4.56
  -7   2   3   20.23    4.53
  -6   2   3   96.37    7.02
  -6   2   3  109.36    6.79
  -5   2   3   35.75    3.94
  -5   2   3   35.96    3.84
  -4   2   3  265.61   10.51
  -4   2   3  264.88   11.35
  -3   2   3    2.23    1.30
  -3   2   3    0.79    1.54
   2  -2  -3    1.54    0.68
  -2   2   3    2.25    1.01
  -2   2   3   -0.32    1.12
  -1   2   3   21.85    1.93
   1  -2  -3   21.18    1.62
  -1   2   3   22.59    1.72
   0   2   3   13.86    1.29
   1   2   3   13.25    1.02
  -2  -2  -3  843.41   27.36
  -3  -2  -3   44.36    3.51
  -4  -2  -3   34.78    1.91
  -4  -2  -3   31.17    3.36
  -5  -2  -3   34.64    3.83
  -6  -2  -3   26.06    3.98
  -7  -2  -3   47.84    5.22
  -8  -2  -3   -1.53    2.27
  -9  -2  -3   12.09    4.55
 -10  -2  -3    2.68    3.92
  -7   3   3    2.85    3.24
  -6   3   3    1.15    3.10
  -5   3   3  221.73   10.06
  -5   3   3  219.38   10.55
  -4   3   3   33.49    3.28
  -4   3   3   33.08    3.62
  -3   3   3   27.05    2.94
  -3   3   3   27.46    2.51
   2  -3  -3  181.10    7.27
  -2   3   3  189.12    7.43
  -2   3   3  186.43    7.12
  -1   3   3 2047.87   51.89
   1  -3  -3 1986.16   62.53
  -1   3   3 2030.76   60.22
   0   3   3  188.77    6.09
   0  -3  -3  164.95    7.34
   1   3   3   52.16    2.21
  -1  -3  -3   47.46    2.82
  -2  -3  -3   44.31    3.02
  -3  -3  -3  254.39   10.49
  -4  -3  -3    7.41    2.26
  -5  -3  -3   21.25    3.17
  -6  -3  -3   -1.55    1.91
  -7  -3  -3    8.13    3.39
  -8  -3  -3   18.10    4.43
  -9  -3  -3   -1.10    3.30
 -10  -3  -3    0.14    3.52
  -8   4   3    1.79    3.61
  -7   4   3    9.48    3.50
  -6   4   3   42.74    4.75
  -5   4   3   22.67    4.40
  -4   4   3  115.12    6.67
  -4   4   3  109.71    6.07
  -3   4   3   57.27    4.18
  -3   4   3   67.85    3.81
  -2   4   3    2.58    1.47
  -2   4   3    3.30    1.00
   2  -4  -3    2.89    1.29
  -1   4   3  118.90    5.24
   1  -4  -3  117.44    5.68
   0   4   3   47.02    2.82
   0  -4  -3   56.53    3.63
  -1  -4  -3  124.36    6.40
  -1  -4  -3  133.89    5.22
   1   4   3  130.85    4.60
  -2  -4  -3   11.57    1.90
   2   4   3    6.67    0.87
  -3  -4  -3  130.19    6.62
  -4  -4  -3   38.61    3.58
  -5  -4  -3    6.64    2.39
  -6  -4  -3    3.95    2.53
  -7  -4  -3    1.39    2.64
  -8  -4  -3    0.95    2.67
  -9  -4  -3   -0.87    2.88
 -10  -4  -3   -0.18    3.47
  -8   5   3    4.28    3.78
  -7   5   3   -0.21    3.00
  -6   5   3   10.76    3.55
  -5   5   3   43.40    4.56
  -4   5   3    6.10    3.30
  -3   5   3   49.24    4.08
  -2   5   3   12.69    1.24
  -2   5   3   16.01    2.92
   2  -5  -3   14.92    2.10
  -1   5   3   29.67    2.71
   1  -5  -3   31.08    2.79
   0  -5  -3   16.47    2.18
   0   5   3   19.99    2.82
   1   5   3  398.85   11.85
  -1  -5  -3  394.96   13.12
  -1  -5  -3  418.95   15.56
  -2  -5  -3  154.66    6.45
   2   5   3  143.34    4.91
  -2  -5  -3  142.74    7.48
  -3  -5  -3   93.38    5.26
   3   5   3   91.78    3.26
  -3  -5  -3   89.62    5.91
  -4  -5  -3    4.04    1.93
  -5  -5  -3   78.28    5.75
  -6  -5  -3   17.44    3.98
  -7  -5  -3    3.25    2.70
  -8  -5  -3    0.60    2.73
  -9  -5  -3    0.78    2.96
  -7   6   3    2.90    4.14
  -6   6   3    1.05    2.88
  -5   6   3    2.00    2.78
  -4   6   3   62.27    5.23
  -3   6   3   85.84    5.64
   2  -6  -3    2.09    1.63
  -2   6   3    1.50    1.93
   1  -6  -3   75.32    4.94
  -1   6   3   69.54    4.37
   0  -6  -3  601.84   21.84
   0   6   3  599.55   17.81
  -1  -6  -3   76.33    3.48
   1   6   3   90.05    4.17
  -1  -6  -3   82.58    5.36
  -2  -6  -3   52.34    4.19
  -2  -6  -3   52.87    3.22
   2   6   3   52.73    2.94
  -3  -6  -3    0.22    1.45
   3   6   3    3.68    1.28
  -3  -6  -3    1.82    1.47
  -4  -6  -3    4.95    2.02
  -4  -6  -3    8.05    2.53
  -5  -6  -3   -1.26    1.62
  -5  -6  -3   -1.06    1.75
  -6  -6  -3    8.40    3.05
  -6  -6  -3   11.61    3.80
  -7  -6  -3    0.36    2.56
  -8  -6  -3    6.02    3.88
  -9  -6  -3    1.71    3.07
  -7   7   3    3.16    4.00
  -6   7   3    2.86    3.80
  -5   7   3    1.91    2.87
  -4   7   3    3.96    3.19
  -3   7   3   94.53    6.27
   2  -7  -3   25.23    3.30
  -2   7   3   22.70    3.04
  -1   7   3   31.52    3.19
   1  -7  -3   30.75    3.45
   0  -7  -3    8.70    2.39
   0   7   3    9.95    2.62
   1   7   3  310.51   10.54
  -1  -7  -3  318.92   13.68
  -2  -7  -3    1.43    1.00
  -2  -7  -3   -0.45    1.14
   2   7   3    1.54    1.42
   3   7   3    5.18    1.63
  -3  -7  -3    4.14    1.64
  -3  -7  -3    3.72    1.96
  -4  -7  -3   43.52    3.87
  -4  -7  -3   37.13    3.98
  -5  -7  -3   13.97    3.64
  -5  -7  -3    7.07    2.67
  -6  -7  -3   29.13    3.79
  -6  -7  -3   26.68    3.89
  -7  -7  -3   90.49    7.71
  -8  -7  -3   34.42    5.18
  -9  -7  -3    6.22    4.35
  -6   8   3    0.75    3.59
  -5   8   3   11.99    4.46
  -4   8   3  256.98   12.23
  -3   8   3   21.49    5.11
   2  -8  -3  150.86    9.21
  -2   8   3  161.76    8.44
   1  -8  -3   56.80    4.95
  -1   8   3   51.36    4.49
   0  -8  -3   21.53    3.69
   0   8   3   22.84    4.03
  -1  -8  -3    3.94    2.11
   1   8   3    9.50    2.60
  -2  -8  -3  123.56    7.71
   2   8   3  129.59    5.91
  -3  -8  -3    2.06    1.42
  -3  -8  -3    4.73    2.14
   3   8   3    2.97    1.75
  -4  -8  -3   44.03    4.54
  -4  -8  -3   52.67    4.30
  -5  -8  -3    8.12    2.88
  -5  -8  -3   12.31    3.36
  -6  -8  -3   20.89    4.55
  -6  -8  -3   18.23    3.88
  -7  -8  -3   56.28    6.06
  -8  -8  -3   23.25    5.71
  -9  -8  -3   11.78    5.25
  -6   9   3   -1.48    4.58
  -5   9   3   13.55    4.83
  -4   9   3   31.88    6.13
  -3   9   3   24.42    5.96
   2  -9  -3   11.44    3.68
  -2   9   3    9.27    4.23
  -1   9   3    0.68    2.68
   1  -9  -3    0.65    1.99
   0  -9  -3   39.66    4.51
   0   9   3   39.24    4.00
  -1  -9  -3    4.98    2.34
   1   9   3    6.54    2.83
   2   9   3   11.34    3.08
  -2  -9  -3    9.01    2.69
  -3  -9  -3    4.11    2.21
  -4  -9  -3   11.70    3.19
  -4  -9  -3   17.35    3.40
  -5  -9  -3   11.43    3.48
  -5  -9  -3   13.24    3.32
  -6  -9  -3   -0.87    2.26
  -6  -9  -3   -0.14    2.18
  -7  -9  -3    0.48    2.96
  -8  -9  -3   22.86    5.53
  -9  -9  -3    3.94    4.11
  -5  10   3    3.44    4.66
  -4  10   3    2.77    4.21
  -3  10   3    2.64    4.07
   2 -10  -3   31.37    4.73
  -2  10   3   39.79    4.91
   1 -10  -3   26.96    5.26
  -1  10   3   41.71    6.15
   0 -10  -3    1.02    2.24
   0  10   3   -1.62    2.45
  -1 -10  -3  115.72    8.19
   1  10   3  122.66    6.77
   2  10   3   -1.24    2.17
  -2 -10  -3   -0.69    1.55
  -3 -10  -3   22.76    3.57
  -4 -10  -3   19.44    4.17
  -5 -10  -3    3.92    2.63
  -6 -10  -3    0.16    2.83
  -7 -10  -3    4.59    3.87
  -8 -10  -3   -0.01    3.48
  -4  11   3    7.96    5.20
  -3  11   3   -3.60    3.83
  -2  11   3   12.20    4.83
   1 -11  -3    0.87    3.06
  -1  11   3    5.86    3.93
   0 -11  -3   -1.82    1.74
   0  11   3   -0.35    2.92
  -1 -11  -3   16.35    3.96
   1  11   3   21.39    4.48
  -2 -11  -3   24.69    4.70
   2  11   3   26.89    4.61
  -3 -11  -3   16.87    3.91
  -4 -11  -3   -1.00    1.67
  -5 -11  -3   15.21    3.75
  -3  12   3   -3.70    4.54
  -2  12   3   18.41    5.73
  -1  12   3    2.96    4.43
   1 -12  -3   -5.02    2.56
   0  12   3    2.43    3.50
   0 -12  -3    3.57    3.40
  -1 -12  -3    0.07    2.33
   1  12   3   -0.20    2.86
  -2 -12  -3    9.81    3.73
  -3 -12  -3    3.24    2.86
  -4 -12  -3   18.46    4.50
  -5 -12  -3   11.74    3.77
  -2  13   3    2.28    4.89
  -1  13   3   14.01    5.86
   0 -13  -3   -1.10    3.16
   0  13   3    5.30    4.34
  -1 -13  -3    1.04    2.98
   1  13   3    2.27    3.67
  -2 -13  -3   -0.42    2.59
  -3 -13  -3    2.56    2.99
  -4 -13  -3    3.67    3.34
  -5 -13  -3    2.94    2.93
   0  14   3   -2.82    4.57
  -2 -14  -3   -2.07    2.64
  -3 -14  -3   -3.15    2.85
  -4 -14  -3   -1.79    2.66
   3  10  -4    9.47    5.51
   2  10  -4    3.03    4.71
   1  10  -4   -1.57    4.42
   0  10  -4   -0.57    3.95
  -1  10  -4   -3.80    4.16
  -2  10  -4    3.25    4.65
  -5  -9   4    1.95    3.48
   4   9  -4    3.66    4.68
   3   9  -4    2.52    4.66
   2   9  -4   12.24    5.10
   1   9  -4    3.09    3.98
   0   9  -4   12.71    4.59
  -1   9  -4    4.97    3.89
  -2   9  -4    0.46    3.84
  -3   9  -4   -2.79    3.97
  -4   9  -4   -2.15    4.60
  -6  -8   4    2.59    3.28
  -5  -8   4    0.84    3.38
   4   8  -4   19.65    5.65
  -4  -8   4   16.47    4.54
   3   8  -4    0.39    3.99
   2   8  -4   -2.99    3.42
   1   8  -4    0.22    3.61
   0   8  -4   32.18    5.88
  -1   8  -4   59.20    5.43
  -2   8  -4    6.66    4.10
  -3   8  -4   20.73    5.69
  -4   8  -4   -0.50    3.96
  -6  -7   4   -2.14    3.32
   5   7  -4    2.48    4.30
  -5  -7   4    0.46    2.98
   4   7  -4    4.20    3.81
  -4  -7   4   -1.02    2.27
   3   7  -4   -1.20    3.35
   2   7  -4    4.51    3.67
   1   7  -4    7.70    3.93
   0   7  -4  120.54    7.48
  -1   7  -4   68.69    5.64
  -2   7  -4   -0.66    2.86
  -3   7  -4    4.54    3.61
  -4   7  -4    9.52    4.53
  -5   7  -4   16.34    5.38
  -6   7  -4   11.01    4.88
  -7  -6   4    7.02    4.37
  -6  -6   4    1.37    3.08
  -5  -6   4    8.03    3.93
   5   6  -4   16.85    5.01
  -4  -6   4   -2.27    2.51
   4   6  -4    4.72    3.65
   3   6  -4   -0.03    3.23
  -3  -6   4    0.16    2.20
   2   6  -4   -0.81    3.08
   1   6  -4   19.13    4.69
   0   6  -4    0.63    2.36
  -1   6  -4   31.38    3.90
  -2   6  -4    2.77    2.73
  -3   6  -4    4.60    3.58
  -4   6  -4   13.66    4.58
  -5   6  -4   -0.20    3.72
  -6   6  -4   19.13    5.27
  -7  -5   4   12.00    4.98
  -6  -5   4    2.38    3.22
  -5  -5   4    6.13    3.23
   5   5  -4    6.40    4.08
  -4  -5   4   26.70    3.88
   4   5  -4   46.21    6.55
   3   5  -4    9.61    4.22
  -3  -5   4   15.53    3.59
  -2  -5   4   15.39    3.40
   2   5  -4   15.41    4.39
   1   5  -4   -2.27    1.89
   0   5  -4    4.73    2.67
  -1   5  -4    4.28    2.74
  -2   5  -4   -0.64    2.12
  -3   5  -4   32.86    3.67
  -3   5  -4   29.19    4.08
  -4   5  -4   31.94    3.88
  -5   5  -4   30.59    5.56
  -6   5  -4   14.35    4.55
  -8  -4   4   -1.63    3.29
  -7  -4   4   40.63    5.51
   6   4  -4    9.92    4.39
  -6  -4   4    6.19    3.63
   5   4  -4   15.14    4.75
  -5  -4   4    7.01    3.51
   4   4  -4   87.48    6.08
  -4  -4   4   75.12    6.32
  -3  -4   4  100.84    6.97
   3   4  -4  105.10    6.39
   2   4  -4  106.13    6.09
  -2  -4   4  102.20    6.59
   1   4  -4    9.47    3.17
   0   4  -4   21.55    3.66
  -1   4  -4    1.45    2.13
  -2   4  -4   21.34    3.77
  -3   4  -4   24.19    3.11
  -3   4  -4   23.86    3.70
  -4   4  -4    0.06    2.59
  -4   4  -4    0.87    2.56
  -5   4  -4    0.42    3.11
  -5   4  -4    2.09    2.72
  -6   4  -4    0.30    3.08
  -8  -3   4   -1.73    3.43
  -7  -3   4    6.53    3.96
  -6  -3   4   23.54    5.64
   6   3  -4   35.88    5.75
   5   3  -4   61.75    5.15
  -5  -3   4   58.98    5.71
   4   3  -4   25.29    5.13
  -3  -3   4   99.04    6.51
   3   3  -4   95.55    5.75
  -2  -3   4    2.54    1.87
   2   3  -4    4.42    2.39
   1   3  -4   23.68    2.70
   0   3  -4  157.08    7.00
  -1   3  -4  260.37    9.72
  -2   3  -4   24.48    3.93
  -3   3  -4   43.44    4.54
  -3   3  -4   41.27    3.50
  -4   3  -4   15.72    4.18
  -4   3  -4   12.86    3.20
  -5   3  -4    2.79    2.85
  -5   3  -4    0.47    2.73
  -6   3  -4    0.07    2.66
  -6   3  -4    0.84    2.96
  -8  -2   4   -0.81    3.13
  -7  -2   4   36.65    5.12
  -6  -2   4    3.63    2.91
  -5  -2   4    6.56    3.24
  -4  -2   4   43.73    4.43
   4   2  -4   36.66    6.03
   3   2  -4   26.05    4.19
  -3  -2   4   20.07    2.84
  -2  -2   4  249.39   10.83
   2   2  -4  249.56    9.34
   1   2  -4   22.31    3.25
   0   2  -4  211.77    7.93
  -1   2  -4  159.70    6.59
  -2   2  -4    3.68    1.69
  -3   2  -4   54.09    3.70
  -3   2  -4   57.99    5.10
  -4   2  -4   20.04    3.43
  -4   2  -4   14.22    3.91
  -5   2  -4   11.75    3.57
  -5   2  -4   18.11    3.67
  -6   2  -4   17.95    4.31
  -6   2  -4   10.21    3.83
  -7   2  -4   -0.87    2.70
  -8   2  -4    1.13    3.21
  -8  -1   4   -0.95    3.25
  -7  -1   4   11.59    4.72
  -7  -1   4   14.24    4.46
  -6  -1   4   67.25    5.46
  -6  -1   4   67.14    6.18
  -5  -1   4   23.32    4.74
  -5  -1   4   22.09    3.41
  -4  -1   4    8.77    2.87
  -4  -1   4    7.99    3.05
  -3  -1   4    8.46    2.40
  -3  -1   4   10.30    2.97
  -2  -1   4  379.13   14.44
  -1  -1   4   14.34    2.66
   0   1  -4    5.20    1.75
  -1   1  -4   18.94    2.06
  -2   1  -4    0.37    1.14
  -3   1  -4  239.87    8.58
  -3   1  -4  251.07   11.80
  -4   1  -4   -1.27    1.35
  -4   1  -4   -0.56    1.68
  -5   1  -4   48.56    3.62
  -5   1  -4   40.54    4.48
  -6   1  -4    3.65    2.92
  -7   1  -4   14.88    4.37
  -8   1  -4    8.03    3.58
  -9   1  -4    1.28    3.26
  -8   0   4   -1.67    2.85
  -7   0   4   -0.32    3.67
  -7   0   4   -1.77    2.35
  -6   0   4    3.92    3.24
  -5   0   4    1.23    3.67
  -5   0   4    3.74    2.39
  -4   0   4    1.06    1.95
  -4   0   4    0.07    2.28
  -3   0   4  113.66    6.47
  -3   0   4  121.16    5.99
  -2   0   4  287.67   11.33
  -2   0   4  281.21   10.05
  -1   0   4  499.94   17.52
  -1   0   4  513.28   15.12
   0   0  -4  407.91   12.09
  -1   0  -4  110.04    4.41
  -2   0  -4  153.20    5.62
  -3   0  -4  436.76   16.94
  -3   0  -4  402.56   12.37
  -4   0  -4  971.69   26.44
  -4   0  -4  988.36   33.95
  -5   0  -4    2.67    1.88
  -5   0  -4    3.68    2.28
  -6   0  -4   83.96    6.93
  -7   0  -4   16.85    4.63
  -8   0  -4    0.57    3.08
  -9   0  -4    1.27    3.23
  -8   1   4   -1.60    3.05
  -7   1   4   35.53    4.29
  -7   1   4   29.32    4.41
  -6   1   4   73.55    5.73
  -6   1   4   70.16    6.20
  -5   1   4  250.57   12.27
  -5   1   4  253.49   10.95
  -4   1   4  106.67    6.51
  -4   1   4  102.32    6.09
  -3   1   4  126.09    6.24
  -3   1   4  135.78    6.90
  -2   1   4  866.18   23.83
  -2   1   4  815.80   27.35
  -1   1   4  635.82   18.48
  -1   1   4  670.37   21.59
   0   1   4    5.88    1.47
  -1  -1  -4  111.99    4.18
  -2  -1  -4  434.46   16.42
  -2  -1  -4  442.46   12.28
  -3  -1  -4 1174.68   30.57
  -3  -1  -4 1196.34   39.02
  -4  -1  -4  638.02   17.95
  -4  -1  -4  685.58   24.29
  -5  -1  -4   59.47    5.23
  -6  -1  -4   14.59    4.47
  -7  -1  -4   12.36    4.18
  -8  -1  -4   -3.28    2.52
  -9  -1  -4    2.52    3.65
 -10  -1  -4    3.89    3.94
  -7   2   4   25.40    4.06
  -7   2   4   26.44    5.56
  -6   2   4    8.48    3.48
  -6   2   4   16.15    4.47
  -5   2   4  227.82   11.13
  -5   2   4  209.87    9.93
  -4   2   4   42.91    3.87
  -4   2   4   34.13    3.75
  -3   2   4    0.61    1.37
  -3   2   4   -0.40    1.67
   2  -2  -4  124.44    5.04
  -2   2   4  129.69    6.06
  -2   2   4  138.31    6.00
   1  -2  -4   61.18    3.44
  -1   2   4   69.32    3.70
  -1   2   4   67.40    3.62
   0   2   4  213.01    7.06
   1   2   4   81.74    3.23
  -2  -2  -4  514.08   18.27
  -2  -2  -4  506.21   13.53
  -3  -2  -4  115.28    3.68
  -3  -2  -4  105.56    6.26
  -4  -2  -4  171.11    5.40
  -4  -2  -4  174.74    8.92
  -5  -2  -4    7.27    2.65
  -6  -2  -4   58.56    5.90
  -7  -2  -4    2.37    2.77
  -8  -2  -4   -0.80    2.53
  -9  -2  -4    4.90    4.12
 -10  -2  -4    2.45    4.32
  -8   3   4    4.21    4.21
  -7   3   4   11.63    4.16
  -6   3   4    2.10    3.30
  -5   3   4    7.95    3.59
  -5   3   4    8.54    2.87
  -4   3   4   24.95    4.67
  -4   3   4   19.57    2.79
  -3   3   4   76.93    4.59
  -3   3   4   72.79    4.76
  -2   3   4  477.79   14.83
   2  -3  -4  436.38   15.55
  -2   3   4  469.80   15.79
   1  -3  -4   38.58    2.73
  -1   3   4   38.70    2.79
   0   3   4   54.39    2.94
   1   3   4   44.60    2.21
  -2  -3  -4  184.07    8.16
   2   3   4  188.41    5.33
  -3  -3  -4  363.13   14.16
  -4  -3  -4    0.59    1.45
  -5  -3  -4   38.79    4.11
  -6  -3  -4   97.64    7.47
  -7  -3  -4   15.52    4.48
  -8  -3  -4    0.29    2.74
  -9  -3  -4    3.75    3.71
 -10  -3  -4    0.95    3.82
  -8   4   4    1.17    3.85
  -7   4   4    0.51    4.08
  -6   4   4   14.26    4.17
  -5   4   4   79.04    5.88
  -4   4   4   12.23    3.99
  -4   4   4   13.13    2.93
   3  -4  -4    9.91    2.07
  -3   4   4    6.51    1.88
  -3   4   4    8.71    2.92
  -2   4   4   79.71    3.98
  -2   4   4   71.72    4.53
   2  -4  -4   84.26    4.41
   1  -4  -4   37.99    2.92
  -1   4   4   35.01    2.84
   0  -4  -4  285.34   11.29
   0   4   4  267.24    9.02
   1   4   4    0.25    0.70
  -1  -4  -4    1.44    0.99
   2   4   4   97.04    3.31
  -2  -4  -4   95.82    5.08
  -3  -4  -4  231.00    9.94
  -4  -4  -4    7.00    2.35
  -5  -4  -4   69.03    5.55
  -6  -4  -4   22.67    3.59
  -7  -4  -4   10.53    3.68
  -8  -4  -4   -1.17    2.20
  -9  -4  -4    2.63    3.66
 -10  -4  -4    2.63    3.80
  -8   5   4   -0.67    4.43
  -7   5   4    8.22    3.98
  -6   5   4    6.77    3.40
  -5   5   4   14.12    4.03
  -4   5   4  174.01    8.90
  -3   5   4   -2.63    1.82
   3  -5  -4    1.79    1.61
  -2   5   4   32.91    2.20
   2  -5  -4   35.76    3.07
  -2   5   4   38.65    3.41
   1  -5  -4   39.68    3.21
  -1   5   4   32.98    2.88
   0  -5  -4    5.94    0.95
   0  -5  -4    4.98    1.56
   0   5   4    5.76    1.85
  -1  -5  -4    6.95    1.41
  -1  -5  -4    8.07    2.00
   1   5   4    7.91    1.67
  -2  -5  -4    9.47    2.48
   2   5   4    9.09    1.20
  -2  -5  -4    9.67    1.47
  -3  -5  -4   12.56    2.59
  -4  -5  -4  143.23    7.85
  -5  -5  -4    0.04    1.60
  -6  -5  -4   -0.93    1.68
  -7  -5  -4   35.63    4.69
  -8  -5  -4   36.73    6.31
  -9  -5  -4   -0.85    2.21
  -7   6   4    0.23    3.61
  -6   6   4   -3.20    2.63
  -5   6   4   14.67    4.32
  -4   6   4   46.00    4.61
   3  -6  -4  113.92    6.87
  -3   6   4  113.28    6.76
  -2   6   4   12.86    3.03
   2  -6  -4    8.33    2.27
  -1   6   4   21.85    3.34
   1  -6  -4   11.75    2.32
   0  -6  -4   97.85    5.93
   0   6   4   88.92    4.75
  -1  -6  -4  213.53    7.70
  -1  -6  -4  214.20   10.13
   1   6   4  216.09    7.68
   2   6   4    3.46    1.25
  -2  -6  -4    0.95    1.20
  -2  -6  -4    2.15    1.13
  -3  -6  -4   11.82    2.76
   3   6   4   15.72    1.48
  -3  -6  -4    9.33    2.34
  -4  -6  -4  404.15   17.42
  -4  -6  -4  411.74   16.15
  -5  -6  -4    4.10    2.27
  -6  -6  -4   27.70    3.95
  -7  -6  -4   31.00    5.54
  -8  -6  -4    1.60    2.51
  -9  -6  -4    2.33    3.29
  -6   7   4    3.11    3.85
  -5   7   4    5.10    4.05
  -4   7   4   79.10    6.34
  -3   7   4   30.00    3.94
   3  -7  -4   32.16    4.02
   2  -7  -4   35.02    3.78
  -2   7   4   38.08    3.82
   1  -7  -4    8.52    2.33
  -1   7   4   10.47    2.78
   0  -7  -4    4.01    1.66
   0   7   4    4.14    1.99
   1   7   4   12.37    2.47
  -1  -7  -4   11.40    2.68
   2   7   4    9.08    1.97
  -2  -7  -4    3.77    1.81
  -2  -7  -4    6.75    1.70
   3   7   4    4.27    1.39
  -3  -7  -4    3.80    1.72
  -3  -7  -4    2.50    1.81
  -4  -7  -4   -0.06    1.39
  -4  -7  -4    0.88    1.40
  -5  -7  -4   28.87    4.01
  -5  -7  -4   34.70    3.99
  -6  -7  -4   87.10    6.80
  -6  -7  -4   74.54    6.72
  -7  -7  -4  133.98    9.36
  -8  -7  -4   11.76    4.38
  -9  -7  -4   32.82    6.87
  -6   8   4    6.35    4.64
  -5   8   4    0.01    3.91
  -4   8   4   39.85    6.58
   3  -8  -4   41.51    4.92
  -3   8   4   44.32    4.75
   2  -8  -4  224.45   11.69
  -2   8   4  246.27   10.77
  -1   8   4   38.81    3.93
   1  -8  -4   37.80    4.17
   0   8   4   25.61    3.13
   0  -8  -4   35.92    3.91
  -1  -8  -4    1.65    1.55
   1   8   4    1.23    2.08
  -2  -8  -4   28.71    3.62
   2   8   4   33.96    2.89
  -3  -8  -4   -0.32    1.25
  -3  -8  -4   -1.27    1.42
  -4  -8  -4  206.37   11.29
  -4  -8  -4  230.57   10.33
  -5  -8  -4    0.74    1.98
  -5  -8  -4    2.43    2.16
  -6  -8  -4   47.87    5.19
  -6  -8  -4   58.69    5.57
  -7  -8  -4  116.98    8.80
  -8  -8  -4   60.62    6.71
  -9  -8  -4    1.86    3.49
  -5   9   4   24.20    6.05
  -4   9   4    8.17    4.54
  -3   9   4   -2.35    3.44
   3  -9  -4    0.96    2.52
   2  -9  -4   26.06    4.85
  -2   9   4   35.49    6.04
  -1   9   4   18.64    4.18
   1  -9  -4   20.39    4.07
   0   9   4    0.80    2.33
   0  -9  -4    0.13    1.78
  -1  -9  -4   81.85    6.33
   1   9   4   74.66    5.00
  -2  -9  -4   19.78    3.29
   2   9   4   26.62    3.80
  -3  -9  -4   32.61    4.04
  -4  -9  -4    1.61    1.91
  -5  -9  -4   54.07    4.85
  -5  -9  -4   46.22    5.03
  -6  -9  -4   -0.53    1.70
  -6  -9  -4   -0.16    2.30
  -7  -9  -4    3.21    2.88
  -8  -9  -4   14.46    4.88
  -5  10   4    5.92    4.85
  -4  10   4    5.14    4.96
  -3  10   4   38.11    5.16
  -2  10   4   -1.51    3.03
   2 -10  -4   -2.10    2.63
  -1  10   4   24.54    5.17
   1 -10  -4   20.55    4.33
   0  10   4    2.84    3.10
   0 -10  -4    0.83    1.97
  -1 -10  -4   50.80    5.31
   1  10   4   49.30    4.52
  -2 -10  -4   25.35    3.86
   2  10   4   25.30    3.19
  -3 -10  -4   82.79    6.83
  -4 -10  -4   21.06    4.27
  -5 -10  -4   20.92    4.27
  -6 -10  -4   -0.06    2.38
  -6 -10  -4    0.58    2.01
  -7 -10  -4   19.02    5.00
  -8 -10  -4    9.23    4.22
  -4  11   4    1.95    5.02
  -3  11   4    1.49    4.03
  -2  11   4    1.82    3.94
   2 -11  -4   -1.76    2.76
   1 -11  -4    6.38    3.42
  -1  11   4    7.15    4.07
   0 -11  -4   18.14    4.42
   0  11   4   21.01    4.92
  -1 -11  -4   25.49    4.64
   1  11   4   31.25    5.09
  -2 -11  -4   -0.68    1.70
  -3 -11  -4    4.50    2.82
  -4 -11  -4    5.71    2.55
  -5 -11  -4    5.07    2.87
  -6 -11  -4    2.01    2.42
  -3  12   4   -0.33    5.37
   2 -12  -4   -1.17    3.24
  -2  12   4    2.41    4.64
   1 -12  -4   -2.46    2.33
  -1  12   4   -1.63    3.51
   0  12   4    0.36    3.44
   0 -12  -4   -0.83    2.46
  -1 -12  -4    1.98    3.03
   1  12   4    2.79    3.25
  -2 -12  -4   -1.39    1.80
  -3 -12  -4   -1.84    1.86
  -4 -12  -4    0.20    2.18
  -5 -12  -4    7.73    3.22
  -6 -12  -4   42.68    5.45
  -2  13   4    8.11    5.20
  -1  13   4   -0.81    4.17
   1 -13  -4   -2.09    2.97
   0 -13  -4    0.23    2.66
  -1 -13  -4   -2.83    2.51
   1  13   4   -1.05    3.73
  -2 -13  -4    6.10    3.47
  -3 -13  -4    1.11    2.36
  -4 -13  -4    2.33    2.91
  -5 -13  -4   16.82    4.49
   0  14   4    1.69    4.02
  -1 -14  -4    2.02    2.75
  -2 -14  -4   -0.61    2.97
  -3 -14  -4   -2.53    2.88
  -4 -14  -4    1.99    3.19
  -5 -14  -4   -1.55    2.78
   4   9  -5    2.64    5.44
   3   9  -5    2.77    5.04
   2   9  -5    1.28    4.84
   1   9  -5    5.00    4.89
   0   9  -5   -2.25    3.72
  -1   9  -5    7.77    4.02
  -2   9  -5   -0.72    3.88
  -5  -8   5    1.77    3.52
   4   8  -5   15.40    6.27
   3   8  -5    2.34    4.79
   2   8  -5    3.42    4.37
   1   8  -5    1.48    3.96
   0   8  -5   -1.52    3.70
  -1   8  -5   -0.88    3.56
  -2   8  -5    3.09    3.82
  -3   8  -5   27.70    6.12
  -4   8  -5    0.91    4.46
  -5  -7   5   12.47    3.94
   5   7  -5   16.84    5.89
   4   7  -5   23.32    6.39
  -4  -7   5    8.06    3.37
   3   7  -5    7.38    4.78
   2   7  -5    1.98    3.99
   1   7  -5   -2.76    3.48
   0   7  -5   41.63    4.81
  -1   7  -5   30.45    5.48
  -2   7  -5   22.31    5.11
  -3   7  -5   36.49    4.48
  -4   7  -5    5.99    4.27
  -5   7  -5   -2.44    4.42
  -6   7  -5    4.49    5.04
  -6  -6   5    0.86    4.06
  -5  -6   5   -2.57    2.62
   5   6  -5    9.78    4.64
  -4  -6   5    4.46    3.52
   4   6  -5    6.30    4.71
   3   6  -5   47.15    5.07
   2   6  -5    0.24    3.30
   1   6  -5   -5.38    2.85
   0   6  -5    9.61    3.95
  -1   6  -5   22.97    5.18
  -2   6  -5    2.54    3.17
  -3   6  -5    5.73    3.67
  -4   6  -5   16.99    4.82
  -5   6  -5    2.01    4.20
  -6   6  -5   15.57    4.76
  -7  -5   5   21.34    5.93
   6   5  -5   -6.31    4.18
  -6  -5   5   -0.42    3.52
  -5  -5   5    4.15    3.42
   5   5  -5    8.29    4.35
   4   5  -5    9.16    4.42
  -4  -5   5    9.47    3.84
  -3  -5   5    8.11    3.37
   3   5  -5    5.31    3.48
   2   5  -5   -0.39    3.04
   1   5  -5    4.31    2.99
   0   5  -5   -1.81    2.41
  -1   5  -5   18.34    4.24
  -2   5  -5    3.78    3.26
  -3   5  -5    2.21    3.02
  -3   5  -5    1.54    2.59
  -4   5  -5   22.45    5.23
  -5   5  -5   33.34    6.13
  -6   5  -5   14.77    4.85
  -7  -4   5   26.60    6.49
   6   4  -5    4.51    4.85
  -6  -4   5    5.23    3.40
   5   4  -5   13.91    4.90
  -5  -4   5   10.89    4.14
  -4  -4   5   44.57    5.23
   4   4  -5   66.40    5.38
  -3  -4   5   33.12    4.18
   3   4  -5   35.88    4.05
   2   4  -5   59.01    4.80
   1   4  -5   27.40    4.59
   0   4  -5   34.34    3.56
  -1   4  -5   26.04    3.28
  -2   4  -5   27.74    4.76
  -3   4  -5   -1.89    2.30
  -4   4  -5    3.08    3.06
  -4   4  -5    0.75    2.73
  -5   4  -5    2.66    3.28
  -5   4  -5   -1.24    3.29
  -6   4  -5    1.87    3.55
   6   3  -5   15.44    4.94
  -6  -3   5   10.94    4.57
  -5  -3   5   24.78    5.67
   5   3  -5   25.07    5.43
   4   3  -5    6.68    3.74
  -4  -3   5    4.50    3.12
   3   3  -5  177.10    8.62
  -3  -3   5  182.44    9.91
   2   3  -5    5.86    2.80
  -2  -3   5    6.15    2.57
   1   3  -5   25.58    2.96
   0   3  -5  109.40    5.96
  -1   3  -5   23.66    3.97
  -2   3  -5   22.40    2.92
  -3   3  -5   96.18    7.42
  -3   3  -5   89.95    5.49
  -4   3  -5   25.61    4.09
  -4   3  -5   35.65    4.87
  -5   3  -5   29.52    3.95
  -5   3  -5   30.39    6.03
  -6   3  -5    7.07    3.84
  -6   3  -5   11.24    3.94
  -8  -2   5   -2.14    3.68
   7   2  -5    6.78    4.90
  -7  -2   5    4.35    3.88
   6   2  -5   17.84    4.77
  -6  -2   5    5.60    3.85
  -5  -2   5   -3.44    2.28
   5   2  -5   -0.82    3.65
  -4  -2   5   45.34    4.66
   4   2  -5   42.41    4.53
  -3  -2   5   60.05    5.07
   3   2  -5   60.84    4.72
   2   2  -5   53.92    4.06
  -2  -2   5   49.24    4.27
   1   2  -5   80.40    4.76
   0   2  -5  254.08    9.42
  -1   2  -5   86.72    4.88
  -2   2  -5   30.18    3.05
  -3   2  -5    4.59    2.35
  -3   2  -5    4.11    2.66
  -4   2  -5    9.77    3.85
  -4   2  -5   12.75    3.14
  -5   2  -5   -1.47    2.55
  -5   2  -5   -0.21    2.61
  -6   2  -5    8.26    3.85
  -7   2  -5    1.58    2.87
  -8   2  -5    3.83    3.63
  -8  -1   5   -1.01    3.21
  -7  -1   5   -2.27    4.19
  -7  -1   5    1.88    3.23
  -6  -1   5   41.52    4.69
  -6  -1   5   46.62    5.48
  -5  -1   5   -0.36    2.38
  -5  -1   5   -4.10    3.51
  -4  -1   5   -0.56    1.70
  -4  -1   5   -6.22    2.55
  -3  -1   5   26.24    3.17
  -2  -1   5  159.74    8.09
   2   1  -5  161.16    7.25
   1   1  -5   27.43    2.73
   0   1  -5   19.63    2.26
  -1   1  -5   17.85    2.93
  -2   1  -5   89.54    4.63
  -3   1  -5   -1.48    2.09
  -3   1  -5    4.01    1.89
  -4   1  -5   -0.06    2.31
  -4   1  -5   -0.50    1.54
  -5   1  -5   32.88    4.59
  -5   1  -5   37.66    3.61
  -6   1  -5    7.21    3.97
  -7   1  -5    0.82    2.60
  -8   1  -5    1.73    3.34
  -9   1  -5    3.23    3.88
  -8   0   5   -0.08    3.48
  -7   0   5    1.25    3.72
  -7   0   5    2.17    3.65
  -6   0   5   12.23    4.18
  -6   0   5    7.33    3.31
  -5   0   5   59.68    5.60
  -5   0   5   56.01    5.19
  -4   0   5    0.83    2.01
  -4   0   5   -4.51    2.38
  -3   0   5   14.29    3.13
  -3   0   5    9.14    2.90
  -2   0   5   14.05    3.16
  -2   0   5   11.48    2.59
   0   0  -5  182.90    6.89
  -1   0  -5    5.72    1.68
  -2   0  -5   28.06    2.41
  -3   0  -5   69.29    5.72
  -3   0  -5   75.89    4.00
  -4   0  -5   53.55    5.25
  -4   0  -5   65.18    3.67
  -5   0  -5   21.94    4.64
  -5   0  -5   21.46    3.47
  -6   0  -5  440.64   19.58
  -7   0  -5   21.61    5.28
  -8   0  -5   21.92    5.48
  -9   0  -5    2.66    3.52
  -8   1   5   -4.10    3.66
  -7   1   5   -2.65    3.80
  -7   1   5    0.10    3.05
  -6   1   5   41.44    4.97
  -6   1   5   42.59    4.76
  -5   1   5  159.18    8.54
  -5   1   5  163.18    9.55
  -4   1   5   33.07    3.72
  -4   1   5   32.04    3.82
  -3   1   5   15.96    2.35
  -3   1   5   20.90    3.72
  -2   1   5  137.46    6.99
  -2   1   5  148.28    6.62
  -1   1   5  157.70    6.57
   0   1   5  273.42    9.13
  -1  -1  -5   99.09    4.19
  -2  -1  -5  614.70   17.00
  -3  -1  -5  325.94   14.27
  -3  -1  -5  332.25   10.11
  -4  -1  -5  220.13   11.31
  -4  -1  -5  228.66    7.60
  -5  -1  -5   67.39    5.85
  -6  -1  -5  343.00   16.30
  -7  -1  -5   26.86    5.37
  -8  -1  -5    4.37    3.79
  -9  -1  -5    1.63    3.33
 -10  -1  -5    1.62    3.30
  -8   2   5    3.08    4.58
  -7   2   5    3.23    4.05
  -6   2   5   27.77    4.13
  -6   2   5   21.85    4.78
  -5   2   5   12.96    4.09
  -5   2   5   16.80    4.44
  -4   2   5   37.10    3.90
  -4   2   5   40.01    4.10
  -3   2   5    0.28    1.84
  -3   2   5   -0.66    1.44
  -2   2   5  312.61   11.17
  -2   2   5  339.26   12.52
   2  -2  -5  309.79   11.08
  -1   2   5   91.72    4.60
   0   2   5  189.27    6.85
   1   2   5  247.90    7.88
  -2  -2  -5   79.23    3.34
  -3  -2  -5  191.43    6.20
  -3  -2  -5  194.94    9.71
  -4  -2  -5  351.75   15.11
  -4  -2  -5  347.75   10.08
  -5  -2  -5   14.25    3.59
  -6  -2  -5  112.19    8.28
  -7  -2  -5    1.70    3.01
  -8  -2  -5    5.10    3.38
  -9  -2  -5   28.73    6.20
 -10  -2  -5    7.11    4.49
  -8   3   5    2.21    4.47
  -7   3   5   -1.71    3.40
  -6   3   5   -0.07    3.09
  -5   3   5   58.35    5.18
  -5   3   5   51.55    4.99
  -4   3   5    1.71    2.94
  -4   3   5    1.31    2.37
  -3   3   5    3.89    1.94
  -3   3   5    6.05    2.57
  -2   3   5   12.34    2.67
  -2   3   5   12.95    2.32
   1  -3  -5    8.65    1.85
  -1   3   5   10.57    2.22
   0   3   5  133.67    5.37
   1   3   5  255.04    8.04
  -2  -3  -5  484.26   17.82
  -3  -3  -5   14.85    3.00
  -3  -3  -5   16.11    1.29
  -4  -3  -5   15.60    3.20
  -5  -3  -5    8.00    2.73
  -6  -3  -5  126.18    8.64
  -7  -3  -5   35.59    4.82
  -8  -3  -5    7.57    3.59
  -9  -3  -5    4.93    3.74
 -10  -3  -5    2.38    4.06
  -8   4   5    9.63    5.15
  -7   4   5   -0.19    3.23
  -6   4   5   -2.90    2.97
  -5   4   5    2.38    3.30
  -4   4   5   32.67    3.94
  -3   4   5    7.09    2.85
  -3   4   5    8.00    2.29
  -2   4   5   18.89    2.45
  -2   4   5   15.74    1.94
   2  -4  -5   18.14    1.95
   1  -4  -5  373.23   13.82
  -1   4   5  347.51   11.93
   0   4   5  104.14    4.79
   0  -4  -5  113.16    6.15
   1   4   5   72.84    3.36
   2   4   5   98.09    3.56
  -2  -4  -5   92.99    5.43
  -3  -4  -5  246.11   10.82
  -4  -4  -5    0.63    1.53
  -5  -4  -5   17.43    3.69
  -6  -4  -5   34.32    4.55
  -7  -4  -5   88.66    7.54
  -8  -4  -5   -1.60    2.54
  -9  -4  -5    3.25    3.32
 -10  -4  -5    1.98    3.71
  -7   5   5    0.06    3.53
  -6   5   5    5.13    3.72
  -5   5   5   11.45    4.07
  -4   5   5   -1.56    2.65
  -3   5   5   10.34    3.37
  -2   5   5   37.65    3.43
   2  -5  -5   36.63    3.06
  -1   5   5   29.40    2.89
   1  -5  -5   26.57    2.77
   0   5   5   78.78    4.29
   0  -5  -5   79.90    5.17
   1   5   5   36.35    2.49
  -1  -5  -5   41.30    2.96
  -1  -5  -5   36.71    3.57
  -2  -5  -5  100.72    5.42
   2   5   5   96.26    3.79
  -3  -5  -5  112.83    6.34
  -4  -5  -5   96.50    6.26
  -5  -5  -5   21.56    4.08
  -6  -5  -5   25.16    5.01
  -7  -5  -5   97.58    7.98
  -8  -5  -5   15.19    4.49
  -9  -5  -5   -0.39    3.04
 -10  -5  -5    2.93    3.53
  -6   6   5   11.40    4.50
  -5   6   5    2.71    3.29
  -4   6   5   10.95    4.44
  -3   6   5   34.24    5.21
   2  -6  -5   48.05    3.93
  -2   6   5   44.87    4.05
  -1   6   5  284.13   10.62
   1  -6  -5  276.42   12.10
   0  -6  -5   16.53    2.96
   0   6   5   24.33    3.47
   1   6   5   54.41    3.33
  -1  -6  -5   56.02    4.62
  -2  -6  -5   -0.77    1.08
   2   6   5    1.04    1.06
  -2  -6  -5    1.12    1.41
  -3  -6  -5  976.97   32.43
  -4  -6  -5    0.51    1.58
  -5  -6  -5    9.79    3.30
  -6  -6  -5   18.34    4.24
  -7  -6  -5  147.64    9.92
  -8  -6  -5   67.59    6.81
  -9  -6  -5    0.93    2.98
  -6   7   5    5.18    4.21
  -5   7   5    8.24    4.79
  -4   7   5   26.59    6.03
   3  -7  -5   19.06    3.68
  -3   7   5   17.16    4.56
  -2   7   5   27.76    3.53
   2  -7  -5   30.36    3.50
   1  -7  -5    9.85    2.46
  -1   7   5    5.71    2.58
   0   7   5  155.39    7.04
   0  -7  -5  161.25    8.72
  -1  -7  -5   24.96    3.19
   1   7   5   23.96    2.46
   2   7   5   63.49    3.46
  -2  -7  -5   60.90    5.14
  -2  -7  -5   57.53    3.75
  -3  -7  -5   57.62    5.26
  -3  -7  -5   60.82    4.37
  -4  -7  -5  167.11    8.64
  -4  -7  -5  158.67    9.81
  -5  -7  -5    1.82    2.14
  -5  -7  -5   -0.93    2.09
  -6  -7  -5   19.53    4.47
  -7  -7  -5    8.38    3.51
  -8  -7  -5   97.40    8.32
  -9  -7  -5   43.48    7.55
  -6   8   5    3.15    4.48
  -5   8   5    9.76    4.97
  -4   8   5   -3.80    3.40
   3  -8  -5    4.74    2.62
  -3   8   5    9.80    4.33
   2  -8  -5  120.35    7.78
  -2   8   5  125.77    7.39
  -1   8   5    2.86    2.34
   1  -8  -5   -0.65    1.41
   0   8   5  170.04    7.73
   0  -8  -5  156.94    9.12
  -1  -8  -5   32.24    3.71
   1   8   5   28.92    2.99
  -2  -8  -5    0.26    1.34
   2   8   5    0.23    1.42
  -3  -8  -5  121.61    6.23
  -3  -8  -5  106.20    7.59
  -4  -8  -5   23.02    4.22
  -4  -8  -5   24.49    3.11
  -5  -8  -5    0.97    1.99
  -5  -8  -5   -0.64    1.87
  -6  -8  -5    1.18    2.49
  -6  -8  -5   -1.88    1.96
  -7  -8  -5   19.29    4.56
  -7  -8  -5   12.99    4.04
  -8  -8  -5    1.81    3.32
  -9  -8  -5   31.88    6.69
  -5   9   5    3.82    4.75
  -4   9   5    7.32    5.09
  -3   9   5   44.68    5.17
   3  -9  -5   41.29    5.08
   2  -9  -5   64.97    5.95
  -2   9   5   70.35    5.77
   1  -9  -5    6.03    2.81
  -1   9   5    9.82    3.32
   0   9   5    0.47    2.19
   0  -9  -5   -0.57    1.57
   1   9   5    8.51    2.71
  -1  -9  -5    4.59    2.25
   2   9   5   13.65    3.05
  -3  -9  -5   51.81    5.28
  -4  -9  -5   57.38    5.66
  -5  -9  -5    0.08    1.78
  -5  -9  -5   -0.94    1.71
  -6  -9  -5   14.19    3.99
  -6  -9  -5    7.17    3.05
  -7  -9  -5    3.50    2.63
  -7  -9  -5    2.06    3.23
  -8  -9  -5   35.16    5.41
  -5  10   5    5.36    4.96
  -4  10   5    8.15    4.96
  -3  10   5    8.34    5.07
   3 -10  -5    4.57    3.63
   2 -10  -5    8.71    3.52
  -2  10   5    9.43    4.58
  -1  10   5   44.17    6.30
   1 -10  -5   27.96    4.18
   0 -10  -5    3.26    2.35
   0  10   5    5.91    3.15
  -1 -10  -5   56.38    5.57
   1  10   5   50.96    4.54
  -2 -10  -5   11.60    3.34
   2  10   5   15.57    3.45
  -3 -10  -5  127.16    8.82
  -4 -10  -5   26.56    4.06
  -5 -10  -5   79.32    7.08
  -6 -10  -5    2.10    2.94
  -7 -10  -5   10.87    3.79
  -7 -10  -5    6.19    3.90
  -8 -10  -5    6.18    4.18
  -9 -10  -5   -2.08    4.25
  -4  11   5    7.63    5.35
  -3  11   5    1.09    4.41
   2 -11  -5    4.57    3.53
  -2  11   5    9.97    4.50
  -1  11   5   39.80    4.71
   1 -11  -5   31.43    4.80
   0  11   5   21.70    4.42
   0 -11  -5   21.43    4.60
  -1 -11  -5   -0.82    1.96
   1  11   5    3.26    2.78
  -2 -11  -5    8.76    3.37
  -3 -11  -5   12.15    3.31
  -4 -11  -5    7.89    2.99
  -5 -11  -5   17.40    4.20
  -6 -11  -5    2.93    2.67
  -3  12   5   -2.27    4.46
  -2  12   5    6.95    4.83
   2 -12  -5    0.94    3.61
   1 -12  -5   -1.53    1.93
  -1  12   5    3.80    3.77
   0  12   5    5.22    3.69
   0 -12  -5   -0.48    2.70
   1  12   5   -3.71    2.69
  -1 -12  -5   -0.99    1.82
  -2 -12  -5    5.47    3.03
  -3 -12  -5   -1.18    2.08
  -4 -12  -5    2.96    2.81
  -5 -12  -5    6.40    3.23
  -6 -12  -5    1.49    2.64
  -2  13   5    7.51    5.37
   2 -13  -5    0.74    4.26
  -1  13   5    2.58    4.32
   1 -13  -5   -1.34    3.32
   0 -13  -5    8.43    3.62
   0  13   5   12.38    4.67
  -1 -13  -5    0.62    2.86
  -2 -13  -5    1.03    2.29
  -3 -13  -5   -0.89    2.29
  -4 -13  -5    2.03    2.84
  -5 -13  -5    7.87    3.33
  -6 -13  -5    3.27    3.07
  -1  14   5    4.15    5.32
   0  14   5    5.39    4.63
   0 -14  -5   -2.90    2.71
  -1 -14  -5   -1.76    2.88
  -2 -14  -5   -2.57    2.80
  -3 -14  -5   -0.19    2.21
  -4 -14  -5   11.35    4.31
  -5 -14  -5    2.58    3.11
   4   8  -6    1.24    5.69
   3   8  -6   -0.92    4.73
   2   8  -6    9.33    4.95
   0   8  -6   -0.27    3.75
  -1   8  -6   -0.13    3.95
  -2   8  -6   10.47    4.53
  -3   8  -6    4.08    4.33
   5   7  -6    6.82    5.71
   4   7  -6    6.95    5.02
   3   7  -6   -2.12    4.42
   2   7  -6   -2.14    3.79
   1   7  -6    8.32    4.42
   0   7  -6    5.73    4.27
  -1   7  -6    1.73    3.88
  -2   7  -6   68.84    5.96
  -3   7  -6   11.56    4.56
  -4   7  -6    1.92    4.39
  -5   7  -6    4.33    4.89
   5   6  -6   23.93    6.61
  -5  -6   6    3.24    3.51
   4   6  -6   15.18    5.51
   3   6  -6    8.28    4.68
   2   6  -6    0.04    3.63
   1   6  -6    4.94    3.61
   0   6  -6   19.96    4.89
  -1   6  -6    2.59    3.52
  -2   6  -6    0.43    3.10
  -3   6  -6   27.19    5.37
  -4   6  -6    1.32    3.85
  -5   6  -6    2.75    4.15
  -6   6  -6    3.01    4.74
   6   5  -6    8.06    5.31
  -6  -5   6    6.65    4.54
   5   5  -6    8.99    4.64
  -5  -5   6    6.43    3.73
   4   5  -6    6.07    4.46
  -4  -5   6    1.34    3.16
   3   5  -6   28.44    5.72
   2   5  -6    0.58    3.03
   1   5  -6   29.83    3.99
   0   5  -6   30.56    3.98
  -1   5  -6   -3.39    2.66
  -2   5  -6   -0.94    3.14
  -3   5  -6   25.94    4.91
  -4   5  -6   49.33    5.04
  -5   5  -6    1.44    3.82
  -6   5  -6    3.66    4.43
  -6  -4   6    3.83    4.15
   6   4  -6    9.57    4.83
  -5  -4   6   -1.95    3.01
   5   4  -6   -0.03    3.77
  -4  -4   6   23.58    3.83
   4   4  -6   33.43    5.76
   3   4  -6   13.95    4.24
   2   4  -6   40.03    5.77
   1   4  -6    8.14    3.65
   0   4  -6    6.64    3.29
  -1   4  -6   17.44    4.47
  -2   4  -6   -3.83    2.37
  -3   4  -6   -1.10    2.49
  -4   4  -6   44.92    4.43
  -4   4  -6   39.51    5.46
  -5   4  -6   -0.94    3.48
  -5   4  -6   -0.18    3.45
  -7  -3   6   11.51    4.62
  -6  -3   6   -0.54    2.80
   6   3  -6   -2.24    4.44
  -5  -3   6    7.05    3.75
   5   3  -6   10.86    4.66
  -4  -3   6   -2.76    2.45
   4   3  -6    2.32    3.69
   3   3  -6    9.62    3.93
  -3  -3   6   10.40    3.68
   2   3  -6   40.49    4.06
   1   3  -6   39.27    3.88
   0   3  -6    6.71    2.88
  -1   3  -6   -0.80    2.10
  -2   3  -6   46.78    4.14
  -3   3  -6   54.78    4.55
  -4   3  -6   49.76    4.24
  -4   3  -6   46.88    5.85
  -5   3  -6   25.29    4.96
  -5   3  -6   12.32    5.13
  -6   3  -6    0.02    3.19
  -7  -2   6    7.08    3.81
   7   2  -6   13.48    5.36
   6   2  -6   11.15    5.45
  -6  -2   6    4.99    3.56
  -5  -2   6   -0.34    2.44
   5   2  -6    2.56    4.15
   4   2  -6    0.13    3.92
  -4  -2   6    4.61    3.38
  -3  -2   6    0.12    2.01
   3   2  -6    0.19    2.92
   2   2  -6   56.65    4.50
   1   2  -6   23.48    3.77
   0   2  -6    5.17    2.43
  -1   2  -6    5.16    2.48
  -2   2  -6  136.30    6.63
  -3   2  -6   12.69    3.17
  -4   2  -6  180.38   11.35
  -4   2  -6  162.72    7.71
  -5   2  -6  162.14    8.04
  -5   2  -6  157.41   10.91
  -6   2  -6    0.20    2.66
  -7   2  -6    4.61    3.54
  -8   2  -6    0.97    3.74
  -7  -1   6    3.61    3.69
  -6  -1   6    0.94    3.17
  -5  -1   6   15.54    4.67
  -4  -1   6   12.18    3.89
   3   1  -6   21.38    4.81
  -3  -1   6   18.23    3.69
   2   1  -6    2.20    2.38
   1   1  -6    1.90    2.00
   0   1  -6    0.65    1.54
  -1   1  -6  350.52   11.84
  -2   1  -6   25.80    2.79
  -3   1  -6   26.18    2.85
  -4   1  -6    9.78    4.01
  -4   1  -6   15.30    3.13
  -5   1  -6   19.16    3.75
  -5   1  -6   15.05    4.94
  -6   1  -6   18.38    5.07
  -7   1  -6   -0.26    2.84
  -8   1  -6   -0.52    3.50
  -9   1  -6    2.92    4.47
  -7   0   6    8.36    4.80
  -7   0   6    5.73    4.09
  -6   0   6   28.71    5.58
  -6   0   6   20.85    4.97
  -5   0   6    8.64    3.46
  -5   0   6    9.35    4.05
  -4   0   6   21.71    4.62
  -4   0   6   20.34    3.26
  -3   0   6   20.52    3.73
  -3   0   6   15.48    4.12
  -2   0   6   11.95    2.89
   1   0  -6    6.32    2.80
   0   0  -6   22.93    3.16
  -1   0  -6  167.20    6.67
  -2   0  -6    4.16    2.03
  -3   0  -6   -0.57    1.36
  -3   0  -6   -0.75    2.19
  -4   0  -6    4.81    3.08
  -4   0  -6    7.01    2.28
  -5   0  -6  521.10   22.45
  -6   0  -6   61.62    6.40
  -7   0  -6    2.96    3.45
  -8   0  -6   15.86    4.92
  -9   0  -6   12.74    4.78
  -7   1   6   -0.13    3.53
  -7   1   6    0.94    3.43
  -6   1   6   15.71    4.49
  -6   1   6   18.67    4.99
  -5   1   6    6.67    3.59
  -5   1   6    2.37    2.83
  -4   1   6   26.48    3.54
  -4   1   6   25.96    3.68
  -3   1   6  206.43   10.29
  -3   1   6  226.22    9.51
  -2   1   6   46.25    3.98
  -2   1   6   59.13    4.16
  -1   1   6   23.03    3.54
   0  -1  -6  150.91    6.48
  -1  -1  -6   46.28    2.98
  -2  -1  -6  444.68   13.27
  -3  -1  -6   34.61    2.61
  -3  -1  -6   37.05    4.29
  -4  -1  -6   18.79    2.17
  -4  -1  -6   16.30    4.19
  -5  -1  -6  701.02   27.42
  -6  -1  -6   -0.81    2.58
  -7  -1  -6   35.36    6.61
  -8  -1  -6   21.48    6.00
  -9  -1  -6    3.19    3.97
  -7   2   6   -0.12    4.27
  -6   2   6    9.80    3.64
  -6   2   6    8.73    4.57
  -5   2   6   49.27    5.16
  -5   2   6   50.00    4.82
  -4   2   6    3.81    3.30
  -4   2   6    1.40    2.75
  -3   2   6   71.06    4.93
  -3   2   6   65.92    5.03
  -2   2   6   33.67    3.25
  -2   2   6   33.10    3.19
  -1   2   6   17.79    2.28
   0   2   6   82.80    4.37
  -1  -2  -6    2.51    1.73
  -2  -2  -6   19.75    1.94
  -3  -2  -6    1.46    1.21
  -3  -2  -6    0.17    1.32
  -4  -2  -6   32.99    2.34
  -4  -2  -6   34.40    4.22
  -5  -2  -6   32.64    4.42
  -6  -2  -6  174.75   10.78
  -7  -2  -6    0.29    2.50
  -8  -2  -6    4.74    3.75
  -9  -2  -6   -0.13    3.04
  -7   3   6    9.18    4.13
  -6   3   6    2.29    3.71
  -5   3   6    2.66    2.89
  -5   3   6    1.26    3.47
  -4   3   6   -3.27    1.86
  -4   3   6   -2.84    2.96
  -3   3   6    5.53    2.28
  -3   3   6    6.23    2.89
  -2   3   6    1.11    1.58
  -1   3   6   79.02    4.46
   0   3   6  103.40    4.85
   1   3   6  208.41    7.30
  -2  -3  -6  118.69    4.64
  -3  -3  -6   35.79    3.76
  -4  -3  -6   12.99    3.32
  -5  -3  -6  152.00    9.26
  -6  -3  -6  163.81   10.24
  -7  -3  -6    5.46    2.81
  -8  -3  -6    7.71    4.02
  -9  -3  -6    5.06    3.28
 -10  -3  -6    2.50    3.79
  -7   4   6   -0.13    4.14
  -6   4   6   10.55    4.68
  -5   4   6    2.28    3.36
  -4   4   6   12.88    3.91
  -3   4   6    7.41    2.54
  -3   4   6    4.79    2.93
  -2   4   6    8.94    2.62
   1  -4  -6   20.36    2.39
  -1   4   6   19.62    3.07
   0   4   6  168.25    6.67
   1   4   6  140.28    5.46
   2   4   6  247.74    7.78
  -2  -4  -6  248.64   10.95
  -3  -4  -6   88.63    5.95
  -3  -4  -6   84.83    3.20
  -4  -4  -6   14.61    3.23
  -5  -4  -6    3.83    2.72
  -6  -4  -6   74.30    6.49
  -7  -4  -6   50.34    5.71
  -8  -4  -6   -2.01    2.68
  -9  -4  -6   -2.07    3.31
 -10  -4  -6    1.45    3.53
  -6   5   6    6.23    4.48
  -5   5   6    3.09    3.62
  -4   5   6   -0.90    3.41
  -3   5   6   45.37    4.42
  -2   5   6   15.70    3.34
   2  -5  -6   13.02    2.04
   1  -5  -6    6.34    2.02
  -1   5   6    6.43    2.33
   0  -5  -6   46.58    4.08
   0   5   6   49.40    3.38
  -1  -5  -6    5.69    1.78
   1   5   6    5.86    1.71
   2   5   6    0.33    0.92
  -2  -5  -6    0.49    1.25
  -3  -5  -6   45.12    4.03
  -4  -5  -6    1.53    2.12
  -5  -5  -6   88.46    6.55
  -6  -5  -6  120.08    8.54
  -7  -5  -6    1.24    2.72
  -8  -5  -6   -0.09    2.95
  -9  -5  -6    2.36    3.53
  -7   6   6   -0.75    3.98
  -6   6   6   -2.27    3.79
  -5   6   6   -0.67    3.48
  -4   6   6   10.86    4.13
  -3   6   6    2.79    3.33
   2  -6  -6   11.30    2.44
  -2   6   6   11.09    3.46
   1  -6  -6  134.49    7.38
  -1   6   6  123.25    6.47
   0  -6  -6    0.73    1.29
   0   6   6    3.29    1.76
  -1  -6  -6  157.49    7.25
  -1  -6  -6  159.07    8.95
   1   6   6  166.43    6.54
   2   6   6    1.42    1.12
  -2  -6  -6    0.95    1.60
  -2  -6  -6    0.35    1.18
  -3  -6  -6   24.08    2.91
  -4  -6  -6    0.08    1.57
  -5  -6  -6  107.29    7.45
  -6  -6  -6  109.34    8.14
  -7  -6  -6   88.54    7.70
  -8  -6  -6    7.06    3.90
  -9  -6  -6    0.21    3.16
  -6   7   6   -1.01    4.20
  -5   7   6   40.24    6.86
  -4   7   6   14.59    5.18
  -3   7   6   25.46    5.19
   2  -7  -6   35.68    3.85
  -2   7   6   39.41    4.24
  -1   7   6   31.31    3.57
   1  -7  -6   31.05    3.60
   0   7   6   42.31    3.63
   0  -7  -6   42.57    4.25
  -1  -7  -6   28.05    3.55
   1   7   6   26.55    2.78
  -2  -7  -6   80.92    6.35
   2   7   6   73.31    3.96
  -2  -7  -6   80.17    4.79
  -3  -7  -6   90.26    7.11
  -3  -7  -6   95.66    5.86
  -4  -7  -6   -0.23    1.48
  -5  -7  -6   28.70    3.68
  -6  -7  -6    3.09    2.84
  -7  -7  -6   73.75    6.89
  -8  -7  -6    4.00    3.47
  -9  -7  -6    0.36    3.44
  -6   8   6   -6.01    4.39
  -5   8   6   -1.33    3.98
  -4   8   6    6.45    4.58
  -3   8   6   -1.21    3.50
  -2   8   6    5.56    3.31
   2  -8  -6    5.67    2.48
   1  -8  -6   29.26    3.77
  -1   8   6   27.30    3.65
   0  -8  -6  229.33   11.76
   0   8   6  232.56    9.70
  -1  -8  -6    3.37    2.05
   1   8   6    2.53    1.88
  -2  -8  -6    5.80    2.47
   2   8   6    7.43    2.18
  -3  -8  -6    6.34    2.11
  -3  -8  -6    1.63    1.96
  -4  -8  -6    4.03    2.78
  -5  -8  -6   18.10    4.03
  -5  -8  -6   10.30    3.68
  -6  -8  -6   18.91    4.31
  -6  -8  -6    9.89    3.87
  -7  -8  -6   10.16    3.91
  -7  -8  -6   16.97    4.73
  -8  -8  -6   26.80    5.77
  -9  -8  -6   27.01    6.37
  -5   9   6   23.63    6.40
  -4   9   6    0.36    4.39
  -3   9   6   15.49    4.99
  -2   9   6   37.50    4.48
   2  -9  -6   36.37    4.64
   1  -9  -6   32.28    4.22
  -1   9   6   36.59    4.04
   0   9   6  146.84    7.71
   0  -9  -6  162.41    9.79
   1   9   6   32.81    4.39
  -1  -9  -6   21.75    4.26
   2   9   6    9.61    2.47
  -2  -9  -6    6.24    2.74
  -3  -9  -6   12.81    3.45
  -4  -9  -6    1.15    1.76
  -5  -9  -6   21.36    4.45
  -5  -9  -6   31.33    5.01
  -6  -9  -6    1.79    2.62
  -6  -9  -6    5.53    2.95
  -7  -9  -6   30.96    5.99
  -8  -9  -6   48.73    6.05
  -9  -9  -6    1.34    4.05
  -4  10   6   -3.74    4.64
  -3  10   6   -0.62    3.87
  -2  10   6    8.93    4.04
   2 -10  -6    7.05    3.13
   1 -10  -6   17.06    4.03
  -1  10   6   17.99    4.70
   0  10   6    5.92    3.24
   0 -10  -6    7.29    2.93
   1  10   6   28.45    3.51
  -1 -10  -6   28.10    4.04
  -2 -10  -6    0.57    1.88
  -3 -10  -6   79.92    6.96
  -4 -10  -6   15.73    3.82
  -5 -10  -6   37.90    4.98
  -6 -10  -6    5.66    2.90
  -7 -10  -6   23.01    5.49
  -7 -10  -6   19.82    4.76
  -8 -10  -6    1.57    3.44
  -9 -10  -6   15.68    5.26
  -4  11   6    1.35    5.15
  -3  11   6   -3.88    4.18
   2 -11  -6   -0.37    2.67
  -2  11   6    4.10    4.05
  -1  11   6   16.19    4.89
   1 -11  -6   10.02    3.45
   0 -11  -6    2.77    2.46
   0  11   6    9.50    3.48
   1  11   6   36.33    5.12
  -1 -11  -6   25.69    4.81
  -2 -11  -6   65.06    6.43
  -3 -11  -6   37.54    4.95
  -4 -11  -6   20.35    4.67
  -5 -11  -6    1.55    2.33
  -6 -11  -6    2.28    2.63
  -7 -11  -6    4.55    3.16
  -3  12   6    0.94    4.78
  -2  12   6   -3.21    4.38
   2 -12  -6    4.01    3.70
  -1  12   6    0.52    3.67
   1 -12  -6   -1.58    2.39
   0  12   6   22.69    5.01
   0 -12  -6   21.28    4.96
  -1 -12  -6    0.65    1.93
  -2 -12  -6    1.09    2.03
  -3 -12  -6    1.82    2.24
  -4 -12  -6    0.54    2.20
  -5 -12  -6    2.57    2.70
  -6 -12  -6   -1.92    2.20
  -7 -12  -6    1.45    2.88
  -2  13   6    5.42    4.83
   2 -13  -6   -3.52    3.39
   1 -13  -6   14.34    5.16
  -1  13   6   20.81    5.39
   0  13   6    3.61    4.00
   0 -13  -6    0.13    2.57
  -1 -13  -6   -0.44    2.30
  -2 -13  -6    0.39    2.15
  -3 -13  -6    0.38    1.99
  -4 -13  -6   -1.21    2.41
  -5 -13  -6   -0.14    2.50
  -6 -13  -6    5.72    3.39
  -1  14   6    7.96    5.53
   0 -14  -6   -2.19    3.05
  -1 -14  -6    7.87    3.98
  -2 -14  -6    1.30    2.59
  -3 -14  -6    0.66    2.47
  -4 -14  -6    8.01    3.56
  -5 -14  -6    3.79    2.97
   0   8  -7   -0.69    4.06
   3   7  -7    5.52    5.09
   2   7  -7    6.68    4.48
   1   7  -7    5.29    4.31
   0   7  -7   -3.46    3.63
  -1   7  -7    0.33    3.74
  -2   7  -7    9.06    4.47
  -3   7  -7   58.32    5.67
   4   6  -7   19.51    6.24
   3   6  -7   -4.09    3.81
   2   6  -7    0.20    4.12
   1   6  -7   -0.42    3.49
   0   6  -7    6.06    3.97
  -1   6  -7    3.17    3.51
  -2   6  -7   15.65    4.89
  -3   6  -7   21.45    5.18
  -4   6  -7   18.26    5.18
  -5   6  -7    6.10    4.57
  -5  -5   7    2.10    3.68
   5   5  -7    8.80    5.13
   4   5  -7    5.83    4.66
   3   5  -7   -0.84    3.76
   2   5  -7   -0.01    3.38
   1   5  -7   -1.11    3.05
   0   5  -7    2.49    3.15
  -1   5  -7   -0.50    3.17
  -2   5  -7    6.10    3.74
  -3   5  -7   37.81    4.42
  -4   5  -7    1.23    3.43
  -5   5  -7    0.26    4.16
   6   4  -7   11.17    5.60
  -5  -4   7    3.12    4.21
   5   4  -7    7.26    4.75
   4   4  -7   -0.40    3.93
   3   4  -7    7.82    4.04
   2   4  -7    1.02    2.90
   1   4  -7    1.07    2.99
   0   4  -7   95.89    6.48
  -1   4  -7    8.31    3.76
  -2   4  -7   -0.46    2.93
  -3   4  -7   37.63    6.06
  -4   4  -7   50.35    4.81
  -4   4  -7   63.19    7.21
  -5   4  -7   -5.72    3.44
  -5   4  -7   -0.32    3.44
   6   3  -7    6.77    5.34
  -6  -3   7    0.41    3.90
  -5  -3   7    3.75    3.54
   5   3  -7    5.07    4.67
   4   3  -7    0.62    3.79
  -4  -3   7    0.41    3.17
   3   3  -7   36.68    4.35
   2   3  -7   23.97    4.70
   1   3  -7   63.80    5.02
   0   3  -7   90.83    5.95
  -1   3  -7   72.32    5.29
  -2   3  -7   -2.57    2.57
  -3   3  -7    0.30    2.65
  -4   3  -7   27.92    3.64
  -4   3  -7   32.05    6.73
  -5   3  -7    0.42    3.90
  -5   3  -7   -1.34    3.17
  -6   3  -7    1.13    3.81
   7   2  -7    0.78    5.66
   6   2  -7    3.04    5.27
  -6  -2   7   -3.21    3.77
   5   2  -7   -0.93    4.29
  -5  -2   7   -2.65    2.78
  -4  -2   7   -1.03    2.44
   4   2  -7    1.75    4.12
   3   2  -7   -3.67    3.04
   2   2  -7   40.40    4.33
   1   2  -7    9.05    3.12
   0   2  -7  160.66    7.67
  -1   2  -7   26.81    4.36
  -2   2  -7   89.21    5.47
  -3   2  -7   -0.21    2.28
  -4   2  -7   30.46    6.57
  -4   2  -7   24.61    3.32
  -5   2  -7    8.54    4.87
  -5   2  -7   14.34    3.93
  -6   2  -7    2.43    3.35
  -7   2  -7    3.87    3.89
  -8   2  -7   13.74    5.33
  -7  -1   7    0.15    3.85
   7   1  -7   11.37    6.66
  -6  -1   7    9.29    4.17
   6   1  -7   23.87    7.76
  -5  -1   7    3.95    3.23
   5   1  -7    8.11    5.93
   4   1  -7   -2.33    4.34
  -4  -1   7   -0.11    2.36
   3   1  -7   16.15    5.37
  -3  -1   7   14.70    3.98
   2   1  -7   11.82    4.00
   1   1  -7   11.94    3.41
   0   1  -7   -1.22    1.69
  -1   1  -7   67.33    4.41
  -2   1  -7    1.46    2.28
  -3   1  -7   29.33    4.20
  -4   1  -7   56.14    4.31
  -4   1  -7   47.94    5.92
  -5   1  -7  118.93    9.59
  -6   1  -7    4.75    3.48
  -7   1  -7   10.87    4.84
  -8   1  -7   -0.42    3.86
  -9   1  -7   -1.11    3.69
  -7   0   7    3.94    5.07
  -7   0   7    6.28    4.46
  -6   0   7    1.27    4.59
  -6   0   7    5.14    3.60
  -5   0   7    2.33    4.26
  -5   0   7    9.11    3.78
  -4   0   7   11.64    3.49
  -4   0   7   20.72    4.91
  -3   0   7   21.14    4.43
   2   0  -7   58.55    5.56
   1   0  -7   30.11    3.42
   0   0  -7   -1.85    1.75
  -1   0  -7   29.01    2.81
  -2   0  -7   44.32    3.48
  -3   0  -7   56.07    3.81
  -4   0  -7   34.82    4.86
  -4   0  -7   43.63    3.53
  -5   0  -7   38.88    5.49
  -6   0  -7   -2.46    2.79
  -7   0  -7   55.56    6.63
  -8   0  -7   43.06    6.09
  -9   0  -7   -0.40    3.75
  -7   1   7    3.06    4.70
  -7   1   7    2.16    3.75
  -6   1   7   -3.03    4.25
  -6   1   7   -1.24    3.23
  -5   1   7   -2.36    2.28
  -5   1   7   -0.86    3.58
  -4   1   7   54.69    4.90
  -4   1   7   57.02    5.53
  -3   1   7   56.83    4.86
  -3   1   7   59.04    5.07
  -2   1   7    1.95    2.45
   0  -1  -7    6.85    2.90
  -1  -1  -7   98.40    4.98
  -2  -1  -7  181.34    7.01
  -3  -1  -7   -0.34    1.59
  -3  -1  -7    0.55    2.09
  -4  -1  -7    1.03    1.72
  -4  -1  -7   -0.30    2.17
  -5  -1  -7   27.67    5.71
  -6  -1  -7   61.55    6.47
  -7  -1  -7   44.54    5.93
  -8  -1  -7   46.81    6.07
  -9  -1  -7   19.49    5.51
  -7   2   7    2.91    4.01
  -6   2   7   -0.14    4.13
  -6   2   7   -1.33    3.04
  -5   2   7    4.14    3.53
  -5   2   7    2.11    3.20
  -4   2   7    3.76    2.78
  -4   2   7    6.82    3.68
  -3   2   7  161.47    8.01
  -3   2   7  145.49    8.50
  -2   2   7   63.49    4.55
  -1   2   7    6.87    2.39
   0   2   7   90.47    4.90
  -1  -2  -7   31.49    2.93
  -2  -2  -7  269.76    9.07
  -3  -2  -7    1.92    2.22
  -3  -2  -7    7.99    2.05
  -4  -2  -7   27.24    3.90
  -5  -2  -7   32.21    4.60
  -6  -2  -7    5.43    3.20
  -7  -2  -7    1.91    3.11
  -8  -2  -7   11.05    4.49
  -9  -2  -7    4.62    4.63
  -7   3   7   -0.61    4.12
  -6   3   7   -1.71    3.76
  -5   3   7   -2.62    3.23
  -4   3   7   -2.99    2.07
  -4   3   7   -1.59    2.90
  -3   3   7   13.71    3.63
  -3   3   7   11.49    3.33
  -2   3   7    0.49    2.23
  -1   3   7    1.01    1.81
   0   3   7   44.07    3.27
   1   3   7   41.07    2.99
  -2  -3  -7  141.71    5.64
  -3  -3  -7   24.60    2.03
  -3  -3  -7   20.87    3.18
  -4  -3  -7    1.41    2.11
  -5  -3  -7    2.51    2.87
  -6  -3  -7    3.69    3.13
  -7  -3  -7    4.99    3.55
  -8  -3  -7    7.23    3.97
  -6   4   7    6.62    4.31
  -5   4   7    1.04    3.56
  -4   4   7    1.29    3.37
  -3   4   7   15.26    3.83
  -2   4   7   63.56    4.63
   1  -4  -7   40.52    3.48
  -1   4   7   39.12    3.42
   0   4   7   45.06    3.23
   1   4   7   50.50    3.21
  -2  -4  -7  133.15    7.82
   2   4   7  144.14    5.47
  -3  -4  -7   67.93    5.49
  -3  -4  -7   72.82    3.25
  -4  -4  -7   -0.14    1.67
  -5  -4  -7    2.23    2.14
  -6  -4  -7   46.56    5.31
  -7  -4  -7    6.86    3.65
  -8  -4  -7    6.36    4.08
  -9  -4  -7   -1.89    2.93
  -6   5   7    8.23    4.57
  -5   5   7    8.97    4.63
  -4   5   7   -2.24    3.41
  -3   5   7   39.80    4.37
  -2   5   7   -0.16    2.12
   1  -5  -7   41.92    3.64
  -1   5   7   34.37    3.24
   0   5   7    9.11    2.41
   0  -5  -7    8.88    2.35
   1   5   7    0.89    1.39
  -2  -5  -7   17.16    3.30
   2   5   7   14.70    1.76
  -3  -5  -7    7.48    2.73
  -4  -5  -7   14.39    3.39
  -5  -5  -7   19.04    4.08
  -6  -5  -7   17.71    4.41
  -7  -5  -7   68.28    6.86
  -8  -5  -7   26.04    6.00
  -9  -5  -7    1.29    3.44
  -6   6   7   15.67    5.20
  -5   6   7   -0.84    3.68
  -4   6   7   34.00    4.55
  -3   6   7   -1.86    2.88
  -2   6   7   28.03    3.64
  -1   6   7   37.26    3.68
   1  -6  -7   37.91    3.80
   0   6   7   31.79    3.03
   0  -6  -7   30.38    3.53
  -1  -6  -7  203.33   10.82
  -1  -6  -7  207.54    9.25
   1   6   7  210.70    7.86
   2   6   7    7.57    1.86
  -2  -6  -7   10.14    2.67
  -3  -6  -7   18.14    2.77
  -4  -6  -7   -0.06    1.73
  -5  -6  -7   47.26    4.88
  -6  -6  -7   -0.56    1.88
  -7  -6  -7    2.81    3.16
  -8  -6  -7    7.04    3.72
  -9  -6  -7    1.11    2.98
  -6   7   7    5.01    5.24
  -5   7   7   -1.76    3.90
  -4   7   7   -0.89    3.93
  -3   7   7    8.14    3.47
  -2   7   7   55.19    4.92
  -1   7   7    5.42    2.76
   1  -7  -7    4.37    2.04
   0  -7  -7   50.36    4.78
   0   7   7   56.54    4.20
  -1  -7  -7   47.12    4.79
   1   7   7   47.79    3.49
  -2  -7  -7  167.17    8.17
  -2  -7  -7  167.24   10.09
   2   7   7  169.33    6.56
  -3  -7  -7   62.36    4.80
  -4  -7  -7   38.47    4.09
  -5  -7  -7   18.23    4.24
  -6  -7  -7   16.50    4.66
  -7  -7  -7   21.67    5.43
  -8  -7  -7    7.45    3.78
  -9  -7  -7    2.47    3.76
  -5   8   7   16.49    5.73
  -4   8   7    3.98    4.45
  -3   8   7   -5.52    2.98
   2  -8  -7   -0.32    1.69
  -2   8   7   -4.86    2.65
  -1   8   7   27.94    3.61
   1  -8  -7   36.40    4.23
   0   8   7   47.31    4.30
   0  -8  -7   45.72    4.81
  -1  -8  -7   10.49    3.03
   1   8   7   14.55    3.14
  -2  -8  -7   29.27    4.02
   2   8   7   34.96    2.99
  -3  -8  -7    3.21    2.64
  -4  -8  -7   10.91    3.56
  -4  -8  -7   13.56    3.51
  -5  -8  -7   21.79    4.52
  -6  -8  -7   21.89    4.75
  -7  -8  -7    1.74    2.89
  -8  -8  -7    7.07    4.04
  -9  -8  -7    4.66    4.39
  -5   9   7    4.05    5.01
  -4   9   7   -0.41    4.29
  -3   9   7   -1.34    3.56
  -2   9   7   -1.86    3.07
   2  -9  -7    2.25    2.28
   1  -9  -7  172.89   10.06
  -1   9   7  156.27    8.66
   0   9   7  193.65    9.13
   0  -9  -7  197.25   11.32
  -1  -9  -7   -0.45    2.17
   1   9   7    3.98    2.22
  -2  -9  -7   17.17    4.06
  -3  -9  -7  158.87   10.47
  -4  -9  -7    0.54    2.09
  -5  -9  -7    7.68    3.56
  -5  -9  -7    9.09    3.20
  -6  -9  -7    6.88    3.48
  -6  -9  -7    7.80    3.21
  -7  -9  -7    3.70    2.96
  -7  -9  -7    5.45    3.34
  -8  -9  -7    0.99    2.95
  -8  -9  -7   -0.28    2.72
  -9  -9  -7    1.12    3.80
  -4  10   7    6.17    4.77
  -3  10   7    0.72    4.06
   2 -10  -7   27.48    4.94
  -2  10   7   28.95    6.14
   1 -10  -7    0.36    1.97
  -1  10   7   -2.22    2.57
   0 -10  -7   40.54    5.02
   0  10   7   41.96    4.39
   1  10   7   21.33    4.01
  -1 -10  -7   15.07    3.95
  -2 -10  -7   -1.42    1.93
  -3 -10  -7   59.76    6.21
  -4 -10  -7    9.63    3.61
  -5 -10  -7   53.40    6.32
  -6 -10  -7   35.56    5.38
  -7 -10  -7   30.28    5.92
  -7 -10  -7   30.64    6.09
  -8 -10  -7    0.61    3.62
  -8 -10  -7    1.04    3.12
  -9 -10  -7    7.95    4.96
  -3  11   7    0.66    4.67
   2 -11  -7   -0.73    2.45
  -2  11   7   -0.43    3.69
   1 -11  -7   27.39    4.31
  -1  11   7   37.20    6.20
   0  11   7   24.45    4.82
   0 -11  -7   19.37    4.41
   1  11   7   30.44    5.04
  -1 -11  -7   22.16    4.78
  -2 -11  -7   20.31    4.50
  -3 -11  -7   35.53    4.77
  -4 -11  -7   28.49    4.46
  -5 -11  -7   20.80    4.96
  -6 -11  -7    0.90    2.57
  -3  12   7   -2.01    4.89
   2 -12  -7   -1.57    2.49
  -2  12   7    4.93    4.69
  -1  12   7    4.35    4.08
   1 -12  -7    3.95    3.24
   0 -12  -7   -0.98    1.86
   0  12   7   -0.60    3.02
  -1 -12  -7    0.93    2.49
  -2 -12  -7   11.83    3.78
  -3 -12  -7    5.15    3.02
  -4 -12  -7   72.29    7.22
  -5 -12  -7    1.29    2.10
  -6 -12  -7    3.56    3.04
  -7 -12  -7    2.95    3.39
   2 -13  -7   -3.49    3.07
  -2  13   7   -2.00    4.67
   1 -13  -7    1.43    3.42
  -1  13   7   20.74    5.43
   0 -13  -7   -2.19    2.52
   0  13   7    0.44    3.70
  -1 -13  -7   -0.89    2.19
  -2 -13  -7   -1.19    1.81
  -3 -13  -7    6.26    3.34
  -4 -13  -7    0.71    2.32
  -5 -13  -7   17.92    4.66
  -6 -13  -7   -0.36    2.47
  -7 -13  -7    2.39    3.28
  -1  14   7    5.02    4.99
   1 -14  -7   -0.21    3.27
   0 -14  -7   16.13    5.02
  -1 -14  -7    1.82    3.26
  -2 -14  -7    1.37    2.75
  -3 -14  -7   -0.42    2.59
  -4 -14  -7   38.22    5.76
  -5 -14  -7   -0.32    2.69
   3   6  -8    7.70    4.91
   2   6  -8    1.18    4.78
   1   6  -8    9.67    4.44
   0   6  -8    7.51    4.23
  -1   6  -8    3.04    3.76
  -2   6  -8    3.18    4.06
  -3   6  -8   17.15    5.39
  -4   6  -8    6.65    4.37
   4   5  -8    4.15    4.71
   3   5  -8   -0.13    4.10
   2   5  -8   -0.05    3.55
   1   5  -8   -2.15    3.08
   0   5  -8   14.24    4.37
  -1   5  -8    8.89    4.17
  -2   5  -8    2.14    3.90
  -3   5  -8    3.12    4.44
  -4   5  -8   16.16    4.60
  -5   5  -8    2.28    4.01
   5   4  -8    1.06    4.79
   4   4  -8    8.04    4.72
   3   4  -8   -0.55    4.00
   2   4  -8    3.06    3.51
   1   4  -8   20.43    4.88
   0   4  -8    7.28    3.63
  -1   4  -8   -1.64    2.84
  -2   4  -8    9.04    4.75
  -3   4  -8   41.72    4.72
  -4   4  -8   11.67    5.04
  -4   4  -8    9.85    4.11
  -5   4  -8   -3.07    4.04
  -5   4  -8    2.40    3.77
   5   3  -8   10.46    5.39
   4   3  -8   -2.21    4.44
   3   3  -8    9.04    4.41
   2   3  -8   -0.44    3.09
   1   3  -8   24.09    4.78
   0   3  -8   11.10    4.09
  -1   3  -8   29.39    5.31
  -2   3  -8   10.87    3.93
  -3   3  -8    0.65    3.06
  -4   3  -8    7.82    3.66
  -4   3  -8   10.98    5.28
  -5   3  -8    0.88    3.37
  -5   3  -8    1.28    3.97
  -6   3  -8    0.44    4.21
   6   2  -8    2.19    6.34
  -6  -2   8    2.30    3.87
   5   2  -8   -0.59    5.38
   4   2  -8    5.20    4.31
   3   2  -8   -0.66    3.27
   2   2  -8    9.61    4.06
   1   2  -8   10.63    3.91
   0   2  -8   75.98    5.42
  -1   2  -8    7.92    3.58
  -2   2  -8  100.07    6.15
  -3   2  -8    3.14    2.81
  -4   2  -8   74.74    8.07
  -4   2  -8   73.80    5.37
  -5   2  -8    3.05    4.22
  -6   2  -8   -1.36    3.23
  -7   2  -8    2.87    4.18
  -8   2  -8    3.35    4.35
   6   1  -8    1.34    8.36
  -6  -1   8   -4.30    3.40
   5   1  -8   -5.15    6.29
  -5  -1   8    0.80    3.46
   4   1  -8   28.18    7.64
   3   1  -8    6.53    4.71
   2   1  -8    7.23    4.09
   1   1  -8    2.45    2.85
   0   1  -8    0.01    2.51
  -1   1  -8   14.81    3.80
  -2   1  -8    2.63    2.62
  -3   1  -8   -1.82    1.90
  -4   1  -8   32.50    3.64
  -4   1  -8   36.88    7.22
  -5   1  -8   -1.30    4.03
  -6   1  -8   -0.67    3.77
  -7   1  -8    0.37    3.46
  -8   1  -8    5.11    4.03
  -6   0   8   -0.17    3.65
  -5   0   8   -0.22    3.07
  -4   0   8    2.67    3.03
   4   0  -8   13.97   10.25
   3   0  -8    0.78    6.68
   2   0  -8   50.92    5.98
   1   0  -8   32.42    5.50
   0   0  -8   18.29    3.95
  -1   0  -8   -1.69    1.78
  -2   0  -8   -1.97    1.71
  -3   0  -8    1.34    2.12
  -4   0  -8   -1.84    2.57
  -4   0  -8    0.71    2.13
  -5   0  -8   17.36    5.70
  -6   0  -8   11.72    5.20
  -7   0  -8   29.57    6.35
  -8   0  -8    8.44    4.88
  -9   0  -8   10.23    4.68
  -6   1   8    1.88    4.48
  -6   1   8    3.32    3.60
  -5   1   8   -0.67    2.95
  -5   1   8   -2.55    3.78
  -4   1   8    0.07    3.53
  -4   1   8    2.67    2.91
  -3   1   8    0.05    3.48
   1  -1  -8  212.85   11.48
   0  -1  -8    5.05    2.90
  -1  -1  -8    1.71    2.26
  -2  -1  -8   26.98    2.79
  -3  -1  -8   21.04    2.62
  -4  -1  -8   40.97    5.32
  -5  -1  -8   17.34    5.30
  -6  -1  -8    6.65    3.63
  -7  -1  -8   33.15    7.06
  -8  -1  -8   20.35    5.64
  -9  -1  -8    3.42    3.96
  -6   2   8    7.58    4.11
  -6   2   8    0.16    4.12
  -5   2   8   -3.86    3.46
  -5   2   8   -0.82    2.98
  -4   2   8    1.13    3.40
  -4   2   8    1.99    2.68
  -3   2   8  102.70    6.54
  -2   2   8    0.77    2.41
  -1   2   8  134.77    6.97
   0  -2  -8   40.44    5.16
  -1  -2  -8   97.60    5.50
  -2  -2  -8   43.98    3.30
  -3  -2  -8   -0.01    2.35
  -3  -2  -8   -0.16    1.43
  -4  -2  -8   32.30    4.61
  -5  -2  -8   18.28    5.09
  -6  -2  -8    8.92    4.43
  -7  -2  -8   11.55    4.47
  -8  -2  -8   16.52    5.43
  -9  -2  -8    0.10    4.12
  -6   3   8    2.86    4.53
  -5   3   8   -0.13    4.11
  -4   3   8    3.16    2.99
  -4   3   8    5.12    3.78
  -3   3   8   -1.62    2.60
  -2   3   8    2.21    2.48
  -1   3   8    5.22    2.43
   0   3   8   21.91    3.48
  -2  -3  -8  103.54    5.05
  -3  -3  -8    7.30    3.24
  -3  -3  -8    6.56    1.99
  -4  -3  -8    0.92    2.62
  -5  -3  -8    3.87    2.86
  -6  -3  -8    3.39    2.82
  -7  -3  -8    2.74    3.27
  -8  -3  -8    4.06    3.71
  -9  -3  -8   -3.55    3.75
  -6   4   8   11.90    5.24
  -5   4   8   -3.17    4.00
  -4   4   8   -2.85    3.48
  -3   4   8   74.62    5.59
  -2   4   8   -1.94    2.13
  -1   4   8   -0.71    1.81
   0   4   8    4.72    2.13
   1   4   8  425.53   13.63
  -3  -4  -8   60.90    5.55
  -4  -4  -8   17.04    4.39
  -5  -4  -8   28.15    4.28
  -6  -4  -8    5.68    3.66
  -7  -4  -8    3.52    3.18
  -8  -4  -8    2.14    3.72
  -9  -4  -8    1.14    4.48
  -6   5   8   -1.31    4.64
  -5   5   8   -2.50    4.02
  -4   5   8   -0.19    3.61
  -3   5   8   14.55    4.33
  -2   5   8   31.47    5.06
  -1   5   8   47.21    3.98
   0   5   8    0.64    1.74
   0  -5  -8    0.24    1.51
   1   5   8    3.74    2.00
  -2  -5  -8   38.57    4.12
   2   5   8   40.47    2.91
  -3  -5  -8    1.46    1.89
  -4  -5  -8    7.18    3.13
  -5  -5  -8    3.03    2.52
  -6  -5  -8    6.94    3.41
  -7  -5  -8   31.52    6.10
  -8  -5  -8    3.93    3.88
  -9  -5  -8    4.47    3.61
  -6   6   8    6.54    5.04
  -5   6   8   20.11    5.51
  -4   6   8   16.24    5.09
  -3   6   8   37.40    6.00
  -2   6   8   66.41    5.23
   1  -6  -8    6.14    2.19
  -1   6   8    5.36    2.62
   0   6   8    8.65    2.66
   0  -6  -8    6.77    2.57
   1   6   8   -0.29    1.56
  -2  -6  -8   26.50    4.16
   2   6   8   18.22    2.17
  -3  -6  -8   28.40    3.57
  -4  -6  -8    6.39    2.67
  -5  -6  -8   81.67    6.65
  -6  -6  -8    0.20    2.27
  -7  -6  -8   27.41    5.57
  -8  -6  -8    3.92    3.65
  -9  -6  -8    0.69    3.90
  -5   7   8   11.10    4.97
  -4   7   8   -3.36    3.55
  -3   7   8   -4.21    3.10
  -2   7   8  109.73    6.97
  -1   7   8   13.00    3.62
   1  -7  -8   12.17    2.80
   0  -7  -8   97.68    6.86
   0   7   8   94.36    5.68
  -1  -7  -8   27.90    4.08
   1   7   8   28.44    2.91
  -2  -7  -8   66.42    6.27
  -2  -7  -8   77.85    5.41
   2   7   8   72.82    4.03
  -3  -7  -8    6.00    2.80
  -4  -7  -8   44.78    4.55
  -5  -7  -8    0.69    2.24
  -6  -7  -8   32.63    4.62
  -7  -7  -8   11.17    4.17
  -8  -7  -8    2.70    3.52
  -9  -7  -8    6.42    4.28
  -5   8   8    1.41    5.04
  -4   8   8    3.40    4.45
  -3   8   8   10.95    4.75
  -2   8   8   -2.57    2.57
   1  -8  -8   83.38    6.43
  -1   8   8   89.60    6.07
   0  -8  -8   -0.84    1.85
   0   8   8    0.17    2.27
   1   8   8   44.66    3.78
  -1  -8  -8   35.87    4.54
  -2  -8  -8  109.29    8.36
  -3  -8  -8   58.20    6.25
  -4  -8  -8   11.41    3.35
  -5  -8  -8   24.63    4.82
  -6  -8  -8   11.33    3.72
  -7  -8  -8   14.62    4.49
  -8  -8  -8    3.16    3.36
  -9  -8  -8    3.30    4.36
  -4   9   8   -2.26    4.10
  -3   9   8    4.87    4.02
  -2   9   8   31.29    5.79
   1  -9  -8   10.53    3.19
  -1   9   8   16.63    4.26
   0  -9  -8   14.27    3.70
   0   9   8   22.75    4.43
   1   9   8   90.44    5.56
  -1  -9  -8   87.24    7.38
  -2  -9  -8  627.12   26.21
  -3  -9  -8    1.47    2.31
  -4  -9  -8    2.12    2.99
  -5  -9  -8    0.39    2.38
  -5  -9  -8    0.23    3.02
  -6  -9  -8   23.29    5.87
  -6  -9  -8   21.56    5.08
  -7  -9  -8    1.60    3.03
  -7  -9  -8   -0.33    2.65
  -8  -9  -8    2.10    3.30
  -8  -9  -8    5.32    3.79
  -9  -9  -8    1.65    3.86
  -4  10   8    4.51    4.56
  -3  10   8    0.98    4.12
  -2  10   8   18.49    5.11
   1 -10  -8   26.04    4.58
  -1  10   8   22.09    5.08
   0 -10  -8   14.73    3.88
   0  10   8   17.28    4.07
   1  10   8    4.47    2.94
  -1 -10  -8    0.77    1.96
  -2 -10  -8   18.62    4.47
  -3 -10  -8   75.38    7.26
  -4 -10  -8   15.30    4.29
  -5 -10  -8   23.79    5.32
  -6 -10  -8    4.76    3.39
  -7 -10  -8   49.22    5.88
  -7 -10  -8   44.03    6.55
  -8 -10  -8    2.26    3.48
  -8 -10  -8    2.12    3.46
  -9 -10  -8    0.72    4.00
  -3  11   8   12.04    4.97
  -2  11   8   -0.75    3.99
   1 -11  -8    8.82    3.21
  -1  11   8    6.03    3.84
   0 -11  -8    5.44    2.87
   0  11   8   -0.39    2.97
  -1 -11  -8    7.78    3.17
  -2 -11  -8   30.46    5.54
  -3 -11  -8    1.74    2.30
  -4 -11  -8    3.96    2.71
  -5 -11  -8   12.70    4.23
  -6 -11  -8   27.75    5.79
  -7 -11  -8    3.30    3.52
  -8 -11  -8    3.66    3.58
  -2  12   8    1.35    4.33
   1 -12  -8    9.31    3.62
  -1  12   8   16.60    5.45
   0 -12  -8    6.12    3.28
   0  12   8    5.86    3.73
  -1 -12  -8    0.79    2.60
  -2 -12  -8    5.19    3.06
  -3 -12  -8   55.92    6.42
  -4 -12  -8    9.14    3.55
  -5 -12  -8   -1.67    2.26
  -6 -12  -8    0.96    2.82
  -7 -12  -8   27.05    6.08
  -2  13   8    4.95    5.25
   1 -13  -8    2.47    3.18
  -1  13   8    7.72    4.69
   0 -13  -8   17.53    4.76
  -1 -13  -8   23.51    5.24
  -2 -13  -8   -0.73    2.29
  -3 -13  -8    0.37    2.55
  -4 -13  -8   39.14    5.72
  -5 -13  -8   -0.56    2.59
  -6 -13  -8    0.23    2.90
  -7 -13  -8    5.06    3.77
   1 -14  -8   12.64    4.82
   0 -14  -8   -2.03    3.17
  -1 -14  -8    9.96    4.05
  -2 -14  -8   10.69    4.01
  -3 -14  -8   34.68    6.54
  -4 -14  -8    5.88    3.45
  -5 -14  -8    5.60    3.75
  -1   6  -9    5.24    4.31
   2   5  -9   -1.20    4.26
   1   5  -9   -1.63    3.66
   0   5  -9   -1.13    3.54
  -1   5  -9    4.28    4.14
  -2   5  -9    1.98    3.99
  -3   5  -9    1.35    4.13
  -4   5  -9    0.56    3.88
   3   4  -9    2.96    4.45
   2   4  -9    4.26    3.86
   1   4  -9   15.24    4.70
   0   4  -9    3.65    3.73
  -1   4  -9   24.79    5.17
  -2   4  -9    3.22    3.74
  -3   4  -9    0.82    3.82
  -4   4  -9    7.93    4.06
  -4   4  -9    5.21    5.06
  -5   4  -9    0.22    4.38
   4   3  -9   10.07    5.67
   3   3  -9   -3.61    3.28
   2   3  -9    0.66    3.16
   1   3  -9   57.47    5.36
   0   3  -9   -0.79    2.99
  -1   3  -9   18.66    4.73
  -2   3  -9   11.60    4.60
  -3   3  -9    8.16    4.11
  -4   3  -9   -1.18    4.48
  -4   3  -9   -1.17    3.12
  -6   3  -9    5.66    4.79
   5   2  -9   11.34    6.93
   4   2  -9  125.66   10.22
   3   2  -9   -0.93    3.83
   2   2  -9   10.21    4.23
   1   2  -9    3.90    3.34
   0   2  -9   33.10    5.42
  -1   2  -9    7.84    3.61
  -2   2  -9   18.47    4.57
  -3   2  -9    1.63    2.89
  -4   2  -9   65.79    5.49
  -4   2  -9   77.20    8.66
  -5   2  -9    2.77    4.06
  -6   2  -9   17.75    6.19
  -7   2  -9    2.13    4.29
   5   1  -9   29.86   10.22
   4   1  -9    1.29    6.31
   3   1  -9    5.44    4.91
   2   1  -9    6.20    4.40
   1   1  -9  114.49    7.46
   0   1  -9    9.66    3.87
  -1   1  -9   12.79    3.76
  -2   1  -9    4.06    3.00
  -3   1  -9   -1.92    2.45
  -4   1  -9   -0.84    2.53
  -4   1  -9    0.16    4.03
  -5   1  -9   -3.42    3.63
  -6   1  -9   -1.33    3.75
  -7   1  -9    1.51    4.15
  -8   1  -9   -4.31    3.91
  -6   0   9    0.95    4.01
   5   0  -9   31.39   25.60
   4   0  -9    2.64   13.80
   3   0  -9    1.86    8.81
   2   0  -9    8.51    6.06
   1   0  -9    2.55    3.59
   0   0  -9  177.88    8.97
  -1   0  -9   -4.34    2.39
  -2   0  -9   -3.27    2.21
  -3   0  -9    1.21    2.27
  -4   0  -9    0.19    3.73
  -5   0  -9   -6.41    2.88
  -6   0  -9    0.08    3.96
  -7   0  -9   14.57    5.63
  -8   0  -9   -0.29    4.48
  -6   1   9   -0.25    3.23
   2  -1  -9  220.80   21.90
   1  -1  -9    0.58    5.46
   0  -1  -9   30.00    5.90
  -1  -1  -9   48.90    4.41
  -2  -1  -9    6.31    2.73
  -3  -1  -9   19.41    3.55
  -4  -1  -9   89.84    8.65
  -5  -1  -9   -3.64    3.22
  -6  -1  -9   -0.46    3.48
  -7  -1  -9   11.40    5.10
  -8  -1  -9    5.59    4.86
  -5   2   9   -0.80    4.09
  -4   2   9   12.29    4.85
  -3   2   9   -0.17    3.35
  -2   2   9   22.35    4.72
   0  -2  -9  642.34   24.63
  -1  -2  -9  234.37   10.16
  -2  -2  -9   28.94    4.07
  -3  -2  -9   12.09    2.89
  -4  -2  -9    3.45    3.50
  -5  -2  -9    6.24    4.39
  -6  -2  -9   30.28    6.48
  -7  -2  -9    2.91    3.85
  -8  -2  -9   -0.26    3.45
  -9  -2  -9    4.75    4.29
  -5   3   9    3.67    4.75
  -4   3   9   -4.47    3.03
  -3   3   9   21.03    5.02
  -2   3   9    0.55    2.53
  -1   3   9    5.82    2.77
  -1  -3  -9  184.24   10.43
  -2  -3  -9    2.59    2.44
  -3  -3  -9   34.62    2.97
  -3  -3  -9   42.42    5.48
  -4  -3  -9   86.54    7.72
  -5  -3  -9   -2.51    2.42
  -6  -3  -9   -0.83    2.52
  -7  -3  -9   10.96    4.50
  -8  -3  -9    1.86    3.75
  -9  -3  -9    7.57    4.76
  -5   4   9   -1.53    4.14
  -4   4   9   -1.27    3.59
  -3   4   9   -1.18    2.82
  -2   4   9   33.22    5.30
  -1   4   9   72.39    4.92
   0   4   9  169.70    7.71
   1   4   9   55.63    4.25
  -2  -4  -9    7.55    3.90
  -3  -4  -9    6.94    3.13
  -4  -4  -9  127.91    9.19
  -5  -4  -9   -2.61    2.65
  -6  -4  -9    2.65    2.73
  -7  -4  -9    2.85    3.72
  -8  -4  -9   -3.89    3.30
  -9  -4  -9    1.90    4.36
  -5   5   9    3.55    4.59
  -4   5   9    0.27    3.58
  -3   5   9   30.50    5.60
  -1   5   9    5.16    2.70
   0   5   9   -0.65    1.94
   1   5   9  390.39   13.10
   2   5   9  127.84    5.94
  -3  -5  -9   -0.25    2.25
  -4  -5  -9    6.69    3.02
  -5  -5  -9   24.68    5.14
  -6  -5  -9   13.03    4.20
  -7  -5  -9    0.61    3.10
  -8  -5  -9   -0.75    2.92
  -9  -5  -9    6.36    4.52
  -5   6   9   -0.71    4.41
  -4   6   9    8.13    4.32
  -3   6   9    6.02    3.61
  -2   6   9    6.02    3.50
  -1   6   9   -1.26    2.36
   0   6   9   68.40    4.70
   0  -6  -9   78.11    5.94
   1   6   9   71.89    4.50
  -2  -6  -9   33.27    4.04
   2   6   9   36.60    3.07
  -3  -6  -9   64.72    5.69
  -4  -6  -9    0.15    1.85
  -5  -6  -9    1.30    2.32
  -6  -6  -9    0.00    2.40
  -7  -6  -9   22.18    5.61
  -8  -6  -9    2.12    3.48
  -9  -6  -9    0.72    4.07
  -5   7   9   -4.11    4.68
  -4   7   9   -1.23    3.91
  -3   7   9   12.01    4.53
  -2   7   9   -3.11    2.84
  -1   7   9    8.57    3.89
   0   7   9   93.45    5.64
   0  -7  -9   93.51    6.82
   1   7   9   73.30    4.64
  -1  -7  -9   65.95    6.17
  -2  -7  -9  405.32   16.77
  -3  -7  -9   17.32    3.89
  -4  -7  -9   21.10    4.45
  -5  -7  -9   36.54    4.55
  -6  -7  -9    0.65    2.47
  -7  -7  -9    2.66    3.39
  -8  -7  -9    7.77    4.07
  -9  -7  -9    0.13    4.12
  -4   8   9   -4.87    3.77
  -3   8   9    4.56    4.26
  -2   8   9   -2.26    3.03
  -1   8   9    7.47    3.73
   0   8   9    6.52    3.20
   0  -8  -9    7.12    2.86
   1   8   9  161.50    7.37
  -1  -8  -9  146.49    9.79
  -2  -8  -9  157.35   10.62
  -3  -8  -9  194.04   12.45
  -4  -8  -9   69.82    5.90
  -5  -8  -9    0.26    2.23
  -7  -8  -9    4.90    3.69
  -8  -8  -9    2.94    3.20
  -9  -8  -9    1.70    3.36
  -4   9   9    4.91    4.74
  -3   9   9   -1.28    3.77
  -2   9   9   -1.25    3.32
  -1   9   9   39.87    6.12
   0  -9  -9    6.58    2.64
   0   9   9    7.67    3.29
  -1  -9  -9  104.80    8.26
   1   9   9  117.65    6.46
  -2  -9  -9   16.22    4.07
  -3  -9  -9   26.01    5.39
  -4  -9  -9   84.83    8.30
  -5  -9  -9   35.08    5.66
  -5  -9  -9   31.49    4.41
  -6  -9  -9   13.16    4.45
  -7  -9  -9    2.06    3.59
  -8  -9  -9    1.26    3.64
  -9  -9  -9   -0.76    3.64
  -3  10   9    4.77    4.59
  -2  10   9    1.14    3.59
  -1  10   9   -0.47    2.93
   0  10   9    7.63    3.21
   0 -10  -9    2.20    2.30
  -1 -10  -9   -0.65    2.09
  -2 -10  -9   96.36    8.31
  -3 -10  -9  108.85    9.18
  -4 -10  -9    5.16    3.40
  -5 -10  -9    4.35    2.95
  -6 -10  -9    6.19    4.03
  -7 -10  -9   -0.34    3.53
  -7 -10  -9   -0.09    3.16
  -8 -10  -9    3.87    4.15
  -8 -10  -9    9.50    4.58
  -9 -10  -9    3.97    3.73
  -9 -10  -9    5.45    5.01
  -3  11   9    6.18    4.93
  -2  11   9    4.08    4.09
   1 -11  -9   13.40    3.72
  -1  11   9   16.21    4.81
   0 -11  -9    3.46    2.65
   0  11   9   -0.61    3.13
  -1 -11  -9   23.30    4.85
  -2 -11  -9    1.14    2.68
  -3 -11  -9   17.50    4.76
  -4 -11  -9   28.73    5.64
  -5 -11  -9    2.37    3.06
  -6 -11  -9   15.02    5.20
  -7 -11  -9   24.41    6.01
  -8 -11  -9    0.99    3.94
  -2  12   9    7.75    5.17
   1 -12  -9    4.30    2.99
  -1  12   9    3.66    3.76
   0 -12  -9   -0.22    2.43
  -1 -12  -9   -1.00    2.14
  -2 -12  -9    1.69    2.62
  -3 -12  -9   48.32    6.29
  -4 -12  -9    0.08    2.85
  -5 -12  -9   -0.28    2.70
  -6 -12  -9    1.48    3.19
  -7 -12  -9    5.37    3.68
   1 -13  -9    1.11    3.04
  -1  13   9    1.53    4.49
   0 -13  -9    3.14    2.97
  -1 -13  -9   20.80    4.99
  -2 -13  -9   -1.15    2.78
  -3 -13  -9    3.36    2.86
  -4 -13  -9   36.29    5.76
  -5 -13  -9   -1.17    2.98
  -6 -13  -9    2.03    3.55
   0 -14  -9    1.15    3.20
  -1 -14  -9    9.85    4.32
  -2 -14  -9    3.66    3.49
  -3 -14  -9    1.54    3.05
  -4 -14  -9   18.74    5.07
   1   4 -10    2.43    3.74
   0   4 -10    9.04    4.37
  -1   4 -10    9.41    4.50
  -2   4 -10    8.80    4.49
  -3   4 -10   11.03    4.62
  -4   4 -10   -0.58    5.47
  -4   4 -10    3.09    3.97
   3   3 -10    6.36    4.68
   2   3 -10    4.16    3.56
   1   3 -10    7.68    3.89
   0   3 -10    1.03    3.62
  -1   3 -10   16.42    4.80
  -2   3 -10   20.60    5.16
  -3   3 -10   22.15    5.25
  -4   3 -10    5.83    5.66
  -4   3 -10    1.37    3.76
  -5   3 -10   -3.90    5.08
   3   2 -10   12.30    5.93
   2   2 -10    4.12    3.93
   1   2 -10   14.87    4.60
   0   2 -10    0.30    3.10
  -1   2 -10   -1.21    2.86
  -2   2 -10   37.64    4.30
  -3   2 -10   -1.84    3.13
  -4   2 -10   18.73    4.86
  -4   2 -10   40.31   10.04
  -5   2 -10   -1.42    4.88
  -6   2 -10   14.61    6.52
   4   1 -10    8.81    9.41
   3   1 -10    4.61    6.30
   2   1 -10   27.13    6.50
   1   1 -10   21.72    5.36
   0   1 -10    2.33    3.61
  -1   1 -10    5.66    3.57
  -2   1 -10   15.19    4.46
  -3   1 -10   60.10    5.02
  -4   1 -10    4.25    5.46
  -5   1 -10   -1.81    4.31
  -6   1 -10   -2.86    4.37
  -7   1 -10   -0.74    3.87
   3   0 -10   -1.18   12.52
   2   0 -10   -2.78    6.27
   1   0 -10   58.45    6.54
   0   0 -10   39.49    6.58
  -1   0 -10   -0.82    3.14
  -2   0 -10   35.50    5.37
  -3   0 -10    3.53    2.92
  -4   0 -10   14.32    5.92
  -5   0 -10   17.08    6.99
  -6   0 -10   -5.50    4.62
  -7   0 -10    3.22    4.87
   2  -1 -10  103.51   35.00
   1  -1 -10   84.20    9.86
   0  -1 -10   61.14    6.57
  -1  -1 -10   92.96    6.35
  -2  -1 -10    9.17    3.06
  -3  -1 -10    0.49    2.32
  -4  -1 -10    0.07    3.80
  -5  -1 -10   -5.15    3.44
  -6  -1 -10    6.44    4.95
  -7  -1 -10    2.62    4.69
  -8  -1 -10    6.89    4.92
  -5   2  10    4.19    5.12
  -4   2  10   20.31    5.67
   0  -2 -10  426.79   21.26
  -1  -2 -10  116.63    7.71
  -2  -2 -10   33.00    3.63
  -3  -2 -10    7.77    2.67
  -4  -2 -10   52.54    7.18
  -5  -2 -10   -0.69    3.21
  -6  -2 -10   -2.56    3.31
  -7  -2 -10    0.67    3.90
  -8  -2 -10    4.66    4.88
  -5   3  10    0.01    4.78
  -4   3  10    3.89    4.07
  -3   3  10    3.99    3.76
  -2   3  10   -2.60    2.82
  -1  -3 -10  243.89   14.06
  -2  -3 -10   12.86    3.79
  -4  -3 -10   60.11    6.89
  -5  -3 -10   31.62    6.79
  -6  -3 -10    7.91    4.27
  -7  -3 -10    6.23    4.15
  -8  -3 -10   -1.44    4.11
  -5   4  10   13.20    5.23
  -4   4  10    2.29    3.99
  -3   4  10    1.99    3.43
  -2   4  10    0.49    2.99
  -1   4  10   27.17    3.40
   0   4  10   91.67    5.75
  -2  -4 -10    3.08    4.33
  -3  -4 -10   22.67    5.85
  -4  -4 -10   -4.21    2.63
  -5  -4 -10   18.75    5.25
  -6  -4 -10    9.85    4.30
  -7  -4 -10    3.48    3.65
  -8  -4 -10    8.21    4.59
  -5   5  10   11.18    5.13
  -4   5  10   12.22    4.62
  -3   5  10    0.45    3.54
  -2   5  10    2.22    2.76
  -1   5  10   -2.32    2.54
   0   5  10   32.39    3.43
   1   5  10   88.75    5.43
  -3  -5 -10    7.37    3.67
  -4  -5 -10    0.54    2.80
  -5  -5 -10   23.58    5.56
  -6  -5 -10    4.53    3.07
  -7  -5 -10    5.90    3.65
  -8  -5 -10    1.55    3.69
  -9  -5 -10    1.30    4.46
  -4   6  10   -0.77    4.10
  -3   6  10   -0.34    3.21
  -2   6  10   45.06    4.67
  -1   6  10   -1.00    2.44
   0   6  10   21.05    4.00
   1   6  10    4.48    2.61
  -2  -6 -10   14.80    4.16
  -3  -6 -10   35.12    4.50
  -4  -6 -10    0.25    2.32
  -5  -6 -10   23.59    5.29
  -6  -6 -10   -1.92    2.39
  -7  -6 -10    0.88    3.63
  -8  -6 -10    3.12    4.07
  -9  -6 -10   34.69    7.68
  -4   7  10   -3.38    4.10
  -3   7  10   -1.51    3.70
  -2   7  10   -3.79    3.00
  -1   7  10   -2.59    2.47
   0   7  10   16.39    3.78
  -1  -7 -10   56.90    5.81
   1   7  10   66.27    4.58
  -2  -7 -10   57.39    5.43
  -3  -7 -10    1.68    2.35
  -4  -7 -10   30.80    4.24
  -5  -7 -10    2.20    2.57
  -6  -7 -10   32.47    5.98
  -7  -7 -10    0.50    2.69
  -8  -7 -10   -0.10    3.23
  -9  -7 -10   10.47    5.47
  -4   8  10    3.61    4.61
  -3   8  10   -2.43    3.63
  -2   8  10    5.30    3.94
  -1   8  10    3.87    3.53
   0  -8 -10    0.12    1.61
   0   8  10   -2.03    2.34
   1   8  10   74.28    5.00
  -1  -8 -10   75.40    6.76
  -2  -8 -10   99.32    8.25
  -4  -8 -10   21.89    3.51
  -5  -8 -10    3.89    2.99
  -6  -8 -10   30.24    4.41
  -7  -8 -10    9.42    4.27
  -8  -8 -10    1.11    3.77
  -9  -8 -10   10.55    5.08
  -3   9  10    6.52    4.28
  -2   9  10    6.33    3.90
  -1   9  10    1.76    3.08
   0   9  10    0.96    2.52
   0  -9 -10    2.89    2.23
  -1  -9 -10   -0.27    1.82
  -2  -9 -10    0.99    2.74
  -3  -9 -10   21.03    4.67
  -4  -9 -10   90.27    8.83
  -6  -9 -10    1.62    3.21
  -7  -9 -10    4.04    3.88
  -8  -9 -10    1.59    3.31
  -9  -9 -10   10.67    4.99
  -3  10  10   -2.00    4.29
  -2  10  10    2.71    3.88
  -1  10  10    8.42    4.01
   0  10  10    7.97    3.66
   0 -10 -10    6.10    2.70
  -1 -10 -10   -0.21    1.95
  -2 -10 -10    7.77    3.28
  -3 -10 -10    4.01    2.91
  -4 -10 -10    7.94    3.86
  -5 -10 -10    5.32    3.77
  -6 -10 -10    9.31    4.00
  -7 -10 -10   14.07    5.09
  -8 -10 -10   -1.58    3.25
  -8 -10 -10    1.69    3.73
  -2  11  10    5.14    4.24
  -1  11  10   11.43    4.41
   0 -11 -10    0.09    2.07
   0  11  10    1.18    3.24
  -1 -11 -10    4.73    2.88
  -2 -11 -10    1.84    2.47
  -3 -11 -10    3.26    2.89
  -4 -11 -10    0.14    2.71
  -5 -11 -10    3.61    3.21
  -6 -11 -10   14.99    5.26
  -7 -11 -10   16.20    5.32
  -8 -11 -10    2.99    4.21
  -2  12  10   61.89    6.64
  -1  12  10   25.88    5.61
   0 -12 -10   -2.02    2.30
  -1 -12 -10   -1.34    2.53
  -2 -12 -10   -1.40    2.36
  -3 -12 -10   -2.41    2.32
  -4 -12 -10    9.44    3.78
  -5 -12 -10   14.44    4.54
  -6 -12 -10    5.58    3.66
  -7 -12 -10    3.26    3.69
  -1  13  10    5.87    4.89
   0 -13 -10   -0.99    2.67
  -1 -13 -10    0.66    2.78
  -2 -13 -10    0.72    2.53
  -3 -13 -10   36.37    5.77
  -4 -13 -10    2.79    3.41
  -5 -13 -10    6.04    4.28
  -6 -13 -10   -1.02    2.65
   0 -14 -10   -3.73    2.97
  -1 -14 -10   19.77    5.06
  -2 -14 -10   -0.12    3.23
  -3 -14 -10    6.75    3.88
  -4 -14 -10    0.77    3.17
   0   3 -11   -5.05    3.79
  -1   3 -11    8.50    4.56
  -2   3 -11   12.10    4.92
  -3   3 -11    1.16    4.13
  -4   3 -11    9.54    7.90
   2   2 -11    0.24    4.50
   1   2 -11   65.64    6.50
   0   2 -11   -1.19    4.08
  -1   2 -11   -0.91    3.47
  -2   2 -11    4.90    3.85
  -3   2 -11    2.40    3.92
  -4   2 -11    8.73    8.68
  -5   2 -11   -0.53    5.22
   2   1 -11   -0.36    5.87
   1   1 -11   19.48    6.29
   0   1 -11   -0.15    3.82
  -1   1 -11    7.62    4.21
  -2   1 -11    3.79    3.66
  -3   1 -11    3.29    3.58
  -4   1 -11    5.61    6.92
  -5   1 -11   11.77    6.77
  -6   1 -11   -2.27    5.21
   3   0 -11  -16.63   24.10
   2   0 -11   16.71   11.93
   1   0 -11   84.50    9.01
   0   0 -11   28.01    6.89
  -1   0 -11    2.12    3.41
  -2   0 -11   45.88    6.46
  -3   0 -11    7.96    3.56
  -4   0 -11    5.52    6.84
  -5   0 -11    0.96    5.62
  -6   0 -11    1.49    5.23
   1  -1 -11   10.26   13.22
   0  -1 -11  230.87   13.69
  -1  -1 -11   32.74    6.29
  -2  -1 -11   32.39    5.38
  -3  -1 -11   35.61    3.97
  -4  -1 -11    7.97    6.19
  -5  -1 -11   -0.88    4.24
  -6  -1 -11    0.03    4.58
  -7  -1 -11    8.79    5.85
   0  -2 -11   35.67   15.13
  -1  -2 -11   71.21    7.02
  -2  -2 -11   -0.32    2.78
  -4  -2 -11   -1.40    4.40
  -5  -2 -11    0.47    4.26
  -6  -2 -11    0.19    3.90
  -7  -2 -11   -1.32    4.62
  -4   3  11    4.55    4.57
  -3   3  11    2.96    3.94
  -1  -3 -11   41.13   11.97
  -2  -3 -11   -0.05    3.46
  -4  -3 -11   -1.78    3.69
  -5  -3 -11    4.36    4.24
  -6  -3 -11   16.54    5.84
  -7  -3 -11    1.94    3.98
  -8  -3 -11    1.37    4.60
  -4   4  11    6.03    4.37
  -3   4  11   22.17    5.03
  -2   4  11   -0.65    3.23
  -1   4  11   -2.99    2.65
  -2  -4 -11    3.97    5.54
  -3  -4 -11    1.17    4.84
  -4  -4 -11    2.48    3.88
  -5  -4 -11    2.92    4.28
  -6  -4 -11    5.35    4.36
  -7  -4 -11   19.85    5.59
  -8  -4 -11   10.60    5.40
  -4   5  11   17.16    5.42
  -3   5  11   -0.27    3.33
  -2   5  11    0.84    3.14
  -1   5  11   -3.28    2.61
   0   5  11   -1.07    2.43
  -3  -5 -11    1.05    3.73
  -4  -5 -11   12.63    4.50
  -5  -5 -11    0.90    3.60
  -6  -5 -11    1.10    3.32
  -7  -5 -11    7.39    4.37
  -8  -5 -11    2.26    3.62
  -4   6  11    3.76    4.76
  -3   6  11   -0.29    3.62
  -2   6  11    3.26    3.60
  -1   6  11   19.51    4.29
   0   6  11   31.65    3.48
   1   6  11   18.88    3.73
  -3  -6 -11    6.71    3.55
  -4  -6 -11   -0.02    2.66
  -5  -6 -11   23.29    5.54
  -6  -6 -11   -1.69    2.39
  -7  -6 -11   12.37    5.03
  -8  -6 -11   14.27    5.20
  -3   7  11   -0.08    3.85
  -2   7  11    4.49    3.35
  -1   7  11    1.02    2.82
   0   7  11    2.89    3.14
   1   7  11   -2.76    2.09
  -1  -7 -11    1.46    1.95
  -3  -7 -11    4.51    2.96
  -4  -7 -11   27.13    4.28
  -5  -7 -11   16.97    4.71
  -6  -7 -11    4.46    3.16
  -7  -7 -11    3.73    3.80
  -8  -7 -11   12.92    4.79
  -3   8  11   13.32    4.86
  -2   8  11   -0.40    3.35
  -1   8  11   18.82    4.43
   0   8  11    8.70    3.38
  -1  -8 -11   16.62    3.87
  -2  -8 -11    1.84    2.25
  -4  -8 -11    2.06    2.69
  -5  -8 -11   94.55    7.71
  -6  -8 -11    8.91    4.05
  -7  -8 -11    3.94    3.76
  -8  -8 -11    1.97    3.84
  -3   9  11    5.95    4.87
  -2   9  11    1.58    3.81
  -1   9  11   -2.03    3.07
   0   9  11    1.39    2.96
  -1  -9 -11   11.81    3.45
  -2  -9 -11   19.86    4.72
  -3  -9 -11   14.60    4.23
  -6  -9 -11   36.09    5.06
  -7  -9 -11    4.85    3.46
  -8  -9 -11    5.46    4.09
  -2  10  11   10.70    4.46
  -1  10  11    1.06    3.75
   0  10  11    1.70    3.20
  -1 -10 -11   25.25    4.95
  -2 -10 -11    2.43    2.60
  -3 -10 -11    4.37    3.21
  -4 -10 -11    0.27    2.76
  -5 -10 -11    0.57    2.63
  -6 -10 -11    2.99    3.35
  -8 -10 -11    6.05    4.92
  -2  11  11   40.81    7.42
  -1  11  11    6.37    4.27
  -1 -11 -11    0.68    2.33
  -2 -11 -11    0.40    2.58
  -3 -11 -11   17.46    4.65
  -4 -11 -11   27.78    6.15
  -5 -11 -11    1.68    3.52
  -6 -11 -11    1.94    3.29
  -7 -11 -11    1.00    3.98
  -1  12  11    0.89    4.42
  -1 -12 -11   26.16    5.53
  -2 -12 -11    0.70    2.58
  -3 -12 -11   -0.46    2.81
  -4 -12 -11    2.94    3.45
  -5 -12 -11    1.99    2.89
  -6 -12 -11    5.83    4.05
  -1 -13 -11   -2.18    2.35
  -2 -13 -11    6.93    3.76
  -3 -13 -11   14.31    5.12
  -4 -13 -11   -0.78    3.06
  -5 -13 -11   24.90    5.93
  -1 -14 -11    4.01    3.64
  -2 -14 -11    3.21    3.66
  -2   2 -12    2.09    4.07
  -3   2 -12    8.33    4.65
   1   1 -12    4.02    6.66
   0   1 -12    8.78    5.93
  -1   1 -12   16.90    5.79
  -2   1 -12    0.50    4.00
  -3   1 -12    2.86    4.09
  -4   1 -12    6.78   12.85
   1   0 -12    9.99    9.87
   0   0 -12   16.01    6.90
  -1   0 -12    4.63    4.54
  -2   0 -12    4.18    4.11
  -4   0 -12   28.96   14.23
  -5   0 -12    6.32    7.84
   1  -1 -12   44.60   43.71
   0  -1 -12   -0.04    9.01
  -1  -1 -12   11.69    5.97
  -2  -1 -12   44.10    5.09
  -4  -1 -12    2.35    8.85
  -5  -1 -12    3.96    6.35
  -6  -1 -12    1.98    6.16
  -1  -2 -12    9.06    7.16
  -2  -2 -12   16.82    5.50
  -4  -2 -12    8.98    8.01
  -5  -2 -12    2.68    4.70
  -6  -2 -12   -3.19    5.27
  -1  -3 -12   62.33   24.32
  -2  -3 -12    1.71    5.38
  -4  -3 -12   -5.64    6.02
  -5  -3 -12    0.98    5.14
  -6  -3 -12   19.17    6.87
  -7  -3 -12    0.45    4.62
  -3   4  12   24.16    5.78
  -3  -4 -12   30.55   10.97
  -4  -4 -12   -5.20    4.08
  -5  -4 -12   11.66    5.64
  -6  -4 -12    4.41    4.46
  -7  -4 -12    6.35    4.71
  -3   5  12   18.06    5.41
  -2   5  12    8.78    4.02
  -1   5  12    7.39    3.74
  -3  -5 -12    2.87    5.49
  -4  -5 -12    4.16    3.99
  -5  -5 -12   -1.65    3.73
  -6  -5 -12   -1.62    3.62
  -7  -5 -12    3.33    3.75
  -3   6  12    0.50    3.98
  -2   6  12    3.30    3.85
  -1   6  12    3.33    3.07
   0   6  12    4.10    3.18
  -3  -6 -12    5.75    4.20
  -4  -6 -12   12.67    4.89
  -5  -6 -12   -1.40    3.18
  -6  -6 -12   -1.69    3.63
  -7  -6 -12    3.81    3.57
  -8  -6 -12    1.19    3.76
  -3   7  12   30.98    6.13
  -2   7  12   -0.44    3.38
  -1   7  12    1.50    3.27
   0   7  12    4.31    3.05
  -3  -7 -12    1.57    3.33
  -4  -7 -12   14.52    5.03
  -5  -7 -12    1.26    3.14
  -6  -7 -12    7.66    3.92
  -7  -7 -12    1.22    3.34
  -8  -7 -12   -1.20    3.44
  -2   8  12   10.49    4.53
  -1   8  12   -2.37    3.17
   0   8  12   13.65    3.54
  -2  -8 -12    8.32    3.27
  -5  -8 -12   55.15    6.16
  -6  -8 -12    2.43    3.16
  -7  -8 -12    8.80    4.42
  -8  -8 -12   -0.27    4.14
  -2   9  12    4.30    4.02
   0   9  12   10.26    3.80
  -2  -9 -12    2.56    2.29
  -3  -9 -12    4.50    3.02
  -6  -9 -12   35.74    6.65
  -7  -9 -12    7.68    4.22
  -8  -9 -12    1.28    4.60
  -2  10  12   43.31    7.54
  -1  10  12    5.13    4.18
  -2 -10 -12    1.75    2.44
  -3 -10 -12   -0.15    2.51
  -4 -10 -12    0.02    2.94
  -5 -10 -12   11.49    4.45
  -1  11  12    0.39    4.34
  -1 -11 -12   16.92    4.33
  -2 -11 -12   14.32    4.55
  -3 -11 -12    4.09    3.26
  -4 -11 -12    6.63    3.84
  -5 -11 -12    8.79    4.35
  -6 -11 -12   11.77    4.67
  -1 -12 -12   -0.69    2.56
  -2 -12 -12   11.13    4.27
  -3 -12 -12   -0.04    3.12
  -4 -12 -12    0.38    3.18
  -5 -12 -12    3.45    3.30
  -1 -13 -12    5.10    3.33
  -2 -13 -12   15.00    4.50
  -3 -13 -12    0.37    3.19
  -4 -13 -12    6.60    4.08
  -2   1 -13    5.76    5.27
   0   0 -13    7.94    9.69
  -1   0 -13    1.68    5.81
  -2   0 -13   18.76    6.07
   0  -1 -13    5.86   16.03
  -1  -1 -13    1.89    7.71
  -2  -1 -13   26.07    6.96
  -4  -1 -13  109.97   34.42
  -1  -2 -13   -1.82   11.82
  -4  -2 -13   -1.09   15.79
  -5  -2 -13   44.56   12.34
  -4  -3 -13    0.60    9.37
  -5  -3 -13   10.76    7.10
  -6  -3 -13   -1.54    6.31
  -4  -4 -13   -1.28    8.50
  -5  -4 -13    0.39    5.62
  -6  -4 -13   -4.46    4.94
  -3  -5 -13    3.04   11.24
  -4  -5 -13    9.10    7.09
  -5  -5 -13   -3.34    4.26
  -6  -5 -13   -1.76    4.63
  -7  -5 -13   -3.32    3.79
  -2   6  13    2.30    3.99
  -1   6  13    7.21    3.69
  -3  -6 -13   -4.82    4.89
  -4  -6 -13   31.01    8.12
  -5  -6 -13    5.61    5.02
  -6  -6 -13    0.98    3.53
  -7  -6 -13   -0.50    4.06
  -2   7  13    1.64    4.16
  -1   7  13   14.82    4.22
   0   7  13    0.60    2.93
  -3  -7 -13   -1.96    4.15
  -4  -7 -13    4.64    4.41
  -5  -7 -13    4.67    4.17
  -6  -7 -13    2.76    4.08
  -2   8  13   -1.91    4.20
  -1   8  13    2.85    3.85
   0   8  13   20.02    4.32
  -5  -8 -13   44.37    5.94
  -6  -8 -13    2.07    3.52
  -7  -8 -13   40.38    5.93
  -1   9  13   10.42    4.42
  -2  -9 -13   -0.33    2.36
  -3  -9 -13    0.70    2.84
  -7  -9 -13    0.31    3.91
  -1  10  13    7.85    4.56
  -2 -10 -13    1.45    2.78
  -3 -10 -13    5.48    3.39
  -4 -10 -13   17.53    5.02
  -2 -11 -13    0.55    2.53
  -3 -11 -13   -0.37    2.97
  -4 -11 -13    2.30    3.67
  -5 -11 -13   34.21    7.40
  -2 -12 -13    4.68    3.27
  -3 -12 -13    7.63    3.75
  -4 -12 -13    4.41    3.70
  -2 -13 -13   -2.66    2.58
  -3 -13 -13    1.41    2.95
  -4  -4 -14    8.77   19.78
  -5  -4 -14    9.59    9.02
  -4  -5 -14   24.82   13.51
  -5  -5 -14    4.58    6.78
  -3  -6 -14  143.18   30.62
  -4  -6 -14   16.11    7.84
  -5  -6 -14   -6.37    5.37
  -6  -6 -14    2.00    5.07
  -1   7  14    3.95    4.44
  -3  -7 -14    4.00    8.25
  -4  -7 -14    5.43    5.78
  -5  -7 -14   -1.49    5.38
  -6  -7 -14    4.03    4.52
  -1   8  14    2.38    3.76
  -5  -8 -14   17.50    5.96
  -6  -8 -14    0.44    3.89
  -3  -9 -14    5.19    3.59
  -3 -10 -14   10.44    3.95
  -4 -10 -14    9.52    4.54
  -3 -11 -14    3.91    3.59
  -4 -11 -14    8.89    4.37
  -3 -12 -14   10.07    4.04
  -4  -6 -15   26.76   19.81
  -4  -7 -15   -0.85    9.52
  -4 -10 -15    6.08    4.38
   0   0   0    0.00    0.00
;
_shelx_res_file
;
    191105c.res created by SHELXL-2014/7

TITL 191105c in P-1
CELL 0.71073 7.6557 11.0905 11.3544 61.643 73.6 75.397
ZERR 2 0.0007 0.0008 0.0009 0.001 0.002 0.002
LATT 1

SFAC C H N O
UNIT 36 28 8 4

L.S. 8
PLAN  20
SIZE 0.45 0.44 0.4
TEMP 25
BOND $h
fmap 2
acta
OMIT -1 50.04
REM <HKL>C:\Documents%20and%20Settings\Administrator\My%20Documents\WeChat%20F
REM iles\wxid_m1hi4pd08o0q22\FileStorage\File\2020-04\hh-12\191105c.hkl</HKL>

WGHT    0.093700
FVAR       0.79059
O1    4    0.906840    0.394806    0.320831    11.00000    0.04518    0.04377 =
         0.04630   -0.02526   -0.00608   -0.01151
O2    4    0.759034    0.001546    0.553859    11.00000    0.06920    0.03965 =
         0.06906   -0.02661   -0.01799   -0.00494
N1    3    0.750458    0.225986    0.497363    11.00000    0.05489    0.03434 =
         0.04045   -0.01779   -0.01479   -0.00478
N2    3    0.714409    0.340524    0.527892    11.00000    0.04964    0.03616 =
         0.04434   -0.01825   -0.01590   -0.00456
N3    3    0.951581    0.783972    0.268623    11.00000    0.06364    0.04373 =
         0.04525   -0.01871   -0.00078   -0.01728
N4    3    0.623914    0.303022    0.249795    11.00000    0.03836    0.04119 =
         0.03667   -0.01782   -0.00680   -0.00609
C1    1    0.807995    0.432230    0.423245    11.00000    0.03284    0.03941 =
         0.03539   -0.01746   -0.01502   -0.00014
C2    1    0.877750    0.252856    0.364345    11.00000    0.03845    0.03821 =
         0.04257   -0.02133   -0.01275    0.00161
AFIX  13
H2    2    0.993658    0.190010    0.377990    11.00000   -1.20000
AFIX   0
C3    1    0.930282    0.657938    0.290718    11.00000    0.05152    0.04512 =
         0.03611   -0.02143   -0.00543   -0.00758
AFIX  43
H3    2    0.993830    0.626667    0.225264    11.00000   -1.20000
AFIX   0
C4    1    0.818645    0.570315    0.405869    11.00000    0.03271    0.03646 =
         0.03181   -0.01225   -0.01145   -0.00330
C5    1    0.721741    0.618549    0.503956    11.00000    0.03854    0.04162 =
         0.03402   -0.01459   -0.00812   -0.00619
AFIX  43
H5    2    0.645145    0.564236    0.581523    11.00000   -1.20000
AFIX   0
C6    1    0.742047    0.748105    0.483348    11.00000    0.04801    0.03998 =
         0.04094   -0.02169   -0.00779   -0.00433
AFIX  43
H6    2    0.679994    0.782192    0.546935    11.00000   -1.20000
AFIX   0
C7    1    0.857198    0.826280    0.365552    11.00000    0.06094    0.03790 =
         0.04773   -0.01842   -0.01580   -0.01042
AFIX  43
H7    2    0.869981    0.913125    0.352755    11.00000   -1.20000
AFIX   0
C8    1    0.799973    0.247716    0.257523    11.00000    0.04075    0.03151 =
         0.03483   -0.01428   -0.00369   -0.00861
C9    1    0.916771    0.189944    0.169373    11.00000    0.04292    0.03911 =
         0.04074   -0.01823   -0.00165   -0.00645
AFIX  43
H9    2    1.037214    0.151131    0.180365    11.00000   -1.20000
AFIX   0
C10   1    0.850704    0.191943    0.068676    11.00000    0.06052    0.04892 =
         0.04028   -0.02690    0.00267   -0.01164
AFIX  43
H10   2    0.925478    0.154048    0.010793    11.00000   -1.20000
AFIX   0
C11   1    0.665323    0.252859    0.052869    11.00000    0.05805    0.04282 =
         0.03183   -0.01251   -0.00663   -0.02199
C12   1    0.555970    0.305716    0.147133    11.00000    0.04327    0.04061 =
         0.02922   -0.00982   -0.00422   -0.01769
C13   1    0.369709    0.366586    0.134627    11.00000    0.04400    0.05636 =
         0.04366   -0.01042   -0.01161   -0.01341
AFIX  43
H13   2    0.296409    0.399696    0.196688    11.00000   -1.20000
AFIX   0
C14   1    0.298176    0.376504    0.031351    11.00000    0.06289    0.06882 =
         0.06451   -0.00968   -0.02895   -0.02345
AFIX  43
H14   2    0.177099    0.416514    0.023764    11.00000   -1.20000
AFIX   0
C15   1    0.408547    0.325928   -0.063271    11.00000    0.09513    0.08602 =
         0.06176   -0.02134   -0.03922   -0.03382
AFIX  43
H15   2    0.359186    0.334069   -0.133167    11.00000   -1.20000
AFIX   0
C16   1    0.587783    0.264854   -0.053733    11.00000    0.09194    0.07152 =
         0.04852   -0.02630   -0.01757   -0.03184
AFIX  43
H16   2    0.658111    0.231547   -0.116353    11.00000   -1.20000
AFIX   0
C17   1    0.707808    0.096121    0.588532    11.00000    0.04582    0.03596 =
         0.04774   -0.01403   -0.02226   -0.00416
C18   1    0.600220    0.079241    0.729186    11.00000    0.08205    0.04920 =
         0.04706   -0.01333   -0.01492   -0.01731
AFIX 137
H18A  2    0.538672   -0.000959    0.771474    11.00000   -1.50000
H18B  2    0.510973    0.159806    0.720556    11.00000   -1.50000
H18C  2    0.683133    0.068225    0.784275    11.00000   -1.50000
AFIX   0
HKLF 4

REM  191105c in P-1
REM R1 =  0.0609 for    1688 Fo > 4sig(Fo)  and  0.0976 for all    2736 data
REM    218 parameters refined using      0 restraints

END

WGHT      0.0956      0.0000

REM Highest difference peak  0.214,  deepest hole -0.240,  1-sigma level  0.056
Q1    1   0.2984  0.4476  0.2246  11.00000  0.05    0.21
Q2    1   0.8275  0.5022  0.4209  11.00000  0.05    0.21
Q3    1   0.8077  0.2237  0.4382  11.00000  0.05    0.20
Q4    1   0.5701  0.4001  0.2370  11.00000  0.05    0.20
Q5    1   0.6223  0.3375  0.0452  11.00000  0.05    0.19
Q6    1   0.8696  0.5859  0.4003  11.00000  0.05    0.19
Q7    1   0.8677  0.1573  0.2575  11.00000  0.05    0.19
Q8    1   0.7893  0.5333  0.4979  11.00000  0.05    0.19
Q9    1   0.6885  0.3251  0.6178  11.00000  0.05    0.18
Q10   1   0.6777  0.4389  0.6036  11.00000  0.05    0.18
Q11   1   0.3348  0.5180  0.1043  11.00000  0.05    0.18
Q12   1   0.7337 -0.0989  0.5798  11.00000  0.05    0.18
Q13   1   0.7326  0.2719  0.5178  11.00000  0.05    0.17
Q14   1   0.5023  0.3936  0.1184  11.00000  0.05    0.17
Q15   1   0.8293  0.0203  0.8988  11.00000  0.05    0.16
Q16   1   0.7505  0.4020  0.4418  11.00000  0.05    0.16
Q17   1   0.8282  0.9406  0.3464  11.00000  0.05    0.16
Q18   1   0.8635  0.7606  0.2760  11.00000  0.05    0.16
Q19   1   0.9242  0.8400  0.2639  11.00000  0.05    0.16
Q20   1   0.9765  0.4498  0.2209  11.00000  0.05    0.16
;
_shelx_shelxl_version_number     2014/7
_shelx_space_group_comment
;
The symmetry employed for this shelxl refinement is uniquely defined
by the following loop, which should always be used as a source of
symmetry information in preference to the above space-group names.
They are only intended as comments.
;
loop_
_space_group_symop_operation_xyz
'x, y, z'
'-x, -y, -z'
loop_
_atom_site_label
_atom_site_type_symbol
_atom_site_fract_x
_atom_site_fract_y
_atom_site_fract_z
_atom_site_U_iso_or_equiv
_atom_site_adp_type
_atom_site_occupancy
_atom_site_site_symmetry_order
_atom_site_calc_flag
_atom_site_refinement_flags_posn
_atom_site_refinement_flags_adp
_atom_site_refinement_flags_occupancy
_atom_site_disorder_assembly
_atom_site_disorder_group
O1 O 0.9068(2) 0.39481(18) 0.3208(2) 0.0422(5) Uani 1 1 d . . . . .
O2 O 0.7590(3) 0.0015(2) 0.5539(2) 0.0575(6) Uani 1 1 d . . . . .
N1 N 0.7505(3) 0.2260(2) 0.4974(2) 0.0416(6) Uani 1 1 d . . . . .
N2 N 0.7144(3) 0.3405(2) 0.5279(3) 0.0418(6) Uani 1 1 d . . . . .
N3 N 0.9516(3) 0.7840(2) 0.2686(3) 0.0514(7) Uani 1 1 d . . . . .
N4 N 0.6239(3) 0.3030(2) 0.2498(2) 0.0383(6) Uani 1 1 d . . . . .
C1 C 0.8080(3) 0.4322(3) 0.4232(3) 0.0344(7) Uani 1 1 d . . . . .
C2 C 0.8777(4) 0.2529(3) 0.3643(3) 0.0384(7) Uani 1 1 d . . . . .
H2 H 0.9937 0.1900 0.3780 0.046 Uiso 1 1 calc R U . . .
C3 C 0.9303(4) 0.6579(3) 0.2907(3) 0.0432(8) Uani 1 1 d . . . . .
H3 H 0.9938 0.6267 0.2253 0.052 Uiso 1 1 calc R U . . .
C4 C 0.8186(4) 0.5703(3) 0.4059(3) 0.0338(7) Uani 1 1 d . . . . .
C5 C 0.7217(4) 0.6185(3) 0.5040(3) 0.0384(7) Uani 1 1 d . . . . .
H5 H 0.6451 0.5642 0.5815 0.046 Uiso 1 1 calc R U . . .
C6 C 0.7420(4) 0.7481(3) 0.4833(3) 0.0418(7) Uani 1 1 d . . . . .
H6 H 0.6800 0.7822 0.5469 0.050 Uiso 1 1 calc R U . . .
C7 C 0.8572(4) 0.8263(3) 0.3656(3) 0.0470(8) Uani 1 1 d . . . . .
H7 H 0.8700 0.9131 0.3528 0.056 Uiso 1 1 calc R U . . .
C8 C 0.8000(4) 0.2477(3) 0.2575(3) 0.0358(7) Uani 1 1 d . . . . .
C9 C 0.9168(4) 0.1899(3) 0.1694(3) 0.0419(7) Uani 1 1 d . . . . .
H9 H 1.0372 0.1511 0.1804 0.050 Uiso 1 1 calc R U . . .
C10 C 0.8507(4) 0.1919(3) 0.0687(3) 0.0488(8) Uani 1 1 d . . . . .
H10 H 0.9255 0.1540 0.0108 0.059 Uiso 1 1 calc R U . . .
C11 C 0.6653(4) 0.2529(3) 0.0529(3) 0.0432(8) Uani 1 1 d . . . . .
C12 C 0.5560(4) 0.3057(3) 0.1471(3) 0.0382(7) Uani 1 1 d . . . . .
C13 C 0.3697(4) 0.3666(3) 0.1346(3) 0.0507(8) Uani 1 1 d . . . . .
H13 H 0.2964 0.3997 0.1967 0.061 Uiso 1 1 calc R U . . .
C14 C 0.2982(5) 0.3765(4) 0.0314(4) 0.0668(10) Uani 1 1 d . . . . .
H14 H 0.1771 0.4165 0.0238 0.080 Uiso 1 1 calc R U . . .
C15 C 0.4085(6) 0.3259(4) -0.0633(4) 0.0757(11) Uani 1 1 d . . . . .
H15 H 0.3592 0.3341 -0.1332 0.091 Uiso 1 1 calc R U . . .
C16 C 0.5878(6) 0.2649(4) -0.0537(4) 0.0655(10) Uani 1 1 d . . . . .
H16 H 0.6581 0.2315 -0.1164 0.079 Uiso 1 1 calc R U . . .
C17 C 0.7078(4) 0.0961(3) 0.5885(3) 0.0422(8) Uani 1 1 d . . . . .
C18 C 0.6002(5) 0.0792(3) 0.7292(3) 0.0604(9) Uani 1 1 d . . . . .
H18A H 0.5387 -0.0010 0.7715 0.091 Uiso 1 1 calc R U . . .
H18B H 0.5110 0.1598 0.7206 0.091 Uiso 1 1 calc R U . . .
H18C H 0.6831 0.0682 0.7843 0.091 Uiso 1 1 calc R U . . .
loop_
_atom_site_aniso_label
_atom_site_aniso_U_11
_atom_site_aniso_U_22
_atom_site_aniso_U_33
_atom_site_aniso_U_23
_atom_site_aniso_U_13
_atom_site_aniso_U_12
O1 0.0452(12) 0.0438(11) 0.0463(13) -0.0253(10) -0.0061(10) -0.0115(9)
O2 0.0692(15) 0.0396(12) 0.0691(17) -0.0266(12) -0.0180(12) -0.0049(10)
N1 0.0549(16) 0.0343(13) 0.0405(15) -0.0178(12) -0.0148(12) -0.0048(11)
N2 0.0496(15) 0.0362(13) 0.0443(16) -0.0183(12) -0.0159(12) -0.0046(11)
N3 0.0636(18) 0.0437(15) 0.0453(17) -0.0187(13) -0.0008(14) -0.0173(13)
N4 0.0384(14) 0.0412(14) 0.0367(15) -0.0178(11) -0.0068(11) -0.0061(11)
C1 0.0328(15) 0.0394(16) 0.0354(18) -0.0175(14) -0.0150(13) -0.0001(12)
C2 0.0385(16) 0.0382(16) 0.0426(19) -0.0213(14) -0.0127(14) 0.0016(12)
C3 0.0515(19) 0.0451(17) 0.0361(19) -0.0214(15) -0.0054(15) -0.0076(14)
C4 0.0327(15) 0.0365(15) 0.0318(17) -0.0122(13) -0.0114(13) -0.0033(12)
C5 0.0385(16) 0.0416(17) 0.0340(18) -0.0146(14) -0.0081(13) -0.0062(13)
C6 0.0480(18) 0.0400(17) 0.0409(19) -0.0217(15) -0.0078(14) -0.0043(14)
C7 0.061(2) 0.0379(17) 0.048(2) -0.0184(15) -0.0158(16) -0.0104(14)
C8 0.0407(17) 0.0315(15) 0.0348(18) -0.0143(13) -0.0037(13) -0.0086(12)
C9 0.0429(17) 0.0391(16) 0.0407(19) -0.0182(14) -0.0016(14) -0.0064(13)
C10 0.061(2) 0.0489(19) 0.040(2) -0.0269(16) 0.0027(16) -0.0116(16)
C11 0.058(2) 0.0428(17) 0.0318(18) -0.0125(14) -0.0066(15) -0.0220(15)
C12 0.0433(17) 0.0406(16) 0.0292(17) -0.0098(13) -0.0042(13) -0.0177(13)
C13 0.0440(19) 0.056(2) 0.044(2) -0.0104(16) -0.0116(15) -0.0134(15)
C14 0.063(2) 0.069(2) 0.065(3) -0.010(2) -0.029(2) -0.0234(18)
C15 0.095(3) 0.086(3) 0.062(3) -0.021(2) -0.039(2) -0.034(2)
C16 0.092(3) 0.072(2) 0.049(2) -0.0263(19) -0.018(2) -0.032(2)
C17 0.0458(18) 0.0360(17) 0.048(2) -0.0140(15) -0.0223(15) -0.0042(13)
C18 0.082(3) 0.049(2) 0.047(2) -0.0133(16) -0.0149(19) -0.0173(17)
loop_
_atom_type_symbol
_atom_type_description
_atom_type_scat_dispersion_real
_atom_type_scat_dispersion_imag
_atom_type_scat_source
C C 0.0033 0.0016 'International Tables Vol C Tables 4.2.6.8 and 6.1.1.4'
H H 0.0000 0.0000 'International Tables Vol C Tables 4.2.6.8 and 6.1.1.4'
N N 0.0061 0.0033 'International Tables Vol C Tables 4.2.6.8 and 6.1.1.4'
O O 0.0106 0.0060 'International Tables Vol C Tables 4.2.6.8 and 6.1.1.4'
loop_
_geom_angle_atom_site_label_1
_geom_angle_atom_site_label_2
_geom_angle_atom_site_label_3
_geom_angle
_geom_angle_site_symmetry_1
_geom_angle_site_symmetry_3
C1 O1 C2 106.8(2) . .
N2 N1 C2 111.6(2) . .
C17 N1 N2 124.9(2) . .
C17 N1 C2 122.2(2) . .
C1 N2 N1 104.3(2) . .
C3 N3 C7 116.3(2) . .
C8 N4 C12 117.0(2) . .
O1 C1 C4 117.6(2) . .
N2 C1 O1 116.6(2) . .
N2 C1 C4 125.8(2) . .
O1 C2 N1 100.74(18) . .
O1 C2 H2 110.3 . .
O1 C2 C8 109.6(2) . .
N1 C2 H2 110.3 . .
N1 C2 C8 115.3(2) . .
C8 C2 H2 110.3 . .
N3 C3 H3 117.8 . .
N3 C3 C4 124.4(3) . .
C4 C3 H3 117.8 . .
C3 C4 C1 120.5(2) . .
C3 C4 C5 117.6(2) . .
C5 C4 C1 121.9(2) . .
C4 C5 H5 120.5 . .
C6 C5 C4 119.0(3) . .
C6 C5 H5 120.5 . .
C5 C6 H6 120.7 . .
C5 C6 C7 118.6(3) . .
C7 C6 H6 120.7 . .
N3 C7 C6 124.1(3) . .
N3 C7 H7 117.9 . .
C6 C7 H7 117.9 . .
N4 C8 C2 117.0(2) . .
N4 C8 C9 123.7(3) . .
C9 C8 C2 119.3(2) . .
C8 C9 H9 120.2 . .
C10 C9 C8 119.5(3) . .
C10 C9 H9 120.2 . .
C9 C10 H10 120.3 . .
C9 C10 C11 119.4(3) . .
C11 C10 H10 120.3 . .
C10 C11 C16 123.0(3) . .
C12 C11 C10 117.6(3) . .
C12 C11 C16 119.3(3) . .
N4 C12 C11 122.6(3) . .
N4 C12 C13 118.3(3) . .
C11 C12 C13 119.1(3) . .
C12 C13 H13 119.8 . .
C14 C13 C12 120.5(3) . .
C14 C13 H13 119.8 . .
C13 C14 H14 119.9 . .
C13 C14 C15 120.1(3) . .
C15 C14 H14 119.9 . .
C14 C15 H15 119.4 . .
C16 C15 C14 121.2(3) . .
C16 C15 H15 119.4 . .
C11 C16 H16 120.1 . .
C15 C16 C11 119.8(3) . .
C15 C16 H16 120.1 . .
O2 C17 N1 119.3(3) . .
O2 C17 C18 124.1(3) . .
N1 C17 C18 116.6(2) . .
C17 C18 H18A 109.5 . .
C17 C18 H18B 109.5 . .
C17 C18 H18C 109.5 . .
H18A C18 H18B 109.5 . .
H18A C18 H18C 109.5 . .
H18B C18 H18C 109.5 . .
loop_
_geom_bond_atom_site_label_1
_geom_bond_atom_site_label_2
_geom_bond_distance
_geom_bond_site_symmetry_2
O1 C1 1.379(3) .
O1 C2 1.466(3) .
O2 C17 1.227(3) .
N1 N2 1.413(3) .
N1 C2 1.486(3) .
N1 C17 1.372(3) .
N2 C1 1.303(3) .
N3 C3 1.342(3) .
N3 C7 1.351(4) .
N4 C8 1.341(3) .
N4 C12 1.390(4) .
C1 C4 1.469(3) .
C2 H2 0.9800 .
C2 C8 1.523(4) .
C3 H3 0.9300 .
C3 C4 1.402(4) .
C4 C5 1.406(4) .
C5 H5 0.9300 .
C5 C6 1.384(4) .
C6 H6 0.9300 .
C6 C7 1.391(4) .
C7 H7 0.9300 .
C8 C9 1.424(4) .
C9 H9 0.9300 .
C9 C10 1.364(4) .
C10 H10 0.9300 .
C10 C11 1.431(4) .
C11 C12 1.426(4) .
C11 C16 1.431(4) .
C12 C13 1.431(4) .
C13 H13 0.9300 .
C13 C14 1.377(5) .
C14 H14 0.9300 .
C14 C15 1.416(5) .
C15 H15 0.9300 .
C15 C16 1.378(5) .
C16 H16 0.9300 .
C17 C18 1.521(4) .
C18 H18A 0.9600 .
C18 H18B 0.9600 .
C18 H18C 0.9600 .
