#------------------------------------------------------------------------------
#$Date: 2022-07-08 10:10:17 +0300 (Fri, 08 Jul 2022) $
#$Revision: 276736 $
#$URL: file:///home/coder/svn-repositories/cod/cif/8/10/56/8105665.cif $
#------------------------------------------------------------------------------
#
# This file is available in the Crystallography Open Database (COD),
# http://www.crystallography.net/
#
# All data on this site have been placed in the public domain by the
# contributors.
#
data_8105665
loop_
_publ_author_name
'Bai, Yunli'
'Wang, Yanhong'
'Li, Xingyi'
'Xun, Miao-Miao'
'Yuan, Changchun'
_publ_section_title
;
 Crystal structure of
 rac-3,6-dimethyl-5-(prop-1-en-2-yl)-6-vinyl-1,4,5,6-tetrahydro-2H-indol-2-one,
 C15H19NO
;
_journal_issue                   3
_journal_name_full
'Zeitschrift f\"ur Kristallographie - New Crystal Structures'
_journal_page_first              419
_journal_page_last               420
_journal_paper_doi               10.1515/ncrs-2018-0425
_journal_volume                  234
_journal_year                    2019
_chemical_formula_moiety         'C15 H19 N O'
_chemical_formula_sum            'C15 H19 N O'
_chemical_formula_weight         229.31
_space_group_crystal_system      triclinic
_space_group_IT_number           2
_space_group_name_Hall           '-P 1'
_space_group_name_H-M_alt        'P -1'
_atom_sites_solution_hydrogens   geom
_atom_sites_solution_primary     dual
_cell_angle_alpha                97.879(4)
_cell_angle_beta                 93.543(5)
_cell_angle_gamma                116.785(5)
_cell_formula_units_Z            2
_cell_length_a                   6.9535(5)
_cell_length_b                   7.4037(6)
_cell_length_c                   14.5179(9)
_cell_measurement_reflns_used    4028
_cell_measurement_temperature    173
_cell_measurement_theta_max      66.218
_cell_measurement_theta_min      3.104
_cell_volume                     654.43(9)
_computing_cell_refinement       'SAINT v8.34A (Bruker, 2013)'
_computing_data_reduction        'SAINT v8.34A (Bruker, 2013)'
_computing_molecular_graphics    'Olex2 (Dolomanov et al., 2009)'
_computing_publication_material  'Olex2 (Dolomanov et al., 2009)'
_computing_structure_refinement  'ShelXL (Sheldrick, 2015)'
_computing_structure_solution    'ShelXT (Sheldrick, 2015)'
_diffrn_ambient_temperature      173
_diffrn_measured_fraction_theta_full 0.960
_diffrn_measured_fraction_theta_max 0.960
_diffrn_measurement_device_type  'Bruker APEX-II CCD'
_diffrn_measurement_method       '\f and \w scans'
_diffrn_radiation_type           CuK\a
_diffrn_radiation_wavelength     1.54184
_diffrn_reflns_av_R_equivalents  0.0497
_diffrn_reflns_av_unetI/netI     0.0373
_diffrn_reflns_Laue_measured_fraction_full 0.960
_diffrn_reflns_Laue_measured_fraction_max 0.960
_diffrn_reflns_limit_h_max       8
_diffrn_reflns_limit_h_min       -8
_diffrn_reflns_limit_k_max       8
_diffrn_reflns_limit_k_min       -8
_diffrn_reflns_limit_l_max       16
_diffrn_reflns_limit_l_min       -16
_diffrn_reflns_number            9746
_diffrn_reflns_point_group_measured_fraction_full 0.960
_diffrn_reflns_point_group_measured_fraction_max 0.960
_diffrn_reflns_theta_full        63.638
_diffrn_reflns_theta_max         63.638
_diffrn_reflns_theta_min         3.103
_diffrn_standards_number         0
_exptl_absorpt_coefficient_mu    0.562
_exptl_absorpt_correction_T_max  0.7528
_exptl_absorpt_correction_T_min  0.5762
_exptl_absorpt_correction_type   multi-scan
_exptl_absorpt_process_details
;SADABS-2014/5 (Bruker,2014/5) was used for absorption correction. 
wR2(int) was 0.1254 before and 0.0632 after correction. The 
Ratio of minimum to maximum transmission is 0.7654. The \l/2 
correction factor is 0.00150.
;
_exptl_crystal_colour            colourless
_exptl_crystal_colour_primary    colourless
_exptl_crystal_density_diffrn    1.164
_exptl_crystal_description       block
_exptl_crystal_F_000             248
_exptl_crystal_size_max          0.28
_exptl_crystal_size_mid          0.15
_exptl_crystal_size_min          0.12
_refine_diff_density_max         0.273
_refine_diff_density_min         -0.205
_refine_diff_density_rms         0.056
_refine_ls_extinction_coef       .
_refine_ls_extinction_method     none
_refine_ls_goodness_of_fit_ref   1.111
_refine_ls_hydrogen_treatment    constr
_refine_ls_matrix_type           full
_refine_ls_number_parameters     157
_refine_ls_number_reflns         2069
_refine_ls_number_restraints     0
_refine_ls_restrained_S_all      1.111
_refine_ls_R_factor_all          0.0600
_refine_ls_R_factor_gt           0.0520
_refine_ls_shift/su_max          0.000
_refine_ls_shift/su_mean         0.000
_refine_ls_structure_factor_coef Fsqd
_refine_ls_weighting_details
'w=1/[\s^2^(Fo^2^)+(0.0787P)^2^+0.2534P] where P=(Fo^2^+2Fc^2^)/3'
_refine_ls_weighting_scheme      calc
_refine_ls_wR_factor_gt          0.1454
_refine_ls_wR_factor_ref         0.1518
_reflns_Friedel_coverage         0.000
_reflns_Friedel_fraction_full    .
_reflns_Friedel_fraction_max     .
_reflns_number_gt                1768
_reflns_number_total             2069
_reflns_threshold_expression     'I > 2\s(I)'
_iucr_refine_instructions_details
;

    cu_20180923-c_0m.res created by SHELXL-2014/7

TITL cu_20180923-c_0m_a.res in P-1
REM Old TITL cu_20180923-C_0m in P1 #1
REM SHELXT solution in P-1
REM R1 0.150, Rweak 0.014, Alpha 0.051, Orientation as input
REM Formula found by SHELXT: C14 N O2
CELL 1.54184 6.9535 7.4037 14.5179 97.879 93.543 116.785
ZERR 2 0.0005 0.0006 0.0009 0.004 0.005 0.005
LATT 1
SFAC C H N O
UNIT 30 38 2 2
 
L.S. 10 0 0
PLAN  10
SIZE 0.28 0.15 0.12
TEMP -100.15
BOND $H
list 4
fmap 2 53
acta
REM <olex2.extras>
REM <HklSrc "%.\\cu_20180923-C_0m.hkl">
REM </olex2.extras>
 
WGHT    0.078700    0.253400
FVAR       1.22497
O1    4    0.656259    0.250169    0.591037    11.00000    0.04939    0.03920 =
         0.03266    0.00942    0.00898    0.01968
N1    3    0.554823    0.190220    0.430524    11.00000    0.03617    0.02686 =
         0.03404    0.00766    0.00523    0.00837
AFIX  43
H1    2    0.472802    0.055912    0.420783    11.00000   -1.20000
AFIX   0
C2    1    0.772499    0.527328    0.500221    11.00000    0.02849    0.03180 =
         0.03210    0.00296    0.00610    0.01531
C1    1    0.657625    0.311069    0.516141    11.00000    0.03089    0.03673 =
         0.03082    0.00748    0.00806    0.01785
C3    1    0.738690    0.522534    0.408022    11.00000    0.02620    0.02858 =
         0.03503    0.00366    0.00595    0.01282
C7    1    0.589681    0.408956    0.204266    11.00000    0.03293    0.02857 =
         0.03153    0.00417    0.00384    0.01090
C4    1    0.898370    0.705258    0.578841    11.00000    0.03895    0.03579 =
         0.03615   -0.00165    0.00391    0.01678
AFIX 137
H4A   2    0.798484    0.745647    0.609618    11.00000   -1.50000
H4B   2    1.004431    0.821450    0.553981    11.00000   -1.50000
H4C   2    0.974812    0.665462    0.624526    11.00000   -1.50000
AFIX   0
C9    1    0.811420    0.687599    0.350231    11.00000    0.03255    0.02727 =
         0.03751    0.00357    0.00351    0.00972
AFIX  23
H9A   2    0.959123    0.796988    0.377573    11.00000   -1.20000
H9B   2    0.711777    0.749864    0.351106    11.00000   -1.20000
AFIX   0
C8    1    0.814081    0.599517    0.248245    11.00000    0.02960    0.02955 =
         0.03708    0.00603    0.00539    0.01177
AFIX  13
H8    2    0.922733    0.546000    0.251147    11.00000   -1.20000
AFIX   0
C6    1    0.527156    0.253644    0.269535    11.00000    0.03260    0.02510 =
         0.03858    0.00431    0.00353    0.00711
AFIX  43
H6    2    0.434502    0.112325    0.244243    11.00000   -1.20000
AFIX   0
C13   1    0.407811    0.469113    0.190236    11.00000    0.03467    0.03877 =
         0.04365    0.00826    0.00420    0.01241
AFIX 137
H13A  2    0.395476    0.538757    0.250341    11.00000   -1.50000
H13B  2    0.269873    0.345084    0.166526    11.00000   -1.50000
H13C  2    0.441566    0.562040    0.144853    11.00000   -1.50000
AFIX   0
C5    1    0.598289    0.309930    0.360657    11.00000    0.02778    0.02802 =
         0.03482    0.00576    0.00486    0.01070
C14   1    0.617227    0.302897    0.112678    11.00000    0.04826    0.03115 =
         0.03879    0.00667    0.00940    0.01548
AFIX  43
H14   2    0.732708    0.267623    0.115414    11.00000   -1.20000
AFIX   0
C10   1    0.895889    0.764947    0.188027    11.00000    0.03425    0.03269 =
         0.03869    0.00736    0.00196    0.00412
C11   1    0.848997    0.922504    0.197447    11.00000    0.06066    0.03728 =
         0.05526    0.01799    0.00878    0.01400
AFIX  93
H11A  2    0.907455    1.025116    0.159881    11.00000   -1.20000
H11B  2    0.757247    0.931757    0.241702    11.00000   -1.20000
AFIX   0
C15   1    0.500842    0.254230    0.030363    11.00000    0.07305    0.04269 =
         0.03598    0.00392    0.00864    0.01974
AFIX  93
H15A  2    0.383099    0.285605    0.023238    11.00000   -1.20000
H15B  2    0.534094    0.187525   -0.022268    11.00000   -1.20000
AFIX   0
C12   1    1.038749    0.747738    0.119362    11.00000    0.06027    0.05528 =
         0.06315    0.01831    0.02779    0.01193
AFIX 137
H12A  2    1.159930    0.736754    0.151701    11.00000   -1.50000
H12B  2    1.095855    0.870230    0.090227    11.00000   -1.50000
H12C  2    0.954885    0.624856    0.070774    11.00000   -1.50000
AFIX   0
HKLF 4
 
REM  cu_20180923-c_0m_a.res in P-1
REM R1 =  0.0520 for    1768 Fo > 4sig(Fo)  and  0.0600 for all    2069 data
REM    157 parameters refined using      0 restraints
 
END  
     
WGHT      0.0787      0.2534 

REM Highest difference peak  0.273,  deepest hole -0.205,  1-sigma level  0.056
Q1    1   0.6801  0.8954  0.1969  11.00000  0.05    0.27
Q2    1   1.0767  0.7495  0.5854  11.00000  0.05    0.27
Q3    1   1.0801  0.6479  0.5814  11.00000  0.05    0.22
Q4    1   0.5438  0.5757  0.4976  11.00000  0.05    0.20
Q5    1   0.8602  0.3020  0.5993  11.00000  0.05    0.20
Q6    1   0.3259  0.1364  0.4312  11.00000  0.05    0.20
Q7    1   0.4794  0.1948  0.5840  11.00000  0.05    0.20
Q8    1   0.8744  0.8213  0.5677  11.00000  0.05    0.19
Q9    1   1.0000  0.5000  0.5000  10.50000  0.05    0.19
Q10   1   1.0488  0.6191  0.4944  11.00000  0.05    0.18

  REM The information below was added by Olex2.
  REM
  REM R1 = 0.0520 for 1768 Fo > 4sig(Fo) and 0.0600 for all 9746 data
  REM n/a parameters refined using n/a restraints
  REM Highest difference peak 0.27, deepest hole -0.21
  REM Mean Shift 0, Max Shift 0.000.

  REM +++ Tabular Listing of Refinement Information +++
  REM R1_all = 0.0600
  REM R1_gt = 0.0520
  REM wR_ref = 0.1518
  REM GOOF = 1.111
  REM Shift_max = 0.000
  REM Shift_mean = 0
  REM Reflections_all = 9746
  REM Reflections_gt = 1768
  REM Parameters = n/a
  REM Hole = -0.21
  REM Peak = 0.27
  REM Flack = n/a

  
;
_cod_data_source_file            suppl_ncrs-2018-0425_suppl.cif
_cod_data_source_block           1
_cod_database_code               8105665
_shelx_space_group_comment
;
The symmetry employed for this shelxl refinement is uniquely defined
by the following loop, which should always be used as a source of
symmetry information in preference to the above space-group names.
They are only intended as comments.
;
_shelx_estimated_absorpt_t_max   0.936
_shelx_estimated_absorpt_t_min   0.859
_olex2_refinement_description
;
1. Fixed Uiso
 At 1.2 times of:
  All C(H) groups, All C(H,H) groups, All N(H) groups
 At 1.5 times of:
  All C(H,H,H) groups
2.a Ternary CH refined with riding coordinates:
 C8(H8)
2.b Secondary CH2 refined with riding coordinates:
 C9(H9A,H9B)
2.c Aromatic/amide H refined with riding coordinates:
 N1(H1), C6(H6), C14(H14)
2.d X=CH2 refined with riding coordinates:
 C11(H11A,H11B), C15(H15A,H15B)
2.e Idealised Me refined as rotating group:
 C4(H4A,H4B,H4C), C13(H13A,H13B,H13C), C12(H12A,H12B,H12C)
;
_olex2_submission_special_instructions 'No special instructions were received'
loop_
_space_group_symop_operation_xyz
'x, y, z'
'-x, -y, -z'
loop_
_atom_site_label
_atom_site_type_symbol
_atom_site_fract_x
_atom_site_fract_y
_atom_site_fract_z
_atom_site_U_iso_or_equiv
_atom_site_adp_type
_atom_site_occupancy
_atom_site_site_symmetry_order
_atom_site_calc_flag
_atom_site_refinement_flags_posn
_atom_site_refinement_flags_adp
_atom_site_refinement_flags_occupancy
_atom_site_disorder_assembly
_atom_site_disorder_group
O1 O 0.6563(3) 0.2502(2) 0.59104(10) 0.0403(4) Uani 1 1 d . . . . .
N1 N 0.5548(3) 0.1902(2) 0.43052(12) 0.0345(5) Uani 1 1 d . . . . .
H1 H 0.4728 0.0559 0.4208 0.041 Uiso 1 1 calc R . . . .
C2 C 0.7725(3) 0.5273(3) 0.50022(14) 0.0305(5) Uani 1 1 d . . . . .
C1 C 0.6576(3) 0.3111(3) 0.51614(14) 0.0317(5) Uani 1 1 d . . . . .
C3 C 0.7387(3) 0.5225(3) 0.40802(14) 0.0301(5) Uani 1 1 d . . . . .
C7 C 0.5897(3) 0.4090(3) 0.20427(14) 0.0325(5) Uani 1 1 d . . . . .
C4 C 0.8984(4) 0.7053(3) 0.57884(15) 0.0381(5) Uani 1 1 d . . . . .
H4A H 0.7985 0.7456 0.6096 0.057 Uiso 1 1 calc GR . . . .
H4B H 1.0044 0.8215 0.5540 0.057 Uiso 1 1 calc GR . . . .
H4C H 0.9748 0.6655 0.6245 0.057 Uiso 1 1 calc GR . . . .
C9 C 0.8114(3) 0.6876(3) 0.35023(14) 0.0344(5) Uani 1 1 d . . . . .
H9A H 0.9591 0.7970 0.3776 0.041 Uiso 1 1 calc R . . . .
H9B H 0.7118 0.7499 0.3511 0.041 Uiso 1 1 calc R . . . .
C8 C 0.8141(3) 0.5995(3) 0.24824(14) 0.0328(5) Uani 1 1 d . . . . .
H8 H 0.9227 0.5460 0.2511 0.039 Uiso 1 1 calc R . . . .
C6 C 0.5272(3) 0.2536(3) 0.26954(15) 0.0348(5) Uani 1 1 d . . . . .
H6 H 0.4345 0.1123 0.2442 0.042 Uiso 1 1 calc R . . . .
C13 C 0.4078(4) 0.4691(3) 0.19024(16) 0.0408(6) Uani 1 1 d . . . . .
H13A H 0.3955 0.5388 0.2503 0.061 Uiso 1 1 calc GR . . . .
H13B H 0.2699 0.3451 0.1665 0.061 Uiso 1 1 calc GR . . . .
H13C H 0.4416 0.5620 0.1449 0.061 Uiso 1 1 calc GR . . . .
C5 C 0.5983(3) 0.3099(3) 0.36066(14) 0.0311(5) Uani 1 1 d . . . . .
C14 C 0.6172(4) 0.3029(3) 0.11268(15) 0.0404(6) Uani 1 1 d . . . . .
H14 H 0.7327 0.2676 0.1154 0.048 Uiso 1 1 calc R . . . .
C10 C 0.8959(3) 0.7649(3) 0.18803(15) 0.0397(6) Uani 1 1 d . . . . .
C11 C 0.8490(4) 0.9225(4) 0.19745(18) 0.0534(7) Uani 1 1 d . . . . .
H11A H 0.9075 1.0251 0.1599 0.064 Uiso 1 1 calc R . . . .
H11B H 0.7572 0.9318 0.2417 0.064 Uiso 1 1 calc R . . . .
C15 C 0.5008(5) 0.2542(4) 0.03036(17) 0.0536(7) Uani 1 1 d . . . . .
H15A H 0.3831 0.2856 0.0232 0.064 Uiso 1 1 calc R . . . .
H15B H 0.5341 0.1875 -0.0223 0.064 Uiso 1 1 calc R . . . .
C12 C 1.0387(5) 0.7477(4) 0.1194(2) 0.0636(8) Uani 1 1 d . . . . .
H12A H 1.1599 0.7368 0.1517 0.095 Uiso 1 1 calc GR . . . .
H12B H 1.0959 0.8702 0.0902 0.095 Uiso 1 1 calc GR . . . .
H12C H 0.9549 0.6249 0.0708 0.095 Uiso 1 1 calc GR . . . .
loop_
_atom_site_aniso_label
_atom_site_aniso_U_11
_atom_site_aniso_U_22
_atom_site_aniso_U_33
_atom_site_aniso_U_23
_atom_site_aniso_U_13
_atom_site_aniso_U_12
O1 0.0494(9) 0.0392(8) 0.0327(9) 0.0094(6) 0.0090(7) 0.0197(7)
N1 0.0362(10) 0.0269(8) 0.0340(10) 0.0077(7) 0.0052(7) 0.0084(8)
C2 0.0285(10) 0.0318(10) 0.0321(12) 0.0030(8) 0.0061(8) 0.0153(9)
C1 0.0309(11) 0.0367(11) 0.0308(11) 0.0075(9) 0.0081(8) 0.0178(9)
C3 0.0262(10) 0.0286(10) 0.0350(12) 0.0037(8) 0.0059(8) 0.0128(9)
C7 0.0329(11) 0.0286(10) 0.0315(11) 0.0042(8) 0.0038(9) 0.0109(9)
C4 0.0390(12) 0.0358(11) 0.0361(12) -0.0017(9) 0.0039(9) 0.0168(10)
C9 0.0325(11) 0.0273(10) 0.0375(12) 0.0036(8) 0.0035(9) 0.0097(9)
C8 0.0296(11) 0.0295(10) 0.0371(12) 0.0060(8) 0.0054(9) 0.0118(9)
C6 0.0326(11) 0.0251(10) 0.0386(13) 0.0043(8) 0.0035(9) 0.0071(9)
C13 0.0347(12) 0.0388(12) 0.0437(13) 0.0083(9) 0.0042(10) 0.0124(10)
C5 0.0278(10) 0.0280(10) 0.0348(12) 0.0058(8) 0.0049(8) 0.0107(9)
C14 0.0483(13) 0.0311(11) 0.0388(13) 0.0067(9) 0.0094(10) 0.0155(10)
C10 0.0342(12) 0.0327(11) 0.0387(13) 0.0074(9) 0.0020(9) 0.0041(10)
C11 0.0607(16) 0.0373(12) 0.0553(16) 0.0180(11) 0.0088(12) 0.0140(12)
C15 0.0731(18) 0.0427(13) 0.0360(14) 0.0039(10) 0.0086(12) 0.0197(13)
C12 0.0603(17) 0.0553(15) 0.0631(18) 0.0183(13) 0.0278(14) 0.0119(14)
loop_
_atom_type_symbol
_atom_type_description
_atom_type_scat_dispersion_real
_atom_type_scat_dispersion_imag
_atom_type_scat_source
C C 0.0181 0.0091 'International Tables Vol C Tables 4.2.6.8 and 6.1.1.4'
H H 0.0000 0.0000 'International Tables Vol C Tables 4.2.6.8 and 6.1.1.4'
N N 0.0311 0.0180 'International Tables Vol C Tables 4.2.6.8 and 6.1.1.4'
O O 0.0492 0.0322 'International Tables Vol C Tables 4.2.6.8 and 6.1.1.4'
loop_
_geom_angle_atom_site_label_1
_geom_angle_atom_site_label_2
_geom_angle_atom_site_label_3
_geom_angle
_geom_angle_site_symmetry_1
_geom_angle_site_symmetry_3
C1 N1 H1 124.8 . .
C1 N1 C5 110.39(16) . .
C5 N1 H1 124.8 . .
C1 C2 C4 122.17(18) . .
C3 C2 C1 107.57(17) . .
C3 C2 C4 130.26(19) . .
O1 C1 N1 125.90(19) . .
O1 C1 C2 127.48(19) . .
N1 C1 C2 106.62(17) . .
C2 C3 C9 132.46(18) . .
C2 C3 C5 109.12(18) . .
C5 C3 C9 118.41(18) . .
C6 C7 C8 108.72(16) . .
C6 C7 C13 108.69(17) . .
C13 C7 C8 112.31(16) . .
C14 C7 C8 109.08(16) . .
C14 C7 C6 106.36(16) . .
C14 C7 C13 111.47(18) . .
C2 C4 H4A 109.5 . .
C2 C4 H4B 109.5 . .
C2 C4 H4C 109.5 . .
H4A C4 H4B 109.5 . .
H4A C4 H4C 109.5 . .
H4B C4 H4C 109.5 . .
C3 C9 H9A 109.5 . .
C3 C9 H9B 109.5 . .
C3 C9 C8 110.73(16) . .
H9A C9 H9B 108.1 . .
C8 C9 H9A 109.5 . .
C8 C9 H9B 109.5 . .
C7 C8 H8 106.1 . .
C9 C8 C7 111.92(16) . .
C9 C8 H8 106.1 . .
C10 C8 C7 113.58(17) . .
C10 C8 C9 112.26(16) . .
C10 C8 H8 106.1 . .
C7 C6 H6 119.1 . .
C5 C6 C7 121.77(18) . .
C5 C6 H6 119.1 . .
C7 C13 H13A 109.5 . .
C7 C13 H13B 109.5 . .
C7 C13 H13C 109.5 . .
H13A C13 H13B 109.5 . .
H13A C13 H13C 109.5 . .
H13B C13 H13C 109.5 . .
N1 C5 C3 106.27(17) . .
C6 C5 N1 129.46(18) . .
C6 C5 C3 124.24(19) . .
C7 C14 H14 116.1 . .
C15 C14 C7 127.7(2) . .
C15 C14 H14 116.1 . .
C11 C10 C8 122.7(2) . .
C11 C10 C12 120.8(2) . .
C12 C10 C8 116.5(2) . .
C10 C11 H11A 120.0 . .
C10 C11 H11B 120.0 . .
H11A C11 H11B 120.0 . .
C14 C15 H15A 120.0 . .
C14 C15 H15B 120.0 . .
H15A C15 H15B 120.0 . .
C10 C12 H12A 109.5 . .
C10 C12 H12B 109.5 . .
C10 C12 H12C 109.5 . .
H12A C12 H12B 109.5 . .
H12A C12 H12C 109.5 . .
H12B C12 H12C 109.5 . .
loop_
_geom_bond_atom_site_label_1
_geom_bond_atom_site_label_2
_geom_bond_distance
_geom_bond_site_symmetry_2
O1 C1 1.232(2) .
N1 H1 0.8800 .
N1 C1 1.366(3) .
N1 C5 1.396(3) .
C2 C1 1.492(3) .
C2 C3 1.337(3) .
C2 C4 1.493(3) .
C3 C9 1.493(3) .
C3 C5 1.462(3) .
C7 C8 1.574(3) .
C7 C6 1.519(3) .
C7 C13 1.530(3) .
C7 C14 1.517(3) .
C4 H4A 0.9800 .
C4 H4B 0.9800 .
C4 H4C 0.9800 .
C9 H9A 0.9900 .
C9 H9B 0.9900 .
C9 C8 1.539(3) .
C8 H8 1.0000 .
C8 C10 1.522(3) .
C6 H6 0.9500 .
C6 C5 1.323(3) .
C13 H13A 0.9800 .
C13 H13B 0.9800 .
C13 H13C 0.9800 .
C14 H14 0.9500 .
C14 C15 1.309(3) .
C10 C11 1.338(3) .
C10 C12 1.483(3) .
C11 H11A 0.9500 .
C11 H11B 0.9500 .
C15 H15A 0.9500 .
C15 H15B 0.9500 .
C12 H12A 0.9800 .
C12 H12B 0.9800 .
C12 H12C 0.9800 .
loop_
_refln_index_h
_refln_index_k
_refln_index_l
_refln_F_squared_meas
_refln_F_squared_sigma
-1 0 0 2048.79 100.19
-1 0 0 1926.31 101.09
1 0 0 2111.39 100.29
1 0 0 1882.91 100.69
-2 0 0 127.19 9.3
2 0 0 122.99 9.4
2 0 0 134.29 10.3
2 0 0 130.89 7.6
-3 0 0 94.99 7.4
-3 0 0 94.39 11
-3 0 0 84.99 8.5
3 0 0 107.69 7.1
3 0 0 106.19 6.4
3 0 0 102.69 10
3 0 0 91.69 6.7
-4 0 0 107.69 14.5
-4 0 0 121.29 11.3
-4 0 0 123.49 9.7
4 0 0 123.09 9.1
4 0 0 120.59 8.9
4 0 0 128.99 8.3
4 0 0 116.79 8
4 0 0 119.59 7.8
-5 0 0 71.59 7.6
-5 0 0 60.69 12.2
5 0 0 78.79 10.4
5 0 0 66.69 5.6
5 0 0 60.49 5.7
-6 0 0 8.8 3.1
6 0 0 16.9 5.3
6 0 0 13.7 2.7
6 0 0 16.4 3.1
6 0 0 12.3 4
-7 0 0 1 2.3
7 0 0 6.4 2.5
7 0 0 4.2 1.6
7 0 0 3.8 3.1
7 -1 0 5.5 2.8
7 -1 0 4.9 1.9
7 -1 0 5.8 2
7 -1 0 3.5 3.8
6 -1 0 25.9 5.6
6 -1 0 24.5 3.5
6 -1 0 19.1 3.1
6 -1 0 22.9 3.5
6 -1 0 22.8 5.5
-6 1 0 25.4 5.3
5 -1 0 212.08 12.6
5 -1 0 205.38 12.3
5 -1 0 217.98 12.3
5 -1 0 200.08 14
-5 1 0 190.18 14.7
-5 1 0 190.38 21.8
3 -1 0 933.21 51.19
3 -1 0 892.01 47.3
3 -1 0 976.6 50.29
3 -1 0 882.81 46.7
2 -1 0 9999 471.15
2 -1 0 9728.93 471.55
2 -1 0 8801.22 473.45
1 -1 0 202.38 11.3
1 -1 0 222.38 11.1
0 -1 0 5024.2 224.18
0 -1 0 4049.79 224.38
0 1 0 4683.93 223.78
0 1 0 4198.58 224.08
-1 -1 0 531.55 31.3
-1 -1 0 540.65 30.8
-1 -1 0 552.04 29.5
1 1 0 543.05 27.1
1 1 0 562.84 30.7
1 1 0 506.95 27.2
1 1 0 530.75 29.6
1 1 0 515.85 27
-2 -1 0 2035.4 108.79
2 1 0 2045.6 109.29
2 1 0 2138.89 104.29
2 1 0 2086.69 103.89
2 1 0 2076.09 103.59
-3 -1 0 225.48 18.6
-3 -1 0 203.78 13.1
-3 -1 0 207.08 14.9
3 1 0 206.38 12.8
3 1 0 213.88 12.4
-4 -1 0 3.3 2.7
-4 -1 0 -1.8 3.3
-4 -1 0 0.8 2.2
4 1 0 -0.8 1.5
4 1 0 0.5 1.9
4 1 0 0.1 1.3
-5 -1 0 36.4 7
-5 -1 0 37 5.6
5 1 0 54.79 8.7
5 1 0 51.59 4.9
5 1 0 51.49 5.3
5 1 0 49.99 6.9
-6 -1 0 65.19 7.1
6 1 0 63.59 5.5
6 1 0 59.39 5.5
6 1 0 70.19 8.6
7 -2 0 0.5 3.5
7 -2 0 4.2 2.5
7 -2 0 2.9 1.7
6 -2 0 60.09 8.7
6 -2 0 79.59 8.1
6 -2 0 62.89 5.3
6 -2 0 65.09 7.7
6 -2 0 69.09 5.5
-6 2 0 66.89 8.1
5 -2 0 7.5 2.8
5 -2 0 10 3.3
5 -2 0 5.5 1.6
5 -2 0 10.2 2
5 -2 0 9.6 2.5
-5 2 0 12.1 4
-5 2 0 8.2 5.5
-4 2 0 779.42 50.59
3 -2 0 67.49 7.2
3 -2 0 70.09 4.5
3 -2 0 57.69 4
3 -2 0 63.49 4.1
3 -2 0 65.79 4.6
-3 2 0 42.1 7.4
2 -2 0 4429.26 214.78
2 -2 0 4300.57 214.98
2 -2 0 3990.1 217.88
2 -2 0 4599.34 214.78
1 -2 0 205.68 10.5
1 -2 0 182.28 11.6
1 -2 0 211.48 11.4
1 -2 0 195.98 10.7
1 -2 0 212.18 11.2
-1 2 0 207.88 10.3
-1 2 0 191.38 11.2
-1 2 0 207.58 10.4
0 -2 0 4036.2 198.88
0 -2 0 4509.95 200.78
0 -2 0 4052.69 200.98
0 -2 0 3680.83 202.38
0 2 0 3901.11 201.78
0 2 0 3847.91 198.48
0 2 0 3909.81 198.88
0 2 0 4097.59 198.48
-1 -2 0 316.57 19.3
-1 -2 0 297.37 19.7
1 2 0 285.87 16.2
1 2 0 345.37 16.6
-2 -2 0 52.49 6.8
-2 -2 0 49.2 4.2
-2 -2 0 52.79 5.6
2 2 0 41 3.6
2 2 0 47.2 3.4
2 2 0 38.2 3.7
2 2 0 44.1 3.7
-3 -2 0 193.88 13.8
-3 -2 0 171.98 16.1
-3 -2 0 170.68 11.2
3 2 0 159.18 10.5
3 2 0 151.88 10.3
3 2 0 160.38 10
-4 -2 0 9.4 3.1
-4 -2 0 10.6 5.3
-4 -2 0 9 3.6
4 2 0 15.6 3.3
4 2 0 13.1 3.2
5 2 0 104.99 7.9
5 2 0 108.69 8
6 2 0 27 3.3
8 -3 0 6.5 2.4
8 -3 0 11 3.6
7 -3 0 6.7 4
7 -3 0 8.2 1.7
7 -3 0 11.4 4.1
7 -3 0 11.1 3.6
-7 3 0 7.1 3.3
6 -3 0 171.18 13.1
6 -3 0 172.38 14.2
6 -3 0 176.98 10.4
6 -3 0 170.68 13.1
-6 3 0 170.58 13.7
-6 3 0 155.88 20.6
5 -3 0 3.4 4.1
5 -3 0 15.4 2
5 -3 0 10 2
5 -3 0 5.2 2.7
5 -3 0 3.9 2.2
-5 3 0 3.4 4.9
4 -3 0 561.84 35.2
4 -3 0 546.25 30.3
4 -3 0 536.65 28.9
4 -3 0 534.45 27.9
4 -3 0 545.25 28.3
3 -3 0 11 3.8
3 -3 0 16.4 3
3 -3 0 11.2 1.3
3 -3 0 6.9 1.4
2 -3 0 501.55 24.5
2 -3 0 468.95 28.6
2 -3 0 503.75 24.9
-2 3 0 456.65 24.5
-2 3 0 473.15 24.9
-2 3 0 483.75 24.3
1 -3 0 1151.58 63.09
1 -3 0 1119.49 62.49
1 -3 0 1283.57 61.39
1 -3 0 1266.07 64.39
-1 3 0 1233.28 61.49
-1 3 0 1256.07 60.69
0 -3 0 42 4.8
0 -3 0 39.1 3.1
0 -3 0 33.4 4.7
0 -3 0 37.1 4
0 3 0 39.1 2.8
0 3 0 39.6 3.2
-1 -3 0 312.37 16.6
-1 -3 0 291.87 18.8
-1 -3 0 338.67 20.7
1 3 0 306.57 16.6
1 3 0 292.17 16.9
-2 -3 0 107.79 9.2
-2 -3 0 75.39 9.6
2 3 0 92.29 6.2
2 3 0 80.99 6.2
-3 -3 0 12.5 5.4
-3 -3 0 6.3 3.4
3 3 0 10.4 2.4
3 3 0 5.2 1.8
3 3 0 5.3 2.6
-4 -3 0 26.2 6.1
4 3 0 24.7 4
4 3 0 28.6 4.3
4 3 0 33.1 4.4
5 3 0 1.9 1.8
8 -4 0 25.5 4.2
8 -4 0 47 5.7
7 -4 0 1.6 2.4
7 -4 0 2.3 3.4
7 -4 0 -0.4 0.6
-7 4 0 0.2 3.1
6 -4 0 121.69 7.3
6 -4 0 134.79 12.3
6 -4 0 131.39 10.9
-6 4 0 124.79 11.1
5 -4 0 43.7 3
5 -4 0 46.6 6
5 -4 0 38.5 8.5
-5 4 0 29 9.7
4 -4 0 9.5 3
4 -4 0 9.4 1.1
4 -4 0 11.2 5.1
3 -4 0 99.59 6.2
3 -4 0 96.09 5.2
3 -4 0 90.89 10.3
3 -4 0 99.89 9
-3 4 0 102.29 6.5
2 -4 0 481.65 28.1
2 -4 0 461.05 24.2
2 -4 0 453.45 29.5
2 -4 0 492.05 25.2
-2 4 0 495.75 25.4
1 -4 0 229.68 15.5
1 -4 0 239.08 13
1 -4 0 225.08 16.6
1 -4 0 229.08 13.3
1 -4 0 251.47 13.5
1 -4 0 235.88 12.8
-1 4 0 237.28 13.6
-1 4 0 247.78 13
0 -4 0 985.7 57.19
0 -4 0 1030.8 52.99
0 -4 0 1039.8 52.89
0 -4 0 1030.5 53.09
0 -4 0 1078.89 56.29
0 -4 0 1045.3 53.29
0 4 0 1037.6 53.59
0 4 0 1068.79 52.99
-1 -4 0 4.2 1.7
-1 -4 0 3.8 3.1
-1 -4 0 6.3 3.1
-1 -4 0 4.8 1.7
1 4 0 1.9 1.1
1 4 0 3.1 1.4
1 4 0 6.1 2.1
-2 -4 0 31.7 6
2 4 0 28.2 3.5
2 4 0 20.1 3.6
-3 -4 0 0.6 2.3
-3 -4 0 0.6 3.1
3 4 0 3.2 2.2
3 4 0 0.7 2
3 4 0 0 1.6
3 4 0 -0.6 1.9
4 4 0 29.1 3.7
4 4 0 34.2 4.1
7 -5 0 20.7 5
3 -5 0 49.99 3.2
3 -5 0 46 6.9
3 -5 0 49.1 4.2
3 -5 0 53.39 4.3
3 -5 0 49 4.1
-3 5 0 55.49 4.6
2 -5 0 270.77 19.1
2 -5 0 273.07 15.5
2 -5 0 272.77 15.4
2 -5 0 274.07 14.6
2 -5 0 278.97 14.9
2 -5 0 263.17 15.3
-2 5 0 271.97 14.9
-2 5 0 255.07 15.7
1 -5 0 37.4 3.4
1 -5 0 35.9 3.6
1 -5 0 37.2 5.8
1 -5 0 37.3 3.3
1 -5 0 36.4 3.6
-1 5 0 29.2 3.6
-1 5 0 37.9 3.4
0 -5 0 189.68 12.1
0 -5 0 194.18 12.2
0 -5 0 195.08 15.7
0 -5 0 212.68 12.6
0 -5 0 217.28 12.4
0 5 0 189.48 12.6
0 5 0 207.58 12.9
0 5 0 205.98 12.1
-1 -5 0 15.3 3.3
-1 -5 0 20.1 3.4
-1 -5 0 18.7 3.1
-1 -5 0 15.3 5
1 5 0 17.3 3.5
1 5 0 13.8 2.7
1 5 0 12.6 2.8
-2 -5 0 4.3 3.8
-2 -5 0 10.9 3.4
2 5 0 6.2 2.5
2 5 0 13.3 3
2 5 0 2.3 2
3 5 0 5.5 1.9
3 5 0 6.5 2
4 -6 0 29.2 3.4
3 -6 0 45.5 4.5
3 -6 0 58.59 4.8
3 -6 0 46.1 4.8
3 -6 0 46.6 8
3 -6 0 55.79 3.8
3 -6 0 59.89 4.8
-3 6 0 51.09 5
2 -6 0 105.09 11.8
2 -6 0 114.79 8.3
2 -6 0 122.79 7.6
2 -6 0 124.29 7.8
2 -6 0 123.09 8.3
2 -6 0 120.09 8.3
2 -6 0 114.39 8.3
-2 6 0 132.49 10
-2 6 0 117.89 7.8
1 -6 0 11 3
1 -6 0 9.6 3.1
1 -6 0 14.7 2.6
1 -6 0 14.2 2.7
1 -6 0 17.1 2.9
1 -6 0 21.8 6.2
1 -6 0 10.9 2.3
1 -6 0 12.3 2.6
1 -6 0 13.9 2.9
-1 6 0 13 2.9
-1 6 0 12.9 2.6
0 -6 0 40.2 5.2
0 -6 0 51.29 8.3
0 -6 0 48.9 5.2
0 -6 0 44.6 4.5
0 -6 0 40.7 4.7
0 -6 0 47 4.7
0 -6 0 36.8 4.7
0 -6 0 47.9 4.7
0 6 0 47.8 5.1
0 6 0 52.19 5.2
0 6 0 45.5 4.4
-1 -6 0 -1.3 2.2
-1 -6 0 3.8 2.4
1 6 0 0.4 1.5
1 6 0 -0.4 1.7
2 6 0 6.1 1.9
4 -7 0 26.1 3.2
4 -7 0 27.4 3.5
4 -7 0 25 4.1
3 -7 0 3.3 4.3
3 -7 0 4.9 1.8
3 -7 0 2.9 2
3 -7 0 2.3 1.5
3 -7 0 2.4 1.7
3 -7 0 5.5 2.1
3 -7 0 4 1.1
-3 7 0 3.3 1.8
2 -7 0 4.8 1.5
2 -7 0 3.3 3.1
2 -7 0 1.3 4.1
2 -7 0 4.8 1.8
2 -7 0 9.2 2.5
2 -7 0 6.2 2.2
2 -7 0 6.6 2.1
2 -7 0 6.4 2.4
-2 7 0 7.6 2.6
-2 7 0 6.3 2
1 -7 0 2.5 1.8
1 -7 0 -1.8 1.5
1 -7 0 2.4 1.6
1 -7 0 1.4 1.9
1 -7 0 0 1.5
1 -7 0 -0.3 1.3
1 -7 0 2 1.9
-1 7 0 0.8 1.4
-1 7 0 -0.2 1.7
-1 7 0 0.7 1.9
0 -7 0 5.7 2.3
0 -7 0 6.3 1.9
0 -7 0 5.5 2.4
0 7 0 5.7 1.9
-1 -7 0 27.7 3.4
1 7 0 22.5 2.7
4 -8 0 75.49 5.5
4 -8 0 81.99 6.3
4 -8 0 77.69 5.5
3 -8 0 2.2 1.6
3 -8 0 1.9 2
3 -8 0 -0.7 1.2
2 -8 0 31.7 3.4
2 -8 0 35.5 3.5
2 -8 0 35.9 4.1
-1 8 -1 9.1 1.7
1 -8 1 7.3 1.9
1 -8 1 9.7 2.3
1 -8 1 12.4 2
2 -8 1 51.19 4.5
2 -8 1 55.99 4.6
2 -8 1 66.29 5.4
3 -8 1 121.59 7.4
3 -8 1 111.19 8.2
3 -8 1 107.79 7.5
4 -8 1 0.5 1.8
4 -8 1 -0.4 1
1 7 -1 8.6 1.9
-1 -7 1 6.3 2.9
0 7 -1 17.9 2.9
0 -7 1 15.6 3.2
0 -7 1 20.9 3.6
0 -7 1 20.9 3
-1 7 -1 33.3 4.4
-1 7 -1 33.3 4.1
-1 7 -1 39.7 4
1 -7 1 41.7 4.3
1 -7 1 33.3 4.5
1 -7 1 41.1 3.9
1 -7 1 36.9 4.2
1 -7 1 35.3 4.2
1 -7 1 32.4 4
1 -7 1 36.2 4.7
-2 7 -1 105.79 8.1
2 -7 1 94.49 11.6
2 -7 1 102.99 7.6
2 -7 1 114.59 7.7
2 -7 1 104.49 7.5
2 -7 1 100.89 6.9
2 -7 1 107.89 8.2
2 -7 1 98.09 7.6
-3 7 -1 124.89 9.1
3 -7 1 125.79 13.2
3 -7 1 122.79 7.5
3 -7 1 123.89 8.6
3 -7 1 137.99 8.7
3 -7 1 114.79 8.5
3 -7 1 128.29 8.5
3 -7 1 132.19 9.4
4 -7 1 53.89 4.9
4 -7 1 59.69 5.9
4 -7 1 60.49 4.8
2 6 -1 10.2 2.4
1 6 -1 9 2.6
1 6 -1 6.5 2.3
1 6 -1 6.7 2.3
-1 -6 1 9 2.8
-1 -6 1 10.9 3
-1 -6 1 7.1 2.2
0 6 -1 217.48 14.2
0 6 -1 226.98 13.7
0 6 -1 224.28 14.5
0 -6 1 215.98 14.5
0 -6 1 239.18 18.9
0 -6 1 231.88 13.9
0 -6 1 225.68 14
0 -6 1 252.97 14.1
0 -6 1 237.08 13.9
0 -6 1 232.58 14.4
0 -6 1 224.08 14.1
-1 6 -1 29.3 4
-1 6 -1 24.8 3.2
1 -6 1 34.3 3.5
1 -6 1 27.6 3.6
1 -6 1 24.8 4
1 -6 1 25.3 3.4
1 -6 1 29.3 4.3
1 -6 1 23.2 3.6
1 -6 1 23.6 3.5
1 -6 1 24.5 6.1
-2 6 -1 20.3 3.2
-2 6 -1 14.3 3
2 -6 1 13.2 2.6
2 -6 1 16.6 2.1
2 -6 1 9.9 4.5
2 -6 1 16 3.1
2 -6 1 10.9 2.3
2 -6 1 13 2.5
-3 6 -1 2 1.5
3 -6 1 -0.8 1.1
3 -6 1 1.6 2.4
3 -6 1 1.5 3.2
3 -6 1 -2.3 1
3 -6 1 0.3 0.7
3 -6 1 1.1 1.3
4 -6 1 19.4 1.8
4 -6 1 16.6 5.5
4 -6 1 22.8 3.4
3 5 -1 60.99 5.5
2 5 -1 4.4 2.2
2 5 -1 5.8 2.3
-2 -5 1 9.4 4.4
-2 -5 1 5.6 2.7
1 5 -1 3.4 2.1
1 5 -1 1.8 1.5
1 5 -1 5.7 2.1
-1 -5 1 8.2 2.4
-1 -5 1 5.5 2
-1 -5 1 6 3.4
-1 -5 1 7.6 2.8
0 5 -1 10.8 2.5
0 5 -1 8.3 2.6
0 5 -1 14.5 2.6
0 -5 1 11.8 4
0 -5 1 12.9 2.5
0 -5 1 8.5 2.2
0 -5 1 10.6 2.4
0 -5 1 11.8 2.7
-1 5 -1 29.2 3.4
-1 5 -1 32.3 3.2
1 -5 1 32.4 5.4
1 -5 1 36.2 3.6
1 -5 1 35.6 3.5
1 -5 1 25 7.4
1 -5 1 35.6 3.2
1 -5 1 36.6 3.1
-2 5 -1 45.7 4
-2 5 -1 35.7 3.7
2 -5 1 40.3 5.9
2 -5 1 35.2 3.6
2 -5 1 43 3.1
2 -5 1 39.4 3.6
2 -5 1 38.5 7.3
-3 5 -1 42.3 3.9
3 -5 1 45.1 8.5
3 -5 1 43 6.5
3 -5 1 44.3 3.9
3 -5 1 45.3 3
4 -5 1 15.6 2.6
4 -5 1 25.5 6.5
4 -5 1 13.1 6.9
5 -5 1 36.2 6.6
6 -5 1 10.6 4.2
6 -5 1 4.8 3.7
7 -5 1 6.2 3.5
4 4 -1 24.1 3.6
4 4 -1 27.3 3.7
3 4 -1 63.99 5.9
3 4 -1 53.99 5.6
3 4 -1 55.69 5.4
-3 -4 1 62.29 8.3
2 4 -1 111.49 8
2 4 -1 123.49 8.4
-2 -4 1 108.59 12.6
1 4 -1 27.4 3.4
1 4 -1 30.9 3.2
1 4 -1 31.2 3.5
-1 -4 1 27.4 3.2
-1 -4 1 32.4 5.2
-1 -4 1 30.9 6.2
0 4 -1 55.79 4.7
0 4 -1 61.89 4.9
0 4 -1 58.59 4.4
0 -4 1 60.49 4.7
0 -4 1 67.99 4.5
0 -4 1 57.89 4.5
0 -4 1 62.59 4.6
0 -4 1 66.69 6.7
0 -4 1 61.89 7.4
-1 4 -1 2.6 1.1
-1 4 -1 2.4 0.9
1 -4 1 3.1 0.9
1 -4 1 0.9 0.9
1 -4 1 3.9 2.5
1 -4 1 4.3 1.9
1 -4 1 1.5 0.7
-2 4 -1 334.67 16.7
2 -4 1 303.47 21.2
2 -4 1 309.37 16.3
2 -4 1 301.27 19.2
2 -4 1 295.27 15.5
2 -4 1 251.97 17.2
3 -4 1 178.48 16.4
3 -4 1 212.78 14.7
3 -4 1 205.08 10.3
3 -4 1 187.98 13
4 -4 1 95.09 8.4
4 -4 1 97.69 5.6
4 -4 1 84.69 11.4
4 -4 1 90.29 9
-5 4 -1 4.7 5.5
5 -4 1 0.5 2.4
5 -4 1 5.5 5.4
6 -4 1 17 4.6
6 -4 1 22.7 2.4
6 -4 1 26.5 5.6
7 -4 1 23.8 5.1
7 -4 1 17.5 4.9
7 -4 1 16.1 2
5 3 -1 16.7 2.9
4 3 -1 89.19 7
4 3 -1 81.99 7.2
4 3 -1 98.39 7
4 3 -1 84.49 7.2
-4 -3 1 84.49 7.7
3 3 -1 11.6 2.6
3 3 -1 17.6 3.4
3 3 -1 10.8 2.4
-3 -3 1 13.4 3.3
-3 -3 1 13 4.4
-3 -3 1 8.2 4.6
2 3 -1 33.3 3.5
2 3 -1 31.7 3.5
2 3 -1 30.6 3.1
-2 -3 1 36.1 5.2
-2 -3 1 31.3 6.2
-2 -3 1 29.2 3.7
1 3 -1 0 0.6
1 3 -1 0.6 0.7
-1 -3 1 0 1.2
-1 -3 1 0.6 1.7
-1 -3 1 0 2
-1 -3 1 0.6 1.1
-1 -3 1 -0.1 1.5
0 3 -1 0.6 0.6
0 -3 1 1.9 1.4
0 -3 1 0.3 0.9
0 -3 1 0.8 1.2
0 -3 1 1.2 1.1
-1 3 -1 34.1 2.7
-2 3 -1 98.69 5.8
2 -3 1 95.19 9.1
2 -3 1 97.39 5.7
3 -3 1 653.93 34.6
3 -3 1 700.83 36.5
3 -3 1 709.73 40.6
3 -3 1 644.94 37.3
-4 3 -1 32.2 8.7
4 -3 1 40.8 3.2
4 -3 1 55.19 8.3
4 -3 1 42.8 5.1
4 -3 1 41.6 3.9
4 -3 1 37.2 5.3
-5 3 -1 -2.7 3.6
5 -3 1 1.7 1.1
5 -3 1 0.5 1.7
5 -3 1 0.5 2.2
5 -3 1 3.4 4.1
-6 3 -1 10.3 4
-6 3 -1 -0.6 5.7
6 -3 1 7.6 4.1
6 -3 1 3.5 3
6 -3 1 6.7 1.9
6 -3 1 4.8 2.9
-7 3 -1 2.4 3
7 -3 1 3.1 3.6
7 -3 1 3.1 1.3
7 -3 1 6.4 2.7
6 2 -1 43.9 4.2
5 2 -1 -0.3 1.6
5 2 -1 2 4.1
5 2 -1 -3 1.5
-5 -2 1 -1.1 2.7
-5 -2 1 -0.2 1.9
4 2 -1 73.49 9.9
4 2 -1 68.19 5.7
4 2 -1 78.69 6.4
4 2 -1 84.29 6.5
-4 -2 1 78.19 7.3
-4 -2 1 78.69 8.2
-4 -2 1 70.39 11.5
3 2 -1 70.89 5.8
3 2 -1 72.59 5.7
3 2 -1 73.19 5.4
-3 -2 1 86.29 6.7
-3 -2 1 83.69 10.6
-3 -2 1 80.89 8
2 2 -1 402.16 21.6
2 2 -1 391.46 21.3
2 2 -1 392.16 21.6
-2 -2 1 415.46 22.2
-2 -2 1 424.36 26.4
-2 -2 1 415.86 23.8
1 2 -1 112.79 7.3
1 2 -1 133.89 7.4
1 2 -1 142.69 7.7
-1 -2 1 149.79 10.3
-1 -2 1 132.99 10.5
0 2 -1 13.6 2.6
0 2 -1 12.6 1
0 2 -1 13 1.3
0 -2 1 12.7 2.4
0 -2 1 12.8 2.8
0 -2 1 14.9 2.3
-1 2 -1 164.38 9.9
-1 2 -1 178.28 9.5
-1 2 -1 172.68 9
-1 2 -1 175.48 9.2
1 -2 1 192.68 10.3
1 -2 1 181.78 9
1 -2 1 178.58 9.1
1 -2 1 172.78 9.4
1 -2 1 164.28 10.3
1 -2 1 190.08 12.6
1 -2 1 187.98 10.6
-2 2 -1 351.26 17
2 -2 1 288.57 20.1
2 -2 1 324.07 17.3
2 -2 1 330.07 16.9
2 -2 1 356.36 17
2 -2 1 328.57 17
3 -2 1 161.38 9.5
3 -2 1 159.68 13.4
3 -2 1 196.48 11.5
3 -2 1 166.28 10
-4 2 -1 343.17 21.6
4 -2 1 245.28 20.9
-5 2 -1 3.9 3
-5 2 -1 0 4.3
5 -2 1 3.5 1.9
5 -2 1 1.8 2.2
5 -2 1 2.3 2.2
5 -2 1 4 1.6
5 -2 1 2.9 1.4
-6 2 -1 79.59 9.2
6 -2 1 95.19 9.6
6 -2 1 101.59 10.8
6 -2 1 102.79 9.3
6 -2 1 96.29 7.2
6 -2 1 100.39 6.9
7 -2 1 0.1 2.2
7 -2 1 -1.9 3.4
6 1 -1 2.4 1.8
6 1 -1 0.2 1.6
6 1 -1 5.6 3.8
-6 -1 1 1.8 2.8
5 1 -1 31.4 4.1
5 1 -1 22.6 5.7
5 1 -1 23.6 3.5
-5 -1 1 22.1 5
-5 -1 1 31.8 5.1
4 1 -1 10.6 2.3
4 1 -1 6.6 1.6
4 1 -1 13 2.8
4 1 -1 12 3.3
4 1 -1 17.9 2.9
-4 -1 1 8.3 5.5
-4 -1 1 13.3 3.5
3 1 -1 190.18 12
3 1 -1 192.38 11.6
3 1 -1 201.58 11.2
-3 -1 1 193.48 12.6
-3 -1 1 206.18 14
-3 -1 1 215.08 17.5
2 1 -1 683.73 40.6
2 1 -1 679.53 36.5
2 1 -1 748.93 36.2
2 1 -1 741.43 36.4
-2 -1 1 695.73 40.6
1 1 -1 1047.3 52.99
1 1 -1 984.2 53.09
1 1 -1 1022.6 55.29
1 1 -1 1123.49 56.29
1 1 -1 1022.5 53.09
-1 -1 1 1127.99 55.59
-1 -1 1 1077.79 56.89
-1 -1 1 1084.69 55.49
0 1 -1 413.36 22.5
0 -1 1 400.56 22.6
0 -1 1 380.76 22.5
0 -1 1 484.25 22.5
-1 1 -1 1671.43 77.79
-1 1 -1 1575.44 78.29
1 -1 1 1401.86 77.19
1 -1 1 1597.94 77.59
1 -1 1 1522.55 77.09
-2 1 -1 1206.38 58.39
2 -1 1 1093.39 57.79
2 -1 1 1130.69 56.59
2 -1 1 1084.29 56.89
-3 1 -1 95.59 11.4
3 -1 1 109.99 7.3
3 -1 1 107.89 6.7
3 -1 1 115.59 10.3
3 -1 1 114.89 10
3 -1 1 121.69 9.7
-4 1 -1 134.59 12.8
-4 1 -1 176.28 11.2
-4 1 -1 113.09 15.3
4 -1 1 148.79 10.2
4 -1 1 130.79 8.8
4 -1 1 139.09 8.8
4 -1 1 144.99 9.7
-5 1 -1 45.9 12.9
-5 1 -1 35.2 6
-5 1 -1 36.9 7.2
5 -1 1 32.3 4
5 -1 1 39.8 3.9
5 -1 1 41.4 4.3
5 -1 1 42.4 5.6
-6 1 -1 171.58 13.6
6 -1 1 189.58 13.3
6 -1 1 167.38 11.3
6 -1 1 179.08 13.7
6 -1 1 163.88 10.8
6 -1 1 184.68 14.3
6 -1 1 170.58 10.9
7 -1 1 1.3 3.4
7 -1 1 5.4 2.9
7 -1 1 1.9 2
7 0 -1 2.2 1.6
7 0 -1 2.6 3.3
7 0 -1 3 2.5
-7 0 1 2.7 2.4
6 0 -1 2.3 4
6 0 -1 10.8 2.6
6 0 -1 7.6 2.3
6 0 -1 6.9 3.1
-6 0 1 3.1 2.5
5 0 -1 3 1.9
5 0 -1 3.3 1.6
5 0 -1 5.7 2.9
5 0 -1 2.1 5.3
-5 0 1 3.4 4.7
-5 0 1 5.8 3.1
4 0 -1 340.47 19.1
4 0 -1 305.17 17.8
4 0 -1 294.47 17.5
4 0 -1 320.57 17.5
4 0 -1 318.77 18.7
-4 0 1 318.57 26.1
-4 0 1 327.77 19.6
3 0 -1 132.59 11.4
3 0 -1 134.29 8
3 0 -1 134.39 8.5
3 0 -1 137.99 8.7
-3 0 1 123.69 8.9
-3 0 1 134.19 13
2 0 -1 364.96 19.5
2 0 -1 374.86 19
2 0 -1 350.66 21.2
2 0 -1 377.46 21.9
2 0 -1 367.66 19.2
-2 0 1 382.16 21.5
1 0 -1 1113.69 61.69
1 0 -1 1312.57 62.79
1 0 -1 1130.79 61.59
1 0 -1 1285.07 63.09
-1 0 1 1286.67 63.49
-1 0 1 1304.77 62.79
0 0 -1 2955.6 144.79
0 0 1 2991.3 145.09
0 0 1 2764.02 144.39
-1 0 -1 3110.99 136.49
1 0 1 2380.26 134.39
1 0 1 2646.54 137.09
1 0 1 2707.03 135.89
-2 0 -1 1817.02 94.39
2 0 1 1784.22 94.49
2 0 1 1868.61 91.89
2 0 1 1848.52 95.99
-3 0 -1 2.2 2.6
-3 0 -1 1.1 2.1
-3 0 -1 3 2
3 0 1 0 1.5
3 0 1 1.1 1.5
3 0 1 1.7 1.2
3 0 1 0.3 0.7
-4 0 -1 327.07 19.7
-4 0 -1 308.67 26.4
-4 0 -1 314.07 22.2
4 0 1 305.97 18.7
4 0 1 310.37 17.9
4 0 1 303.57 17.8
4 0 1 317.37 17.5
4 0 1 322.27 18.8
-5 0 -1 3.8 2.9
-5 0 -1 -0.1 5
-5 0 -1 3.7 3.6
5 0 1 3.2 1.6
5 0 1 2.7 3.7
5 0 1 3.2 2
5 0 1 0.9 3.2
-6 0 -1 -1.2 1.9
6 0 1 -1.2 1.7
6 0 1 -2.2 2.4
6 0 1 0.9 1.7
6 0 1 3.4 3.7
-7 0 -1 6.3 2.4
7 0 1 7.3 3.2
7 0 1 12.9 3.2
7 -1 -1 -0.5 1.5
7 -1 -1 4.3 2.6
7 -1 -1 4.2 1.7
7 -1 -1 -0.9 3.3
6 -1 -1 38.2 4.1
6 -1 -1 28.6 6.4
6 -1 -1 29.8 5.6
6 -1 -1 30.7 3.8
6 -1 -1 31.7 3.8
-6 1 1 30.8 6
5 -1 -1 36.2 3.8
5 -1 -1 43.2 6
5 -1 -1 34.8 5.1
5 -1 -1 33.8 3.8
5 -1 -1 39.1 3.8
-5 1 1 38.9 5.7
-5 1 1 37.1 9.9
3 -1 -1 2.5 0.8
3 -1 -1 3.3 1.7
3 -1 -1 2.6 1.8
3 -1 -1 2.5 1.1
-3 1 1 3.5 2.7
2 -1 -1 8859.11 419.06
2 -1 -1 8653.53 418.76
2 -1 -1 7824.42 421.06
2 -1 -1 8437.56 419.06
-2 1 1 8496.65 420.66
0 -1 -1 724.53 35.7
0 1 1 653.13 34
0 1 1 738.93 35.6
0 1 1 627.54 36.2
0 1 1 662.53 34
-1 -1 -1 2336.27 115.79
-1 -1 -1 2308.37 112.69
1 1 1 2306.77 117.29
1 1 1 2173.38 112.99
1 1 1 2288.47 112.69
1 1 1 2201.88 115.49
1 1 1 2262.37 112.79
-2 -1 -1 116.49 9.3
-2 -1 -1 116.59 10.8
2 1 1 128.49 11.8
2 1 1 121.39 7.2
2 1 1 120.59 7.6
-3 -1 -1 1.3 1.8
-3 -1 -1 1 2.5
-3 -1 -1 1.6 2.2
3 1 1 0.3 1
3 1 1 1.4 1.5
3 1 1 0.6 1.4
-4 -1 -1 22.2 4.3
-4 -1 -1 22.5 5.5
-4 -1 -1 19 7
4 1 1 21.8 3.9
4 1 1 24.7 3.3
4 1 1 19.1 3.2
-5 -1 -1 1.5 3.1
-5 -1 -1 1 2.2
5 1 1 -1.9 3.1
5 1 1 -0.9 1.5
5 1 1 2.1 1.9
5 1 1 0.1 4
6 1 1 15.8 3.1
6 1 1 16 3.9
6 1 1 16.8 3
7 -2 -1 4.4 3.9
7 -2 -1 4.1 1.6
7 -2 -1 4 2.7
7 -2 -1 1.6 1.6
6 -2 -1 31.8 3.7
6 -2 -1 24.5 3.3
6 -2 -1 30.2 3.4
6 -2 -1 36 6.2
6 -2 -1 29 6
6 -2 -1 31.6 5.6
-6 2 1 28.8 6
-6 2 1 20.5 8.4
5 -2 -1 112.69 7
5 -2 -1 113.09 7
5 -2 -1 107.59 8.9
5 -2 -1 94.59 7.2
5 -2 -1 103.29 8.3
-5 2 1 103.19 9.4
-5 2 1 99.29 14.4
4 -2 -1 2872.41 146.29
4 -2 -1 3014.9 146.69
4 -2 -1 2960.5 148.19
4 -2 -1 3104.59 147.59
4 -2 -1 3170.48 153.58
-4 2 1 2464.45 155.28
3 -2 -1 1308.17 66.39
3 -2 -1 1339.67 70.69
3 -2 -1 1318.77 66.89
2 -2 -1 48.1 3.2
2 -2 -1 51.99 3.1
2 -2 -1 47.4 3.1
2 -2 -1 42.3 4.7
1 -2 -1 123.99 6.8
1 -2 -1 124.39 7.3
1 -2 -1 117.19 6.6
-1 2 1 106.59 7.6
-1 2 1 122.09 6.3
-1 2 1 124.99 6.4
0 -2 -1 371.56 21.9
0 -2 -1 374.56 19.7
0 2 1 378.36 19.8
0 2 1 350.86 22.8
0 2 1 405.16 19.4
0 2 1 393.96 19.5
-1 -2 -1 620.84 32.7
-1 -2 -1 565.64 31.2
-1 -2 -1 523.35 32.8
1 2 1 589.14 29.2
1 2 1 522.25 29.4
1 2 1 603.54 29.4
-2 -2 -1 193.28 13.2
-2 -2 -1 172.38 10.8
-2 -2 -1 196.18 15
2 2 1 163.58 10.7
2 2 1 181.38 10.1
2 2 1 171.38 10.5
-3 -2 -1 1.2 2.1
-3 -2 -1 3 1.9
-3 -2 -1 1.2 3.2
3 2 1 2.8 1.7
3 2 1 1.6 1.1
3 2 1 0.9 1.4
-4 -2 -1 46.2 7
-4 -2 -1 38.8 9.2
4 2 1 38.7 4.6
4 2 1 37.2 4.7
5 2 1 15.4 3.1
5 2 1 13.7 3.2
8 -3 -1 -2.7 3
8 -3 -1 -0.2 1.9
7 -3 -1 2.3 1.1
7 -3 -1 7.9 3.8
7 -3 -1 3.2 2.7
7 -3 -1 4.3 3.2
-7 3 1 -1.9 2.5
6 -3 -1 55.59 4.6
6 -3 -1 67.79 7.4
6 -3 -1 63.69 5.1
6 -3 -1 59.19 7.1
6 -3 -1 79.69 8.8
-6 3 1 52.69 12.3
-6 3 1 68.89 8
5 -3 -1 40 4.5
5 -3 -1 35.4 3.6
5 -3 -1 42.3 3.5
5 -3 -1 41.6 8.2
5 -3 -1 37.8 5.2
5 -3 -1 40.4 3.2
-5 3 1 33.5 10.4
4 -3 -1 1180.88 59.29
4 -3 -1 1218.88 66.59
4 -3 -1 1166.48 61.69
4 -3 -1 1179.18 60.69
4 -3 -1 1182.18 59.99
3 -3 -1 977.6 48
3 -3 -1 940.51 47.7
3 -3 -1 990.3 47.6
3 -3 -1 846.32 51.89
2 -3 -1 461.65 30.5
2 -3 -1 557.94 27.8
2 -3 -1 540.55 27.6
2 -3 -1 562.24 27.4
-2 3 1 522.25 27.3
-2 3 1 566.34 27.2
1 -3 -1 782.52 44.8
1 -3 -1 903.41 43.6
1 -3 -1 792.62 45.7
-1 3 1 931.81 43.3
-1 3 1 857.31 43.6
-1 3 1 857.51 42.9
0 -3 -1 72.39 6.4
0 -3 -1 61.39 6.7
0 -3 -1 60.99 5.6
0 -3 -1 65.59 4.5
0 3 1 64.69 4.6
0 3 1 65.59 4.2
-1 -3 -1 62.79 4.6
-1 -3 -1 70.99 7.5
-1 -3 -1 69.39 6.7
1 3 1 64.69 4.8
1 3 1 61.09 4.6
1 3 1 70.99 4.7
-2 -3 -1 452.45 27.4
2 3 1 416.96 23.8
2 3 1 447.96 23.6
-3 -3 -1 78.29 12.8
-3 -3 -1 79.39 9.1
3 3 1 83.99 6.6
3 3 1 69.39 6.5
3 3 1 66.59 5.8
-4 -3 -1 23.6 5.9
4 3 1 23.6 3.9
4 3 1 22.4 3.7
5 3 1 4.4 2
8 -4 -1 2.8 2.8
8 -4 -1 4.1 2
7 -4 -1 38.1 6.6
7 -4 -1 19 1.8
7 -4 -1 27.1 5.1
6 -4 -1 266.57 18.1
6 -4 -1 238.48 12.7
6 -4 -1 253.57 16.2
-6 4 1 201.88 16.3
5 -4 -1 29.6 2.1
3 -4 -1 346.57 18.9
3 -4 -1 356.36 17.7
3 -4 -1 328.87 18.8
-3 4 1 370.66 19.2
2 -4 -1 29.3 3
2 -4 -1 39.8 2.9
2 -4 -1 32.2 2.3
2 -4 -1 30.9 3
2 -4 -1 36.2 4.9
-2 4 1 35.8 3.2
1 -4 -1 65.69 4.4
1 -4 -1 64.09 4.7
1 -4 -1 65.89 4.9
1 -4 -1 65.79 4.5
1 -4 -1 63.59 4.9
1 -4 -1 69.89 6.6
-1 4 1 69.69 5.2
0 -4 -1 62.49 4.7
0 -4 -1 65.99 6.9
0 -4 -1 61.89 4.8
0 -4 -1 68.29 4.9
0 -4 -1 65.69 5
0 4 1 64.59 5.1
0 4 1 64.29 4.7
-1 -4 -1 46 4.1
-1 -4 -1 42.9 6.2
-1 -4 -1 42.9 4
1 4 1 39.9 4.2
1 4 1 56.69 8
1 4 1 36.2 4.2
1 4 1 45.3 4.4
1 4 1 50.99 4.2
-2 -4 -1 193.88 14.8
-2 -4 -1 221.08 16.8
2 4 1 218.98 13.6
2 4 1 208.28 12.6
2 4 1 206.78 13.1
2 4 1 186.38 12.6
-3 -4 -1 -0.1 3
-3 -4 -1 2.1 2.5
3 4 1 3.9 2.1
3 4 1 0 1.9
3 4 1 2.4 2.1
3 4 1 1 1.8
4 4 1 -2.4 1.5
3 -5 -1 39.1 2.6
3 -5 -1 43.1 3.9
3 -5 -1 33.3 3.5
3 -5 -1 33.2 3.5
3 -5 -1 45.6 8.7
3 -5 -1 38.7 3.9
-3 5 1 42.3 4
2 -5 -1 328.37 22
2 -5 -1 349.96 17.9
2 -5 -1 298.67 18
2 -5 -1 339.77 17.5
2 -5 -1 319.57 18.5
2 -5 -1 337.97 18.5
-2 5 1 309.07 17.8
-2 5 1 330.07 18.8
1 -5 -1 168.98 10.5
1 -5 -1 167.38 10.5
1 -5 -1 163.08 10
1 -5 -1 163.98 9.8
1 -5 -1 164.48 10.3
1 -5 -1 158.08 13.3
-1 5 1 176.98 10
-1 5 1 152.38 10.6
0 -5 -1 148.89 9.3
0 -5 -1 142.09 9.2
0 -5 -1 128.69 9.1
0 -5 -1 144.59 9.4
0 -5 -1 132.49 12.4
0 -5 -1 138.59 9
0 5 1 145.89 9.1
0 5 1 125.29 9.4
0 5 1 138.49 9.6
-1 -5 -1 137.69 13.2
-1 -5 -1 127.99 9.7
-1 -5 -1 154.58 10.3
-1 -5 -1 142.69 9.6
1 5 1 149.79 9.5
1 5 1 151.58 10.1
1 5 1 143.49 9.8
1 5 1 133.99 9.7
-2 -5 -1 56.99 8.6
-2 -5 -1 55.79 5.6
-2 -5 -1 47.4 5.7
2 5 1 51.49 5.5
2 5 1 55.09 5.3
2 5 1 50.69 5
3 5 1 34 3.6
3 5 1 20.4 3.2
4 -6 -1 341.87 19
4 -6 -1 337.97 18.9
3 -6 -1 70.89 5.8
3 -6 -1 76.19 5.7
3 -6 -1 69.19 5.6
3 -6 -1 65.59 5.6
3 -6 -1 62.99 4.5
-3 6 1 74.19 5.4
2 -6 -1 112.59 12.1
2 -6 -1 110.39 8
2 -6 -1 105.09 7.8
2 -6 -1 106.19 7.9
2 -6 -1 108.99 7.2
2 -6 -1 122.09 8.2
2 -6 -1 117.49 8.7
2 -6 -1 118.89 7.6
-2 6 1 110.09 7.5
1 -6 -1 51.59 5.2
1 -6 -1 61.29 5.4
1 -6 -1 69.89 5.9
1 -6 -1 64.39 5.5
1 -6 -1 55.59 4.9
1 -6 -1 60.19 5.4
1 -6 -1 50.89 5.8
1 -6 -1 57.39 8.7
1 -6 -1 61.19 5.2
-1 6 1 60.49 5.7
-1 6 1 60.09 5.2
0 -6 -1 33.7 5
0 -6 -1 29.7 3.8
0 -6 -1 23.1 3.5
0 -6 -1 22.2 3.7
0 -6 -1 26.1 7.1
0 -6 -1 18.3 3.8
0 -6 -1 24.1 3.6
0 -6 -1 25.7 3.9
0 6 1 27.2 3.5
0 6 1 21.7 3.8
-1 -6 -1 51.99 5.6
-1 -6 -1 49.9 5.5
1 6 1 40.6 4.4
1 6 1 50.69 4.9
-2 -6 -1 31.4 3.9
2 6 1 25.2 3.1
4 -7 -1 183.08 10.8
4 -7 -1 165.48 10.7
4 -7 -1 174.18 10.8
3 -7 -1 7 2.2
3 -7 -1 4.7 1.3
3 -7 -1 3.2 1.8
3 -7 -1 8.1 2.8
3 -7 -1 6.6 2.3
3 -7 -1 8.4 2.2
-3 7 1 7.1 2.3
2 -7 -1 1.9 1.6
2 -7 -1 1.2 1
2 -7 -1 2.2 1.7
2 -7 -1 2.6 1.9
2 -7 -1 0.3 1.4
2 -7 -1 0.1 1.6
2 -7 -1 0 1.8
-2 7 1 0.3 1.5
-2 7 1 4.5 2
1 -7 -1 106.59 7.4
1 -7 -1 104.99 7.5
1 -7 -1 104.39 7.2
1 -7 -1 104.39 7.7
1 -7 -1 89.09 7.3
1 -7 -1 102.89 8
-1 7 1 93.49 6.9
-1 7 1 104.09 7.5
-1 7 1 96.19 7.6
0 -7 -1 15.3 3
0 -7 -1 16.6 3.1
0 -7 -1 13.6 2.4
0 7 1 13.7 2.4
4 -8 -1 2.2 2
4 -8 -1 -0.4 1.3
4 -8 -1 2 1.3
3 -8 -1 72.79 6
3 -8 -1 63.89 5.1
3 -8 -1 66.29 5.1
2 -8 -1 0.7 1.6
2 -8 -1 -2.1 1.6
2 -8 -1 0.3 1.1
2 -8 -1 0.8 1.2
-2 8 1 0.6 1.3
-1 8 -2 6.5 2.1
1 -8 2 2.5 1.3
1 -8 2 4.8 2
2 -8 2 28.6 3.3
2 -8 2 26.9 3.9
2 -8 2 31.1 3.1
3 -8 2 66.79 5
3 -8 2 58.59 5.5
3 -8 2 61.69 4.9
4 -8 2 18 3.1
4 -8 2 15 2.3
5 -8 2 3 1.9
1 7 -2 20.6 2.7
0 7 -2 9.4 3.8
0 7 -2 4.6 1.8
0 -7 2 9.3 2.1
0 -7 2 8.6 2.6
0 -7 2 4.9 2.3
-1 7 -2 179.38 11.2
-1 7 -2 170.38 11.6
1 -7 2 186.68 11.4
1 -7 2 180.98 11.2
1 -7 2 185.58 11.9
1 -7 2 159.88 10.8
1 -7 2 172.28 11
1 -7 2 175.48 11
-2 7 -2 2.6 1.8
2 -7 2 4.7 4.2
2 -7 2 2.3 1.2
2 -7 2 0.5 1.6
2 -7 2 0.9 1.9
2 -7 2 2.6 1.7
2 -7 2 2.9 1.8
2 -7 2 1.1 1.6
-3 7 -2 51.19 4.9
3 -7 2 50.69 5.4
3 -7 2 46.8 4.5
3 -7 2 47.1 3.7
3 -7 2 50.99 4.7
3 -7 2 42.5 8.3
3 -7 2 52.09 4.7
3 -7 2 41.2 4.4
4 -7 2 8.5 4.9
4 -7 2 5 1.7
4 -7 2 3.7 1.6
4 -7 2 6.1 2.2
4 -7 2 2.9 1.1
5 -7 2 6.7 2.3
2 6 -2 23.3 3.2
1 6 -2 178.48 11.2
1 6 -2 160.28 11.5
1 6 -2 184.98 11.6
-1 -6 2 184.88 11.9
-1 -6 2 181.88 11
0 6 -2 17.5 3.4
0 6 -2 17.4 3.3
0 6 -2 26.2 3.2
0 -6 2 19.6 3.6
0 -6 2 23.4 3.7
0 -6 2 30.1 4.3
0 -6 2 23.5 3.5
0 -6 2 15.6 3.1
0 -6 2 22.6 6.5
0 -6 2 30.6 3.6
0 -6 2 15.7 3.1
-1 6 -2 110.79 7.5
-1 6 -2 122.79 8.6
1 -6 2 114.89 8.2
1 -6 2 115.69 7.9
1 -6 2 104.29 7.8
1 -6 2 102.59 11.6
1 -6 2 103.59 7.5
1 -6 2 106.99 8.6
1 -6 2 114.39 7.9
-2 6 -2 2.8 1.8
-2 6 -2 1.8 1.6
2 -6 2 3.5 1.3
2 -6 2 5.7 3.7
2 -6 2 6 1.7
2 -6 2 2.5 1.6
2 -6 2 4 1.4
2 -6 2 2.5 1.7
-3 6 -2 15.1 2.9
3 -6 2 18.2 2.7
3 -6 2 16.1 2
3 -6 2 16.7 2.9
3 -6 2 25.1 6.9
3 -6 2 21.8 3.3
4 -6 2 21.3 2.2
4 -6 2 33.3 5.3
4 -6 2 20.7 2.8
4 -6 2 25.5 6.6
7 -6 2 10.3 3.5
3 5 -2 45.9 4.8
2 5 -2 26 4
2 5 -2 28.6 3.8
-2 -5 2 26.3 4.4
-2 -5 2 27 6.7
1 5 -2 219.88 14.4
1 5 -2 224.98 14.3
1 5 -2 252.67 14.1
-1 -5 2 232.38 14.1
-1 -5 2 186.38 18.7
-1 -5 2 244.38 14
-1 -5 2 254.97 18.6
-1 -5 2 257.67 14.9
0 5 -2 22.4 2.8
0 5 -2 23 3.4
0 5 -2 25.1 3.4
0 -5 2 20.4 3
0 -5 2 20 6.3
0 -5 2 23.2 3.1
0 -5 2 27.6 5.2
0 -5 2 20.5 2.9
0 -5 2 16.5 2.7
-1 5 -2 121.69 7.9
-1 5 -2 134.19 8.8
-1 5 -2 133.49 8.8
1 -5 2 138.79 8.2
1 -5 2 128.69 11.5
1 -5 2 125.89 8
1 -5 2 128.79 8.4
1 -5 2 126.39 8.4
1 -5 2 127.79 13.1
-2 5 -2 0.9 1
2 -5 2 0.8 0.7
2 -5 2 0.3 0.9
2 -5 2 0.4 1
2 -5 2 1.1 2.2
2 -5 2 3.4 2.5
2 -5 2 1.8 3.4
3 -5 2 28.5 3
3 -5 2 22.7 4.8
3 -5 2 26 7.3
3 -5 2 25.9 2.2
3 -5 2 28.7 5.4
4 -5 2 52.19 10.1
4 -5 2 58.09 8.2
4 -5 2 51.69 4.3
4 -5 2 63.89 7.2
-5 5 -2 51.59 13.2
5 -5 2 65.99 9
5 -5 2 64.99 4.3
5 -5 2 64.59 9.2
5 -5 2 62.19 12.3
5 -5 2 69.39 8.1
6 -5 2 4.5 0.9
6 -5 2 11.1 4.3
6 -5 2 0.1 4.1
7 -5 2 30.4 6.1
4 4 -2 1.9 2
4 4 -2 2.7 1.8
3 4 -2 58.19 5.6
3 4 -2 63.89 5.7
3 4 -2 59.99 5.9
-3 -4 2 64.29 8.6
2 4 -2 107.69 7.6
2 4 -2 106.79 8.3
2 4 -2 107.39 7.9
-2 -4 2 104.29 12.1
-2 -4 2 105.69 8.4
-2 -4 2 104.79 10.4
1 4 -2 0.1 1.1
1 4 -2 0.6 1.2
1 4 -2 2.4 1.2
-1 -4 2 -0.4 1
-1 -4 2 0.7 1.9
-1 -4 2 -1.1 1.4
-1 -4 2 0.8 2.8
0 4 -2 129.99 8.4
0 4 -2 130.69 8.4
0 4 -2 133.29 7.9
0 -4 2 124.09 8
0 -4 2 136.69 8.1
0 -4 2 131.79 8.8
0 -4 2 125.59 11.5
0 -4 2 131.79 8.2
0 -4 2 129.99 10.4
-1 4 -2 139.39 9
1 -4 2 145.59 9.8
1 -4 2 156.88 8.6
1 -4 2 194.28 10
1 -4 2 149.69 12.6
1 -4 2 144.29 11.2
1 -4 2 138.09 8.8
-2 4 -2 108.29 6.5
2 -4 2 87.59 7.6
2 -4 2 101.29 8.9
2 -4 2 104.09 5.8
2 -4 2 90.19 10
3 -4 2 54.29 8.3
3 -4 2 51.79 3.8
3 -4 2 49.99 3.1
3 -4 2 50.19 5.6
3 -4 2 45.7 6
4 -4 2 86.19 9
4 -4 2 99.59 8.8
4 -4 2 95.29 12
4 -4 2 90.09 5.8
-5 4 -2 1.7 3.2
-5 4 -2 1.6 5.2
5 -4 2 4.7 1.5
5 -4 2 4.6 4.9
5 -4 2 3.2 2.7
5 -4 2 2.4 2.8
6 -4 2 10.7 2
6 -4 2 11.5 4.6
7 -4 2 24.5 5.1
7 -4 2 23.4 5
5 3 -2 42.7 4.4
5 3 -2 50.39 4.6
4 3 -2 134.39 9.2
4 3 -2 96.09 17.1
4 3 -2 145.89 9.6
4 3 -2 143.59 9.8
4 3 -2 122.19 8.9
-4 -3 2 131.89 10.2
3 3 -2 0.2 1.6
3 3 -2 -0.6 1.1
3 3 -2 -2.1 1.7
-3 -3 2 -0.4 2.9
-3 -3 2 -0.6 2
-3 -3 2 0 2.2
2 3 -2 856.21 47.1
2 3 -2 864.01 47.3
2 3 -2 903.81 46.9
-2 -3 2 921.11 49.99
-2 -3 2 945.71 52.99
-2 -3 2 983.2 47.9
1 3 -2 5.8 1.5
1 3 -2 7.6 1.5
-1 -3 2 6.5 1.7
-1 -3 2 4.5 2.7
-1 -3 2 7.1 2.4
-1 -3 2 10.9 3.4
-1 -3 2 5.7 3.1
0 3 -2 0.4 0.5
0 -3 2 4.6 2.1
0 -3 2 2 1.8
0 -3 2 0 1
0 -3 2 0 1
-1 3 -2 438.36 22.9
1 -3 2 450.05 26.3
1 -3 2 430.46 25.3
-2 3 -2 0.3 0.5
2 -3 2 -0.2 1.3
2 -3 2 -0.1 0.9
2 -3 2 0.4 0.4
3 -3 2 293.67 19.5
3 -3 2 327.87 22.6
3 -3 2 314.87 18.7
3 -3 2 328.87 16.5
-4 3 -2 5 3.5
4 -3 2 3.8 2
4 -3 2 1.2 1.3
4 -3 2 4.2 3.1
-5 3 -2 4.6 5.5
-5 3 -2 1.8 3.1
5 -3 2 4.8 1.8
5 -3 2 1 2.3
5 -3 2 2 2.2
5 -3 2 1.7 2.5
5 -3 2 3.4 4.3
-6 3 -2 113.69 10.5
6 -3 2 113.59 10.1
6 -3 2 90.39 10.8
6 -3 2 105.39 7.5
6 -3 2 98.49 9.6
7 -3 2 26 6
7 -3 2 22.1 4.9
6 2 -2 45.9 4.2
-6 -2 2 46.8 5.1
5 2 -2 17.9 3.3
5 2 -2 15.2 3.1
5 2 -2 18.1 5.7
5 2 -2 14.6 3.3
-5 -2 2 23.5 4.4
-5 -2 2 14.8 3.9
4 2 -2 227.88 17.7
4 2 -2 237.08 14.6
4 2 -2 260.27 14.6
4 2 -2 228.38 14.1
-4 -2 2 222.98 21
-4 -2 2 240.28 16.1
-4 -2 2 262.67 15.9
3 2 -2 13.9 2.4
3 2 -2 14.6 2.2
-3 -2 2 17.2 3
-3 -2 2 18.1 5.9
-3 -2 2 18.9 4
2 2 -2 224.88 12.9
2 2 -2 236.28 12.7
2 2 -2 221.28 12.7
-2 -2 2 226.58 13.4
-2 -2 2 232.38 14.6
-2 -2 2 241.18 17.1
1 2 -2 1466.25 79.89
1 2 -2 1679.73 80.39
-1 -2 2 1604.54 84.89
-1 -2 2 1501.95 83.49
-1 -2 2 1764.12 83.59
0 2 -2 2083.79 118.89
0 2 -2 2406.16 121.99
0 -2 2 2471.45 122.59
0 -2 2 2698.63 121.89
0 -2 2 2293.57 122.59
0 -2 2 2469.85 121.79
-1 2 -2 113.49 6.2
-1 2 -2 112.99 7.1
1 -2 2 120.89 8.6
1 -2 2 107.29 7.3
-2 2 -2 51.79 4.1
2 -2 2 48.2 3.3
2 -2 2 52.09 3.1
2 -2 2 43.9 5.4
2 -2 2 52.89 3.8
3 -2 2 145.79 9
3 -2 2 150.48 8.5
3 -2 2 133.59 10.5
3 -2 2 147.39 12.7
3 -2 2 175.68 11.9
4 -2 2 114.89 8
4 -2 2 113.29 7.3
-5 2 -2 27.4 6.8
-5 2 -2 50.09 11.6
5 -2 2 41.8 5.6
5 -2 2 42 8.7
5 -2 2 39.6 4.2
5 -2 2 45.5 5.4
-6 2 -2 1.6 3
6 -2 2 2 2.5
6 -2 2 1.8 2.6
6 -2 2 1.2 1.6
6 -2 2 5.3 3.9
7 -2 2 76.59 7.7
7 -2 2 67.09 8.4
6 1 -2 59.39 8.2
6 1 -2 48.9 4.9
6 1 -2 43.7 4.6
-6 -1 2 50.19 6.5
5 1 -2 3.6 2.1
5 1 -2 3.9 4.1
5 1 -2 4.1 1.8
-5 -1 2 2.4 2.3
-5 -1 2 2.9 3.4
4 1 -2 5.2 1.9
4 1 -2 2.1 1.7
4 1 -2 3.3 1.5
4 1 -2 1.8 1.1
-4 -1 2 2.1 2.1
-4 -1 2 2.5 3.4
3 1 -2 202.08 12.8
3 1 -2 220.38 12.5
3 1 -2 218.78 12.1
-3 -1 2 242.88 18.5
-3 -1 2 215.98 13.5
2 1 -2 221.08 15.7
2 1 -2 205.68 12.2
2 1 -2 227.68 12.1
2 1 -2 231.58 12.1
-2 -1 2 226.28 15.8
1 1 -2 1323.77 71.59
1 1 -2 1419.46 71.79
1 1 -2 1393.06 73.99
1 1 -2 1324.77 71.69
1 1 -2 1508.75 74.59
-1 -1 2 1441.36 75.29
-1 -1 2 1481.75 74.09
-1 -1 2 1541.85 74.99
-1 -1 2 1510.35 74.09
0 1 -2 55.99 4.4
0 1 -2 50.19 4.7
0 -1 2 70.09 4.8
0 -1 2 52.09 4.4
0 -1 2 55.59 4.8
-1 1 -2 3162.28 151.48
1 -1 2 3378.76 151.48
1 -1 2 2925.71 149.99
1 -1 2 2649.83 150.18
-2 1 -2 83.69 6.7
2 -1 2 88.49 6.3
2 -1 2 84.09 7.8
2 -1 2 68.99 7
2 -1 2 80.09 5.1
2 -1 2 79.79 4.8
-3 1 -2 13.1 5.2
-3 1 -2 7.2 3.4
3 -1 2 14.3 3.8
3 -1 2 11.8 1.7
3 -1 2 13.5 3.8
3 -1 2 11.4 2.6
3 -1 2 13.4 2.1
-4 1 -2 83.49 11
-4 1 -2 114.59 15.2
4 -1 2 126.99 7.7
4 -1 2 127.09 8
4 -1 2 126.09 8.8
4 -1 2 123.39 9.1
4 -1 2 141.29 13.4
4 -1 2 118.59 8.1
-5 1 -2 346.87 22.2
-5 1 -2 332.27 31
-5 1 -2 303.77 24.5
5 -1 2 366.26 20.1
5 -1 2 346.17 21.2
5 -1 2 358.76 19.3
-6 1 -2 20 5.1
6 -1 2 19.2 3.6
6 -1 2 15.7 3
6 -1 2 23.9 5.4
6 -1 2 21.2 5.2
6 -1 2 19 4.2
7 -1 2 38.2 5.3
7 -1 2 24.1 5
7 0 -2 0.7 3
7 0 -2 1.6 1.6
-7 0 2 5.3 2.5
6 0 -2 9.7 2.4
6 0 -2 2.2 4.1
6 0 -2 4.1 3
6 0 -2 5.1 2.1
-6 0 2 5.2 2.6
-6 0 2 5.3 3.5
5 0 -2 76.39 6.1
5 0 -2 77.19 6
5 0 -2 80.79 6.1
-5 0 2 67.59 11.8
-5 0 2 78.99 7.8
4 0 -2 15.7 2.4
4 0 -2 14.4 2.3
4 0 -2 16.3 2.1
4 0 -2 18.4 3.1
4 0 -2 15.1 2.3
4 0 -2 11.9 3
-4 0 2 16.6 6.3
-4 0 2 14.1 3.4
3 0 -2 91.59 6.7
3 0 -2 114.59 7.3
3 0 -2 100.79 6.4
3 0 -2 115.09 9.7
-3 0 2 102.59 10.9
-3 0 2 96.19 7.3
2 0 -2 111.09 6
2 0 -2 106.89 6.3
2 0 -2 106.29 8
2 0 -2 110.99 6
-2 0 2 85.79 8.3
-2 0 2 97.39 7.6
-2 0 2 103.29 8.3
1 0 -2 215.18 12.6
1 0 -2 198.58 11
1 0 -2 205.28 11.1
1 0 -2 214.38 12.2
1 0 -2 219.38 12.3
-1 0 2 224.88 12.8
-1 0 2 221.98 12.4
-1 0 2 207.18 12.5
0 0 -2 27.9 2.5
0 0 -2 29.3 3
0 0 2 25.5 2.3
0 0 2 23.8 1.5
0 0 2 24.5 1.6
0 0 2 28.2 3
-1 0 -2 114.99 7.5
1 0 2 98.99 7
1 0 2 91.89 5.4
1 0 2 92.19 5.6
-2 0 -2 0.7 1.6
2 0 2 0.3 0.9
2 0 2 0.2 0.6
2 0 2 0.9 1.7
2 0 2 0.8 0.5
-3 0 -2 433.66 31.9
-3 0 -2 473.65 26.4
-3 0 -2 426.96 28.9
3 0 2 526.55 33.5
3 0 2 463.95 25.9
3 0 2 509.35 25.4
3 0 2 491.35 26
-4 0 -2 480.15 30
-4 0 -2 425.96 33.7
-4 0 -2 451.45 26.1
4 0 2 439.26 24
4 0 2 423.66 25.3
4 0 2 444.66 25.3
4 0 2 439.96 24.5
-5 0 -2 394.96 24.6
-5 0 -2 430.86 28.3
-5 0 -2 387.86 33.2
5 0 2 397.86 23.8
5 0 2 386.06 22.2
5 0 2 397.26 22.2
5 0 2 395.76 25.5
5 0 2 394.26 24.8
-6 0 -2 0.6 2.2
6 0 2 3.2 1.7
6 0 2 -1.2 3.4
6 0 2 -0.6 1.8
6 0 2 1.4 2.5
7 -1 -2 29.5 5.1
7 -1 -2 19.2 5.3
7 -1 -2 27.1 3.4
7 -1 -2 23.3 3.2
-7 1 2 25.6 5
6 -1 -2 93.79 9.4
6 -1 -2 92.99 6.9
6 -1 -2 97.39 7.1
6 -1 -2 95.59 7
6 -1 -2 101.29 10.8
-6 1 2 100.79 9.3
5 -1 -2 69.49 5.4
5 -1 -2 73.49 5.6
5 -1 -2 76.19 7.1
5 -1 -2 96.09 9.6
5 -1 -2 73.79 5.7
-5 1 2 69.09 11.8
-5 1 2 68.39 7.5
4 -1 -2 37.7 3.8
4 -1 -2 29.6 2.9
4 -1 -2 29 2.8
4 -1 -2 27.9 3
4 -1 -2 38.2 4.2
-4 1 2 29.7 7.4
-4 1 2 32 4.4
3 -1 -2 72.89 4.5
3 -1 -2 69.99 4.7
3 -1 -2 80.09 6.3
3 -1 -2 73.99 5.1
-3 1 2 56.69 7.9
2 -1 -2 2437.86 134.09
2 -1 -2 2948.3 134.39
2 -1 -2 2684.63 133.29
-2 1 2 2646.64 134.39
-2 1 2 2690.63 134.89
1 -1 -2 1076.29 53.09
1 -1 -2 1087.79 52.59
1 -1 -2 1052.59 51.99
1 -1 -2 996.6 52.59
1 -1 -2 1042.8 51.99
-1 1 2 971.6 51.79
0 -1 -2 132.99 8.5
0 -1 -2 117.89 6.7
0 1 2 122.49 6.7
0 1 2 122.19 6.6
-1 -1 -2 2253.07 111.79
-1 -1 -2 2075.19 111.89
-1 -1 -2 2122.69 107.79
1 1 2 2254.77 107.99
1 1 2 2153.58 107.89
1 1 2 2161.28 113.49
1 1 2 2158.18 108.29
-2 -1 -2 1516.05 81.69
-2 -1 -2 1455.55 79.29
2 1 2 1530.95 76.79
2 1 2 1551.54 76.29
-3 -1 -2 216.78 15.8
-3 -1 -2 194.78 12.8
-3 -1 -2 188.68 17.5
3 1 2 191.18 12.3
3 1 2 201.98 12
3 1 2 196.68 12.6
3 1 2 206.28 11.8
-4 -1 -2 18 4.1
-4 -1 -2 17.1 7
-4 -1 -2 24.3 5.8
4 1 2 23.5 3.3
4 1 2 20.9 3.4
-5 -1 -2 2.5 3
-5 -1 -2 11.4 4.5
5 1 2 15.9 3.2
5 1 2 12.7 3.1
5 1 2 13.8 4.4
6 1 2 15.1 3
6 1 2 22.8 4.5
6 1 2 19.9 3.1
7 -2 -2 8.7 3.4
7 -2 -2 4.6 1.9
7 -2 -2 6.2 1.8
7 -2 -2 13.6 4.7
6 -2 -2 0.1 2.9
6 -2 -2 -0.7 2.6
6 -2 -2 -0.1 2.2
6 -2 -2 0.4 1.3
6 -2 -2 -0.4 1.5
6 -2 -2 1.4 1.2
-6 2 2 0.7 5
-6 2 2 -1.3 2.4
5 -2 -2 140.99 8.4
5 -2 -2 131.39 10
5 -2 -2 127.89 9.6
5 -2 -2 146.89 8.4
5 -2 -2 138.29 9.8
-5 2 2 127.29 10.6
-5 2 2 116.89 15.8
4 -2 -2 1025.3 56.39
4 -2 -2 1011.8 51.49
4 -2 -2 982.7 50.19
4 -2 -2 971.3 50.69
4 -2 -2 959.6 51.89
-4 2 2 1019.6 52.39
3 -2 -2 849.52 42.9
3 -2 -2 782.42 45.7
3 -2 -2 839.62 42.4
3 -2 -2 867.71 42.4
2 -2 -2 948.51 47.1
2 -2 -2 944.51 46.8
2 -2 -2 980.4 47.2
-2 2 2 875.61 46.9
-2 2 2 909.51 46.7
1 -2 -2 415.46 24.8
-1 2 2 430.96 25.7
-1 2 2 488.25 23.5
-1 2 2 515.35 23.4
0 -2 -2 1.4 1.3
0 -2 -2 0.5 0.5
0 2 2 0.9 0.6
0 2 2 1.2 0.7
-1 -2 -2 37.4 4.8
-1 -2 -2 36.8 4.2
-1 -2 -2 39.1 5.5
-1 -2 -2 32.8 2.7
1 2 2 38.3 2.9
1 2 2 37.6 3.2
1 2 2 36.9 2.9
-2 -2 -2 47.8 5.8
-2 -2 -2 44.7 6.6
2 2 2 43.7 4.3
2 2 2 47.9 3.6
2 2 2 46.1 3.9
-3 -2 -2 1.9 2.6
-3 -2 -2 1.9 3.6
3 2 2 2.4 1.9
3 2 2 1.3 1.9
3 2 2 1.6 1.5
3 2 2 2.4 3.5
-4 -2 -2 8.2 4.1
4 2 2 7 2.4
4 2 2 10.1 2.9
5 2 2 62.99 5.7
5 2 2 57.19 5.7
8 -3 -2 0.6 3
8 -3 -2 -0.8 1.6
-8 3 2 -0.5 2.3
7 -3 -2 21.4 2.4
7 -3 -2 29.5 3.5
7 -3 -2 31.6 5
7 -3 -2 28.6 6
-7 3 2 16.3 5.2
6 -3 -2 367.26 24
6 -3 -2 390.56 23.5
6 -3 -2 399.96 20.9
6 -3 -2 380.76 20.2
6 -3 -2 385.56 20.8
6 -3 -2 392.96 23.2
-6 3 2 329.47 23.3
5 -3 -2 105.89 8.7
5 -3 -2 112.19 6.5
5 -3 -2 115.19 7.7
5 -3 -2 113.39 7.4
5 -3 -2 105.69 6.9
5 -3 -2 103.99 8
-5 3 2 98.59 9.1
4 -3 -2 123.49 8.3
4 -3 -2 126.19 7.7
4 -3 -2 133.39 7
3 -3 -2 119.99 6.9
3 -3 -2 119.69 7.2
3 -3 -2 115.09 7.1
-3 3 2 112.29 6.7
-3 3 2 113.69 7.1
2 -3 -2 199.78 11.4
2 -3 -2 198.98 11.5
2 -3 -2 204.38 11.1
-2 3 2 212.98 11.1
-2 3 2 211.28 10.9
1 -3 -2 315.87 16.3
1 -3 -2 260.97 17.5
-1 3 2 321.57 15.6
-1 3 2 304.47 15.7
0 -3 -2 134.69 7.4
0 -3 -2 124.79 7.5
0 -3 -2 113.29 8.8
0 3 2 121.39 7.1
0 3 2 113.79 7.5
-1 -3 -2 6.1 1.3
-1 -3 -2 5.1 1.5
-1 -3 -2 7.7 1.7
-1 -3 -2 5.2 2.3
1 3 2 5.8 1.3
1 3 2 4.4 1.2
1 3 2 5.6 1.4
-2 -3 -2 5.1 2.7
2 3 2 6.3 2.3
2 3 2 2.8 1.8
2 3 2 4.6 1.5
2 3 2 5.3 1.9
-3 -3 -2 124.29 12
3 3 2 118.09 8.8
3 3 2 123.39 9.2
4 3 2 77.09 6.7
4 3 2 81.29 6.8
5 3 2 -2 1.5
8 -4 -2 81.39 7.6
8 -4 -2 85.79 6.8
7 -4 -2 1.1 2.3
7 -4 -2 2.9 3.7
6 -4 -2 64.59 3.9
6 -4 -2 66.99 7.1
5 -4 -2 317.07 16.1
3 -4 -2 70.09 3.8
3 -4 -2 61.99 4.9
3 -4 -2 69.79 4.7
3 -4 -2 67.89 4.9
2 -4 -2 33.2 3.1
2 -4 -2 31.3 3.1
2 -4 -2 31.5 4.7
2 -4 -2 34.9 2.8
2 -4 -2 31.3 2.3
2 -4 -2 27.9 2.8
-2 4 2 32.1 3.2
1 -4 -2 49 4
1 -4 -2 48.1 3.5
1 -4 -2 47.8 4
1 -4 -2 46.1 3.7
1 -4 -2 44.7 5.4
1 -4 -2 51.19 3.7
-1 4 2 43.3 4.1
0 -4 -2 143.99 8.5
0 -4 -2 136.39 8.8
0 -4 -2 129.79 8.7
0 -4 -2 136.09 8.5
0 -4 -2 141.49 8.7
0 -4 -2 139.49 11.1
0 4 2 138.09 9
0 4 2 137.49 8.4
0 4 2 128.29 8.2
-1 -4 -2 48.1 6.8
-1 -4 -2 51.19 5
-1 -4 -2 43.3 4.3
-1 -4 -2 49.2 4.3
-1 -4 -2 51.69 4.3
1 4 2 40.1 4
1 4 2 41.7 4.4
1 4 2 47.6 4.6
-2 -4 -2 54.49 7.7
-2 -4 -2 48.1 5.2
-2 -4 -2 33.8 5.1
2 4 2 37.2 4.3
2 4 2 41 4.9
2 4 2 37.5 5
2 4 2 52.29 5.2
-3 -4 -2 3.1 3.9
-3 -4 -2 3.6 2.7
3 4 2 5.1 2.3
3 4 2 4.3 2.5
3 4 2 5.2 2.1
4 4 2 13.8 2.5
3 -5 -2 77.19 6.3
3 -5 -2 82.49 6
3 -5 -2 95.39 5.9
3 -5 -2 81.59 5
3 -5 -2 84.29 6.3
3 -5 -2 94.89 6.4
-3 5 2 82.49 6.5
2 -5 -2 83.19 6.3
2 -5 -2 92.29 5.8
2 -5 -2 95.69 6.2
2 -5 -2 93.89 6.8
2 -5 -2 90.19 6.7
2 -5 -2 86.19 6.6
2 -5 -2 89.49 9.5
-2 5 2 86.79 6.8
1 -5 -2 42.7 4.4
1 -5 -2 52.89 4.2
1 -5 -2 48.8 4.9
1 -5 -2 57.49 4.9
1 -5 -2 59.29 7.5
1 -5 -2 46.1 4.4
1 -5 -2 52.09 4.4
-1 5 2 45.6 4.7
-1 5 2 55.59 4.5
0 -5 -2 112.59 7.8
0 -5 -2 104.49 7.2
0 -5 -2 102.69 7.4
0 -5 -2 112.59 7.5
0 -5 -2 97.19 7.8
0 -5 -2 100.49 7.7
0 -5 -2 99.19 10.6
0 5 2 105.29 7.3
0 5 2 108.39 7.5
0 5 2 85.89 7.4
-1 -5 -2 66.89 6.2
-1 -5 -2 72.89 5.9
-1 -5 -2 71.49 6.6
-1 -5 -2 72.59 9.4
1 5 2 65.59 6.1
1 5 2 76.89 6.4
1 5 2 65.49 5.6
-2 -5 -2 62.69 5.7
-2 -5 -2 37.3 5.3
2 5 2 45.8 4.9
2 5 2 45.9 4.8
2 5 2 45.4 5.2
3 5 2 6.7 2
3 5 2 12.3 2.2
4 -6 -2 0.3 1.3
4 -6 -2 -0.2 1.3
3 -6 -2 1.9 1.8
3 -6 -2 0.8 1.4
3 -6 -2 1.8 1.5
3 -6 -2 1.7 0.8
3 -6 -2 0.9 1.3
3 -6 -2 1.3 1.5
-3 6 2 4.9 1.5
2 -6 -2 206.58 12.5
2 -6 -2 219.58 13.2
2 -6 -2 208.38 12.1
2 -6 -2 206.08 17.4
2 -6 -2 203.78 13.1
2 -6 -2 220.38 13
2 -6 -2 221.98 13.1
2 -6 -2 191.38 13.4
2 -6 -2 209.18 13.1
-2 6 2 213.58 12.5
1 -6 -2 2.2 2
1 -6 -2 3.5 1.5
1 -6 -2 2.6 1.4
1 -6 -2 4.7 4.1
1 -6 -2 0.8 2.1
1 -6 -2 4.7 2
1 -6 -2 1.3 1.7
1 -6 -2 -0.7 1.9
1 -6 -2 6.2 2.1
-1 6 2 0.9 1.4
0 -6 -2 253.97 15.5
0 -6 -2 225.98 14.5
0 -6 -2 265.07 15.4
0 -6 -2 268.57 15.1
0 -6 -2 243.78 15
0 -6 -2 246.58 19.7
0 -6 -2 251.87 15
0 6 2 230.38 15.1
0 6 2 239.08 14.5
-1 -6 -2 49 5.3
-1 -6 -2 37.6 4.9
1 6 2 50.29 4.7
-2 -6 -2 12 2.5
2 6 2 6.6 1.8
4 -7 -2 30.8 3.7
4 -7 -2 34.2 3.6
4 -7 -2 33 3.9
4 -7 -2 36.5 4.1
3 -7 -2 35 4
3 -7 -2 32.1 3.8
3 -7 -2 29.8 3.9
3 -7 -2 29.6 4
3 -7 -2 34.8 4.6
3 -7 -2 33.2 3.5
3 -7 -2 30.6 2.8
3 -7 -2 33.6 4
-3 7 2 31.3 3.5
2 -7 -2 191.48 13
2 -7 -2 204.68 12.4
2 -7 -2 226.88 14
2 -7 -2 216.98 13.3
2 -7 -2 230.78 13.5
2 -7 -2 209.08 12.8
2 -7 -2 234.18 13.3
2 -7 -2 234.08 13.4
-2 7 2 221.68 12.9
-2 7 2 206.38 13.6
1 -7 -2 1 1.7
1 -7 -2 1.7 1.6
1 -7 -2 4.8 2.2
1 -7 -2 2.2 1.7
1 -7 -2 2.6 2
1 -7 -2 0.2 1.9
-1 7 2 -0.5 1.8
0 -7 -2 3.5 1.6
0 -7 -2 3.4 2.1
0 -7 -2 6 2.1
0 7 2 -0.3 1.2
4 -8 -2 53.29 4.3
4 -8 -2 48.6 4
3 -8 -2 40.4 3.9
3 -8 -2 44.1 3.7
3 -8 -2 40.4 4.6
2 -8 -2 8.8 1.9
2 -8 -2 14.8 2.4
2 -8 -2 17.8 2.6
2 -8 -2 18.5 3
-2 8 2 15.3 2.4
-1 8 -3 1.9 1.6
1 -8 3 2.9 1.3
1 -8 3 2.6 1.7
1 -8 3 1.8 1.4
2 -8 3 11.9 2
2 -8 3 9.1 2.3
2 -8 3 12.9 2.2
3 -8 3 6 1.6
3 -8 3 6.9 2
3 -8 3 5.3 1.7
4 -8 3 2.9 1.1
4 -8 3 0.1 1.7
5 -8 3 10.6 2.4
1 7 -3 8.5 2.1
1 7 -3 8.9 2.1
-1 -7 3 8.9 1.8
0 7 -3 52.69 6.1
0 7 -3 63.19 5.2
0 7 -3 58.49 5.5
0 -7 3 60.69 5.4
0 -7 3 59.39 5
0 -7 3 60.89 5.7
-1 7 -3 26.4 3.8
1 -7 3 22.4 3.3
1 -7 3 25.5 3.4
1 -7 3 25.9 3.5
1 -7 3 29.3 3.7
1 -7 3 31.1 4.4
-2 7 -3 117.89 8.2
2 -7 3 101.39 7.6
2 -7 3 97.89 11.5
2 -7 3 111.39 7.7
2 -7 3 111.39 7.8
2 -7 3 115.19 7.6
2 -7 3 110.89 8.5
2 -7 3 97.49 7.1
3 -7 3 6.1 1.5
3 -7 3 9 2.6
3 -7 3 3.1 1.8
3 -7 3 5.3 1.9
3 -7 3 4.1 1.7
3 -7 3 7.2 4.6
4 -7 3 1.1 1.2
4 -7 3 -1 3.8
4 -7 3 -2 1.7
4 -7 3 1.3 1.3
5 -7 3 56.69 5.4
2 6 -3 11 2.6
1 6 -3 26.5 4.1
1 6 -3 25.3 3.7
1 6 -3 30.2 4.4
1 6 -3 32 4
-1 -6 3 22.7 4.1
-1 -6 3 28 3.7
0 6 -3 51.99 4.9
0 6 -3 50.09 4.5
0 6 -3 46.9 5
0 -6 3 45.7 5.2
0 -6 3 43.8 4.8
0 -6 3 38.5 4.5
0 -6 3 51.39 5.6
0 -6 3 65.79 8.9
0 -6 3 38.8 4.4
-1 6 -3 339.47 19.4
1 -6 3 343.37 18.8
1 -6 3 325.97 23.7
1 -6 3 323.27 18.6
1 -6 3 354.76 18.9
1 -6 3 319.77 19.3
1 -6 3 269.47 24.9
1 -6 3 341.17 19
1 -6 3 335.77 18.6
-2 6 -3 165.58 10.7
-2 6 -3 148.19 10.4
2 -6 3 165.68 10.2
2 -6 3 165.28 10.3
2 -6 3 163.08 9.7
2 -6 3 153.68 14.4
2 -6 3 154.98 10.1
2 -6 3 131.99 16.2
2 -6 3 169.78 10.3
3 -6 3 3 3.7
3 -6 3 2.8 1.4
3 -6 3 2.1 1.6
3 -6 3 1.7 1
3 -6 3 3.3 5.6
4 -6 3 72.39 12.8
4 -6 3 85.99 10.6
4 -6 3 76.49 6.8
4 -6 3 75.39 5.2
4 -6 3 76.69 8.7
4 -6 3 81.19 5.9
5 -6 3 120.29 11.4
5 -6 3 121.59 9
5 -6 3 133.49 13.3
5 -6 3 163.28 16.5
6 -6 3 2.1 3.7
6 -6 3 -0.1 3.7
7 -6 3 10.1 3.8
3 5 -3 4.2 2.1
2 5 -3 32.6 4.3
2 5 -3 31.8 3.8
2 5 -3 20.4 3.9
-2 -5 3 30 4.4
-2 -5 3 35 7.2
1 5 -3 414.46 23
1 5 -3 406.16 22.5
1 5 -3 404.96 22.2
-1 -5 3 395.16 23.5
-1 -5 3 426.16 22.9
-1 -5 3 439.76 27.3
-1 -5 3 395.36 22.1
-1 -5 3 313.57 27.3
0 5 -3 139.19 8.5
0 5 -3 131.19 9.3
0 5 -3 135.59 9.4
0 -5 3 137.59 10.2
0 -5 3 128.19 8.7
0 -5 3 138.29 12.3
0 -5 3 149.49 9.1
0 -5 3 126.79 8.6
0 -5 3 139.29 9
0 -5 3 113.49 13.1
-1 5 -3 44.1 4.4
-1 5 -3 36.6 3.9
-1 5 -3 38.2 4
1 -5 3 42.9 6.2
1 -5 3 36.6 3.6
1 -5 3 36.3 3.5
1 -5 3 43.3 7.7
1 -5 3 30.6 3.5
1 -5 3 44.4 5.4
-2 5 -3 9 2.1
-2 5 -3 7.2 1.9
2 -5 3 9.6 4.9
2 -5 3 7.8 1.9
2 -5 3 10.4 4.1
2 -5 3 7.1 3.2
2 -5 3 7.3 1.7
2 -5 3 10 1.7
3 -5 3 1.1 3.9
3 -5 3 -0.3 1.9
3 -5 3 1 1.1
3 -5 3 6.3 3.1
3 -5 3 0.5 0.6
4 -5 3 56.89 8
4 -5 3 49.1 10.6
4 -5 3 52.89 4.3
4 -5 3 61.49 7.3
-5 5 -3 -0.8 2.9
-5 5 -3 -0.2 5.3
5 -5 3 7 4.8
5 -5 3 3.1 3.3
5 -5 3 1.8 3.3
5 -5 3 0.1 5.3
5 -5 3 3.3 1.2
6 -5 3 18.6 5.8
6 -5 3 13.2 1.9
6 -5 3 13.4 4.6
7 -5 3 4.1 3.3
4 4 -3 1.2 1.8
3 4 -3 113.19 8.3
3 4 -3 103.89 7.7
-3 -4 3 97.89 8.9
2 4 -3 0.3 1.5
2 4 -3 1.2 1.4
2 4 -3 5.6 2.1
-2 -4 3 2.2 2.9
-2 -4 3 1.7 2.4
-2 -4 3 2.7 3.5
1 4 -3 289.67 17.3
1 4 -3 296.77 16.6
1 4 -3 289.07 17.1
-1 -4 3 276.57 16.7
-1 -4 3 318.17 20.2
-1 -4 3 297.87 17.5
-1 -4 3 319.57 22.1
0 4 -3 25 2.8
0 4 -3 22.4 2.3
0 4 -3 21.4 2.7
0 -4 3 21.3 3.9
0 -4 3 15.6 2.3
0 -4 3 20.6 3.2
0 -4 3 24.9 2.6
0 -4 3 18.9 4.3
0 -4 3 18 2.3
-1 4 -3 9 1.8
-1 4 -3 8.8 1.9
1 -4 3 6.5 1.4
1 -4 3 4.2 2.1
1 -4 3 5.5 1.2
1 -4 3 8.9 2.2
1 -4 3 9.2 3.7
-2 4 -3 38 3.2
2 -4 3 45.2 4.7
2 -4 3 31.4 6.1
2 -4 3 40.3 2.8
2 -4 3 40.1 5.2
2 -4 3 39.3 4.6
3 -4 3 162.78 11.6
3 -4 3 154.58 8.8
3 -4 3 149.79 15.1
3 -4 3 166.48 9.3
3 -4 3 163.08 12.7
4 -4 3 98.59 10
4 -4 3 118.89 8.2
4 -4 3 107.39 9.5
4 -4 3 101.99 13.2
4 -4 3 114.39 7
-5 4 -3 0.3 3
-5 4 -3 10.4 7
5 -4 3 15.1 4.9
5 -4 3 9.5 3.8
5 -4 3 7 5.2
5 -4 3 9.8 2.1
-6 4 -3 10 6
6 -4 3 32.8 6.5
6 -4 3 18.5 5.5
6 -4 3 32.5 3.3
7 -4 3 6.2 3.6
5 3 -3 71.89 5.8
5 3 -3 68.49 5.5
-5 -3 3 72.29 6.9
4 3 -3 7.6 2.4
4 3 -3 7.1 2.2
4 3 -3 0.4 2
-4 -3 3 6.3 3
-4 -3 3 6 3.1
3 3 -3 122.99 8.8
3 3 -3 130.79 8.8
-3 -3 3 134.99 9.8
-3 -3 3 136.89 14.3
-2 -3 3 14.5 3.6
-2 -3 3 7.9 3.6
-2 -3 3 7.4 2.1
1 3 -3 359.86 20.6
1 3 -3 384.26 20.8
1 3 -3 376.86 20.2
-1 -3 3 379.96 20.8
-1 -3 3 379.76 22.4
-1 -3 3 420.76 24.5
-1 -3 3 372.26 20.4
0 3 -3 452.15 23.6
0 -3 3 429.66 26.6
0 -3 3 476.95 26.7
0 -3 3 445.16 27.7
0 -3 3 428.36 25.1
-1 3 -3 227.68 12.6
1 -3 3 235.48 15.6
1 -3 3 242.58 16.1
1 -3 3 219.28 14.5
-2 3 -3 198.58 10.5
2 -3 3 196.98 15
2 -3 3 185.68 13
3 -3 3 2.3 1.8
3 -3 3 0.6 1.8
3 -3 3 6.5 2.5
4 -3 3 67.29 5.2
4 -3 3 70.49 6.9
4 -3 3 70.29 7.5
4 -3 3 61.09 9.4
-5 3 -3 26.4 10.2
-5 3 -3 14.1 5.6
5 -3 3 28.8 7.7
5 -3 3 28.3 5.1
5 -3 3 27.1 5.3
5 -3 3 34.3 3.7
-6 3 -3 66.39 8.2
-6 3 -3 46.5 9.1
6 -3 3 79.49 10.1
6 -3 3 87.99 8.7
6 -3 3 72.99 6
6 -3 3 74.09 8.1
7 -3 3 52.39 7.3
7 -3 3 41.7 6
6 2 -3 5.6 1.6
-6 -2 3 6.8 2.5
5 2 -3 173.98 11.2
5 2 -3 201.98 11.7
5 2 -3 185.68 11.9
5 2 -3 175.28 15.3
5 2 -3 168.48 11.3
-5 -2 3 191.88 13.2
-5 -2 3 174.28 12.7
4 2 -3 139.99 9.3
4 2 -3 162.28 13.4
4 2 -3 139.69 9.3
4 2 -3 146.69 9.7
-4 -2 3 143.69 15.6
-4 -2 3 131.19 10.5
-4 -2 3 138.79 11
3 2 -3 180.38 10.4
3 2 -3 156.28 10.2
-3 -2 3 172.98 15.7
-3 -2 3 179.48 11.5
2 2 -3 45.1 3.9
2 2 -3 50.29 3.8
-2 -2 3 51.09 5.1
-2 -2 3 56.79 4.6
-2 -2 3 56.59 6.9
1 2 -3 83.29 5.2
-1 -2 3 85.29 7.2
-1 -2 3 72.69 7.9
-1 -2 3 78.19 7.5
0 2 -3 533.65 29.1
0 2 -3 473.95 26.6
0 -2 3 542.95 30.1
0 -2 3 530.75 29.2
-1 2 -3 203.08 12.4
-1 2 -3 214.98 11.1
1 -2 3 204.48 13.6
1 -2 3 217.48 12.9
2 -2 3 6.5 0.9
2 -2 3 5.3 2.4
3 -2 3 143.39 10.9
3 -2 3 132.79 10
3 -2 3 156.38 13.3
3 -2 3 164.98 8.7
3 -2 3 158.68 9.3
3 -2 3 145.99 8.9
-4 2 -3 182.78 21
4 -2 3 239.68 14
4 -2 3 226.88 13.5
4 -2 3 216.78 13
4 -2 3 235.18 19.2
4 -2 3 255.57 16.2
4 -2 3 221.08 14.7
-5 2 -3 27.4 10.5
-5 2 -3 22.8 7.2
5 -2 3 25 3.5
5 -2 3 26.2 8
5 -2 3 18.5 4.5
-6 2 -3 10.5 4.8
-6 2 -3 12 4.5
6 -2 3 2.3 2.7
6 -2 3 13 4.3
6 -2 3 14.3 3.9
6 -2 3 9.5 2.6
7 -2 3 2.5 2.3
7 -2 3 -0.3 2.9
6 1 -3 183.08 11.5
6 1 -3 195.98 11.8
6 1 -3 192.18 15.2
-6 -1 3 194.58 13.5
5 1 -3 61.89 5.5
5 1 -3 55.89 5
5 1 -3 55.29 5.4
5 1 -3 55.89 9.2
5 1 -3 60.29 5.3
-5 -1 3 55.09 6.5
-5 -1 3 49.2 7.1
4 1 -3 9.6 2.3
4 1 -3 8.4 1.9
4 1 -3 4 1.5
4 1 -3 1.7 1.5
-4 -1 3 1.5 3.3
-4 -1 3 6.5 2.7
3 1 -3 124.79 8.2
3 1 -3 132.79 8.6
3 1 -3 130.69 8.1
3 1 -3 140.79 8.4
-3 -1 3 164.18 13.8
-3 -1 3 141.09 9.4
2 1 -3 40.5 5.3
2 1 -3 43.5 3.1
2 1 -3 41.6 3.2
2 1 -3 46.4 3.3
-2 -1 3 46.8 5.6
1 1 -3 283.27 17.2
1 1 -3 264.77 14.5
1 1 -3 272.17 14.9
1 1 -3 276.87 14.7
1 1 -3 269.67 17.1
-1 -1 3 291.37 17.3
-1 -1 3 321.97 17
-1 -1 3 295.37 18
0 1 -3 641.24 32.4
0 1 -3 558.14 30.7
0 1 -3 609.74 33.3
0 -1 3 617.14 30.3
0 -1 3 611.14 32.6
0 -1 3 611.54 30.4
0 -1 3 623.44 33.5
-1 1 -3 213.28 13.3
1 -1 3 224.08 11.8
1 -1 3 241.48 13.4
2 -1 3 0.1 0.5
2 -1 3 1.3 1.4
2 -1 3 0.2 0.4
-3 1 -3 52.19 8.7
3 -1 3 66.99 5.2
3 -1 3 70.89 6.4
3 -1 3 72.29 4.8
3 -1 3 73.39 8.1
3 -1 3 62.09 5
3 -1 3 74.59 11.5
3 -1 3 59.89 5.6
-4 1 -3 103.29 11.2
-4 1 -3 68.59 11.9
4 -1 3 76.49 6
4 -1 3 72.29 5.6
4 -1 3 95.49 7.5
4 -1 3 72.69 6.1
4 -1 3 80.59 6.8
4 -1 3 90.19 10.7
-5 1 -3 5.4 6.9
-5 1 -3 8.5 3.8
-5 1 -3 7.6 4
5 -1 3 16 3.3
5 -1 3 14.9 4
5 -1 3 11.8 2.5
-6 1 -3 16.8 5.6
-6 1 -3 29.9 5.9
6 -1 3 36.3 6.9
6 -1 3 22.7 4.4
6 -1 3 33 4
6 -1 3 35.3 6.3
7 -1 3 87.39 8.1
7 -1 3 89.49 8
7 0 -3 29.7 6.2
7 0 -3 26.5 3
7 0 -3 22.5 5
-7 0 3 23.7 4.5
6 0 -3 27.7 3.6
6 0 -3 25 5.3
6 0 -3 31.6 3.9
6 0 -3 30.2 6.5
-6 0 3 26.6 5.4
-6 0 3 35 5.2
5 0 -3 128.59 8.3
5 0 -3 121.99 8.5
5 0 -3 131.69 8.5
5 0 -3 111.79 8.1
5 0 -3 137.99 12.1
-5 0 3 128.19 10.3
-5 0 3 119.89 15.1
4 0 -3 408.16 20.6
4 0 -3 377.76 20.9
4 0 -3 348.57 20.4
4 0 -3 371.46 20.6
4 0 -3 359.86 21.4
-4 0 3 413.76 28.8
-4 0 3 405.96 22.5
3 0 -3 0.8 0.6
3 0 -3 2.8 1.4
3 0 -3 0.9 1.5
3 0 -3 0.7 0.9
3 0 -3 1.4 0.7
-3 0 3 1 2.1
-3 0 3 1.2 1.5
2 0 -3 990.7 48.9
2 0 -3 998.8 49.1
2 0 -3 986.5 51.39
2 0 -3 992.8 49.2
-2 0 3 880.61 51.79
1 0 -3 32.3 2.4
1 0 -3 36.2 2.2
1 0 -3 38.5 3.9
1 0 -3 37.5 3.5
1 0 -3 35.1 2.4
1 0 -3 34.7 3.6
-1 0 3 35.7 4
-1 0 3 32.2 3.6
-1 0 3 28.1 2.2
0 0 -3 2989.8 132.99
0 0 -3 2704.93 131.39
0 0 3 2534.15 131.09
0 0 3 2474.95 129.39
0 0 3 2546.75 132.69
0 0 3 2424.36 129.49
-1 0 -3 924.21 46.7
1 0 3 894.31 43.7
1 0 3 821.62 45.9
1 0 3 848.82 44
-2 0 -3 270.17 21.4
2 0 3 331.77 20.3
2 0 3 353.66 23.7
2 0 3 337.77 17.7
2 0 3 323.77 17.1
-3 0 -3 176.08 17.4
-3 0 -3 183.68 15.3
-3 0 -3 211.78 12.9
3 0 3 217.18 12.6
3 0 3 203.58 11.7
3 0 3 203.98 12.4
-4 0 -3 5.1 3.8
-4 0 -3 13.9 7
-4 0 -3 15.9 3.8
4 0 3 8.4 2.8
4 0 3 12.4 3.3
4 0 3 12.1 2.7
4 0 3 8.1 2
-5 0 -3 17.2 8.1
-5 0 -3 42 7.5
-5 0 -3 38.2 6.2
5 0 3 45.5 4.6
5 0 3 36.9 4.4
5 0 3 41.1 7.2
5 0 3 37.1 5.3
6 0 3 31 3.7
6 0 3 21.8 3.5
6 0 3 33.9 5.8
7 -1 -3 14.6 3.5
7 -1 -3 6.2 1.8
7 -1 -3 3.4 4
7 -1 -3 6.2 2
-7 1 3 9.1 3.1
6 -1 -3 33.8 3.6
6 -1 -3 36.7 6
6 -1 -3 39.7 7.3
6 -1 -3 39.7 4.1
6 -1 -3 38.7 3.9
-6 1 3 23.8 4.9
5 -1 -3 13.1 2.6
5 -1 -3 22.3 4.2
5 -1 -3 22.6 2.6
5 -1 -3 18.6 2.6
-5 1 3 15.1 6.4
-5 1 3 17.3 3.9
4 -1 -3 136.49 9.3
4 -1 -3 139.89 8.2
4 -1 -3 137.19 8.2
4 -1 -3 135.49 9.1
4 -1 -3 138.09 8.5
4 -1 -3 134.29 8.1
-4 1 3 125.09 9.6
-4 1 3 145.09 14.6
3 -1 -3 203.28 11.4
3 -1 -3 198.58 10.9
3 -1 -3 206.18 12.7
3 -1 -3 190.78 10.8
-3 1 3 170.28 14.7
-2 1 3 157.28 12.7
1 -1 -3 63.09 3.8
1 -1 -3 54.39 5.1
1 -1 -3 55.09 4.9
1 -1 -3 56.89 4.6
-1 1 3 61.79 3.4
0 -1 -3 12.2 1.3
0 -1 -3 13.4 2.5
0 1 3 13 1.3
-1 -1 -3 1146.69 60.09
-1 -1 -3 1092.89 55.49
1 1 3 1139.29 55.69
1 1 3 1043.1 61.69
1 1 3 1150.08 56.09
1 1 3 1073.79 55.49
-2 -1 -3 23.5 4.2
-2 -1 -3 15.3 4.3
2 1 3 15.3 2
2 1 3 19.8 2.6
-3 -1 -3 632.54 42.3
-3 -1 -3 744.73 40.6
3 1 3 639.34 36.2
3 1 3 644.14 35.4
3 1 3 688.03 35.2
-4 -1 -3 6.8 5.5
-4 -1 -3 6.8 3.8
4 1 3 4.5 2.3
4 1 3 6 2.2
-5 -1 -3 10.1 4.6
5 1 3 8.4 3.9
5 1 3 10 2.9
5 1 3 12.7 2.9
6 1 3 3.1 2.8
6 1 3 5.8 1.7
7 -2 -3 29.4 4.8
7 -2 -3 21 3.3
7 -2 -3 33.1 6.8
7 -2 -3 20.3 3
6 -2 -3 32.7 3.2
6 -2 -3 28.9 3.4
6 -2 -3 41.8 7.1
6 -2 -3 30.5 5.6
6 -2 -3 33.2 3.6
-6 2 3 35.7 5.4
5 -2 -3 6.9 1.9
5 -2 -3 4.8 1.4
5 -2 -3 4.3 1.3
5 -2 -3 4.3 2.3
5 -2 -3 6.4 2.6
-5 2 3 4.8 2.8
4 -2 -3 678.03 35.4
4 -2 -3 700.13 36.1
4 -2 -3 715.03 34.8
4 -2 -3 787.12 36.3
4 -2 -3 686.63 35.2
4 -2 -3 651.93 36.2
-4 2 3 664.83 48.4
-4 2 3 570.64 36.3
3 -2 -3 154.88 9.1
3 -2 -3 158.28 9.3
3 -2 -3 160.38 9.1
3 -2 -3 154.08 8.8
2 -2 -3 54.69 3.7
2 -2 -3 49.4 3.9
2 -2 -3 50.69 3.4
2 -2 -3 56.89 4.2
2 -2 -3 50.19 3.8
2 -2 -3 56.49 3.8
-2 2 3 55.89 3.6
-2 2 3 50.09 3.3
1 -2 -3 35.3 2.7
1 -2 -3 28.6 3.5
-1 2 3 34.6 2.3
-1 2 3 33.7 2.2
0 -2 -3 617.94 36.6
0 -2 -3 643.74 33.3
0 2 3 685.03 33.3
0 2 3 652.53 33
-1 -2 -3 1969.1 105.29
-1 -2 -3 2043.7 108.29
-1 -2 -3 2092.49 102.59
1 2 3 2033.7 102.69
1 2 3 2077.49 103.19
1 2 3 2086.69 102.79
-2 -2 -3 0.7 1.6
-2 -2 -3 0.7 1
2 2 3 0.6 1
2 2 3 1.3 1.3
2 2 3 0.8 1.5
-3 -2 -3 109.09 11
3 2 3 116.99 8
3 2 3 107.29 8
3 2 3 100.29 8.6
-4 -2 -3 7.4 4.2
4 2 3 10.5 3
4 2 3 10.9 2.8
5 2 3 63.89 5.7
5 2 3 60.29 5.8
7 -3 -3 3.2 1
7 -3 -3 4.9 1.9
7 -3 -3 6.6 3.9
7 -3 -3 3.1 1.7
7 -3 -3 3.8 2.5
6 -3 -3 861.61 48.2
6 -3 -3 884.81 44.9
6 -3 -3 839.92 45.6
6 -3 -3 827.22 45.5
6 -3 -3 1064.19 52.69
5 -3 -3 319.27 17.1
5 -3 -3 316.07 17.2
5 -3 -3 317.47 16.4
5 -3 -3 288.67 18.1
4 -3 -3 2.4 0.9
4 -3 -3 1.9 0.9
4 -3 -3 0.8 1.1
4 -3 -3 1 0.4
-4 3 3 2.8 1.3
-4 3 3 6.1 1.4
3 -3 -3 19.5 1.3
3 -3 -3 17.5 2.2
3 -3 -3 20.6 2.2
3 -3 -3 18.6 2.1
3 -3 -3 18.9 2
-3 3 3 18.3 2.2
-3 3 3 20 1.9
2 -3 -3 15.1 2.1
2 -3 -3 19.7 1.4
2 -3 -3 14.4 1.9
-2 3 3 18.1 1.7
-2 3 3 15.6 1.5
1 -3 -3 31 2.4
1 -3 -3 27.9 3.7
1 -3 -3 33.9 2.9
-1 3 3 35.9 2.6
-1 3 3 31.7 2.4
0 -3 -3 65.59 4.4
0 -3 -3 61.09 6
0 -3 -3 67.69 4.6
0 -3 -3 70.79 4.8
0 3 3 64.09 4.4
0 3 3 63.99 4.7
0 3 3 67.69 4.9
-1 -3 -3 39.3 3.6
-1 -3 -3 42.5 3.6
-1 -3 -3 50.29 5.9
1 3 3 46.2 4.1
1 3 3 49.1 3.7
1 3 3 50.49 4
-2 -3 -3 41.5 6.3
2 3 3 40.9 4.3
2 3 3 30.4 4.1
2 3 3 30.5 3.4
-3 -3 -3 128.29 12.4
-3 -3 -3 115.59 9.1
3 3 3 126.29 9.1
3 3 3 124.09 9.3
4 3 3 2.6 2.1
4 3 3 -1.2 2
8 -4 -3 267.97 16
7 -4 -3 34.2 5.2
6 -4 -3 233.78 13.6
6 -4 -3 229.18 12.3
6 -4 -3 252.07 15.9
5 -4 -3 80.99 5.7
5 -4 -3 80.49 4.4
4 -4 -3 430.06 23.3
4 -4 -3 451.05 23.2
4 -4 -3 408.16 23.9
4 -4 -3 445.86 21.9
4 -4 -3 447.06 23.1
-4 4 3 431.46 22.9
-4 4 3 436.86 23.5
3 -4 -3 31 3.1
3 -4 -3 41.9 3.7
3 -4 -3 32.4 2.1
3 -4 -3 33.3 2.9
3 -4 -3 28 3.1
-3 4 3 30.1 2.6
2 -4 -3 12.9 1.8
2 -4 -3 12 1.4
2 -4 -3 13.6 2.5
2 -4 -3 13.2 2
2 -4 -3 13.1 2.2
-2 4 3 11.9 1.6
1 -4 -3 30.8 3.2
1 -4 -3 31.1 2.8
1 -4 -3 30.1 2.8
1 -4 -3 32.3 3
1 -4 -3 31.4 3.3
1 -4 -3 29.6 4.6
1 -4 -3 35.6 3.9
-1 4 3 32 3
-1 4 3 35.4 3.6
-1 4 3 22.2 3.3
0 -4 -3 68.39 5.1
0 -4 -3 63.19 7.2
0 -4 -3 68.39 5.2
0 -4 -3 55.49 4.8
0 -4 -3 73.39 5.4
0 -4 -3 64.99 4.9
0 -4 -3 63.99 5.1
0 4 3 64.09 4.8
0 4 3 52.69 5.1
0 4 3 61.99 4.8
-1 -4 -3 147.09 10.2
-1 -4 -3 156.08 9.6
-1 -4 -3 153.98 9.7
-1 -4 -3 156.78 13.3
1 4 3 147.59 9.8
1 4 3 142.99 9.8
1 4 3 156.48 9.6
-2 -4 -3 2.2 2.2
-2 -4 -3 6.4 4.2
-2 -4 -3 3.6 2.7
2 4 3 5.6 2.3
2 4 3 3.1 1.6
2 4 3 9.2 3
2 4 3 7.2 2.6
-3 -4 -3 34.3 4.5
3 4 3 28.9 4.4
3 4 3 28.9 4.1
4 4 3 2.1 1.6
4 -5 -3 0.6 1.4
4 -5 -3 0.9 1.1
4 -5 -3 0.2 1.2
-4 5 3 1.9 1.3
3 -5 -3 38.2 4
3 -5 -3 44.4 3.6
3 -5 -3 36.7 3.8
3 -5 -3 44.3 4.2
3 -5 -3 41.7 3.9
-3 5 3 35.5 4
2 -5 -3 123.99 7.7
2 -5 -3 114.69 8.5
2 -5 -3 135.79 8.2
2 -5 -3 130.39 8.6
2 -5 -3 125.09 8.3
2 -5 -3 131.19 8.7
-2 5 3 124.19 8.9
1 -5 -3 53.49 5.1
1 -5 -3 64.99 5
1 -5 -3 51.19 7.5
1 -5 -3 61.49 5.3
1 -5 -3 57.39 5.1
1 -5 -3 51.89 4.9
1 -5 -3 57.59 4.6
1 -5 -3 49.99 4.5
-1 5 3 49 4.6
-1 5 3 47.5 5.1
-1 5 3 61.59 4.7
0 -5 -3 51.99 5.3
0 -5 -3 50.79 4.8
0 -5 -3 58.09 5.3
0 -5 -3 51.49 4.9
0 -5 -3 49.6 4.8
0 -5 -3 51.09 5.6
0 -5 -3 47.8 5.2
0 -5 -3 49.9 4.5
0 -5 -3 68.79 8.7
0 5 3 51.89 4.9
0 5 3 49 5
0 5 3 49.7 4.6
-1 -5 -3 19.1 3.6
-1 -5 -3 19.1 3.5
-1 -5 -3 16.4 3.6
-1 -5 -3 25.1 6.8
1 5 3 20 3.3
1 5 3 15.1 2.9
1 5 3 14.4 3.1
-2 -5 -3 10.9 3.2
-2 -5 -3 10.3 2.9
2 5 3 9.6 2.5
2 5 3 9.6 2.6
2 5 3 10.4 2.8
2 5 3 8.5 2.3
3 5 3 59.09 4.8
4 -6 -3 87.99 7.1
4 -6 -3 91.79 6.8
4 -6 -3 95.19 6.9
3 -6 -3 6.5 2.3
3 -6 -3 6.6 2.1
3 -6 -3 5.6 1.2
3 -6 -3 4.3 1.8
3 -6 -3 6.2 2.4
3 -6 -3 4 1.7
3 -6 -3 6.6 2.1
-3 6 3 2.5 1.5
2 -6 -3 16.9 3.5
2 -6 -3 22.3 3.4
2 -6 -3 18.6 2.3
2 -6 -3 24 3.8
2 -6 -3 17.9 3.7
2 -6 -3 12.2 2.7
2 -6 -3 14.1 2.6
2 -6 -3 16.9 3.1
-2 6 3 15.5 2.7
1 -6 -3 13.3 2.9
1 -6 -3 10.3 2.2
1 -6 -3 7.8 2.9
1 -6 -3 16.3 3.2
1 -6 -3 11.6 2.3
1 -6 -3 17.4 5.9
1 -6 -3 15.2 3.2
1 -6 -3 10.7 2.8
1 -6 -3 18.6 3.4
-1 6 3 12 2.4
0 -6 -3 -0.1 1.9
0 -6 -3 -1.2 1.6
0 -6 -3 0.9 2
0 -6 -3 1.5 1.8
0 -6 -3 1.7 2.2
0 6 3 -0.3 1.8
0 6 3 -1.2 1.5
0 6 3 1.2 1.6
-1 -6 -3 208.68 13.3
-1 -6 -3 238.58 13.8
1 6 3 210.28 13
1 6 3 217.48 13.1
4 -7 -3 52.09 4.6
4 -7 -3 51.79 4.8
4 -7 -3 58.49 5.1
3 -7 -3 58.79 6
3 -7 -3 68.49 5.7
3 -7 -3 67.49 5.5
3 -7 -3 62.09 5.5
3 -7 -3 65.89 5.6
3 -7 -3 70.39 5.7
3 -7 -3 58.29 4.9
3 -7 -3 61.89 4.3
-3 7 3 59.39 5
2 -7 -3 20.7 3.2
2 -7 -3 23.1 3.4
2 -7 -3 22.7 3.6
2 -7 -3 18 3.6
2 -7 -3 29.7 3.5
2 -7 -3 18 3.2
2 -7 -3 23.1 3.3
2 -7 -3 20.5 3
-2 7 3 22.4 3.7
-2 7 3 21.4 3.1
1 -7 -3 116.49 8.1
1 -7 -3 117.19 8.2
1 -7 -3 118.59 8.6
1 -7 -3 110.59 7.7
1 -7 -3 109.19 7.7
0 -7 -3 -2 1.4
0 -7 -3 1.8 1.6
0 7 3 0.8 1.3
4 -8 -3 39.4 3.5
4 -8 -3 37.4 3.3
3 -8 -3 62.99 4.6
3 -8 -3 62.39 4.6
3 -8 -3 57.69 4.7
3 -8 -3 65.89 5.6
-1 8 -4 41.8 4.2
-1 8 -4 30.7 4.7
1 -8 4 51.29 4.9
1 -8 4 44 4.1
1 -8 4 40.6 3.6
-2 8 -4 2.5 1.8
2 -8 4 3.2 1.7
2 -8 4 1.1 1.1
2 -8 4 0.8 1.2
-3 8 -4 32.1 3.8
3 -8 4 28.3 3.6
3 -8 4 29.9 3.1
3 -8 4 24.3 2.9
4 -8 4 -0.4 0.9
4 -8 4 -0.1 1.4
5 -8 4 30.1 3.4
1 7 -4 1 1.4
1 7 -4 2.6 1.7
-1 -7 4 1.5 1.3
0 7 -4 98.69 8.6
0 7 -4 63.79 7.5
0 7 -4 70.69 6.2
0 -7 4 71.89 6.5
0 -7 4 70.29 5.5
-1 7 -4 14.9 3.1
1 -7 4 10.7 2.3
1 -7 4 8.3 2.7
1 -7 4 6.4 1.9
1 -7 4 9.2 2.3
1 -7 4 9.2 2.2
-2 7 -4 21.4 3.6
2 -7 4 20.7 3.1
2 -7 4 20.7 3.1
2 -7 4 23.4 3.1
2 -7 4 18.8 6.3
2 -7 4 20.4 2.8
3 -7 4 131.49 13.8
3 -7 4 150.38 9.2
3 -7 4 138.59 8.6
3 -7 4 147.39 10.1
3 -7 4 134.29 9.1
4 -7 4 1.1 1.1
4 -7 4 -1.7 1.6
4 -7 4 -2.5 3.4
4 -7 4 1.3 1.5
-5 7 -4 20.8 4.2
5 -7 4 25.4 2.9
5 -7 4 25.5 3.7
2 6 -4 85.89 6.5
1 6 -4 43.4 4.5
1 6 -4 53.39 5.3
1 6 -4 50.79 5
1 6 -4 40.5 4.9
-1 -6 4 46.2 4.6
0 6 -4 56.59 4.8
0 6 -4 51.59 5
0 6 -4 58.19 5.5
0 -6 4 50.19 8.2
0 -6 4 49.9 5.5
0 -6 4 53.49 4.8
0 -6 4 49 4.9
-1 6 -4 297.27 16.8
1 -6 4 260.07 18.1
1 -6 4 269.87 16
1 -6 4 281.47 16.1
1 -6 4 271.77 16
1 -6 4 295.97 21.5
1 -6 4 281.67 16.2
1 -6 4 294.17 16.3
1 -6 4 239.78 22.7
1 -6 4 270.87 16.8
-2 6 -4 63.79 5.7
-2 6 -4 67.89 5.7
2 -6 4 68.69 5.4
2 -6 4 61.19 5.1
2 -6 4 58.89 5.1
2 -6 4 58.39 7.6
2 -6 4 64.69 9
2 -6 4 63.59 4.9
2 -6 4 58.09 5.1
2 -6 4 46.3 10.5
3 -6 4 137.19 16.1
3 -6 4 99.39 6.7
3 -6 4 104.99 11.7
3 -6 4 104.39 7.4
3 -6 4 95.19 9.8
3 -6 4 109.99 7.4
4 -6 4 45.1 11
4 -6 4 49.5 8.7
4 -6 4 51.69 5.6
4 -6 4 62.99 4.9
4 -6 4 52.79 9.2
4 -6 4 60.89 8.1
5 -6 4 82.59 5.8
5 -6 4 98.29 7.2
5 -6 4 90.69 9.7
5 -6 4 95.59 10.7
5 -6 4 86.09 10.7
6 -6 4 -1.5 3.4
6 -6 4 2.7 5.3
7 -6 4 1 2.9
3 5 -4 21.6 3.4
2 5 -4 87.49 6.9
2 5 -4 76.69 6.9
2 5 -4 78.09 6.4
-2 -5 4 79.09 7.9
1 5 -4 6.5 2.1
1 5 -4 6.1 1.8
1 5 -4 4.7 1.9
-1 -5 4 1.9 1.7
-1 -5 4 7.2 3.7
-1 -5 4 4.7 3
-1 -5 4 2.6 4
-1 -5 4 0.9 2.1
0 5 -4 436.56 25
0 5 -4 473.75 25
0 5 -4 451.95 24
0 -5 4 441.06 24.5
0 -5 4 404.16 30.1
0 -5 4 488.25 24.7
0 -5 4 446.46 28.8
0 -5 4 431.16 24.2
0 -5 4 456.25 25.9
0 -5 4 437.26 24.3
-1 5 -4 5.7 1.8
-1 5 -4 3.9 1.6
1 -5 4 6 1.6
1 -5 4 5.5 2.8
1 -5 4 3.8 1.5
1 -5 4 4.9 4
1 -5 4 4.6 3
1 -5 4 4.1 1.5
1 -5 4 4.4 1.6
-2 5 -4 49.5 4.3
-2 5 -4 48.1 4.3
2 -5 4 49.9 3.8
2 -5 4 40 3.8
2 -5 4 48.1 7
2 -5 4 47.8 4.1
2 -5 4 47.2 8.3
3 -5 4 681.43 34.2
3 -5 4 625.24 39.4
3 -5 4 707.43 34.8
3 -5 4 663.93 37.7
3 -5 4 622.34 43.4
4 -5 4 50.39 10.4
4 -5 4 50.49 7.1
4 -5 4 48.6 4
4 -5 4 48.8 7.4
5 -5 4 20.1 8.7
5 -5 4 21.3 6.2
5 -5 4 13.9 3
5 -5 4 23 6
5 -5 4 19.2 2.8
5 -5 4 23.5 6
6 -5 4 24.3 2.8
6 -5 4 27.1 5.9
6 -5 4 35.5 7.3
6 -5 4 24.1 6.2
7 -5 4 11.2 4.5
4 4 -4 10 2.7
-4 -4 4 5.9 4
3 4 -4 235.28 14.1
3 4 -4 238.38 14.7
-3 -4 4 229.68 15.4
-3 -4 4 220.18 15.1
2 4 -4 715.43 37.4
2 4 -4 730.83 36.8
2 4 -4 646.24 37.3
-2 -4 4 626.34 42.6
-2 -4 4 741.33 38
1 4 -4 487.85 26.2
1 4 -4 458.15 26.2
1 4 -4 472.15 25.4
-1 -4 4 478.55 31
-1 -4 4 484.45 29.1
-1 -4 4 468.65 26.4
0 4 -4 7.8 1.6
0 4 -4 10.1 2
0 4 -4 11.2 2.3
0 -4 4 8.3 1.9
0 -4 4 9.4 3.6
0 -4 4 11.6 3.8
0 -4 4 9.2 1.8
0 -4 4 5.9 1.6
0 -4 4 9.7 2.5
-1 4 -4 641.24 34.1
-1 4 -4 649.24 34.1
1 -4 4 661.23 37.3
1 -4 4 650.33 33.8
1 -4 4 654.23 33.7
1 -4 4 653.33 39.2
1 -4 4 670.43 33.9
1 -4 4 640.04 35.1
-2 4 -4 63.59 4.5
2 -4 4 60.49 4.4
2 -4 4 59.19 8.2
2 -4 4 68.09 7.1
2 -4 4 57.69 5.9
2 -4 4 60.89 4.1
3 -4 4 55.19 4.1
3 -4 4 54.39 3.9
3 -4 4 54.99 6.7
3 -4 4 53.39 6.3
3 -4 4 56.49 8.8
4 -4 4 4.8 1.3
4 -4 4 6.3 3.2
4 -4 4 4.8 4.5
4 -4 4 2.3 2.7
4 -4 4 2.7 1.2
-5 4 -4 7 7.4
-5 4 -4 1.5 3.2
5 -4 4 5.7 3.3
5 -4 4 5.2 5.7
5 -4 4 3.7 4.5
5 -4 4 8 4
5 -4 4 6.3 2
-6 4 -4 0.2 2.6
6 -4 4 -6 3.4
6 -4 4 6.5 3.3
6 -4 4 0.7 1.4
7 -4 4 14.9 4.4
5 3 -4 42.1 4.4
5 3 -4 30.2 3.8
-5 -3 4 43.8 5.4
4 3 -4 175.88 11.4
4 3 -4 162.08 10.8
4 3 -4 149.69 10.5
-4 -3 4 161.38 11.8
-4 -3 4 177.58 12.3
3 3 -4 4.4 1.7
-3 -3 4 2.2 2.2
-3 -3 4 5.3 4.3
2 3 -4 437.36 23
2 3 -4 404.16 23.4
2 3 -4 419.56 23.4
-2 -3 4 420.76 28
-2 -3 4 438.96 23.7
1 3 -4 0 0.9
1 3 -4 0.9 1
1 3 -4 3.8 1.3
-1 -3 4 4 1.4
-1 -3 4 1.9 1.9
-1 -3 4 2.7 1.9
0 3 -4 891.51 45.4
0 -3 4 849.32 50.29
0 -3 4 848.42 47.2
0 -3 4 811.82 48.9
0 -3 4 1025 49.4
0 -3 4 905.71 45.7
-1 3 -4 1702.83 84.59
1 -3 4 1629.14 87.09
1 -3 4 1564.64 88.79
1 -3 4 1861.71 89.39
2 -3 4 68.99 6.6
2 -3 4 71.29 8.2
2 -3 4 71.89 4.4
2 -3 4 65.59 5.8
3 -3 4 79.99 9.5
3 -3 4 72.79 6.7
3 -3 4 75.69 7.5
-4 3 -4 -0.5 2.7
4 -3 4 0.8 2.8
4 -3 4 0.5 1.1
4 -3 4 -0.5 1.8
4 -3 4 1.6 1.9
-5 3 -4 5.8 4.1
-5 3 -4 23.2 9.5
5 -3 4 23.7 3.3
5 -3 4 18.2 4.6
5 -3 4 19.7 7
5 -3 4 14.8 4.4
-6 3 -4 0.3 2.7
-6 3 -4 -1.2 2.8
6 -3 4 0.9 1.6
6 -3 4 3.4 2.7
6 -3 4 -1.8 2.2
6 -3 4 -1.2 3.5
7 -3 4 82.29 7.7
7 -3 4 75.19 8.2
6 2 -4 1.4 1.4
6 2 -4 2.3 1.6
-6 -2 4 0.4 2.2
5 2 -4 66.79 5.7
5 2 -4 61.99 6
5 2 -4 68.89 5.8
5 2 -4 63.09 5.3
5 2 -4 65.59 9.9
-5 -2 4 71.89 7.3
-5 -2 4 55.59 6.7
4 2 -4 141.79 9.6
4 2 -4 139.49 13.1
4 2 -4 138.59 9.2
4 2 -4 149.99 9.6
4 2 -4 139.39 9.9
-4 -2 4 137.79 10.9
-4 -2 4 140.99 15.2
-4 -2 4 151.98 10.9
3 2 -4 14.7 2.7
3 2 -4 16.7 2.7
-3 -2 4 26.4 3.7
-3 -2 4 14.6 5.1
2 2 -4 188.08 10.8
2 2 -4 187.28 11.2
2 2 -4 185.78 11.3
-2 -2 4 181.78 11.4
-2 -2 4 210.08 15
1 2 -4 2157.68 104.39
-1 -2 4 1905.21 107.89
-1 -2 4 1986 109.39
-1 -2 4 2276.17 107.29
0 2 -4 1750.72 90.69
0 -2 4 1766.72 93.79
0 -2 4 1919.61 93.29
0 -2 4 1816.82 94.99
-1 2 -4 65.59 3.9
1 -2 4 62.29 6.2
1 -2 4 61.09 6.5
2 -2 4 175.48 13.5
2 -2 4 188.68 13.3
2 -2 4 177.48 10
3 -2 4 125.39 11.8
3 -2 4 117.59 9.5
3 -2 4 116.99 7.6
3 -2 4 121.39 7.8
3 -2 4 108.89 8.5
-4 2 -4 204.98 22.7
4 -2 4 235.48 20.1
4 -2 4 272.67 17.6
4 -2 4 251.47 16.1
4 -2 4 258.67 15.3
4 -2 4 251.17 14.9
-5 2 -4 264.27 24.6
-5 2 -4 326.27 31.2
5 -2 4 374.66 20.2
5 -2 4 350.16 21.2
5 -2 4 380.26 28
-6 2 -4 67.79 10
-6 2 -4 68.29 8.3
6 -2 4 73.09 7.9
6 -2 4 78.09 6.9
6 -2 4 98.69 9.4
6 -2 4 99.59 9.7
7 -2 4 -1.1 2.1
7 -2 4 -3.1 2.8
6 1 -4 9.7 2.1
6 1 -4 8.8 2.1
6 1 -4 14.4 4.9
-6 -1 4 12.6 3.5
5 1 -4 121.19 8.2
5 1 -4 114.19 8.5
5 1 -4 124.29 8.4
5 1 -4 107.09 8
5 1 -4 120.39 12.3
-5 -1 4 114.29 9.5
-5 -1 4 115.39 10.2
4 1 -4 89.49 6.5
4 1 -4 85.09 6.4
4 1 -4 85.59 6.7
4 1 -4 109.29 9.1
-4 -1 4 99.89 7.9
-4 -1 4 93.99 12
3 1 -4 126.79 7.6
3 1 -4 113.79 8.5
3 1 -4 120.39 7.8
3 1 -4 115.19 7.5
-3 -1 4 137.49 12.3
-3 -1 4 128.69 8.6
2 1 -4 155.88 11.9
2 1 -4 150.88 8.5
2 1 -4 139.19 8.8
2 1 -4 148.99 8.7
-2 -1 4 166.08 11.9
1 1 -4 157.88 11.1
1 1 -4 150.58 8.4
1 1 -4 160.98 8.6
-1 -1 4 157.88 11.4
-1 -1 4 166.28 12.3
-1 -1 4 180.58 10.7
-1 -1 4 149.79 8.4
0 1 -4 10 2
0 1 -4 8.7 1
0 -1 4 9.5 0.8
0 -1 4 10.5 0.7
0 -1 4 12.1 2.2
0 -1 4 8.6 2.3
-1 1 -4 117.29 8.6
1 -1 4 126.59 8.6
1 -1 4 123.89 6.6
1 -1 4 116.69 6.3
1 -1 4 100.69 8.4
2 -1 4 296.97 15.8
2 -1 4 311.97 16.3
2 -1 4 291.57 19.4
-3 1 -4 33.5 7.5
-3 1 -4 26.8 5.5
3 -1 4 37 3.8
3 -1 4 45.5 4.1
3 -1 4 42.8 6.4
3 -1 4 42.6 5
3 -1 4 47.2 3.5
3 -1 4 39.8 4.4
-4 1 -4 1.8 3.9
-4 1 -4 -0.7 2.6
4 -1 4 -0.7 1.3
4 -1 4 0.3 1.9
4 -1 4 1.6 2.9
4 -1 4 0.8 1.5
4 -1 4 2.4 2
-5 1 -4 42.6 8
-5 1 -4 46 12.1
-5 1 -4 41.3 6.7
5 -1 4 43.1 4.8
5 -1 4 44.9 7.4
5 -1 4 43.5 5.7
5 -1 4 43.7 5.2
-6 1 -4 67.69 7.7
6 -1 4 70.99 8.5
6 -1 4 65.99 7.1
6 -1 4 78.79 9
7 -1 4 19.6 4.1
7 0 -4 26.4 5.6
7 0 -4 21.9 2.9
-7 0 4 29.8 4.4
6 0 -4 1.2 3.6
6 0 -4 1.2 1.6
6 0 -4 0.1 2.7
6 0 -4 0.5 1.5
-6 0 4 1.6 3
-6 0 4 -1.9 2
5 0 -4 16.1 2.6
5 0 -4 20.1 5.4
5 0 -4 24.3 3.3
5 0 -4 18 3.3
5 0 -4 19.1 3
-5 0 4 19.7 4.3
-5 0 4 17.7 6.2
4 0 -4 15.3 2.2
4 0 -4 12.4 2
4 0 -4 12.3 2.8
4 0 -4 10.9 2.2
4 0 -4 14 2.3
-4 0 4 11.1 2.8
-4 0 4 12.5 4.8
3 0 -4 389.36 20.9
3 0 -4 387.66 21.1
3 0 -4 407.36 21.4
3 0 -4 409.66 20.8
3 0 -4 388.06 20.8
-3 0 4 381.46 21.8
-3 0 4 402.16 25.8
2 0 -4 234.88 13
2 0 -4 266.07 13.5
2 0 -4 249.08 15.5
2 0 -4 255.67 13.4
-2 0 4 226.08 15.4
1 0 -4 468.05 25.8
1 0 -4 480.85 26.3
1 0 -4 483.75 24.1
1 0 -4 478.85 23.8
1 0 -4 481.75 27
-1 0 4 464.05 23.8
-1 0 4 442.56 27.2
-1 0 4 453.45 23.7
0 0 -4 234.08 14.9
0 0 -4 213.38 11.1
0 0 -4 211.58 13.1
0 0 4 193.98 11
0 0 4 206.58 10.8
-1 0 -4 118.39 9.3
1 0 4 111.79 9.5
1 0 4 114.69 6.5
1 0 4 118.99 6.8
-2 0 -4 140.89 13.7
2 0 4 180.38 10.4
2 0 4 187.48 13
2 0 4 174.88 16
2 0 4 178.78 9.8
-3 0 -4 251.37 21.9
-3 0 -4 254.17 19.7
-3 0 -4 282.67 16.6
3 0 4 252.87 15.8
3 0 4 288.47 16.4
3 0 4 293.37 15.5
-4 0 -4 105.79 9.4
-4 0 -4 102.99 15
-4 0 -4 110.39 12.2
4 0 4 107.79 9.1
4 0 4 107.29 8.6
4 0 4 119.89 7.8
-5 0 -4 76.09 10.2
5 0 4 77.19 9.7
5 0 4 74.69 6.4
6 0 4 80.29 6.3
7 -1 -4 39.7 7.3
7 -1 -4 25.8 3.4
7 -1 -4 27.4 4.9
7 -1 -4 22.6 3.2
-7 1 4 32.4 5.5
6 -1 -4 1.8 1.3
6 -1 -4 -3.1 2.2
6 -1 -4 -0.7 3.5
6 -1 -4 0.4 1.5
6 -1 -4 2 1.5
-6 1 4 0.3 2.1
5 -1 -4 3.4 1.5
5 -1 -4 2.6 1.2
5 -1 -4 5.3 1.7
5 -1 -4 2.9 1.3
-5 1 4 2.3 2.4
-5 1 4 1.4 3.3
4 -1 -4 1.1 1.1
4 -1 -4 4.3 1.6
4 -1 -4 0.8 0.7
4 -1 -4 0.7 0.8
4 -1 -4 2.1 1
-4 1 4 1.5 2.7
-4 1 4 0.1 1.5
3 -1 -4 405.86 20.4
3 -1 -4 376.56 20
3 -1 -4 394.76 20.6
3 -1 -4 387.26 19.7
-3 1 4 330.97 23.7
2 -1 -4 15.8 1.7
2 -1 -4 13.8 1.4
2 -1 -4 13 2.2
2 -1 -4 15.6 1.7
-2 1 4 13.9 1.5
1 -1 -4 707.63 36.6
1 -1 -4 729.93 40.1
1 -1 -4 736.33 38.7
1 -1 -4 689.93 39.1
1 -1 -4 708.63 36.9
-1 1 4 773.52 36.4
0 -1 -4 243.58 16.2
0 -1 -4 240.18 13.5
0 1 4 281.57 13.4
-1 -1 -4 137.19 7.1
-1 -1 -4 115.29 10.5
1 1 4 112.39 7.2
1 1 4 109.79 6.8
-2 -1 -4 127.49 11.1
2 1 4 135.29 8.9
2 1 4 135.39 8.2
-3 -1 -4 227.08 17.6
3 1 4 225.58 13.2
3 1 4 213.18 14.4
3 1 4 226.38 13.6
-4 -1 -4 24.6 6.3
4 1 4 34.3 4.2
4 1 4 28.1 6.5
4 1 4 31.5 4.4
-5 -1 -4 26.9 6.5
5 1 4 32.8 6.6
5 1 4 32.2 4.2
5 1 4 28.5 4.5
6 1 4 85.39 6.7
6 1 4 76.19 7.1
7 -2 -4 1.6 2.3
7 -2 -4 1.2 1.6
7 -2 -4 -0.6 3.7
7 -2 -4 0.6 1.3
-7 2 4 -2.5 2.8
6 -2 -4 26 5.9
6 -2 -4 19.7 3.1
6 -2 -4 22.9 4.9
6 -2 -4 24.4 3.3
6 -2 -4 25.3 2.7
-6 2 4 16.1 3.9
5 -2 -4 30.9 3.2
5 -2 -4 29.3 3
5 -2 -4 32.1 2.8
5 -2 -4 26.3 3
-5 2 4 22.4 4.6
4 -2 -4 97.69 6.5
4 -2 -4 83.99 5.7
4 -2 -4 82.49 5.4
4 -2 -4 77.99 5
3 -2 -4 22.5 2.1
3 -2 -4 22.4 1.6
3 -2 -4 21.3 2.2
3 -2 -4 19.4 2.3
-3 2 4 19.8 2
-3 2 4 19.7 2.3
2 -2 -4 75.99 6
2 -2 -4 75.99 5.2
2 -2 -4 73.39 4.8
2 -2 -4 77.29 5.1
-2 2 4 83.49 4.9
-2 2 4 79.19 4.7
1 -2 -4 625.54 30.9
1 -2 -4 545.55 32.9
-1 2 4 593.94 30.2
-1 2 4 620.84 30.4
0 -2 -4 449.95 23
0 -2 -4 411.66 26.7
0 2 4 430.56 22.6
0 2 4 453.95 22.9
-1 -2 -4 150.38 11
1 2 4 130.69 8.8
1 2 4 141.39 8.4
-2 -2 -4 8.5 1.8
-2 -2 -4 10.9 3.8
2 2 4 10 2.1
2 2 4 11.1 2.8
2 2 4 9.4 2.3
-3 -2 -4 172.08 15
3 2 4 175.88 11.4
3 2 4 172.98 11.2
-4 -2 -4 50.49 8.2
4 2 4 41.3 7.6
4 2 4 50.69 5.4
4 2 4 51.99 5.4
5 2 4 86.59 6.7
5 2 4 93.69 7
7 -3 -4 9 2.1
7 -3 -4 11.2 2.4
7 -3 -4 7.7 3.1
6 -3 -4 31.1 3.6
6 -3 -4 27.8 3.6
6 -3 -4 29.4 2.6
6 -3 -4 30.5 5.4
5 -3 -4 120.39 8.4
5 -3 -4 115.69 6.8
5 -3 -4 119.09 7.8
5 -3 -4 127.79 7.7
4 -3 -4 155.98 8.2
4 -3 -4 175.48 9.3
4 -3 -4 148.89 9.4
4 -3 -4 154.18 9.3
4 -3 -4 150.48 9
4 -3 -4 153.28 9.8
-4 3 4 147.39 9.6
-4 3 4 144.69 9.1
3 -3 -4 3 1.1
3 -3 -4 3.3 1.1
3 -3 -4 1.5 1.1
3 -3 -4 2.9 1.3
3 -3 -4 2.3 0.5
3 -3 -4 3.5 1.2
-3 3 4 3.2 1.2
-3 3 4 2.1 0.9
2 -3 -4 593.74 30.7
2 -3 -4 611.44 31.4
2 -3 -4 598.14 30.2
-2 3 4 586.94 30.6
-2 3 4 592.14 30.4
1 -3 -4 949.21 48
1 -3 -4 917.51 47.3
1 -3 -4 922.91 47.2
-1 3 4 941.01 47.3
-1 3 4 929.91 47.1
0 -3 -4 15.4 3.2
0 -3 -4 11.7 1.8
0 -3 -4 13.8 1.9
0 -3 -4 12 1.7
0 -3 -4 15.5 2.5
0 -3 -4 11.6 1.9
0 3 4 10.7 2
0 3 4 12 1.9
0 3 4 12.2 1.7
-1 -3 -4 36 5.3
-1 -3 -4 31.7 3.2
-1 -3 -4 31.4 3
1 3 4 32.4 3.4
1 3 4 39.1 4.7
1 3 4 35.2 3.1
1 3 4 30.7 3.5
-2 -3 -4 6 1.9
-2 -3 -4 4.9 3.4
2 3 4 7.7 2.4
2 3 4 4 2
-3 -3 -4 111.49 12
-3 -3 -4 111.79 8.7
3 3 4 113.99 8.5
3 3 4 120.99 9
4 3 4 10.3 2.8
4 3 4 15.7 3.1
7 -4 -4 183.28 11.4
7 -4 -4 183.28 11.4
7 -4 -4 215.98 13.5
6 -4 -4 3.6 1.7
6 -4 -4 5.4 0.9
6 -4 -4 4 1.9
6 -4 -4 6.9 2.8
5 -4 -4 37.5 3.5
5 -4 -4 29.1 3.3
5 -4 -4 29.9 2.1
4 -4 -4 290.77 15.4
4 -4 -4 268.77 15.8
4 -4 -4 243.68 15.3
4 -4 -4 280.87 14.2
4 -4 -4 253.37 16
4 -4 -4 291.97 16.1
4 -4 -4 301.17 15.4
4 -4 -4 266.17 15.7
-4 4 4 272.67 15.1
-4 4 4 292.77 15.7
3 -4 -4 151.48 8.9
3 -4 -4 139.49 9.3
3 -4 -4 152.48 8.1
3 -4 -4 148.69 9.5
3 -4 -4 145.49 8.8
-3 4 4 150.38 8.8
-3 4 4 142.99 8.5
2 -4 -4 4.7 1
2 -4 -4 3.1 1.2
2 -4 -4 4.1 1.5
2 -4 -4 7.7 1.7
2 -4 -4 4 1.3
2 -4 -4 2.5 1.4
-2 4 4 4.1 1.1
1 -4 -4 0.5 1.1
1 -4 -4 2.1 1.2
1 -4 -4 -0.6 1.1
1 -4 -4 0.8 0.9
1 -4 -4 0.5 0.7
1 -4 -4 0.3 0.9
-1 4 4 0.3 1
-1 4 4 -0.1 0.9
-1 4 4 0.3 1
0 -4 -4 234.68 13.1
0 -4 -4 222.58 13.4
0 -4 -4 222.98 13.2
0 -4 -4 237.38 16.6
0 -4 -4 227.98 13.6
0 -4 -4 227.58 13.3
0 -4 -4 232.48 13.5
0 -4 -4 216.28 13.3
0 4 4 216.88 13.6
0 4 4 221.58 13
0 4 4 220.18 12.9
0 4 4 225.38 12.9
0 4 4 225.68 13.7
-1 -4 -4 189.98 14.9
-1 -4 -4 168.18 11.3
-1 -4 -4 173.18 10.8
-1 -4 -4 160.38 10.4
1 4 4 174.58 10.8
1 4 4 160.28 10.3
1 4 4 159.58 10.8
-2 -4 -4 -0.1 2.4
-2 -4 -4 0.1 3.2
-2 -4 -4 1.3 2
2 4 4 0.6 1.7
2 4 4 1.8 1.6
2 4 4 2.9 2
2 4 4 4.1 2.4
-3 -4 -4 29.1 4.2
3 4 4 25.3 4
3 4 4 27.7 4.1
7 -5 -4 18.8 4.1
4 -5 -4 54.89 5.2
4 -5 -4 73.39 5.2
4 -5 -4 64.99 5.4
4 -5 -4 66.59 3.9
-4 5 4 62.99 5.6
3 -5 -4 167.08 10.2
3 -5 -4 161.98 9.2
3 -5 -4 178.28 10.1
3 -5 -4 164.28 10.4
3 -5 -4 166.48 10
3 -5 -4 161.68 10.6
3 -5 -4 154.98 10.5
-3 5 4 158.38 10.8
2 -5 -4 17.8 3.1
2 -5 -4 22 3.1
2 -5 -4 22.7 3.1
2 -5 -4 23.6 2.8
2 -5 -4 27.2 3.1
2 -5 -4 19.5 3.3
2 -5 -4 22.2 3.3
2 -5 -4 22.4 2.4
-2 5 4 18.3 2.7
-2 5 4 16.8 3.2
1 -5 -4 143.09 9.3
1 -5 -4 142.79 9.4
1 -5 -4 139.89 8.8
1 -5 -4 137.09 9.3
1 -5 -4 144.19 9.2
1 -5 -4 142.79 9.3
1 -5 -4 137.69 8.8
1 -5 -4 133.79 9.3
-1 5 4 136.79 8.7
-1 5 4 124.19 8.6
-1 5 4 116.19 9.2
-1 5 4 124.99 8.4
0 -5 -4 2.8 1.4
0 -5 -4 0.8 1.8
0 -5 -4 0.3 3.2
0 -5 -4 2 2.2
0 -5 -4 0.8 1.4
0 -5 -4 0.2 2.1
0 -5 -4 1.1 2
0 -5 -4 4.5 2
0 -5 -4 2.4 1.5
0 -5 -4 3.9 1.9
0 5 4 0.6 1.2
0 5 4 4.5 2
0 5 4 0.4 1.6
-1 -5 -4 87.09 6.5
-1 -5 -4 73.29 6.5
-1 -5 -4 76.59 9.7
-1 -5 -4 66.49 6.4
1 5 4 76.89 6.4
1 5 4 74.99 6.3
1 5 4 67.29 5.7
-2 -5 -4 3.3 2.1
-2 -5 -4 -1.9 2
2 5 4 1.8 1.6
2 5 4 1.1 1.9
2 5 4 2.7 1.9
4 -6 -4 48 4.3
4 -6 -4 42.6 4.6
4 -6 -4 54.09 4.9
4 -6 -4 55.39 4.8
4 -6 -4 49.1 3.3
4 -6 -4 58.09 5.3
3 -6 -4 25.3 4
3 -6 -4 25.2 3.6
3 -6 -4 23.3 2.4
3 -6 -4 26.8 3.7
3 -6 -4 24.8 3.2
3 -6 -4 26.6 3.6
3 -6 -4 24.9 3.7
2 -6 -4 4.2 2
2 -6 -4 3.5 2
2 -6 -4 5.8 1.5
2 -6 -4 3.8 1.8
2 -6 -4 3.7 2.1
2 -6 -4 2.4 1.7
2 -6 -4 4.2 2.5
2 -6 -4 7.8 2.4
-2 6 4 2.8 1.6
-2 6 4 2.5 1.8
1 -6 -4 11 2.3
1 -6 -4 9.5 2.6
1 -6 -4 8.4 2.7
1 -6 -4 12.1 2.8
1 -6 -4 6.4 2.8
1 -6 -4 15.4 3.2
1 -6 -4 10.5 2.5
1 -6 -4 11.2 2.8
1 -6 -4 14.7 2.5
-1 6 4 6.4 2.2
-1 6 4 11.8 2.4
0 -6 -4 38.6 4.8
0 -6 -4 35.4 4.2
0 -6 -4 31 4.3
0 6 4 29.1 3.6
0 6 4 31.3 4.1
-1 -6 -4 0.3 1.7
-1 -6 -4 -0.9 1.7
1 6 4 -0.3 1.6
1 6 4 0.9 1.4
4 -7 -4 14.5 2.5
4 -7 -4 12.7 2.5
4 -7 -4 16.9 3
4 -7 -4 12.9 2.6
3 -7 -4 7.6 2.2
3 -7 -4 12.2 2.5
3 -7 -4 5.6 1.7
3 -7 -4 6.5 2
3 -7 -4 9 2.4
3 -7 -4 12.8 2.8
-3 7 4 6.1 1.8
2 -7 -4 13.1 2.5
2 -7 -4 15.8 2.8
2 -7 -4 17.6 2.8
2 -7 -4 14.5 2.9
2 -7 -4 15.9 3.4
2 -7 -4 17.2 3.1
-2 7 4 11.2 2.6
1 -7 -4 75.39 5.8
1 -7 -4 80.69 5.9
1 -7 -4 84.19 6.7
1 -7 -4 85.79 6.3
-1 8 -5 2.4 1.5
1 -8 5 3 1.7
1 -8 5 1.5 1.2
-2 8 -5 1.4 1.6
-2 8 -5 -0.2 1.4
2 -8 5 -0.7 1.1
2 -8 5 0.1 1
2 -8 5 -0.1 1.6
-3 8 -5 27.3 3.6
3 -8 5 26.6 2.9
3 -8 5 28.7 3.7
-4 8 -5 11 2.4
4 -8 5 12.2 1.9
4 -8 5 6.6 1.9
5 -8 5 20.8 2.9
1 7 -5 11 2.3
1 7 -5 7.9 1.8
-1 -7 5 8.4 1.8
0 7 -5 41.1 4.5
0 7 -5 26.3 4.6
0 -7 5 38.4 3.6
0 -7 5 39.4 3.8
-1 7 -5 35 4.5
-1 7 -5 42.4 4.7
1 -7 5 30.7 3.7
1 -7 5 37.7 5
1 -7 5 35.9 3.9
1 -7 5 34.9 3.7
1 -7 5 39.8 4
-2 7 -5 132.29 9.3
2 -7 5 136.59 8.8
2 -7 5 139.19 8.8
2 -7 5 130.19 8.7
2 -7 5 134.29 9.7
2 -7 5 147.39 9
2 -7 5 122.89 13.1
3 -7 5 19.1 2.6
3 -7 5 22 3.9
3 -7 5 20.2 7.1
3 -7 5 16.3 2.8
3 -7 5 24.1 6.6
3 -7 5 19.9 2.6
4 -7 5 28.6 5.9
4 -7 5 30.2 4
4 -7 5 26.2 3.2
-5 7 -5 3.9 2.7
5 -7 5 7 3.8
5 -7 5 4.7 1.5
5 -7 5 5.1 1.9
6 -7 5 1.7 3.1
6 -7 5 8 1.9
2 6 -5 0.2 1.3
1 6 -5 6.7 2.1
1 6 -5 5.4 2.3
1 6 -5 3.3 2.1
1 6 -5 5 2.1
-1 -6 5 0.8 3.7
-1 -6 5 4 1.9
0 6 -5 29.7 4.2
0 6 -5 27.6 4.2
0 -6 5 29.1 5.8
0 -6 5 24.7 6.5
0 -6 5 27.6 3.7
0 -6 5 30.2 3.5
-1 6 -5 206.68 12.9
1 -6 5 212.58 12.3
1 -6 5 186.08 12.8
1 -6 5 206.98 12.4
1 -6 5 172.68 19.9
1 -6 5 197.88 17.1
1 -6 5 201.18 12.2
1 -6 5 210.28 14.9
1 -6 5 203.78 12.2
-2 6 -5 230.78 13.3
2 -6 5 213.68 12.7
2 -6 5 211.88 12.6
2 -6 5 222.38 12.6
2 -6 5 213.58 17.5
2 -6 5 186.88 19.8
2 -6 5 211.58 12.5
2 -6 5 214.18 12.7
2 -6 5 193.38 15.1
2 -6 5 221.58 17.9
2 -6 5 192.28 13.6
3 -6 5 8.5 4.7
3 -6 5 14.2 5.6
3 -6 5 16.2 2.6
3 -6 5 9.4 2.3
3 -6 5 13.6 2.1
3 -6 5 11.3 6.5
3 -6 5 16.3 4.8
3 -6 5 10.2 2.8
4 -6 5 108.49 11.6
4 -6 5 108.59 12
4 -6 5 121.39 7.7
4 -6 5 105.79 10.8
4 -6 5 117.39 8.5
-5 6 -5 -0.2 2.3
-5 6 -5 -1.5 2.7
5 -6 5 3.8 1.6
5 -6 5 6.4 4.4
5 -6 5 1.7 3.7
5 -6 5 5.9 1.6
5 -6 5 2.2 2
5 -6 5 8 3.8
6 -6 5 91.69 7.5
6 -6 5 74.89 9.5
7 -6 5 17.6 4.4
3 5 -5 65.49 5.6
2 5 -5 17.6 3.6
2 5 -5 15.5 3.1
2 5 -5 10.6 2.7
2 5 -5 12.8 2.7
-2 -5 5 16.1 2.9
-2 -5 5 14.8 4.2
-2 -5 5 19.1 4.5
1 5 -5 354.76 19.3
1 5 -5 321.37 19.9
1 5 -5 334.27 19.6
1 5 -5 341.97 20.2
-1 -5 5 312.37 25.6
-1 -5 5 346.47 23.9
-1 -5 5 366.96 21.6
-1 -5 5 342.67 21
-1 -5 5 356.26 19.9
-1 -5 5 344.87 19.3
0 5 -5 112.39 7.4
0 5 -5 111.09 8.2
0 5 -5 107.39 8
0 -5 5 125.09 9.4
0 -5 5 106.29 7.4
0 -5 5 94.49 11.9
0 -5 5 112.79 11.3
-1 5 -5 1.1 1.3
-1 5 -5 3.7 1.5
1 -5 5 -0.1 2.3
1 -5 5 3.4 1.3
1 -5 5 0 1
1 -5 5 1.8 1.2
1 -5 5 -0.6 2.1
1 -5 5 2.2 3.2
1 -5 5 2.6 1.2
-2 5 -5 252.77 14.4
2 -5 5 269.77 14.1
2 -5 5 244.98 14.1
2 -5 5 227.88 20.5
2 -5 5 241.38 16.4
2 -5 5 242.28 18.4
2 -5 5 240.88 14.1
3 -5 5 178.68 15.1
3 -5 5 190.78 11
3 -5 5 184.58 13.8
3 -5 5 197.48 10.8
3 -5 5 161.78 17.7
3 -5 5 173.88 10.6
4 -5 5 121.99 8
4 -5 5 122.79 15.8
4 -5 5 132.09 12.6
4 -5 5 133.09 11.6
5 -5 5 15.6 3
5 -5 5 13.1 4.7
5 -5 5 17.3 5.8
5 -5 5 19.8 3.1
5 -5 5 18.4 5.3
-6 5 -5 -1.2 3.6
6 -5 5 -2.4 3
6 -5 5 1.8 1.3
6 -5 5 -1.4 3.6
7 -5 5 15.7 4.5
4 4 -5 0.7 1.6
-4 -4 5 1.3 2.6
3 4 -5 72.89 6
3 4 -5 69.09 6.3
-3 -4 5 77.59 7.8
-3 -4 5 65.79 7.1
2 4 -5 16.6 4.7
2 4 -5 10.5 2.8
2 4 -5 17.7 3.6
2 4 -5 17.1 3
-2 -4 5 16.4 3
-2 -4 5 15.5 3.8
-2 -4 5 16.6 3.6
-2 -4 5 13.9 5.5
1 4 -5 11.7 2.1
1 4 -5 10.2 2.4
1 4 -5 11.8 2.6
-1 -4 5 11.4 4.4
-1 -4 5 13.3 3
-1 -4 5 15.1 4.3
0 4 -5 13.8 2.3
0 4 -5 15.8 2.3
0 4 -5 14.3 2.4
0 -4 5 13.2 4.6
0 -4 5 12 2.5
0 -4 5 14.6 4.2
0 -4 5 16.1 3.1
0 -4 5 13.1 2.2
-1 4 -5 286.77 16.3
-1 4 -5 310.67 16.6
1 -4 5 309.77 21.5
1 -4 5 291.37 16.1
1 -4 5 282.37 19.3
1 -4 5 304.27 16.2
1 -4 5 287.17 17.5
1 -4 5 282.07 16
2 -4 5 316.37 18.2
2 -4 5 329.27 24.4
2 -4 5 343.27 20.5
2 -4 5 327.77 18.3
2 -4 5 394.46 22.8
3 -4 5 23.7 4.8
3 -4 5 31.9 5.6
3 -4 5 22.4 7.1
3 -4 5 20.8 2.3
3 -4 5 21.2 2.4
-4 4 -5 37.2 4.9
4 -4 5 56.19 4.1
4 -4 5 69.69 10.7
4 -4 5 51.89 7.3
4 -4 5 66.49 5.1
4 -4 5 57.29 7
-5 4 -5 19.6 9.5
5 -4 5 43.5 7.8
5 -4 5 35.7 4.1
5 -4 5 32.3 9.1
5 -4 5 35.7 6
5 -4 5 34.1 6.2
-6 4 -5 -1.6 2.8
6 -4 5 3.4 4.3
6 -4 5 3.2 3
6 -4 5 1.9 1.6
7 -4 5 2.3 2.9
5 3 -5 37.7 4.3
-5 -3 5 41.2 5.2
4 3 -5 37.5 4.5
4 3 -5 43.4 4.9
-4 -3 5 41.1 5.4
-4 -3 5 31.2 5.7
3 3 -5 288.67 17.7
3 3 -5 276.27 18
3 3 -5 313.07 17.4
-3 -3 5 291.67 18.5
-3 -3 5 309.67 23.6
-3 -3 5 327.77 18.6
2 3 -5 90.09 6.9
2 3 -5 92.29 6.4
2 3 -5 80.79 6.7
-2 -3 5 98.59 10.4
-2 -3 5 98.69 7.2
1 3 -5 357.56 19.6
1 3 -5 376.06 20.5
1 3 -5 357.56 20.3
-1 -3 5 388.36 24
-1 -3 5 361.26 20.4
0 3 -5 1407.76 68.09
0 -3 5 1478.15 72.19
0 -3 5 1331.67 73.29
0 -3 5 1348.37 68.29
0 -3 5 1246.98 69.89
0 -3 5 1233.38 73.59
-1 3 -5 25.7 2.3
1 -3 5 35.5 5.2
1 -3 5 21 3.1
1 -3 5 16.6 3.8
1 -3 5 18.7 3.4
2 -3 5 64.79 5.8
2 -3 5 55.99 4.2
2 -3 5 64.19 6.5
2 -3 5 64.99 7.9
-3 3 -5 90.59 7.1
3 -3 5 106.09 6.3
3 -3 5 104.79 9.3
3 -3 5 102.29 8.3
3 -3 5 99.99 11.2
-4 3 -5 0.8 1.5
-4 3 -5 3.6 3.5
4 -3 5 4.9 1.2
4 -3 5 14.7 3.6
4 -3 5 4.8 3
-5 3 -5 10.5 5
-5 3 -5 9.7 7.6
5 -3 5 17.1 5.6
5 -3 5 16.2 5.1
5 -3 5 21.8 7.8
5 -3 5 17.3 4.7
5 -3 5 17.4 3.4
-6 3 -5 8.1 3.7
-6 3 -5 6.2 4.3
6 -3 5 9.4 4.7
6 -3 5 16.5 4.5
6 -3 5 16.4 4
6 -3 5 11.6 3
7 -3 5 13.7 3.3
7 -3 5 10.8 3.5
6 2 -5 14.6 2.6
6 2 -5 11.9 2.4
-6 -2 5 10 3.1
5 2 -5 141.59 14.7
5 2 -5 185.28 11.8
5 2 -5 177.98 11.2
5 2 -5 181.48 11.4
-5 -2 5 186.98 13
-5 -2 5 178.98 12.5
4 2 -5 9.2 2.6
4 2 -5 10.1 2.4
4 2 -5 3.1 4.2
4 2 -5 10.9 2.5
-4 -2 5 7.4 4.6
-4 -2 5 5.6 2.5
-4 -2 5 8.1 2.9
3 2 -5 35.1 3.6
3 2 -5 38.3 4
3 2 -5 27.3 3.6
-3 -2 5 40.7 7.1
-3 -2 5 49.7 4.9
2 2 -5 4.8 1.4
2 2 -5 7.5 1.7
2 2 -5 5.4 1.6
-2 -2 5 8 3.3
-2 -2 5 6.7 1.9
1 2 -5 1062.99 56.29
-1 -2 5 1042.8 56.19
-1 -2 5 1218.18 59.39
0 2 -5 312.87 16.3
0 -2 5 291.07 20.5
0 -2 5 277.67 19.3
0 -2 5 337.37 19
-1 2 -5 7.8 1.1
1 -2 5 6.9 2.9
1 -2 5 8.1 2.9
2 -2 5 168.38 12
2 -2 5 162.38 13.4
2 -2 5 181.58 9.9
3 -2 5 51.69 7.4
3 -2 5 51.49 4.4
3 -2 5 52.49 4.4
3 -2 5 35.9 4.7
3 -2 5 43.8 5.4
-4 2 -5 7.7 6
-4 2 -5 10.4 4.9
4 -2 5 8 2.3
4 -2 5 7.8 2.7
4 -2 5 11.4 5.1
4 -2 5 9.4 3.2
4 -2 5 14.9 3.7
-5 2 -5 9.6 7.5
-5 2 -5 5.8 4.3
5 -2 5 3.7 2.8
5 -2 5 10.8 2.8
5 -2 5 11.5 3.8
5 -2 5 7.6 3.9
-6 2 -5 8.4 3.4
-6 2 -5 11.9 4.7
6 -2 5 17.3 4.3
6 -2 5 18.6 5.2
6 -2 5 18.1 4.4
6 -2 5 12.6 2.9
7 -2 5 -0.9 2.4
7 -2 5 0.3 2.3
6 1 -5 48 4.5
6 1 -5 48.2 4.3
6 1 -5 32.7 6.7
6 1 -5 51.79 5
-6 -1 5 65.99 6.6
5 1 -5 35.9 7.2
5 1 -5 37.9 4.1
5 1 -5 41.7 4.8
5 1 -5 36.7 4.3
5 1 -5 43 4.6
-5 -1 5 40.3 5.5
-5 -1 5 39.6 6.5
4 1 -5 11 2.3
4 1 -5 11.7 2.4
4 1 -5 13.3 2.5
-4 -1 5 12.1 4.9
-4 -1 5 9.4 2.9
3 1 -5 977.5 48.7
3 1 -5 918.21 48.9
3 1 -5 928.21 48.5
3 1 -5 959.9 49.1
-3 -1 5 962 49.5
2 1 -5 0.6 0.7
2 1 -5 1.1 1.5
2 1 -5 2 0.9
2 1 -5 1.4 0.6
-2 -1 5 2 1.3
-2 -1 5 0.9 0.9
-2 -1 5 1.4 1.7
1 1 -5 25.3 2
1 1 -5 22.6 3.4
1 1 -5 19.5 2
1 1 -5 23.7 1.7
-1 -1 5 24.5 1.7
-1 -1 5 22.8 1.7
-1 -1 5 27.7 3.3
-1 -1 5 28.4 7
0 1 -5 415.96 23.8
0 1 -5 466.45 26.5
0 -1 5 479.55 25.7
0 -1 5 518.45 23.6
0 -1 5 495.25 23.4
0 -1 5 401.66 27.7
-1 1 -5 483.85 22.3
1 -1 5 429.66 22
1 -1 5 378.66 24.7
1 -1 5 438.96 22.4
2 -1 5 743.43 37.5
2 -1 5 698.93 39.1
2 -1 5 696.73 40.9
2 -1 5 753.32 36.9
-3 1 -5 141.69 16.6
3 -1 5 211.88 13.8
3 -1 5 178.68 12
3 -1 5 185.98 11.7
3 -1 5 196.18 11
3 -1 5 170.08 11.5
3 -1 5 212.88 16
-4 1 -5 242.18 24.2
-4 1 -5 269.97 21.6
4 -1 5 287.97 16.6
4 -1 5 247.78 15.7
4 -1 5 251.07 16.3
4 -1 5 248.18 15.1
-5 1 -5 75.39 8.7
-5 1 -5 81.59 11
-5 1 -5 76.19 14.8
5 -1 5 86.29 9.6
5 -1 5 79.09 7.7
6 -1 5 28 5.9
7 0 -5 3 1.4
7 0 -5 3.2 3.6
-7 0 5 1.8 2.1
6 0 -5 15.6 5.1
6 0 -5 10.5 2.2
6 0 -5 8.8 2.4
6 0 -5 10.2 4.6
6 0 -5 10.1 2.4
-6 0 5 15.2 4.1
-6 0 5 10.7 3.1
5 0 -5 172.78 10.8
5 0 -5 177.58 13.3
5 0 -5 179.98 11
5 0 -5 183.48 11.2
5 0 -5 200.28 15
5 0 -5 182.78 11.8
5 0 -5 175.98 11.2
-5 0 5 190.48 18
-5 0 5 154.68 13
-5 0 5 195.98 12.9
4 0 -5 25.4 2.7
4 0 -5 26.7 2.9
4 0 -5 22.4 2.8
4 0 -5 24.6 2.9
4 0 -5 23.8 3.2
-4 0 5 30.1 3.9
-4 0 5 26.3 5.9
3 0 -5 14.7 1.9
3 0 -5 16.3 2.2
3 0 -5 16.3 1.9
3 0 -5 17.4 1.9
3 0 -5 20.1 2.4
-3 0 5 15.9 2.5
-3 0 5 18.1 4.2
2 0 -5 2.9 0.9
2 0 -5 2.7 0.7
2 0 -5 2.4 1.5
2 0 -5 2 0.8
-2 0 5 1.8 0.8
-2 0 5 2.8 1.7
1 0 -5 9.7 1.3
1 0 -5 9.8 2.2
1 0 -5 10.5 1.3
1 0 -5 13.3 1.2
-1 0 5 9.4 1.1
-1 0 5 11.8 1
0 0 -5 3151.58 150.88
0 0 -5 2983 153.78
0 0 5 3021.5 150.48
0 0 5 2975.2 150.68
-1 0 -5 399.86 25.3
1 0 5 419.76 21.5
1 0 5 431.26 22
-2 0 -5 44.3 6.3
-2 0 -5 43.2 8.3
2 0 5 79.29 4.6
2 0 5 66.09 5
2 0 5 61.79 6.7
-3 0 -5 61.59 10.1
-3 0 -5 64.49 8.6
-3 0 -5 63.29 4.8
3 0 5 69.19 6.2
3 0 5 65.09 5.3
3 0 5 76.49 5.2
-4 0 -5 252.27 20.7
4 0 5 244.98 14.6
-5 0 -5 29.7 6.8
5 0 5 20.9 5.4
5 0 5 30.5 4.2
6 0 5 85.89 8.6
7 -1 -5 31.1 3.2
7 -1 -5 28.6 4.6
7 -1 -5 39 6.8
7 -1 -5 19.5 3.2
-7 1 5 28.8 4.9
6 -1 -5 29.8 3.2
6 -1 -5 24.7 5.8
6 -1 -5 25.6 5.4
6 -1 -5 29.2 3.5
6 -1 -5 29.2 3.6
-6 1 5 29.5 4.8
-6 1 5 23.9 5.2
5 -1 -5 32 3.6
5 -1 -5 30.9 3.6
5 -1 -5 34.3 3.2
5 -1 -5 29.9 3.3
-5 1 5 38.5 5.1
4 -1 -5 6.3 1.5
4 -1 -5 7 1.4
4 -1 -5 7.8 1.8
4 -1 -5 9.3 2.4
4 -1 -5 7.9 1.4
-4 1 5 5.9 2.1
3 -1 -5 389.16 20.2
3 -1 -5 373.46 19.1
3 -1 -5 366.96 19.5
3 -1 -5 359.16 19.9
3 -1 -5 375.06 19.6
-3 1 5 345.57 19.7
2 -1 -5 8.5 2.1
2 -1 -5 8.3 1.1
2 -1 -5 8.2 1.3
2 -1 -5 8.5 1.3
-2 1 5 6.1 1
-2 1 5 6.1 1.1
1 -1 -5 570.44 33.5
1 -1 -5 621.84 31.3
-1 1 5 634.14 30.9
-1 1 5 602.24 30.6
0 -1 -5 406.86 22.3
0 -1 -5 430.36 25.9
0 1 5 449.46 22.4
0 1 5 429.36 22
-1 -1 -5 21.6 3.9
1 1 5 25.1 2.6
1 1 5 24.4 2.3
-2 -1 -5 1328.37 70.99
-2 -1 -5 1273.97 65.99
2 1 5 1336.57 67.39
2 1 5 1284.07 66.39
-3 -1 -5 22.6 5.7
3 1 5 24.6 3.6
3 1 5 25.2 5.7
3 1 5 31.5 3.6
3 1 5 23.7 4.4
-4 -1 -5 76.09 7.3
-4 -1 -5 100.79 11.3
4 1 5 77.89 10
4 1 5 81.99 6.9
4 1 5 91.09 7.1
5 1 5 26.3 3.6
5 1 5 16.8 4.6
5 1 5 23.7 3.8
7 -2 -5 61.99 8.3
7 -2 -5 57.99 4.8
7 -2 -5 59.39 6.4
7 -2 -5 46.7 4.5
-7 2 5 57.09 6.6
6 -2 -5 17.9 2.4
6 -2 -5 22.7 3
6 -2 -5 25.2 5
6 -2 -5 21 3.1
6 -2 -5 22.6 7.2
5 -2 -5 95.79 6.4
5 -2 -5 89.59 6.6
5 -2 -5 87.49 6.5
5 -2 -5 94.29 5.9
4 -2 -5 22.8 2.5
-4 2 5 16.1 2.7
3 -2 -5 9.3 1.9
3 -2 -5 9.9 1.1
3 -2 -5 5.7 1.3
3 -2 -5 9.3 1.8
3 -2 -5 10.8 1.6
-3 2 5 12 1.6
-3 2 5 11.1 1.8
2 -2 -5 83.79 4.7
2 -2 -5 83.79 5.6
2 -2 -5 78.49 8.2
2 -2 -5 75.89 5.2
2 -2 -5 81.79 5.6
-2 2 5 82.59 4.9
-2 2 5 85.69 5.2
1 -2 -5 345.27 17.8
1 -2 -5 288.67 20.1
-1 2 5 342.27 17.1
-1 2 5 336.67 17.3
0 -2 -5 297.17 21.2
0 -2 -5 318.77 16.9
0 2 5 317.47 16.9
0 2 5 309.17 16.5
-1 -2 -5 256.47 14.3
-1 -2 -5 280.27 17.7
1 2 5 241.28 15
1 2 5 260.07 14.5
-2 -2 -5 30.2 3.1
-2 -2 -5 29.6 5.2
2 2 5 25.4 4
2 2 5 23.7 3.4
2 2 5 32.5 3.6
-3 -2 -5 13 5.3
3 2 5 6 4.1
3 2 5 10.7 2.8
3 2 5 12.1 2.9
-4 -2 -5 50.89 8.1
-4 -2 -5 49.2 5.2
4 2 5 34.4 4.8
4 2 5 45.2 5.1
4 2 5 39.1 7.2
5 2 5 8.6 2.1
5 2 5 7.3 3.4
7 -3 -5 4.5 1.8
7 -3 -5 4.1 2.3
7 -3 -5 2.9 1.6
6 -3 -5 2.7 1.5
6 -3 -5 2.2 1.5
6 -3 -5 0.6 2.1
6 -3 -5 1.3 0.8
5 -3 -5 81.99 6.2
5 -3 -5 103.09 6.3
5 -3 -5 80.39 5.2
5 -3 -5 89.89 6.2
4 -3 -5 20.7 2.5
4 -3 -5 16.7 2.9
4 -3 -5 20.7 2.8
4 -3 -5 20.9 2.7
4 -3 -5 16.9 2.4
4 -3 -5 19.6 2.7
-4 3 5 16.9 2.6
-4 3 5 19.2 2.3
3 -3 -5 513.75 27.9
3 -3 -5 515.85 27.4
3 -3 -5 512.85 27.8
3 -3 -5 531.85 27.3
3 -3 -5 521.05 26.4
3 -3 -5 528.35 27.8
3 -3 -5 499.25 27.1
-3 3 5 535.35 27.4
-3 3 5 518.05 26.9
2 -3 -5 90.69 6.4
2 -3 -5 93.29 5.8
2 -3 -5 77.49 6.1
2 -3 -5 86.19 5.3
-2 3 5 91.49 5.5
-2 3 5 95.69 5.8
1 -3 -5 874.31 42.2
1 -3 -5 839.82 42.9
1 -3 -5 834.32 42.2
1 -3 -5 821.92 42.8
1 -3 -5 750.02 42.2
-1 3 5 828.02 42.1
-1 3 5 834.82 42.4
0 -3 -5 62.79 4.7
0 -3 -5 63.79 6.5
0 -3 -5 69.99 5.2
0 -3 -5 66.19 4.4
0 -3 -5 58.29 4.5
0 -3 -5 74.49 5.1
0 -3 -5 57.59 4.6
0 3 5 56.69 4.8
0 3 5 53.79 4.6
0 3 5 57.79 4.3
0 3 5 60.89 4.5
-1 -3 -5 8.5 2.4
-1 -3 -5 6 3.1
-1 -3 -5 6.5 1.7
-1 -3 -5 5.6 1.8
1 3 5 7.2 1.9
1 3 5 5 2.3
1 3 5 5.8 1.8
1 3 5 6.6 1.9
1 3 5 7.4 1.6
-2 -3 -5 138.19 12.6
-2 -3 -5 133.29 8.7
2 3 5 123.59 9
2 3 5 125.29 8.9
-3 -3 -5 144.29 13.6
-3 -3 -5 148.19 10.2
3 3 5 147.39 10.2
3 3 5 136.79 9.9
-4 -3 -5 57.49 5.3
4 3 5 66.09 5.6
4 3 5 56.09 5.4
7 -4 -5 5.4 1.8
7 -4 -5 5.9 2.7
7 -4 -5 5.3 1.9
6 -4 -5 2.7 1.4
6 -4 -5 0 0.5
6 -4 -5 -0.5 2.1
6 -4 -5 -0.5 1.4
5 -4 -5 207.08 12.1
5 -4 -5 200.08 12.1
5 -4 -5 202.58 10.9
5 -4 -5 207.98 14.2
5 -4 -5 214.68 12.2
4 -4 -5 108.59 6.1
4 -4 -5 105.99 7.6
4 -4 -5 106.59 7.1
4 -4 -5 109.49 7.1
4 -4 -5 104.79 7.6
4 -4 -5 112.19 7.1
-4 4 5 110.69 7.4
3 -4 -5 387.26 22.4
3 -4 -5 415.16 22.4
3 -4 -5 407.06 20.9
3 -4 -5 403.16 21.7
3 -4 -5 409.76 21.7
-3 4 5 404.76 21.4
-3 4 5 395.56 21.7
2 -4 -5 22 2.1
2 -4 -5 22.1 2.9
2 -4 -5 19 2.6
2 -4 -5 18.6 2.6
2 -4 -5 22.4 2.5
2 -4 -5 18.7 2.6
-2 4 5 16.7 2.2
1 -4 -5 2.8 1.4
1 -4 -5 3.7 1.3
1 -4 -5 1.7 1.1
1 -4 -5 3.4 1.6
1 -4 -5 1.8 1.3
1 -4 -5 5.8 1.9
-1 4 5 3.5 1.4
-1 4 5 1.4 1.1
-1 4 5 4.9 1.5
0 -4 -5 46.5 4.3
0 -4 -5 48.2 4.4
0 -4 -5 48.1 4.3
0 -4 -5 47.5 4.7
0 -4 -5 36 4.3
0 -4 -5 46.2 4
0 -4 -5 40.5 4.2
0 -4 -5 39.9 4.9
0 -4 -5 49.1 6.9
0 4 5 46.3 3.9
0 4 5 39.6 4.3
0 4 5 48.6 4.2
0 4 5 40 4
-1 -4 -5 332.77 19.8
-1 -4 -5 341.37 20.5
-1 -4 -5 348.57 20.8
-1 -4 -5 385.96 24.9
-1 -4 -5 375.56 21
-1 -4 -5 374.96 20.5
1 4 5 377.56 20.5
1 4 5 348.17 19.9
1 4 5 367.76 20.4
-2 -4 -5 6.4 2.3
-2 -4 -5 6.6 3.9
2 4 5 4.1 2
2 4 5 7 2.7
-3 -4 -5 11 2.7
3 4 5 10.3 2.7
3 4 5 16.8 3
7 -5 -5 30.9 4.9
6 -5 -5 69.69 6.1
6 -5 -5 60.49 7
6 -5 -5 63.59 5.2
5 -5 -5 269.67 15.2
5 -5 -5 267.37 15.4
5 -5 -5 271.47 15.3
4 -5 -5 2.8 1.4
4 -5 -5 0.3 1.7
4 -5 -5 -0.3 1.1
4 -5 -5 2.1 1.4
4 -5 -5 0.8 1.6
4 -5 -5 2.1 1.5
4 -5 -5 -0.2 1.9
4 -5 -5 1.3 0.7
3 -5 -5 31.6 3.8
3 -5 -5 33.7 2.9
3 -5 -5 39.4 3.9
3 -5 -5 33.8 4.6
3 -5 -5 34.2 3.8
3 -5 -5 34.8 3.4
3 -5 -5 31.7 3.7
3 -5 -5 29.6 3.7
-3 5 5 30.3 3.9
2 -5 -5 6 1.9
2 -5 -5 6.6 2
2 -5 -5 5.3 1.9
2 -5 -5 5.3 2
2 -5 -5 5.9 2
2 -5 -5 8.2 2.2
2 -5 -5 7.7 1.6
2 -5 -5 5.6 2
2 -5 -5 2.1 2.1
-2 5 5 5.2 2.3
-2 5 5 6 1.8
1 -5 -5 210.48 12.5
1 -5 -5 204.68 12.9
1 -5 -5 208.28 12.9
1 -5 -5 206.08 13
1 -5 -5 204.08 12.8
1 -5 -5 215.58 13
1 -5 -5 208.28 13
1 -5 -5 212.68 13
1 -5 -5 209.48 12.4
-1 5 5 209.38 12.2
-1 5 5 183.58 12.2
-1 5 5 206.28 12.3
0 -5 -5 1.9 1.9
0 -5 -5 2.2 1.3
0 -5 -5 1 2.1
0 -5 -5 0.6 1.5
0 -5 -5 -2.9 1.8
0 -5 -5 1.2 1.6
0 -5 -5 -1.2 2
0 -5 -5 2.1 1.8
0 5 5 -2 1.6
0 5 5 -1.3 1.5
0 5 5 -1.5 1.1
-1 -5 -5 14.3 3
-1 -5 -5 9.5 2.9
-1 -5 -5 16.6 3.1
1 5 5 13.8 2.8
1 5 5 11.3 2.7
1 5 5 11.4 2.4
-2 -5 -5 26.3 4.5
-2 -5 -5 53.29 4.8
2 5 5 40.7 4.7
2 5 5 55.39 4.7
4 -6 -5 22.8 3.7
4 -6 -5 21.5 3.4
4 -6 -5 27.2 4.1
4 -6 -5 21.4 2.9
4 -6 -5 20 1.7
4 -6 -5 19.9 3.3
3 -6 -5 138.89 9.8
3 -6 -5 135.09 9
3 -6 -5 133.99 8.4
3 -6 -5 149.09 9.9
3 -6 -5 138.29 9.3
3 -6 -5 165.88 9.9
3 -6 -5 131.89 9.6
3 -6 -5 148.79 9.6
2 -6 -5 62.89 4.7
2 -6 -5 61.69 5.6
2 -6 -5 57.29 5.4
2 -6 -5 56.79 5
2 -6 -5 64.69 5.7
2 -6 -5 57.19 5.6
2 -6 -5 50.69 5.5
2 -6 -5 55.19 6.2
2 -6 -5 56.49 5.6
-2 6 5 49.99 4.7
-2 6 5 60.69 5.1
1 -6 -5 52.79 4.4
1 -6 -5 44.8 5.2
1 -6 -5 56.19 4.6
1 -6 -5 41.1 5.4
1 -6 -5 47.4 5
1 -6 -5 48.5 5
1 -6 -5 47.5 4.7
1 -6 -5 53.39 5.3
-1 6 5 45.4 4.4
-1 6 5 47 4.6
0 -6 -5 52.49 5.4
0 -6 -5 43.6 4.8
0 -6 -5 51.09 4.9
0 6 5 49.5 4.7
-1 -6 -5 27.3 3.7
-1 -6 -5 25.7 3.2
1 6 5 23.1 2.8
1 6 5 22.9 3.3
5 -7 -5 31.4 4.4
4 -7 -5 11.6 2.2
4 -7 -5 14.9 2.7
4 -7 -5 14.5 2.7
3 -7 -5 41.3 4.3
3 -7 -5 42.7 4.7
3 -7 -5 43.2 4.3
3 -7 -5 43.1 4.2
3 -7 -5 38.7 4.5
2 -7 -5 14.9 2.9
2 -7 -5 13.4 2.6
2 -7 -5 8.6 2.2
2 -7 -5 14.1 3.2
1 -7 -5 7 2.2
1 -7 -5 0.2 1.3
1 -7 -5 5.2 1.5
1 -7 -5 0.4 1.4
-2 8 -6 3.2 1.6
-2 8 -6 1.7 1.6
2 -8 6 1 1.6
2 -8 6 3.4 1.4
2 -8 6 2.2 1.1
-3 8 -6 27.3 3.5
3 -8 6 26.9 2.8
3 -8 6 31.9 3.5
-4 8 -6 31.4 3.5
4 -8 6 33.4 2.9
4 -8 6 32.6 3.5
5 -8 6 2 1.4
1 7 -6 13 2.5
-1 -7 6 15.4 2.3
0 7 -6 0.4 1.4
0 7 -6 3.1 1.9
0 -7 6 1.3 1.3
0 -7 6 2.4 1.5
-1 7 -6 37.2 4.4
-1 7 -6 28.6 4.1
-1 7 -6 25.5 3.9
1 -7 6 28.6 3.5
1 -7 6 36.1 4.5
1 -7 6 34.5 3.6
-2 7 -6 4.2 2.1
-2 7 -6 3.2 2.4
2 -7 6 2.5 1.4
2 -7 6 1.5 3.8
2 -7 6 1.6 1.5
2 -7 6 2.6 1.4
2 -7 6 2.2 1.9
2 -7 6 2 1.5
3 -7 6 12 3.1
3 -7 6 9.6 2.1
3 -7 6 10.4 4.5
3 -7 6 8.1 4.4
3 -7 6 7.3 2
3 -7 6 9.7 2.1
4 -7 6 162.38 10
4 -7 6 153.18 14
4 -7 6 160.18 13.8
4 -7 6 172.08 10.8
-5 7 -6 12.9 3.4
5 -7 6 25.1 5.5
5 -7 6 16.7 2.3
5 -7 6 17 2.9
6 -7 6 29.4 3.1
6 -7 6 31.5 5.7
2 6 -6 1.8 1.9
2 6 -6 0.7 1.5
1 6 -6 2.4 1.9
1 6 -6 2.6 2
1 6 -6 -0.3 1.8
-1 -6 6 1.1 1.7
-1 -6 6 1.5 4.8
0 6 -6 3 2.1
0 6 -6 8.1 2.5
0 6 -6 5.9 2.2
0 -6 6 3 1.5
0 -6 6 -0.7 3.8
0 -6 6 8.3 4
0 -6 6 3 3.9
0 -6 6 0.7 1.6
-1 6 -6 6.5 2.4
-1 6 -6 7.9 2.5
1 -6 6 10.3 4.3
1 -6 6 7.9 4.3
1 -6 6 10.7 2.3
1 -6 6 4.5 2.5
1 -6 6 8.6 2.1
1 -6 6 8.1 1.9
1 -6 6 8.3 4
1 -6 6 8.7 2.3
-2 6 -6 173.78 10.4
2 -6 6 123.29 15.6
2 -6 6 136.49 11.8
2 -6 6 119.79 12.5
2 -6 6 135.79 10
2 -6 6 152.38 9.3
2 -6 6 148.69 14
2 -6 6 132.59 8.9
2 -6 6 141.89 9.2
2 -6 6 149.88 9.4
3 -6 6 1.1 1.2
3 -6 6 0.3 1.4
3 -6 6 3.7 1.4
3 -6 6 3 3.5
3 -6 6 2.5 2
3 -6 6 1.5 8.1
3 -6 6 4.3 4.5
3 -6 6 0.4 3.4
4 -6 6 72.19 9.7
4 -6 6 69.99 5.2
4 -6 6 57.49 8.3
4 -6 6 62.39 5.9
4 -6 6 60.39 8.9
-5 6 -6 16.7 4
-5 6 -6 4.8 3.8
5 -6 6 23.1 5.7
5 -6 6 18.6 2.9
5 -6 6 22.3 5.3
5 -6 6 16.4 2.9
5 -6 6 18.3 5.4
5 -6 6 17.1 2.4
6 -6 6 0.8 3.2
6 -6 6 2.1 1.6
7 -6 6 21.8 4.2
3 5 -6 0.2 1.4
-3 -5 6 0.1 2.6
2 5 -6 124.59 9.2
2 5 -6 123.69 8.8
2 5 -6 114.39 8.9
2 5 -6 126.99 8.5
-2 -5 6 135.39 10.8
-2 -5 6 123.29 10.2
-2 -5 6 118.49 8.5
1 5 -6 -0.2 1.8
1 5 -6 -1.1 1.3
1 5 -6 0.1 1.5
1 5 -6 -0.4 1.9
-1 -5 6 -0.3 1.5
-1 -5 6 -3.2 2.5
-1 -5 6 -0.9 2.8
0 5 -6 72.39 8.4
0 5 -6 75.59 6.5
0 5 -6 68.49 6.4
0 -5 6 79.09 9.4
0 -5 6 74.39 5.8
0 -5 6 70.19 10.3
0 -5 6 79.69 7.5
0 -5 6 79.79 7.4
-1 5 -6 47.1 4.4
-1 5 -6 46.6 4.3
1 -5 6 41.7 6.9
1 -5 6 44.1 3.8
1 -5 6 34.3 3.5
1 -5 6 37.6 3.9
1 -5 6 37.5 7.6
1 -5 6 32.7 5.3
2 -5 6 2 4
2 -5 6 2.8 1.3
2 -5 6 2.9 2.7
2 -5 6 1.5 1.1
2 -5 6 3.7 3.1
2 -5 6 2.7 1.2
3 -5 6 177.38 13.6
3 -5 6 168.98 14.9
3 -5 6 175.88 10.7
3 -5 6 174.98 18.1
3 -5 6 180.98 10.7
3 -5 6 180.28 10.5
-4 5 -6 21.6 4
4 -5 6 27.3 6.9
4 -5 6 29 6.2
4 -5 6 22.6 2.7
4 -5 6 26.7 6.1
4 -5 6 23.3 8.6
-5 5 -6 62.29 6.1
5 -5 6 46.3 7.3
5 -5 6 63.19 5.6
5 -5 6 57.79 9
5 -5 6 51.59 5.1
5 -5 6 53.09 8
6 -5 6 10.4 3.8
6 -5 6 3 1.6
6 -5 6 6.4 4.3
6 -5 6 4 1.8
7 -5 6 -0.8 2.5
4 4 -6 5.2 2
-4 -4 6 8.6 2.9
3 4 -6 39.9 4.5
3 4 -6 30.6 4.7
3 4 -6 43.7 4.9
-3 -4 6 40.3 6.2
-3 -4 6 40.2 5.6
2 4 -6 143.79 9.9
2 4 -6 147.59 9.4
2 4 -6 133.19 9.6
2 4 -6 141.79 10
-2 -4 6 131.79 9.2
-2 -4 6 141.09 10.9
-2 -4 6 135.69 14.4
-2 -4 6 146.59 10.6
1 4 -6 83.29 6.3
1 4 -6 68.39 6.1
1 4 -6 67.59 5.2
-1 -4 6 62.29 8.9
-1 -4 6 70.39 6.3
-1 -4 6 67.39 5.5
0 4 -6 45.1 4.4
0 4 -6 49.5 4.5
0 -4 6 51.69 7.4
0 -4 6 45.3 6.2
0 -4 6 50.29 5
-1 4 -6 0.1 1
-1 4 -6 1 1
1 -4 6 -0.1 0.8
1 -4 6 0 0.8
1 -4 6 0 1.9
1 -4 6 0.4 1.8
1 -4 6 0.3 1.6
2 -4 6 432.66 30.2
2 -4 6 414.26 23.5
2 -4 6 454.55 27.8
2 -4 6 467.25 26
2 -4 6 455.85 23.7
3 -4 6 368.86 27.4
3 -4 6 338.17 19.3
3 -4 6 376.16 22.5
3 -4 6 365.06 23.9
-4 4 -6 70.69 6.5
4 -4 6 75.59 8.8
4 -4 6 72.59 11.1
4 -4 6 66.29 7.7
4 -4 6 73.89 5.1
4 -4 6 72.69 6
-5 4 -6 1.3 3.6
-5 4 -6 -0.7 6.4
5 -4 6 1.2 4.6
5 -4 6 -0.3 2.5
5 -4 6 0.2 3.6
5 -4 6 0.5 2.7
5 -4 6 1.7 1.7
5 -4 6 -0.1 1.5
-6 4 -6 -0.1 3.7
6 -4 6 -4.1 3.4
6 -4 6 1.9 2.8
6 -4 6 1.1 1.6
7 -4 6 2.2 2.4
5 3 -6 1.4 1.7
-5 -3 6 -1.6 2.1
4 3 -6 -1.6 1.5
4 3 -6 0.1 1.8
-4 -3 6 -1.3 2.2
-4 -3 6 -3.2 2.4
3 3 -6 2.2 1.7
3 3 -6 1.6 1.9
3 3 -6 1 1.8
-3 -3 6 2.2 3.4
-3 -3 6 1.4 2.3
-3 -3 6 -0.7 1.9
2 3 -6 0 1.3
2 3 -6 0.8 1.1
2 3 -6 -0.3 1
-2 -3 6 -0.8 1.7
-2 -3 6 0.1 2.4
1 3 -6 154.18 10.2
1 3 -6 152.58 9.5
1 3 -6 174.58 10.5
-1 -3 6 171.78 10.5
-1 -3 6 172.58 13.7
0 3 -6 207.98 12.1
0 3 -6 220.58 12.3
0 -3 6 193.08 13.8
0 -3 6 212.98 12.5
0 -3 6 209.28 15.4
-1 3 -6 832.52 39.7
1 -3 6 758.82 39.6
1 -3 6 803.22 44.5
1 -3 6 721.63 42.1
1 -3 6 732.63 40.6
2 -3 6 0.7 0.9
2 -3 6 -0.6 1.6
2 -3 6 0.4 0.7
2 -3 6 0.7 2.2
-3 3 -6 85.29 6.8
3 -3 6 89.19 7.9
3 -3 6 89.59 10.7
3 -3 6 98.19 9.2
3 -3 6 93.09 5.8
-4 3 -6 56.39 12.4
-4 3 -6 61.49 5.7
4 -3 6 82.69 6.3
4 -3 6 74.79 8.2
4 -3 6 69.59 4.8
4 -3 6 68.69 7.4
4 -3 6 58.39 9.8
-5 3 -6 2 3
-5 3 -6 -4.4 5.8
5 -3 6 -1.3 2.4
5 -3 6 0.9 3.8
5 -3 6 3.6 1.7
5 -3 6 0 3.6
5 -3 6 2.4 2.9
5 -3 6 -0.8 1.6
-6 3 -6 0 3.2
-6 3 -6 2.8 2.8
6 -3 6 1.2 2.7
6 -3 6 3.5 3.6
6 -3 6 3.2 2.1
6 -3 6 -3.9 3.3
7 -3 6 0.4 2.5
7 -3 6 4.3 2.3
6 2 -6 40.7 3.9
-6 -2 6 46.4 5
5 2 -6 0 1.9
5 2 -6 -1.2 1.4
5 2 -6 0.4 1.7
-5 -2 6 -1.3 2.2
-5 -2 6 -0.5 2.2
4 2 -6 64.89 5.4
4 2 -6 51.39 5.2
4 2 -6 54.99 5.6
4 2 -6 58.39 9.5
-4 -2 6 60.39 6.8
-4 -2 6 58.69 9.4
-4 -2 6 61.39 6.2
3 2 -6 0.1 1.1
3 2 -6 -0.5 1
3 2 -6 -0.5 1.4
-3 -2 6 2 1.9
-3 -2 6 0.9 2.6
2 2 -6 72.99 5
2 2 -6 64.19 5.3
2 2 -6 62.29 5.3
-2 -2 6 81.49 8.3
-2 -2 6 68.89 5.5
1 2 -6 94.49 6.6
-1 -2 6 120.89 9.3
-1 -2 6 98.09 6.8
0 2 -6 39.1 3
0 -2 6 33.6 5.6
0 -2 6 40 4.8
-1 2 -6 73.79 4.4
1 -2 6 69.79 7
1 -2 6 58.39 7.9
2 -2 6 28.3 5.1
2 -2 6 27.7 4.2
2 -2 6 29.7 3.8
-3 2 -6 7.4 1.9
-3 2 -6 8.6 4.4
3 -2 6 10.6 4.1
3 -2 6 10.1 2.4
3 -2 6 12.1 1.6
3 -2 6 10.9 3.6
3 -2 6 13.3 2.4
3 -2 6 13.7 3.5
-4 2 -6 11.8 6.8
-4 2 -6 14.5 5.5
4 -2 6 10 2.5
4 -2 6 15.9 3.7
4 -2 6 23.7 6.2
4 -2 6 21.5 4.4
4 -2 6 6.8 2.8
-5 2 -6 1.9 2.4
-5 2 -6 3.5 3.5
-5 2 -6 2 6.6
5 -2 6 0.6 1.8
5 -2 6 1.2 1.8
5 -2 6 2 3.3
5 -2 6 4.5 2.7
-6 2 -6 6 3.8
6 -2 6 18.6 4.8
6 -2 6 15.7 4.3
6 -2 6 13.9 4.1
6 -2 6 11.2 2.9
7 -2 6 1 2.2
6 1 -6 6.1 1.9
6 1 -6 6 4.2
6 1 -6 8.1 2.3
6 1 -6 7.1 1.9
-6 -1 6 7.2 2.8
5 1 -6 2.2 1.7
5 1 -6 0.4 1.9
5 1 -6 0.8 1.4
5 1 -6 0.8 3.7
5 1 -6 -0.3 1.6
-5 -1 6 1.2 2.5
-5 -1 6 1.8 2.2
4 1 -6 25.6 3.2
4 1 -6 24.5 3.6
4 1 -6 29.3 3.2
-4 -1 6 25.7 4.2
-4 -1 6 25.2 6.7
3 1 -6 5.1 1.8
3 1 -6 5.5 1.6
3 1 -6 5.2 1.6
-3 -1 6 4.6 2.8
-3 -1 6 4.2 1.8
2 1 -6 22 2.6
2 1 -6 25.1 2.5
-2 -1 6 28.4 4.3
-2 -1 6 33.5 3.1
1 1 -6 4.5 1.1
1 1 -6 3.7 1.9
-1 -1 6 4.1 0.8
-1 -1 6 2.9 1.5
0 1 -6 140.19 8
0 -1 6 170.98 10.2
0 -1 6 132.99 7.6
0 -1 6 119.09 11.9
1 -1 6 247.08 17.3
1 -1 6 285.27 14.9
1 -1 6 290.77 14.4
-2 1 -6 -0.6 1.6
2 -1 6 0.1 0.9
2 -1 6 -0.6 1.1
2 -1 6 -0.3 0.7
2 -1 6 -0.4 1.6
-3 1 -6 75.69 9.9
-3 1 -6 111.79 6.8
-3 1 -6 68.89 11.4
3 -1 6 101.59 6.7
3 -1 6 107.79 7.7
3 -1 6 113.29 11.1
-4 1 -6 1.5 5.2
-4 1 -6 4.2 4.2
-5 1 -6 2.6 3.4
-5 1 -6 2.1 2.3
5 -1 6 3.2 2
5 -1 6 -2.3 2.9
6 -1 6 0 2.6
7 0 -6 -0.4 1.3
7 0 -6 1.8 3.3
-7 0 6 2.6 2.2
6 0 -6 9.4 2.4
6 0 -6 15.5 4.8
6 0 -6 13.8 2.5
6 0 -6 9.2 2.5
6 0 -6 12.3 2.4
-6 0 6 14.7 3.8
-6 0 6 12.5 3.2
5 0 -6 45.4 4.1
5 0 -6 45.3 4.3
5 0 -6 47.2 4.6
5 0 -6 50.69 5
5 0 -6 46.2 4.5
5 0 -6 57.09 8.3
-5 0 6 49.4 5.8
-5 0 6 50.89 6.9
4 0 -6 35.6 3.6
4 0 -6 36.1 3.9
4 0 -6 41.5 3.4
4 0 -6 36.9 3.4
4 0 -6 29.4 3.5
4 0 -6 38.5 4
4 0 -6 33.3 3.4
-4 0 6 32.7 4.4
-4 0 6 39.7 4
3 0 -6 43.8 3.3
3 0 -6 45.1 3.4
3 0 -6 42.9 3.9
3 0 -6 40.2 3.7
3 0 -6 44 4.1
3 0 -6 41.6 3.5
-3 0 6 41.3 3.6
-3 0 6 40.6 3.9
2 0 -6 727.53 33.8
2 0 -6 603.44 36.2
2 0 -6 633.94 33.1
2 0 -6 608.44 33.6
-2 0 6 673.03 33.2
-2 0 6 634.64 32.9
1 0 -6 105.99 6.7
1 0 -6 108.49 9
1 0 -6 114.89 6.3
-1 0 6 106.29 6
-1 0 6 111.59 6.2
0 0 -6 325.97 16.8
0 0 -6 329.67 20.2
0 0 6 304.47 16.6
0 0 6 306.67 16.3
1 0 6 365.56 19.2
1 0 6 370.66 19.8
-2 0 -6 44.4 6.5
2 0 6 55.89 4.8
2 0 6 65.59 4.3
-3 0 -6 -0.7 1.7
-3 0 -6 0.4 1.1
3 0 6 0.3 1.4
3 0 6 1.2 1.2
3 0 6 0.6 1.8
-4 0 -6 -1.1 3.3
4 0 6 4.2 3.1
4 0 6 2 1.7
-5 0 -6 11.7 3.2
-5 0 -6 9.9 4.5
5 0 6 9.5 3
5 0 6 9.6 4
6 0 6 -1.3 2.4
7 -1 -6 12.1 4.5
7 -1 -6 18.4 3.9
7 -1 -6 14.3 2.5
-7 1 6 11.8 3.1
6 -1 -6 3.1 3.5
6 -1 -6 3.4 1.4
6 -1 -6 0.7 1.9
6 -1 -6 6.1 2.1
6 -1 -6 1.3 1.7
6 -1 -6 6 1.8
6 -1 -6 -1.5 2.3
-6 1 6 3.4 3.1
5 -1 -6 12 4.1
5 -1 -6 9.9 2.5
5 -1 -6 11.8 2.2
5 -1 -6 13.3 2.6
5 -1 -6 10.8 2
-5 1 6 7.5 5
4 -1 -6 57.29 4.3
4 -1 -6 53.59 4.4
4 -1 -6 57.19 4.5
4 -1 -6 54.19 4.8
4 -1 -6 59.79 4.1
4 -1 -6 54.59 5
4 -1 -6 60.29 5.1
-4 1 6 53.09 4.9
3 -1 -6 30.1 2.3
3 -1 -6 28.6 3
3 -1 -6 27.6 3.1
3 -1 -6 27.7 3
3 -1 -6 26.6 2.6
3 -1 -6 28.5 2.6
-3 1 6 26.8 2.6
-3 1 6 26.5 2.8
2 -1 -6 870.31 50.49
2 -1 -6 900.41 45.1
2 -1 -6 883.31 44.1
2 -1 -6 837.42 44.9
2 -1 -6 876.91 44.5
-2 1 6 903.61 44.5
-2 1 6 852.51 44.1
1 -1 -6 902.01 52.69
1 -1 -6 1017.1 49.9
-1 1 6 996.8 49.1
-1 1 6 994.2 49.4
0 -1 -6 7.4 3.1
0 -1 -6 5.7 1.2
0 1 6 8.5 1.4
0 1 6 7.4 1.2
-1 -1 -6 28.4 4.5
1 1 6 28 2.7
1 1 6 36.1 3.3
-2 -1 -6 9.5 3.8
-2 -1 -6 13.3 2.1
2 1 6 11.8 2.2
2 1 6 10.3 1.9
2 1 6 12.1 3
-3 -1 -6 90.59 10.5
-3 -1 -6 75.69 6
3 1 6 84.69 6.6
3 1 6 91.79 6.7
-4 -1 -6 2.3 4.1
-4 -1 -6 4.2 2.6
4 1 6 9.5 4.2
4 1 6 7.6 2.5
4 1 6 6.4 2.6
-5 -1 -6 119.69 8.2
5 1 6 93.99 7.5
5 1 6 102.89 10
7 -2 -6 5.5 2.3
7 -2 -6 1.6 1.4
7 -2 -6 4.7 1.9
6 -2 -6 7.5 2.2
6 -2 -6 6.5 3
6 -2 -6 11.6 2.9
6 -2 -6 7.9 1.7
6 -2 -6 2.9 1.8
6 -2 -6 8 2.2
5 -2 -6 3.2 1.4
5 -2 -6 7 2
5 -2 -6 6.1 1.3
5 -2 -6 4.8 1.6
4 -2 -6 14.3 2.2
4 -2 -6 16.3 2.5
4 -2 -6 15 1.7
4 -2 -6 13.1 2.1
4 -2 -6 22.3 2.6
4 -2 -6 20.3 2.9
4 -2 -6 15.6 2.7
-4 2 6 11.4 2.2
-4 2 6 10.2 2.3
3 -2 -6 235.48 14.2
3 -2 -6 242.28 13.6
3 -2 -6 249.68 14.4
3 -2 -6 249.68 13.7
3 -2 -6 244.88 13
3 -2 -6 243.18 14.2
3 -2 -6 237.08 13.6
-3 2 6 253.17 13.4
-3 2 6 247.68 13.8
2 -2 -6 821.92 42.1
2 -2 -6 794.02 42.6
2 -2 -6 823.42 41.7
2 -2 -6 839.62 42.7
-2 2 6 825.02 41.7
-2 2 6 840.02 42.1
1 -2 -6 78.59 5.2
1 -2 -6 79.89 6.6
1 -2 -6 84.89 5.8
-1 2 6 87.79 5.5
-1 2 6 89.49 5.2
0 -2 -6 591.64 32.2
0 -2 -6 586.74 31.6
0 -2 -6 592.04 31.9
0 -2 -6 667.13 32.4
0 2 6 629.74 31.9
0 2 6 636.44 32.3
-1 -2 -6 416.06 24.7
-1 -2 -6 385.86 21.2
-1 -2 -6 400.16 21.6
1 2 6 382.66 21.3
1 2 6 376.26 22
1 2 6 404.76 21.1
-2 -2 -6 23 3.9
-2 -2 -6 21.6 2.9
-2 -2 -6 23.8 5.3
2 2 6 20 3.2
2 2 6 25.2 4.1
2 2 6 21.7 3.2
-3 -2 -6 26.2 6.5
-3 -2 -6 39.1 4.6
3 2 6 33 4.4
3 2 6 34.9 6.9
3 2 6 30.6 4.5
-4 -2 -6 39.9 4.7
4 2 6 33.1 6.7
4 2 6 37.4 4.7
4 2 6 38.4 4.8
5 2 6 8.4 3.1
7 -3 -6 23.4 3.2
7 -3 -6 18.6 2.7
7 -3 -6 21.8 4.5
6 -3 -6 51.19 6
6 -3 -6 42 4.8
6 -3 -6 41.7 4.2
6 -3 -6 45.9 4.2
6 -3 -6 38.1 3.1
5 -3 -6 0.8 0.6
5 -3 -6 2.2 1.4
5 -3 -6 3.6 1.5
5 -3 -6 2.7 1.4
5 -3 -6 4.6 2.3
4 -3 -6 264.47 14.3
4 -3 -6 243.88 16
4 -3 -6 290.77 15.4
4 -3 -6 279.57 15.2
4 -3 -6 252.87 15.8
4 -3 -6 285.17 16
4 -3 -6 282.77 15.2
-4 3 6 257.17 15.5
-4 3 6 297.27 16.1
3 -3 -6 48.1 4.4
3 -3 -6 48.3 3.9
3 -3 -6 50.49 4
3 -3 -6 46.4 3.2
3 -3 -6 43.8 4.3
-3 3 6 50.29 3.7
-3 3 6 48.7 3.9
2 -3 -6 66.39 4.9
2 -3 -6 65.99 5.4
2 -3 -6 77.89 5.7
2 -3 -6 66.99 5
2 -3 -6 70.89 4.6
-2 3 6 71.59 5
-2 3 6 72.29 4.7
1 -3 -6 197.08 11.7
1 -3 -6 190.48 11.1
1 -3 -6 190.68 11.5
1 -3 -6 181.88 10.9
1 -3 -6 207.88 11.3
1 -3 -6 191.58 10.9
-1 3 6 185.48 11.1
-1 3 6 190.78 10.8
0 -3 -6 0.1 1
0 -3 -6 -0.1 1.3
0 -3 -6 0.5 0.9
0 -3 -6 1.5 1.1
0 -3 -6 0.4 1
0 -3 -6 0.9 1.2
0 3 6 0.6 0.9
0 3 6 0.9 1.4
0 3 6 0.3 1
0 3 6 -0.4 0.8
-1 -3 -6 167.28 9.8
-1 -3 -6 155.88 12.9
-1 -3 -6 172.08 10.3
1 3 6 146.29 9.5
1 3 6 123.59 10
1 3 6 143.69 9.4
-2 -3 -6 71.09 5.6
-2 -3 -6 62.39 5.9
-2 -3 -6 66.29 8.9
2 3 6 58.29 5.7
2 3 6 63.79 5.7
-3 -3 -6 28.2 6.7
-3 -3 -6 32 4.5
3 3 6 28.3 4.1
3 3 6 27.8 4.1
-4 -3 -6 1.3 1.7
4 3 6 0.7 1.5
7 -4 -6 11.9 3.3
7 -4 -6 10.8 2.3
7 -4 -6 11.3 2.2
6 -4 -6 1.7 1.5
6 -4 -6 0.6 2.1
6 -4 -6 -0.3 1.3
6 -4 -6 -0.3 0.5
5 -4 -6 27.5 3.5
5 -4 -6 31 3.3
5 -4 -6 24.9 4.8
5 -4 -6 23.3 2.1
5 -4 -6 24.1 3.1
5 -4 -6 33.2 3.3
4 -4 -6 162.88 9.9
4 -4 -6 161.08 10.5
4 -4 -6 162.88 8.9
4 -4 -6 174.18 10
4 -4 -6 142.89 10.4
4 -4 -6 155.48 9.9
3 -4 -6 354.96 19.1
3 -4 -6 347.67 20.6
3 -4 -6 356.46 19.8
3 -4 -6 384.46 20.7
3 -4 -6 374.06 20
3 -4 -6 336.77 20.2
3 -4 -6 380.06 19.9
-3 4 6 373.06 20
2 -4 -6 39.2 3.5
2 -4 -6 39.4 3.2
2 -4 -6 30.5 3.7
2 -4 -6 38.6 3.8
2 -4 -6 41.5 4.1
2 -4 -6 31.8 3.5
2 -4 -6 30.2 3.8
2 -4 -6 37.4 3.8
-2 4 6 34.2 3.3
-2 4 6 34.2 3.5
1 -4 -6 52.59 4.6
1 -4 -6 49.99 4.8
1 -4 -6 61.79 4.7
1 -4 -6 52.99 4.9
1 -4 -6 56.89 4.5
1 -4 -6 63.59 5.2
1 -4 -6 52.29 4.9
1 -4 -6 48 4.7
-1 4 6 53.19 5
-1 4 6 51.99 4.2
0 -4 -6 -0.7 2
0 -4 -6 0.7 1.3
0 -4 -6 0.4 1.3
0 -4 -6 -1.3 1.9
0 -4 -6 0.7 1.7
0 -4 -6 1 1.3
0 -4 -6 -0.8 1.6
0 4 6 1.6 1.5
0 4 6 2.3 1.5
0 4 6 0.6 1.1
-1 -4 -6 12.1 3.1
-1 -4 -6 12.6 3.1
-1 -4 -6 8.1 4.2
-1 -4 -6 15.9 2.7
-1 -4 -6 11.5 3.3
-1 -4 -6 12.9 2.7
1 4 6 12.8 3.4
1 4 6 16.2 3
1 4 6 16.2 2.9
-2 -4 -6 -0.5 1.7
-2 -4 -6 0.2 1.9
2 4 6 11.8 3
2 4 6 2.8 2.1
-3 -4 -6 2.3 1.9
3 4 6 0.3 1.8
7 -5 -6 28 4.5
6 -5 -6 10 2.3
6 -5 -6 17 3.9
6 -5 -6 12.7 2.3
5 -5 -6 279.27 16
5 -5 -6 280.07 15.6
5 -5 -6 267.77 15.7
5 -5 -6 278.57 15.8
4 -5 -6 8.7 2.4
4 -5 -6 7.1 2.1
4 -5 -6 6 2
4 -5 -6 2.1 1.5
4 -5 -6 6.3 2.5
4 -5 -6 5.9 1.8
4 -5 -6 6.8 1.3
4 -5 -6 6.6 2.3
3 -5 -6 30.5 3.7
3 -5 -6 32.2 3.3
3 -5 -6 30.1 3.7
3 -5 -6 35.4 4.2
3 -5 -6 38.6 4.3
3 -5 -6 26.8 2.8
3 -5 -6 30.6 3.9
3 -5 -6 31.7 3.9
2 -5 -6 7.7 2.3
2 -5 -6 6.3 2.2
2 -5 -6 4.9 1.9
2 -5 -6 7.8 2.3
2 -5 -6 6.6 2.3
2 -5 -6 6.6 2.2
2 -5 -6 6.4 1.6
2 -5 -6 4.5 1.5
2 -5 -6 2.6 1.8
-2 5 6 9.5 2.1
1 -5 -6 160.48 10.6
1 -5 -6 150.98 10.4
1 -5 -6 154.68 10.1
1 -5 -6 168.88 10.8
1 -5 -6 152.08 10.6
1 -5 -6 160.48 10.6
1 -5 -6 164.08 10.8
1 -5 -6 148.49 10
1 -5 -6 154.98 10.7
1 -5 -6 166.68 10.8
-1 5 6 163.38 10
-1 5 6 168.48 10.2
-1 5 6 158.88 10
0 -5 -6 35.9 4.3
0 -5 -6 36 4.8
0 -5 -6 29.3 4.5
0 -5 -6 40.9 3.8
0 -5 -6 42.8 4.6
0 5 6 28.4 4
0 5 6 29.8 3.7
0 5 6 37.2 4.2
-1 -5 -6 0.9 1.8
-1 -5 -6 -0.7 1.7
-1 -5 -6 -1.9 2.1
1 5 6 -1.6 1.4
1 5 6 0 1.6
1 5 6 -0.5 1.8
-2 -5 -6 -0.1 1.6
2 5 6 0.5 1.6
5 -6 -6 34.2 4.3
5 -6 -6 41.6 4.1
5 -6 -6 40.7 4.2
5 -6 -6 35.9 3.7
4 -6 -6 7.2 2.3
4 -6 -6 4.4 1.5
4 -6 -6 4.3 2.2
4 -6 -6 4.8 1.8
4 -6 -6 6 2.2
4 -6 -6 3 1.9
4 -6 -6 2.8 0.9
3 -6 -6 130.79 8.9
3 -6 -6 135.59 8.9
3 -6 -6 124.89 9
3 -6 -6 113.59 8.4
3 -6 -6 124.89 7.7
3 -6 -6 122.99 8.7
3 -6 -6 119.79 8.8
3 -6 -6 127.69 8.3
-3 6 6 131.09 8.4
2 -6 -6 0.1 1.5
2 -6 -6 -0.3 1
2 -6 -6 -0.9 1.6
2 -6 -6 0.6 1.9
2 -6 -6 0.5 2.1
2 -6 -6 2.7 1.9
2 -6 -6 -1.7 1.5
2 -6 -6 0.7 1.5
2 -6 -6 -2.8 1.8
-2 6 6 -1.5 1.6
-2 6 6 2.1 1.6
-2 6 6 0.4 1.3
1 -6 -6 5.9 2
1 -6 -6 7.1 1.8
1 -6 -6 3 2.1
1 -6 -6 3.9 2.3
1 -6 -6 4.6 2
1 -6 -6 8.7 2.3
1 -6 -6 1.4 2.3
1 -6 -6 8.5 2.6
1 -6 -6 7.1 2.2
-1 6 6 3.8 1.7
-1 6 6 3.5 2
-1 6 6 9.5 2.1
0 -6 -6 30 3.7
0 -6 -6 29.1 4.1
0 6 6 34.7 3.7
5 -7 -6 11.2 2
5 -7 -6 12.4 2.3
4 -7 -6 3.2 1.4
4 -7 -6 1.4 1.5
4 -7 -6 6.3 2
3 -7 -6 12.7 2.6
3 -7 -6 11.6 2.4
3 -7 -6 10.3 2.3
2 -7 -6 28.5 3.5
2 -7 -6 32.2 3.4
2 -7 -6 30.2 3.3
-2 8 -7 34.3 3.5
-2 8 -7 29.8 3.3
2 -8 7 31 2.9
2 -8 7 31.2 3
2 -8 7 38.4 3.6
-3 8 -7 16.6 2.6
3 -8 7 11 1.9
3 -8 7 17.1 2.7
4 -8 7 1.6 1.2
0 7 -7 22.7 3
0 7 -7 26.7 3.6
0 -7 7 28.1 3.2
0 -7 7 19.6 2.7
-1 7 -7 23.9 3.5
-1 7 -7 23.6 3.7
-1 7 -7 30 4
1 -7 7 28.7 3.3
1 -7 7 26 3
1 -7 7 32 6.3
-2 7 -7 4.4 2.3
-2 7 -7 2.8 1.8
2 -7 7 2.9 1.4
2 -7 7 3.2 1.7
2 -7 7 6.2 4.3
2 -7 7 1.1 2
2 -7 7 5.8 1.7
2 -7 7 5.6 1.7
-3 7 -7 26.6 4
3 -7 7 25.4 3
3 -7 7 20.3 3
3 -7 7 31.6 6.6
3 -7 7 25.5 3.1
3 -7 7 27.9 3.9
3 -7 7 32.2 6.2
-4 7 -7 99.59 8.1
4 -7 7 83.29 9.7
4 -7 7 91.09 6.8
4 -7 7 84.69 6.1
5 -7 7 41.4 4.1
5 -7 7 39.6 6.6
6 -7 7 55.99 6.4
6 -7 7 55.19 4.2
2 6 -7 14.9 2.4
2 6 -7 14 2.7
-2 -6 7 10.4 3.9
1 6 -7 38.3 4.6
1 6 -7 44.7 4.9
-1 -6 7 54.59 4.6
-1 -6 7 29.7 6
0 6 -7 1.6 1.6
0 6 -7 -0.3 1.5
0 6 -7 0.7 1.8
0 -6 7 -0.2 3.4
0 -6 7 2.1 1.5
0 -6 7 3.2 1.6
0 -6 7 0.5 3.2
-1 6 -7 48.3 4.8
-1 6 -7 42.1 4.9
-1 6 -7 34.1 4.4
1 -6 7 35.6 3.9
1 -6 7 41.1 7.3
1 -6 7 32.9 6.1
1 -6 7 36.6 4
1 -6 7 39.4 7.5
1 -6 7 31.8 3.7
1 -6 7 38.6 4.3
-2 6 -7 48.5 5.8
-2 6 -7 45.3 4.8
2 -6 7 33.6 3.7
2 -6 7 35.6 3.6
2 -6 7 26.5 6.7
2 -6 7 33.6 4.7
2 -6 7 30.8 3.7
2 -6 7 43 7.5
2 -6 7 36.3 6.5
-3 6 -7 173.28 11.2
3 -6 7 155.18 13.2
3 -6 7 158.58 10.9
3 -6 7 162.68 15.1
3 -6 7 153.18 10.3
3 -6 7 176.98 10.4
3 -6 7 166.88 10.1
3 -6 7 164.28 14.6
-4 6 -7 147.39 11.1
4 -6 7 133.09 12.4
4 -6 7 150.28 9.9
4 -6 7 155.18 13.5
4 -6 7 142.39 9
4 -6 7 141.49 13.5
-5 6 -7 18.1 4.1
5 -6 7 15.9 2.3
5 -6 7 16.1 4.8
5 -6 7 11.7 2.4
5 -6 7 14.5 4.7
5 -6 7 14.1 2.7
6 -6 7 1.7 3.4
6 -6 7 7.5 1.9
3 5 -7 3.1 1.7
-3 -5 7 2.6 2.9
2 5 -7 35.3 4.4
2 5 -7 45.5 4.9
2 5 -7 41.8 4.3
2 5 -7 32.1 4.8
-2 -5 7 36.2 6.3
-2 -5 7 35.8 5.8
-2 -5 7 39.7 4.2
1 5 -7 28.4 4.1
1 5 -7 35.6 4.5
-1 -5 7 23.9 5
-1 -5 7 29 3.9
-1 -5 7 34.4 5.7
0 5 -7 217.58 13.7
0 5 -7 223.08 14
0 5 -7 221.38 14
0 -5 7 220.18 13.2
0 -5 7 226.48 13.3
0 -5 7 216.58 19.4
0 -5 7 230.48 15.8
0 -5 7 225.58 15.3
-1 5 -7 239.78 14.4
-1 5 -7 249.18 14.4
1 -5 7 251.37 14.2
1 -5 7 215.38 17.7
1 -5 7 232.08 13.6
1 -5 7 231.68 20.2
1 -5 7 228.58 13.8
1 -5 7 236.38 15.9
-2 5 -7 130.49 9.1
2 -5 7 123.49 10.8
2 -5 7 126.89 8.5
2 -5 7 137.39 8.8
2 -5 7 139.29 12.8
2 -5 7 145.09 8.6
2 -5 7 120.59 14.3
-3 5 -7 37.1 4.4
3 -5 7 30.3 9.3
3 -5 7 33.4 3.7
3 -5 7 37.2 3.5
3 -5 7 33.4 5.8
3 -5 7 36.5 6.7
3 -5 7 32.7 8.6
3 -5 7 42.5 3.7
-4 5 -7 8.7 3.1
4 -5 7 6.9 3.9
4 -5 7 5.7 5.7
4 -5 7 12.7 2.6
4 -5 7 7.1 1.8
4 -5 7 7.7 4.4
4 -5 7 6.3 2.1
-5 5 -7 157.48 10.6
5 -5 7 153.58 9.7
5 -5 7 149.29 10.2
5 -5 7 144.89 9
5 -5 7 145.59 14
5 -5 7 144.99 12.4
5 -5 7 153.28 13.6
6 -5 7 5 1.7
6 -5 7 3.8 3.9
7 -5 7 49.5 5.8
4 4 -7 0.8 1.4
-4 -4 7 1 2.4
3 4 -7 41.1 4.7
3 4 -7 39.8 4.4
3 4 -7 32.1 4.6
-3 -4 7 35.1 6
-3 -4 7 31.6 5.4
2 4 -7 40.3 4.4
2 4 -7 49.8 5.1
2 4 -7 44.7 5.2
2 4 -7 44.4 4.9
-2 -4 7 43.7 4.7
-2 -4 7 41.9 8.3
-2 -4 7 44.3 5.8
-2 -4 7 37.8 6.1
1 4 -7 30.3 3.8
1 4 -7 19 3.2
1 4 -7 24 3.6
1 4 -7 23.5 2.9
-1 -4 7 22 5.8
-1 -4 7 21.4 3.8
-1 -4 7 21.4 3
0 4 -7 40.4 4.1
0 4 -7 38.1 3.9
0 -4 7 29.5 6.2
0 -4 7 34.9 4.5
-1 4 -7 33.4 3.5
-1 4 -7 37.7 3.5
1 -4 7 33.9 3.2
1 -4 7 30.7 4.6
1 -4 7 36.9 5.7
1 -4 7 31.7 6.2
1 -4 7 38 3.6
2 -4 7 25.4 6.2
2 -4 7 32.8 4.9
2 -4 7 22.3 2.9
2 -4 7 26.4 5.1
2 -4 7 24.2 2.6
-3 4 -7 90.19 8
3 -4 7 104.49 12.9
3 -4 7 114.79 9.7
3 -4 7 112.09 6.9
3 -4 7 111.29 10.6
-4 4 -7 107.59 8.5
4 -4 7 105.49 8
4 -4 7 105.89 13.7
4 -4 7 113.99 11
4 -4 7 103.29 9.8
4 -4 7 102.89 6.8
5 -4 7 109.79 7.5
5 -4 7 114.09 8.5
5 -4 7 98.69 9.7
5 -4 7 103.39 10.6
5 -4 7 97.99 11.2
-6 4 -7 9.9 3
6 -4 7 10.9 2.3
6 -4 7 9.8 4.2
6 -4 7 11.7 2.7
7 -4 7 0.7 2.3
5 3 -7 47.1 4.5
-5 -3 7 45.3 5.6
4 3 -7 0.8 1.7
4 3 -7 3.1 2
-4 -3 7 1.7 2.6
-4 -3 7 2.6 2.4
3 3 -7 39.2 4.9
3 3 -7 35.5 4.3
3 3 -7 36.1 4.6
-3 -3 7 34.9 5.6
-3 -3 7 50.49 5.7
-3 -3 7 52.99 8.6
2 3 -7 1.2 1.4
2 3 -7 0.9 1.3
2 3 -7 0.8 1.3
-2 -3 7 -0.1 2.5
-2 -3 7 0.2 1.8
1 3 -7 46.5 4.5
1 3 -7 60.29 4.8
1 3 -7 47.6 3.9
-1 -3 7 53.49 5
-1 -3 7 47.6 6.9
0 3 -7 5.9 1.6
0 3 -7 6.1 1.6
0 -3 7 5.9 2.9
0 -3 7 7.1 2
-1 3 -7 213.48 11.6
1 -3 7 198.38 12.7
1 -3 7 205.48 11.8
1 -3 7 193.38 14.1
1 -3 7 204.68 15.9
1 -3 7 188.98 11.2
-2 3 -7 80.09 6.7
2 -3 7 98.89 7.8
2 -3 7 102.99 9.1
2 -3 7 90.09 10.3
2 -3 7 85.19 6.4
2 -3 7 97.99 6
-3 3 -7 26.2 3.6
3 -3 7 27.7 6.5
3 -3 7 27.5 2.7
3 -3 7 27.2 4.5
3 -3 7 30.6 5.3
3 -3 7 35.1 3.8
-4 3 -7 40 11
4 -3 7 53.79 9.3
-5 3 -7 24.4 8
5 -3 7 39.3 4.2
5 -3 7 46.6 7.8
5 -3 7 43.4 6
5 -3 7 42.9 5.1
-6 3 -7 87.19 7.2
6 -3 7 79.09 9.1
6 -3 7 76.09 6.1
6 -3 7 109.29 8.5
7 -3 7 4.6 2.3
5 2 -7 2.8 1.8
5 2 -7 3.6 2.2
-5 -2 7 1.9 2.6
4 2 -7 1.3 1.8
4 2 -7 0.1 3.6
4 2 -7 2.3 1.6
-4 -2 7 2.9 2.6
-4 -2 7 2.1 2.2
3 2 -7 443.06 23.3
3 2 -7 374.46 23.6
3 2 -7 402.86 23.7
-3 -2 7 411.46 28.3
-3 -2 7 481.65 24.4
2 2 -7 81.69 6.3
2 2 -7 74.19 5.6
2 2 -7 84.19 6.4
-2 -2 7 84.19 6.4
-2 -2 7 89.39 9
1 2 -7 543.05 30
1 2 -7 526.95 29.2
1 2 -7 569.14 30.1
-1 -2 7 585.54 30.1
-1 -2 7 617.04 33.4
0 2 -7 777.12 37.8
0 -2 7 722.33 38.1
0 -2 7 692.13 40.7
1 -2 7 142.89 11.7
1 -2 7 146.29 10.5
1 -2 7 138.39 9.4
-2 2 -7 15.5 2.5
-2 2 -7 5.1 3.2
2 -2 7 17.4 5.3
2 -2 7 17.2 3.4
2 -2 7 14.2 3.8
2 -2 7 12.4 1.5
-3 2 -7 -1.3 2.5
-3 2 -7 0.2 1.4
3 -2 7 1 1.4
3 -2 7 1.2 2.6
3 -2 7 0.3 2.1
3 -2 7 -0.5 1.7
-4 2 -7 14.2 8.1
-4 2 -7 26.2 3.4
-4 2 -7 27.6 7.1
4 -2 7 29.4 7.1
4 -2 7 28.1 4.7
4 -2 7 32.5 4.5
-5 2 -7 5.9 4.2
-5 2 -7 8.9 3
5 -2 7 15.5 4.9
5 -2 7 14.5 2.9
5 -2 7 2.7 4.4
-6 2 -7 19.4 3.5
6 -2 7 15 4.4
6 1 -7 3.3 1.6
6 1 -7 5.7 2.1
-6 -1 7 3.3 2.5
5 1 -7 143.99 11
5 1 -7 168.98 11
5 1 -7 167.58 11.3
5 1 -7 181.28 10.7
5 1 -7 161.18 14.6
-5 -1 7 162.68 11.7
-5 -1 7 184.08 12.5
4 1 -7 21.4 3.2
4 1 -7 14.7 5.2
4 1 -7 19.1 3
-4 -1 7 14.6 3.2
-4 -1 7 18.9 4.2
3 1 -7 7.3 1.8
3 1 -7 12.7 2.8
3 1 -7 10.3 2.3
-3 -1 7 8.8 2.5
2 1 -7 53.79 4.4
2 1 -7 56.99 4
2 1 -7 49.6 4.3
-2 -1 7 49.99 4.2
1 1 -7 415.96 22.2
0 1 -7 268.77 14.6
0 -1 7 268.87 14.2
1 -1 7 49.9 3.7
-2 1 -7 0.1 2.2
-2 1 -7 1.4 1.2
2 -1 7 4.2 2.2
2 -1 7 -0.8 1
-3 1 -7 14.9 2.5
-3 1 -7 10.9 4.5
3 -1 7 18.6 3.4
-4 1 -7 53.59 9.4
-5 1 -7 40 8.9
-5 1 -7 45.5 5.1
5 -1 7 34.8 6.8
5 -1 7 44.4 4.5
6 -1 7 2.5 2.7
6 0 -7 11.3 2.4
6 0 -7 6.9 4.3
6 0 -7 15.5 2.7
6 0 -7 16.2 3.2
6 0 -7 11.7 2.7
-6 0 7 13.4 3.7
5 0 -7 103.19 10.8
5 0 -7 116.69 7.7
5 0 -7 128.89 8.2
5 0 -7 119.19 7.8
5 0 -7 111.69 8.4
-5 0 7 97.19 8.7
-5 0 7 107.39 9.4
4 0 -7 0.8 1
4 0 -7 1.4 1.4
4 0 -7 1.2 1.1
4 0 -7 1.3 1.3
4 0 -7 -0.9 0.9
4 0 -7 0.3 1.3
3 0 -7 47.8 3.4
3 0 -7 40.9 3.6
3 0 -7 36.6 4.1
3 0 -7 37.4 3.3
3 0 -7 41.3 4
3 0 -7 42.1 3.4
3 0 -7 45.5 4
-3 0 7 42.5 3.6
-3 0 7 34.8 3.2
2 0 -7 2 1.1
2 0 -7 3.5 1.1
2 0 -7 2.4 1.1
2 0 -7 2.9 0.9
2 0 -7 2.5 0.9
2 0 -7 1.7 1
-2 0 7 3.3 1
-2 0 7 2.9 0.8
1 0 -7 3.6 2.2
1 0 -7 2.2 0.9
-1 0 7 4 0.8
-1 0 7 3.4 0.9
0 0 -7 14.7 1.8
0 0 7 12.9 1.4
0 0 7 12 1.6
1 0 7 106.39 6.7
1 0 7 94.49 6
-2 0 -7 546.85 28.5
-2 0 -7 493.45 32.8
2 0 7 531.85 28.4
2 0 7 586.14 29.6
-3 0 -7 33.7 3.5
-3 0 -7 27.6 6.2
3 0 7 33.8 4.8
-4 0 -7 149.79 10.5
-4 0 -7 155.58 15.7
4 0 7 146.59 13.1
4 0 7 145.89 10
-5 0 -7 191.38 12.3
5 0 7 182.68 14.8
6 0 7 -3.6 1.7
7 -1 -7 55.79 5.6
7 -1 -7 46.4 4.1
7 -1 -7 53.39 4.2
7 -1 -7 38.1 7.2
-7 1 7 54.29 5.3
6 -1 -7 24.7 3.8
6 -1 -7 28.2 4.9
6 -1 -7 20.7 3.1
6 -1 -7 14.2 2.9
6 -1 -7 18.6 2.7
6 -1 -7 23.5 7.2
6 -1 -7 21.2 3.1
-6 1 7 22.7 4.4
5 -1 -7 10.2 2.2
5 -1 -7 10.7 3.2
5 -1 -7 7.5 2.1
5 -1 -7 7.9 1.8
5 -1 -7 8.6 2.7
5 -1 -7 7.3 2
4 -1 -7 0.8 0.8
4 -1 -7 3.8 1.4
4 -1 -7 4.2 1.3
4 -1 -7 2.9 1.1
4 -1 -7 1.1 1
4 -1 -7 0.5 1.2
-4 1 7 0.8 1.4
-4 1 7 1.1 1.5
3 -1 -7 8.2 1.9
3 -1 -7 8.6 1.7
3 -1 -7 12.6 2
3 -1 -7 15 2.4
3 -1 -7 11.8 2.4
3 -1 -7 12.7 1.5
3 -1 -7 10 1.9
-3 1 7 9.8 1.9
-3 1 7 11.6 1.7
2 -1 -7 8 1.6
2 -1 -7 6.2 1.4
2 -1 -7 7.8 1.2
2 -1 -7 8.3 1.7
2 -1 -7 7 1.6
-2 1 7 8.2 1.4
-2 1 7 6.8 1.2
1 -1 -7 1173.58 62.79
1 -1 -7 1282.47 62.89
-1 1 7 1244.88 62.09
-1 1 7 1246.48 62.39
0 -1 -7 194.78 11.2
0 -1 -7 176.48 15.1
0 1 7 193.98 11.2
0 1 7 218.98 10.9
-1 -1 -7 146.39 8.8
1 1 7 137.99 8.7
1 1 7 153.18 9.5
-2 -1 -7 7 1.7
-2 -1 -7 7 3.6
2 1 7 11.7 2.2
2 1 7 7.8 2.7
2 1 7 5.5 2
-3 -1 -7 14.9 2.7
-3 -1 -7 21.8 6.6
3 1 7 18.4 5.3
3 1 7 17.2 3.1
-4 -1 -7 140.89 13.9
-4 -1 -7 138.09 10.1
4 1 7 144.19 9.7
4 1 7 145.79 12.8
-5 -1 -7 34 3.9
5 1 7 35.5 5.6
7 -2 -7 17.3 2.6
7 -2 -7 22.4 4.2
7 -2 -7 20.9 4.1
6 -2 -7 19.7 3.2
6 -2 -7 23.6 3.4
6 -2 -7 20.4 3.1
6 -2 -7 16.5 2.2
6 -2 -7 21.1 3.7
6 -2 -7 30.2 4.9
5 -2 -7 29.9 3.4
5 -2 -7 24.8 3.5
5 -2 -7 29.9 4.2
5 -2 -7 28.8 2.7
5 -2 -7 37.3 5.3
5 -2 -7 30.2 3.4
4 -2 -7 39.7 3.8
4 -2 -7 30.9 3.8
4 -2 -7 38 3.5
4 -2 -7 40.4 4.5
4 -2 -7 41.3 3
4 -2 -7 45.5 4.4
4 -2 -7 40.2 3.6
-4 2 7 33.6 3.8
3 -2 -7 302.87 16.6
3 -2 -7 305.87 16.8
3 -2 -7 306.97 16.7
3 -2 -7 301.57 17.4
3 -2 -7 313.77 16.1
3 -2 -7 294.97 17.3
-3 2 7 312.57 16.8
-3 2 7 288.67 16.3
2 -2 -7 31.2 2.5
2 -2 -7 29.1 2.8
2 -2 -7 30.8 3.3
2 -2 -7 28.3 3.1
-2 2 7 30.9 2.6
-2 2 7 33.9 2.9
1 -2 -7 148.09 9
1 -2 -7 158.98 9.7
1 -2 -7 164.28 9.1
1 -2 -7 153.78 9.6
1 -2 -7 148.19 9.8
-1 2 7 163.38 9.3
-1 2 7 158.28 8.9
0 -2 -7 122.89 7.8
0 -2 -7 132.49 7.8
0 -2 -7 133.49 7.9
0 -2 -7 117.79 7.6
0 2 7 109.19 7.3
0 2 7 119.59 7.9
0 2 7 118.19 7.2
-1 -2 -7 24 2.9
1 2 7 26.3 3.7
1 2 7 22 3
1 2 7 24.6 2.8
-2 -2 -7 339.87 23.8
-2 -2 -7 360.26 19.9
2 2 7 369.06 20
2 2 7 353.46 19.9
-3 -2 -7 39.6 7.3
-3 -2 -7 40.4 4.6
-3 -2 -7 34.8 4.5
3 2 7 26.8 6.1
3 2 7 34.7 4.6
3 2 7 34.9 4.5
-4 -2 -7 15.9 3
4 2 7 17 3.2
4 2 7 8.3 3.7
4 2 7 9.1 2.5
7 -3 -7 6.2 2.7
7 -3 -7 5.3 1.7
7 -3 -7 4.2 1.8
6 -3 -7 14.7 2.7
6 -3 -7 15.2 1.9
6 -3 -7 13.5 2.5
6 -3 -7 23 4.7
6 -3 -7 12.7 2.7
6 -3 -7 15.5 2.8
5 -3 -7 93.39 7.5
5 -3 -7 99.79 6.2
5 -3 -7 107.89 7.1
5 -3 -7 99.99 7
5 -3 -7 95.39 7.1
5 -3 -7 114.89 9.4
4 -3 -7 21.5 2.8
4 -3 -7 24.7 2.2
4 -3 -7 25.5 3.5
4 -3 -7 27 3.6
4 -3 -7 20.6 2.8
4 -3 -7 24.7 3
3 -3 -7 135.59 9.4
3 -3 -7 145.69 9.5
3 -3 -7 147.19 8.1
3 -3 -7 141.49 8.7
3 -3 -7 144.39 9.6
3 -3 -7 127.09 8.6
-3 3 7 138.89 8.8
-3 3 7 140.79 8.4
2 -3 -7 105.69 6.3
2 -3 -7 96.79 6.6
2 -3 -7 93.09 7.1
2 -3 -7 99.69 6.5
2 -3 -7 98.69 7.2
-2 3 7 91.89 6.2
-2 3 7 105.99 6.7
1 -3 -7 133.79 8.3
1 -3 -7 139.39 9
1 -3 -7 140.49 8.5
1 -3 -7 139.29 8.8
1 -3 -7 128.99 8.9
1 -3 -7 137.99 8.6
-1 3 7 136.59 8.2
-1 3 7 137.99 8.1
-1 3 7 133.29 8.7
0 -3 -7 224.38 12.1
0 -3 -7 219.48 12.1
0 -3 -7 198.68 12.2
0 -3 -7 220.18 12.6
0 -3 -7 175.88 11.2
0 3 7 193.18 11.4
0 3 7 172.08 12
-1 -3 -7 12.2 2.6
-1 -3 -7 10.3 3
1 3 7 14.2 2.4
1 3 7 19.6 3.1
-2 -3 -7 79.09 9.7
-2 -3 -7 84.59 6.9
-2 -3 -7 83.29 6.5
2 3 7 79.99 8.9
2 3 7 89.59 6.9
2 3 7 89.39 6.8
-3 -3 -7 2.4 2.1
3 3 7 0.6 2
3 3 7 6.4 3.3
3 3 7 1.7 1.9
-4 -3 -7 10.4 2.2
7 -4 -7 30 3.1
7 -4 -7 24.6 4.8
6 -4 -7 6.3 2
6 -4 -7 7.7 1.9
6 -4 -7 3.4 0.9
6 -4 -7 4.6 1.9
6 -4 -7 3.9 1.8
6 -4 -7 6.2 2.6
5 -4 -7 114.29 7.7
5 -4 -7 111.79 6.5
5 -4 -7 121.29 10
5 -4 -7 102.49 7.5
5 -4 -7 112.49 7.9
5 -4 -7 108.49 7.5
4 -4 -7 119.59 8.6
4 -4 -7 123.39 7.1
4 -4 -7 119.79 8.7
4 -4 -7 114.19 7.9
4 -4 -7 110.39 7.8
4 -4 -7 124.99 10.4
4 -4 -7 119.29 8.6
4 -4 -7 116.69 7.9
3 -4 -7 89.19 6.5
3 -4 -7 103.19 6.9
3 -4 -7 98.39 6.7
3 -4 -7 94.49 7.3
3 -4 -7 96.19 6
3 -4 -7 84.69 7.1
3 -4 -7 95.29 7.1
2 -4 -7 108.29 7.1
2 -4 -7 107.79 7.7
2 -4 -7 92.39 7.2
2 -4 -7 117.89 7
2 -4 -7 92.69 7.5
2 -4 -7 109.99 7.5
2 -4 -7 105.89 7.3
2 -4 -7 98.79 7.6
1 -4 -7 60.19 5.5
1 -4 -7 56.09 5.3
1 -4 -7 65.49 5.1
1 -4 -7 63.99 5.4
1 -4 -7 57.39 5
1 -4 -7 56.59 5.3
1 -4 -7 62.49 4.8
1 -4 -7 50.09 5
-1 4 7 56.99 5.4
-1 4 7 56.39 4.6
0 -4 -7 416.16 24
0 -4 -7 455.35 25.1
0 -4 -7 466.15 24.9
0 -4 -7 488.95 25.2
0 -4 -7 452.85 24.8
0 -4 -7 424.86 24.6
0 4 7 418.46 23.9
0 4 7 457.05 24.3
0 4 7 457.45 24.4
-1 -4 -7 41.8 4.4
-1 -4 -7 36 4.7
-1 -4 -7 41.5 5.1
1 4 7 37.8 4.3
1 4 7 43.9 4.4
-2 -4 -7 97.79 7.3
-2 -4 -7 94.79 7
2 4 7 83.49 7
2 4 7 89.19 7
-3 -4 -7 18.4 2.8
3 4 7 11.7 2.3
7 -5 -7 21.6 4.1
7 -5 -7 18.8 3
6 -5 -7 2 1.7
6 -5 -7 0.8 2.4
6 -5 -7 1.8 1.4
6 -5 -7 -0.7 1.4
5 -5 -7 6.6 1.9
5 -5 -7 7.7 3.3
5 -5 -7 5.8 3.2
5 -5 -7 23.4 3.4
5 -5 -7 13.5 2.3
5 -5 -7 11.1 2.4
5 -5 -7 9.5 1.3
5 -5 -7 14.5 2.8
4 -5 -7 15.7 3.3
4 -5 -7 18.9 3.1
4 -5 -7 16.1 3.1
4 -5 -7 14.2 2.5
4 -5 -7 11 1.7
4 -5 -7 16.7 3.2
4 -5 -7 9.9 2.3
4 -5 -7 13.3 2.5
3 -5 -7 187.18 12.1
3 -5 -7 183.88 12.1
3 -5 -7 195.58 12.3
3 -5 -7 192.98 12.4
3 -5 -7 189.68 11.7
3 -5 -7 188.58 12.5
3 -5 -7 201.18 11.3
3 -5 -7 211.48 12.1
-3 5 7 200.78 11.4
2 -5 -7 110.69 8.2
2 -5 -7 112.79 7.5
2 -5 -7 108.59 8.2
2 -5 -7 116.39 8.3
2 -5 -7 109.89 8.1
2 -5 -7 107.79 7.3
2 -5 -7 102.49 8.1
2 -5 -7 110.89 8
2 -5 -7 106.39 8
-2 5 7 107.29 7.3
1 -5 -7 33.6 4.1
1 -5 -7 35.7 4.5
1 -5 -7 19.2 3.7
1 -5 -7 29.1 3.8
1 -5 -7 31.5 3.6
1 -5 -7 30.9 3.5
1 -5 -7 35.6 4.7
1 -5 -7 26.8 4.2
1 -5 -7 31.4 4.2
1 -5 -7 27.5 4.1
-1 5 7 27.1 3.3
-1 5 7 35.8 3.9
-1 5 7 30.4 3.7
0 -5 -7 2 1.8
0 -5 -7 -0.1 2.1
0 -5 -7 -1 1.5
0 -5 -7 1.6 2.1
0 -5 -7 0.8 1.5
0 5 7 1.8 1.6
0 5 7 -1.1 1.3
0 5 7 -1.1 1.5
-1 -5 -7 31.5 3.9
-1 -5 -7 35.6 4.1
1 5 7 23.3 3.8
1 5 7 31.5 3.7
6 -6 -7 7.8 2
5 -6 -7 23.4 3.1
5 -6 -7 28.7 3.8
5 -6 -7 21.4 3.2
-5 6 7 27 4.2
4 -6 -7 12 2.8
4 -6 -7 8 2.3
4 -6 -7 11.3 2.5
4 -6 -7 12.5 2.3
4 -6 -7 7.7 2.5
4 -6 -7 11.3 2.2
4 -6 -7 14.3 2.9
-4 6 7 10.3 2.1
3 -6 -7 11.9 2.1
3 -6 -7 13.3 3
3 -6 -7 18.6 3.2
3 -6 -7 15.4 3.2
3 -6 -7 12.3 2.8
3 -6 -7 10.1 2.2
3 -6 -7 13.3 2.6
3 -6 -7 18.6 3.4
-3 6 7 12 2.3
-3 6 7 10.4 2.3
2 -6 -7 0 1.6
2 -6 -7 0.7 1.5
2 -6 -7 1.6 1.4
2 -6 -7 3.3 1.4
2 -6 -7 1.2 2.2
2 -6 -7 2.6 2
2 -6 -7 2.9 1.9
2 -6 -7 3.7 2.1
-2 6 7 4.5 1.6
-2 6 7 0 1.3
-2 6 7 2.6 1.6
1 -6 -7 32 3.9
1 -6 -7 16.7 3.4
1 -6 -7 26.6 4.3
1 -6 -7 28.5 3.4
1 -6 -7 29.1 3.8
1 -6 -7 32 3.8
-1 6 7 32.5 3.5
-1 6 7 23.8 3.5
0 -6 -7 16.4 2.9
0 -6 -7 20.9 3.4
0 6 7 22.8 3
0 6 7 18.6 2.7
5 -7 -7 34.5 3.2
5 -7 -7 32.3 3.3
4 -7 -7 7.4 1.9
4 -7 -7 6.6 1.8
4 -7 -7 7.1 1.7
3 -7 -7 10.1 2.3
3 -7 -7 14.6 2.4
3 -7 -7 14.6 2.5
-3 7 7 8.3 1.9
2 -7 -7 3.7 1.5
2 -7 -7 5.5 1.7
2 -7 -7 2.2 1.3
-3 8 -8 -1.2 1.4
3 -8 8 3.8 3.3
3 -8 8 2.9 1.5
3 -8 8 1.5 1
0 7 -8 29.1 3.6
0 7 -8 19.6 3.1
0 -7 8 28.9 3.1
0 -7 8 26.2 2.8
0 -7 8 30.4 5.7
-1 7 -8 13.8 2.7
-1 7 -8 14.1 2.7
1 -7 8 14 4.4
1 -7 8 12.6 2.2
1 -7 8 13.1 2.4
-2 7 -8 19.7 3.4
-2 7 -8 13.3 3.7
-2 7 -8 24.2 3.6
2 -7 8 16.3 2.6
2 -7 8 24.6 5.6
2 -7 8 19.4 2.9
2 -7 8 16.4 3
2 -7 8 18.2 2.6
-3 7 -8 3.6 1.9
-3 7 -8 5.4 3
3 -7 8 5.8 4
3 -7 8 7.6 1.7
3 -7 8 4.2 1.5
3 -7 8 3.8 1.8
-4 7 -8 43.1 5.4
4 -7 8 39 4.2
4 -7 8 35.4 6.3
4 -7 8 39.2 3.4
5 -7 8 40.4 6
5 -7 8 37 3.7
2 6 -8 43.3 4.4
-2 -6 8 40.1 5.8
1 6 -8 76.19 6.5
1 6 -8 83.39 6.6
-1 -6 8 81.29 5.9
-1 -6 8 58.29 8.3
0 6 -8 6.4 2.1
0 6 -8 8.2 2.5
0 6 -8 12 3.1
0 -6 8 11.4 4.1
0 -6 8 5.1 1.8
0 -6 8 5.7 3.6
0 -6 8 6.2 2
-1 6 -8 40.1 4.6
-1 6 -8 36.6 4.4
-1 6 -8 40.8 4.8
1 -6 8 43.1 7.3
1 -6 8 40.1 4.1
1 -6 8 42.9 6.8
1 -6 8 42.8 4.1
-2 6 -8 289.87 16.3
2 -6 8 264.77 15.8
2 -6 8 266.17 15.2
2 -6 8 258.57 15.9
2 -6 8 257.87 18.1
2 -6 8 254.87 18.9
2 -6 8 245.28 19.9
2 -6 8 276.87 15.3
-3 6 -8 150.78 9.9
-3 6 -8 140.09 10.9
3 -6 8 133.19 13.1
3 -6 8 133.69 11.9
3 -6 8 144.79 9.8
3 -6 8 141.39 8.9
3 -6 8 122.99 12.8
3 -6 8 147.19 9
-4 6 -8 18.8 3.9
4 -6 8 19.7 2.6
4 -6 8 15.7 5.8
4 -6 8 15.9 3.3
4 -6 8 19.3 5.7
4 -6 8 25.1 5.8
4 -6 8 13.2 2.7
-5 6 -8 2.7 2.4
5 -6 8 -1.6 3
5 -6 8 0.8 1.1
5 -6 8 1.1 1.4
6 -6 8 18.5 4.6
6 -6 8 18.4 2.5
3 5 -8 21.9 3
-3 -5 8 25.6 4.5
2 5 -8 11.8 3.1
2 5 -8 10.2 3.1
2 5 -8 10.5 2.4
2 5 -8 13.9 2.8
-2 -5 8 6.1 3.4
-2 -5 8 11.4 4.4
1 5 -8 68.59 6.2
1 5 -8 64.79 6.1
-1 -5 8 62.09 7.2
-1 -5 8 62.49 5.2
-1 -5 8 65.09 5.7
-1 -5 8 59.49 7.9
0 5 -8 89.89 7.2
0 5 -8 79.69 6.6
0 5 -8 81.69 6.8
0 -5 8 78.89 6.1
0 -5 8 78.19 11.3
0 -5 8 83.89 8.7
0 -5 8 82.99 8.1
0 -5 8 83.59 6.4
-1 5 -8 105.79 7.8
-1 5 -8 114.29 7.9
-1 5 -8 97.69 7.8
1 -5 8 99.79 9.1
1 -5 8 112.99 7.3
1 -5 8 106.09 10.4
1 -5 8 100.39 7
1 -5 8 107.09 7.3
1 -5 8 100.19 12.8
1 -5 8 95.89 11
-2 5 -8 39.2 4.6
2 -5 8 47.4 4.1
2 -5 8 46.6 9
2 -5 8 45.7 7.4
2 -5 8 53.09 4.8
2 -5 8 38.8 7.3
2 -5 8 45.8 4.1
2 -5 8 47.5 6.4
-3 5 -8 259.87 17.1
-3 5 -8 287.87 16
3 -5 8 260.97 20
3 -5 8 252.87 19.4
3 -5 8 253.97 23.4
3 -5 8 241.48 18
3 -5 8 281.47 15.3
3 -5 8 261.57 16.1
3 -5 8 315.27 17
-4 5 -8 1.6 3.9
-4 5 -8 8.4 3.2
4 -5 8 4.5 1.9
4 -5 8 11 4.2
4 -5 8 7 1.8
4 -5 8 5.3 4
4 -5 8 6.3 4.5
4 -5 8 8 2.4
-5 5 -8 60.19 6.1
5 -5 8 70.99 9.3
5 -5 8 61.99 5.8
5 -5 8 64.29 7.6
5 -5 8 60.39 8
5 -5 8 62.09 5.2
6 -5 8 59.49 4.7
6 -5 8 61.59 8.1
4 4 -8 18 2.7
-4 -4 8 8 3.2
3 4 -8 22.1 3.3
3 4 -8 19.3 3.7
3 4 -8 31.8 4
3 4 -8 20.7 3.8
-3 -4 8 32.2 5.7
-3 -4 8 23.5 4.7
2 4 -8 53.39 4.8
2 4 -8 45.6 5
2 4 -8 51.29 5.5
2 4 -8 54.29 5.8
-2 -4 8 53.99 6.7
-2 -4 8 50.79 4.9
-2 -4 8 47 6
1 4 -8 193.98 12.1
1 4 -8 184.48 11.8
1 4 -8 168.48 11.2
1 4 -8 196.08 12.2
-1 -4 8 168.28 11.2
-1 -4 8 170.88 13
-1 -4 8 174.48 16.4
-1 -4 8 167.68 10.8
-1 -4 8 195.68 12.7
0 4 -8 114.49 8.2
0 4 -8 124.99 8.4
0 4 -8 102.19 7.9
0 -4 8 118.99 12.6
0 -4 8 107.09 7.6
0 -4 8 127.59 9.4
-1 4 -8 116.29 8
-1 4 -8 121.49 8
1 -4 8 112.79 12.4
1 -4 8 116.29 14.3
1 -4 8 115.59 7.6
1 -4 8 112.59 7.3
1 -4 8 120.79 9.5
-2 4 -8 12.9 2.6
-2 4 -8 15.8 3.2
2 -4 8 10.1 1.8
2 -4 8 8.5 4.5
2 -4 8 12.1 4.4
2 -4 8 9.3 1.9
2 -4 8 14.7 2.7
2 -4 8 12.2 3.8
-3 4 -8 93.89 7.8
3 -4 8 84.49 9.6
3 -4 8 99.99 9.1
3 -4 8 86.99 11.9
3 -4 8 99.19 6.3
-4 4 -8 9.9 6
-4 4 -8 34.6 4.4
4 -4 8 36 3.1
4 -4 8 27.3 3.7
4 -4 8 32.8 4.3
4 -4 8 29.7 8
4 -4 8 27 5.5
4 -4 8 38.1 6.2
4 -4 8 22.6 5.8
-5 4 -8 36.5 4.4
-5 4 -8 19.6 6.8
5 -4 8 38.8 6.5
5 -4 8 40.2 7.7
5 -4 8 32.9 5.9
5 -4 8 39 4
5 -4 8 34.4 4.7
-6 4 -8 0.6 1.9
6 -4 8 7.1 3.1
6 -4 8 -0.6 1.3
5 3 -8 26.1 3.2
-5 -3 8 30.3 4.5
4 3 -8 245.98 15
4 3 -8 262.57 15.6
-4 -3 8 268.87 16.8
-4 -3 8 237.78 17
3 3 -8 31.5 4.1
3 3 -8 31.5 4.4
3 3 -8 32.1 4.7
3 3 -8 26.9 3.6
-3 -3 8 32.9 5.5
-3 -3 8 19 3.9
2 3 -8 30.6 4.1
2 3 -8 26.1 3.9
2 3 -8 34.5 3.7
-2 -3 8 41.2 4.8
-2 -3 8 24.8 6.3
1 3 -8 31.6 3.8
1 3 -8 35.1 3.9
-1 -3 8 38.9 4.4
-1 -3 8 37.3 6.4
0 3 -8 50.79 4.4
0 3 -8 50.29 4.4
0 -3 8 47 4.9
0 -3 8 50.09 7.3
-1 3 -8 73.89 6.3
1 -3 8 103.09 10.2
1 -3 8 86.49 7.1
1 -3 8 80.79 5.5
-2 3 -8 -0.4 1.3
2 -3 8 0 0.8
2 -3 8 0.3 2.7
2 -3 8 1.3 2
2 -3 8 0.9 2.1
-3 3 -8 191.88 12.8
3 -3 8 210.08 14.2
3 -3 8 203.88 18.1
3 -3 8 208.68 11.6
3 -3 8 203.28 15.5
3 -3 8 197.08 12.9
-4 3 -8 42.3 13.2
-4 3 -8 68.29 5.6
-4 3 -8 23.4 7.7
4 -3 8 44.3 9
4 -3 8 48.3 6.2
4 -3 8 55.09 8
4 -3 8 56.09 5.7
4 -3 8 52.69 7
-5 3 -8 11.8 5.2
5 -3 8 26.1 3.2
5 -3 8 18.8 3.6
5 -3 8 22.4 5.8
5 -3 8 29.6 5.3
-6 3 -8 18.8 3.4
6 -3 8 19.9 4.3
6 -3 8 15.8 2.7
5 2 -8 8.4 2.3
-5 -2 8 2.1 2.6
4 2 -8 18.9 4
4 2 -8 18.7 3.5
4 2 -8 31.2 3.7
-4 -2 8 26.1 4.5
-4 -2 8 24.9 4.6
3 2 -8 127.09 8.1
3 2 -8 93.39 8.1
3 2 -8 109.89 8.4
-3 -2 8 117.49 8.8
2 2 -8 157.48 10.3
2 2 -8 154.88 9.3
2 2 -8 146.39 10.1
-2 -2 8 151.88 10.1
1 2 -8 102.09 7.3
1 2 -8 105.49 7.3
-1 -2 8 112.19 7.5
0 2 -8 3.3 1.3
0 2 -8 3.3 1.1
0 -2 8 0.7 1.5
-1 2 -8 247.28 15
1 -2 8 270.37 14.2
1 -2 8 269.27 16.2
-2 2 -8 292.97 17.2
2 -2 8 304.07 19.5
2 -2 8 309.27 16.3
-3 2 -8 1 3.3
-3 2 -8 1.9 1.5
3 -2 8 3.2 2.5
-4 2 -8 39.4 8.7
-4 2 -8 70.19 5.5
-5 2 -8 4.2 3.8
-5 2 -8 6.4 2.6
5 -2 8 7.6 2.2
5 -2 8 7.4 3.9
-6 2 -8 25.6 3.8
6 -2 8 26.7 5.1
6 1 -8 -0.9 1.3
6 1 -8 1 1.6
-6 -1 8 -1.7 2.3
5 1 -8 52.79 5.4
5 1 -8 48.5 5
5 1 -8 48 8.8
5 1 -8 58.39 4.9
-5 -1 8 65.69 7
-5 -1 8 49.1 5.8
4 1 -8 311.07 18.4
4 1 -8 336.97 18
4 1 -8 254.77 20.8
4 1 -8 307.37 18.2
-4 -1 8 302.17 18.9
-4 -1 8 327.57 18.6
3 1 -8 23.4 3.8
3 1 -8 22.1 2.8
3 1 -8 16.2 3
-3 -1 8 19.8 3.4
2 1 -8 319.87 18.1
2 1 -8 315.37 17.3
2 1 -8 321.87 18.1
1 1 -8 70.59 5.2
1 1 -8 74.29 5.3
0 1 -8 19.7 2.3
-1 1 -8 58.19 4.8
1 -1 8 71.09 4.9
-2 1 -8 69.39 8.8
-2 1 -8 111.09 6.7
2 -1 8 97.39 6.9
-3 1 -8 73.19 10.2
-3 1 -8 90.79 6.4
3 -1 8 85.29 7.3
-4 1 -8 40.3 8.4
-4 1 -8 43.6 4.3
-4 1 -8 43.2 5.3
4 -1 8 37.7 6.9
4 -1 8 48.9 4.7
-5 1 -8 28.2 4
5 -1 8 20.7 3.3
5 -1 8 13.1 4.7
-6 1 -8 4.8 1.9
6 -1 8 0.6 2.6
6 0 -8 115.39 7.4
6 0 -8 97.69 10.7
6 0 -8 116.99 8.1
6 0 -8 113.29 7.6
-6 0 8 118.39 9.2
5 0 -8 0 1.3
5 0 -8 -0.7 4
5 0 -8 -0.4 1.5
5 0 -8 1.5 2
5 0 -8 1.3 1.5
-5 0 8 0.5 2.5
4 0 -8 22.9 2.8
4 0 -8 19.1 2.8
4 0 -8 22.3 3.3
4 0 -8 21.1 3.3
4 0 -8 18.1 2.9
4 0 -8 19.7 2.6
3 0 -8 191.08 12
3 0 -8 199.38 12.1
3 0 -8 197.18 11.3
3 0 -8 182.88 11.8
3 0 -8 197.48 10.9
3 0 -8 177.68 10.8
-3 0 8 194.08 11.3
2 0 -8 186.98 10.4
2 0 -8 179.08 11
2 0 -8 181.28 10.4
2 0 -8 172.08 11
-2 0 8 184.68 10.3
-2 0 8 182.18 9.9
1 0 -8 196.18 11.7
1 0 -8 194.18 11.7
-1 0 8 209.58 11.2
-1 0 8 199.88 10.8
0 0 -8 60.49 4.1
0 0 8 46.8 3.3
0 0 8 45.2 3.7
-1 0 -8 122.09 7.9
1 0 8 125.29 7.6
1 0 8 137.59 8.4
-2 0 -8 50.69 7.5
-2 0 -8 57.49 4.5
2 0 8 56.89 4.6
2 0 8 57.79 5.4
-3 0 -8 12.4 5.5
-3 0 -8 10.6 2.4
-4 0 -8 72.29 10.8
-4 0 -8 80.99 7.1
4 0 8 87.89 9.7
4 0 8 78.69 6.6
-5 0 -8 143.39 9.4
5 0 8 119.19 11.1
7 -1 -8 76.19 8.3
7 -1 -8 62.99 4.9
7 -1 -8 63.59 4.7
6 -1 -8 89.19 6.3
6 -1 -8 97.59 6.8
6 -1 -8 95.29 7.4
6 -1 -8 104.69 6.9
6 -1 -8 98.99 8.7
6 -1 -8 88.09 6.9
5 -1 -8 46 4.9
5 -1 -8 58.69 4.5
5 -1 -8 58.49 5.7
5 -1 -8 60.19 4.9
5 -1 -8 63.09 5.1
5 -1 -8 60.39 7
4 -1 -8 250.27 14.4
4 -1 -8 247.38 14.3
4 -1 -8 252.07 15.4
4 -1 -8 244.68 15.3
4 -1 -8 271.97 14.1
4 -1 -8 251.57 14.7
3 -1 -8 10.3 1.9
3 -1 -8 5.1 1.4
3 -1 -8 8.1 2
3 -1 -8 6.7 1.4
3 -1 -8 7 2
3 -1 -8 4.7 1.5
-3 1 8 9.4 2
-3 1 8 8.2 1.5
2 -1 -8 2.7 1.1
2 -1 -8 2.7 1.3
2 -1 -8 2.3 0.8
2 -1 -8 1.7 1
-2 1 8 1.1 0.7
-2 1 8 2.6 1
1 -1 -8 233.78 13.5
1 -1 -8 243.68 13.5
1 -1 -8 218.88 12.7
1 -1 -8 228.68 12.8
-1 1 8 241.38 13
-1 1 8 231.68 12.6
0 -1 -8 455.85 25.3
0 -1 -8 546.45 27.8
0 1 8 469.95 25.5
0 1 8 470.45 25
-1 -1 -8 12.4 2.4
-1 -1 -8 16.2 2.3
1 1 8 15.9 2.3
1 1 8 19 2.9
1 1 8 13.7 2.2
-2 -1 -8 3.7 2.9
-2 -1 -8 2.6 1.4
2 1 8 2.6 1.5
-3 -1 -8 856.41 42.2
-3 -1 -8 770.52 42.6
-3 -1 -8 799.62 47.6
3 1 8 796.02 45.8
3 1 8 783.82 42
-4 -1 -8 25.6 4.1
4 1 8 14.3 3.1
4 1 8 20.3 4.9
-5 -1 -8 -0.5 1.4
5 1 8 1.8 2.1
7 -2 -8 4.1 1.7
7 -2 -8 4.9 2.3
7 -2 -8 5.2 1.6
6 -2 -8 4.3 1.6
6 -2 -8 3.3 1.1
6 -2 -8 3.2 1.7
6 -2 -8 5.5 2.1
6 -2 -8 7.1 3.2
6 -2 -8 2 1.7
5 -2 -8 15.4 3.8
5 -2 -8 9.2 2.7
5 -2 -8 18.6 3.2
5 -2 -8 17.6 2.1
5 -2 -8 22.6 3
5 -2 -8 16.2 2.9
4 -2 -8 29.4 3.3
4 -2 -8 31.2 3.3
4 -2 -8 27.5 2.6
4 -2 -8 30.7 3.8
4 -2 -8 32.5 4
4 -2 -8 29.1 3.3
3 -2 -8 5.1 1.2
3 -2 -8 5 1.7
3 -2 -8 5 1.5
3 -2 -8 7.7 2.1
3 -2 -8 5.9 1.7
-3 2 8 3.3 1.4
-3 2 8 5.6 1.4
2 -2 -8 441.26 24.3
2 -2 -8 431.26 23.5
2 -2 -8 458.45 23.3
2 -2 -8 431.36 24.2
2 -2 -8 444.26 23.5
-2 2 8 434.26 23.2
-2 2 8 449.86 23.6
1 -2 -8 1.1 1.2
1 -2 -8 1.1 0.9
1 -2 -8 -0.4 0.9
1 -2 -8 1 1
1 -2 -8 0.4 1.1
1 -2 -8 -0.1 1.1
-1 2 8 1.8 1
-1 2 8 -0.4 0.9
0 -2 -8 46.4 4.2
0 -2 -8 43.5 3.8
0 2 8 42.5 3.4
0 2 8 39.2 3.5
0 2 8 36.2 3.9
-1 -2 -8 670.63 34.5
-1 -2 -8 633.74 34.5
1 2 8 633.94 34
1 2 8 663.93 34
-2 -2 -8 0.1 3
-2 -2 -8 2.3 1.9
-2 -2 -8 2.6 1.7
2 2 8 2.7 1.8
2 2 8 -1.1 2.8
2 2 8 -1.4 1.5
-3 -2 -8 134.19 9.5
-3 -2 -8 140.39 9
-3 -2 -8 125.39 12.3
3 2 8 119.19 11.5
3 2 8 131.99 9.1
3 2 8 132.99 9.2
-4 -2 -8 4.1 2
4 2 8 1.7 2.9
4 2 8 2.8 3
7 -3 -8 2.6 1.4
7 -3 -8 2.8 2.3
7 -3 -8 4.8 1.5
6 -3 -8 6.7 2
6 -3 -8 1.7 1.7
6 -3 -8 1.6 2.2
6 -3 -8 1.3 1.6
6 -3 -8 1.7 0.9
6 -3 -8 2.1 1.4
5 -3 -8 78.59 5.9
5 -3 -8 69.09 5.5
5 -3 -8 75.59 6.2
5 -3 -8 70.49 6.3
5 -3 -8 73.69 7.6
5 -3 -8 79.99 5.8
5 -3 -8 69.49 4.8
4 -3 -8 20.5 3.8
4 -3 -8 13.4 2.9
4 -3 -8 26.4 3
4 -3 -8 21.4 2.9
4 -3 -8 12.5 3.9
4 -3 -8 14.5 1.8
4 -3 -8 12.9 3
3 -3 -8 0.6 1.4
3 -3 -8 0.3 0.7
3 -3 -8 0.8 1.2
3 -3 -8 -0.3 1.1
3 -3 -8 1.4 1
3 -3 -8 0.7 1.5
3 -3 -8 1 1.2
2 -3 -8 291.57 17.7
2 -3 -8 329.67 17.4
2 -3 -8 286.67 17.9
2 -3 -8 309.87 17.1
2 -3 -8 316.57 16.9
2 -3 -8 312.37 17.1
2 -3 -8 333.37 18.2
-2 3 8 293.67 17.2
1 -3 -8 4.3 1.4
1 -3 -8 7.7 2.3
1 -3 -8 6.4 2
1 -3 -8 3.2 1.7
1 -3 -8 6.7 2
1 -3 -8 2.8 1.5
1 -3 -8 3.6 1.8
1 -3 -8 6.5 1.7
-1 3 8 5.3 1.4
-1 3 8 5.9 1.9
0 -3 -8 284.37 16.9
0 -3 -8 288.67 16.6
0 -3 -8 284.07 16.9
0 -3 -8 288.97 16.7
0 3 8 293.27 16.1
0 3 8 293.07 16.2
-1 -3 -8 597.54 32.2
-1 -3 -8 585.44 31.8
-1 -3 -8 601.54 32.2
1 3 8 587.14 31.5
1 3 8 558.24 34
1 3 8 619.24 31.6
-2 -3 -8 37.6 4.1
-2 -3 -8 32.2 4.3
2 3 8 31.8 4.2
2 3 8 39 6.1
2 3 8 32 4.1
-3 -3 -8 56.89 5.3
3 3 8 59.99 5.1
3 3 8 52.49 6.8
3 3 8 53.09 5.2
7 -4 -8 0.1 2
7 -4 -8 -0.3 1.2
6 -4 -8 1.4 2.2
6 -4 -8 -2.2 1.2
6 -4 -8 -0.9 1.4
6 -4 -8 -0.9 1.3
6 -4 -8 0.3 1.5
5 -4 -8 12.2 2.5
5 -4 -8 10.5 2.2
5 -4 -8 8.1 2.1
5 -4 -8 9.6 2.6
5 -4 -8 7.9 3.2
5 -4 -8 8.2 1.5
5 -4 -8 8.9 2.3
4 -4 -8 228.28 12.7
4 -4 -8 219.48 12.8
4 -4 -8 211.38 13
4 -4 -8 210.88 12.7
4 -4 -8 205.88 15.4
4 -4 -8 201.78 11.8
4 -4 -8 205.18 13.2
4 -4 -8 225.18 13.7
3 -4 -8 0.8 0.8
3 -4 -8 3 1.7
3 -4 -8 0.7 1.5
3 -4 -8 -0.5 2.9
3 -4 -8 0.7 1.5
3 -4 -8 -0.3 1.4
3 -4 -8 0.1 1.6
3 -4 -8 0.8 1.1
3 -4 -8 -1.2 1.6
2 -4 -8 71.59 5.8
2 -4 -8 54.99 5.3
2 -4 -8 51.49 7.1
2 -4 -8 60.19 5.3
2 -4 -8 60.59 4.8
2 -4 -8 59.39 4.9
2 -4 -8 60.29 5.7
2 -4 -8 61.19 8.1
2 -4 -8 67.59 5.8
2 -4 -8 61.49 5.7
-2 4 8 66.79 4.8
1 -4 -8 205.48 12.5
1 -4 -8 214.98 12.9
1 -4 -8 200.08 12.7
1 -4 -8 204.38 16.3
1 -4 -8 198.68 12.9
1 -4 -8 200.18 12.6
1 -4 -8 184.48 12.5
1 -4 -8 209.78 12.7
1 -4 -8 207.58 12.9
1 -4 -8 191.58 11.9
-1 4 8 213.68 14.1
-1 4 8 212.68 12
0 -4 -8 49.3 4.8
0 -4 -8 60.99 5.3
0 -4 -8 41.4 5.2
0 -4 -8 43.4 5
0 -4 -8 43.5 5.1
0 4 8 42.1 4.4
0 4 8 45.1 4.3
-1 -4 -8 6.3 2.2
-1 -4 -8 9.3 2.4
1 4 8 6.7 2.2
1 4 8 8.8 2.3
-2 -4 -8 2.8 1.8
2 4 8 0.6 1.9
2 4 8 4.3 2.1
6 -5 -8 22.5 2.8
6 -5 -8 16 3.9
6 -5 -8 23.8 3.1
6 -5 -8 24.7 3.2
5 -5 -8 0.7 1.7
5 -5 -8 2.9 1.5
5 -5 -8 3.7 1.8
5 -5 -8 1.8 2
5 -5 -8 0.6 0.7
5 -5 -8 -0.2 1.3
5 -5 -8 -1 2.5
5 -5 -8 2.1 1.8
4 -5 -8 -0.6 3.1
4 -5 -8 -0.4 1.4
4 -5 -8 0 1.5
4 -5 -8 1.2 2
4 -5 -8 -0.7 1.5
4 -5 -8 1.1 0.9
4 -5 -8 1.6 1.8
4 -5 -8 1.1 1.6
4 -5 -8 1.5 1.3
3 -5 -8 60.79 5.1
3 -5 -8 61.09 5.4
3 -5 -8 60.39 5.5
3 -5 -8 46.3 5.1
3 -5 -8 53.69 4.3
3 -5 -8 47.8 4.5
3 -5 -8 56.99 5.4
3 -5 -8 50.49 5.1
-3 5 8 58.49 4.6
2 -5 -8 250.57 15.3
2 -5 -8 264.47 15.4
2 -5 -8 251.87 15.5
2 -5 -8 269.57 15.6
2 -5 -8 256.87 15.3
2 -5 -8 244.58 15.3
2 -5 -8 263.27 14.8
2 -5 -8 245.88 14.7
2 -5 -8 244.68 15.4
-2 5 8 265.47 14.6
1 -5 -8 45.7 4.9
1 -5 -8 40.2 4.9
1 -5 -8 39.3 5
1 -5 -8 47.2 4.3
1 -5 -8 37.4 4.3
1 -5 -8 40 4.2
1 -5 -8 49.1 5
1 -5 -8 43.5 4.8
-1 5 8 42.9 4.1
-1 5 8 52.49 4.5
-1 5 8 52.89 4.5
0 -5 -8 26.7 4.3
0 -5 -8 23.8 3.9
0 -5 -8 25.3 3.8
0 -5 -8 27.1 3.7
0 5 8 25.7 3.6
0 5 8 28.7 3.7
-1 -5 -8 84.69 6.2
1 5 8 76.29 5.8
6 -6 -8 2.6 1.3
5 -6 -8 -0.3 1.3
5 -6 -8 -0.3 1.6
5 -6 -8 0.3 1.3
4 -6 -8 145.29 8.6
4 -6 -8 124.89 8.8
4 -6 -8 131.19 8.8
4 -6 -8 127.69 9.8
4 -6 -8 129.39 8.7
4 -6 -8 137.39 8.8
-4 6 8 120.79 7.9
3 -6 -8 65.89 5.9
3 -6 -8 72.99 5.7
3 -6 -8 70.49 6
3 -6 -8 65.99 5.6
3 -6 -8 72.09 5.8
3 -6 -8 72.69 5.8
-3 6 8 66.29 5.2
-3 6 8 66.59 5.2
2 -6 -8 20.5 4
2 -6 -8 19.4 3.2
2 -6 -8 22.1 3.2
2 -6 -8 19.1 3.2
2 -6 -8 18.2 3.3
-2 6 8 23.2 3.1
-2 6 8 16.2 2.6
1 -6 -8 6.9 2
1 -6 -8 4.7 2.2
1 -6 -8 7.5 2.6
1 -6 -8 7.4 2.1
-1 6 8 8.1 1.9
0 7 -9 7.5 2
0 -7 9 2.4 2.9
-1 7 -9 31.1 3.8
-1 7 -9 25 3.4
1 -7 9 31.1 3.3
1 -7 9 33.6 5.9
1 -7 9 31.8 3.1
-2 7 -9 20.1 3.2
2 -7 9 25.1 2.7
2 -7 9 21.4 3.3
-3 7 -9 9.3 3.3
-3 7 -9 4.8 2.1
3 -7 9 8.4 2.3
3 -7 9 7.6 1.7
3 -7 9 9 1.8
3 -7 9 12.7 4.4
4 -7 9 11.3 2.3
4 -7 9 8.2 3.6
5 -7 9 5.1 1.5
5 -7 9 7.4 3
1 6 -9 -1.2 1.6
-1 -6 9 0.6 2.9
0 6 -9 3.8 1.9
0 6 -9 5.7 2
0 6 -9 4.3 2.4
0 -6 9 6.3 1.7
0 -6 9 2.6 1.7
0 -6 9 1 3.3
0 -6 9 0.3 3.6
-1 6 -9 4 2.2
-1 6 -9 4.4 1.9
-1 6 -9 1.9 1.5
1 -6 9 1.4 3.6
1 -6 9 1.5 1.6
1 -6 9 -0.5 3.2
1 -6 9 -0.5 1
-2 6 -9 45.1 5.9
-2 6 -9 57.09 5.2
2 -6 9 46.9 8.6
2 -6 9 48.9 6.8
2 -6 9 48.5 4.3
2 -6 9 44.2 4
2 -6 9 47.6 8
2 -6 9 48.2 5.1
2 -6 9 43 4.9
-3 6 -9 1.1 1.8
-3 6 -9 1.2 2.4
3 -6 9 0.2 1.4
3 -6 9 2.1 3.5
3 -6 9 1.1 1.3
3 -6 9 1.2 1.1
3 -6 9 -2.8 3.2
3 -6 9 -1.1 2.9
-4 6 -9 74.79 7.3
4 -6 9 86.79 6.4
4 -6 9 63.69 8.1
4 -6 9 71.39 6.3
4 -6 9 85.19 9.8
4 -6 9 76.89 5.5
-5 6 -9 13.1 3.7
5 -6 9 12.2 2.3
5 -6 9 15.9 4.4
6 -6 9 27.3 5.2
6 -6 9 36.3 3.1
3 5 -9 15.5 2.4
-3 -5 9 14.7 3.5
2 5 -9 7.8 2.7
2 5 -9 3.3 2.2
-2 -5 9 6.4 3.6
1 5 -9 7.5 2.3
1 5 -9 7.4 2.1
1 5 -9 6 2.5
-1 -5 9 6.4 2.1
-1 -5 9 5.6 1.9
-1 -5 9 6.6 3.3
-1 -5 9 6.9 3.4
0 5 -9 110.79 8.2
0 5 -9 108.49 8.3
0 5 -9 107.79 7.9
0 -5 9 99.99 9.4
0 -5 9 91.99 10
0 -5 9 108.19 7.6
0 -5 9 113.99 7.6
-1 5 -9 70.99 7
-1 5 -9 76.99 6.5
-1 5 -9 78.29 6.5
-1 5 -9 78.39 6.3
1 -5 9 70.79 5.3
1 -5 9 70.69 7.8
1 -5 9 73.99 5.7
1 -5 9 76.59 9.1
1 -5 9 70.49 5.8
1 -5 9 72.39 10.8
-2 5 -9 3.9 2.5
-2 5 -9 3.1 1.6
2 -5 9 2.3 3
2 -5 9 1.5 1.9
2 -5 9 1.1 1.7
2 -5 9 4 4.9
2 -5 9 2.6 1.4
2 -5 9 3.3 1.4
2 -5 9 -3.3 3.3
2 -5 9 4.8 3.3
-3 5 -9 124.89 8.8
-3 5 -9 118.39 9.6
3 -5 9 128.39 10.9
3 -5 9 105.09 11.7
3 -5 9 117.09 8.6
3 -5 9 122.49 7.9
3 -5 9 124.89 12.1
-4 5 -9 68.19 6.7
4 -5 9 63.19 5
4 -5 9 76.19 9.9
4 -5 9 68.49 6.2
4 -5 9 70.29 8.7
4 -5 9 69.59 5.8
4 -5 9 59.59 7.7
-5 5 -9 116.59 8.2
5 -5 9 96.19 7.9
5 -5 9 115.89 11
5 -5 9 104.39 7.3
-6 5 -9 0.4 1.9
6 -5 9 1.3 1.2
6 -5 9 -1.5 2.8
4 4 -9 -0.8 1.2
-4 -4 9 0.5 2.3
3 4 -9 11.7 3
3 4 -9 13 2.6
3 4 -9 11.1 2.7
3 4 -9 6.6 2.7
-3 -4 9 6.7 3.5
2 4 -9 214.78 14.9
2 4 -9 232.28 15
2 4 -9 243.08 14.7
-2 -4 9 226.68 15.3
-2 -4 9 233.28 16.2
1 4 -9 104.59 8.3
1 4 -9 106.69 7.8
1 4 -9 110.79 8.4
-1 -4 9 95.19 12.1
-1 -4 9 108.39 7.6
-1 -4 9 101.79 7.3
-1 -4 9 108.69 9
-1 -4 9 101.79 9.4
0 4 -9 2.6 1.6
0 4 -9 6.1 2.1
0 4 -9 4.9 1.8
0 -4 9 6.2 4.1
0 -4 9 1.9 1.3
0 -4 9 1.5 2.3
-1 4 -9 19.4 3.7
-1 4 -9 23.8 3.1
1 -4 9 29.2 6.6
1 -4 9 21.2 4.5
1 -4 9 17.8 2.6
1 -4 9 17.7 2.5
-2 4 -9 -1.3 1.7
-2 4 -9 -1.5 1.3
2 -4 9 0.6 2.4
2 -4 9 2.1 3.5
2 -4 9 0.5 2.4
2 -4 9 -0.1 0.9
2 -4 9 0.2 0.8
-3 4 -9 61.69 6
3 -4 9 57.99 8.6
3 -4 9 65.19 5.9
3 -4 9 52.99 6.7
3 -4 9 49.8 9.6
3 -4 9 61.59 4.6
3 -4 9 63.39 7.9
-4 4 -9 35.2 10.1
-4 4 -9 77.09 6.6
4 -4 9 70.99 8.4
4 -4 9 62.19 6.3
4 -4 9 52.69 8.8
4 -4 9 73.09 7.7
4 -4 9 77.19 5.8
-5 4 -9 71.69 16.1
-5 4 -9 77.79 6.1
5 -4 9 64.49 6.3
5 -4 9 55.49 8.7
5 -4 9 67.89 5.4
5 -4 9 59.19 7.2
-6 4 -9 7.2 2.5
6 -4 9 6 1.8
6 -4 9 5.7 3.4
4 3 -9 21 3.6
-4 -3 9 23.6 4.4
3 3 -9 19 3.2
3 3 -9 13.9 3.2
3 3 -9 8.7 3.2
3 3 -9 16.4 3.4
-3 -3 9 11.5 3.3
-3 -3 9 7.9 3.6
2 3 -9 289.97 17.1
2 3 -9 272.27 16.6
2 3 -9 266.77 15.5
-2 -3 9 253.07 17.1
-2 -3 9 277.17 17
1 3 -9 158.48 10.3
1 3 -9 148.39 10.1
1 3 -9 136.99 9.5
-1 -3 9 145.89 9.3
-1 -3 9 149.19 10.5
-1 -3 9 146.39 15.7
0 3 -9 47 4.4
0 3 -9 48.9 4.6
0 3 -9 36.1 5.3
0 -3 9 43.2 4.6
0 -3 9 46.6 7.5
0 -3 9 48.1 5.4
-1 3 -9 416.86 23.5
1 -3 9 433.16 29.1
1 -3 9 441.46 24.5
1 -3 9 399.06 22.3
-2 3 -9 3.2 1.7
2 -3 9 6.8 3.1
2 -3 9 7.3 1.5
2 -3 9 7.2 3.4
2 -3 9 5 5.6
-3 3 -9 -0.1 3.4
-3 3 -9 2.8 1.9
3 -3 9 -0.1 2.2
3 -3 9 2 1.1
3 -3 9 3.2 1.9
3 -3 9 0.9 2.5
-4 3 -9 0.4 1.7
-4 3 -9 2.8 3.9
4 -3 9 -0.6 2.3
4 -3 9 0.9 1.4
4 -3 9 1.2 1.9
-5 3 -9 8.8 5.5
-5 3 -9 14.9 3.4
5 -3 9 15.4 2.8
5 -3 9 16.2 4.8
-6 3 -9 20 3.2
6 -3 9 16.8 2.6
5 2 -9 26.1 3.7
-5 -2 9 34.7 5.2
4 2 -9 66.29 5.9
4 2 -9 61.59 6.4
4 2 -9 70.49 6.3
-4 -2 9 90.79 8
-4 -2 9 68.09 6.8
3 2 -9 68.79 6
3 2 -9 57.39 6.1
3 2 -9 67.09 6.5
3 2 -9 70.49 5.7
-3 -2 9 67.69 7.2
-3 -2 9 68.49 6.6
2 2 -9 10.7 2.5
2 2 -9 11.7 2.5
2 2 -9 8.5 1.9
-2 -2 9 15 3.2
1 2 -9 77.89 6.2
1 2 -9 84.59 6.3
0 2 -9 29 3.1
0 2 -9 23.4 2.8
-1 2 -9 38.6 4
1 -2 9 42.2 3.3
-2 2 -9 -0.3 1.2
2 -2 9 -1 2.3
-3 2 -9 0.3 1.5
-3 2 -9 0 2.9
3 -2 9 -0.9 1.9
-4 2 -9 50.49 10
-4 2 -9 82.49 7.2
-4 2 -9 92.29 6.5
4 -2 9 78.49 6.1
-5 2 -9 -1.4 1.8
5 -2 9 2.5 1.7
5 -2 9 -0.3 3
-6 2 -9 65.19 5.1
6 -2 9 50.09 5.9
6 1 -9 0.7 1.5
-6 -1 9 -1.9 2.1
5 1 -9 10.5 2.8
5 1 -9 6.7 2.2
-5 -1 9 7.2 3.3
4 1 -9 15 3.4
4 1 -9 14 2.8
4 1 -9 10.9 3
-4 -1 9 12 3.6
3 1 -9 155.18 9.7
3 1 -9 145.09 10.4
3 1 -9 156.78 10.6
2 1 -9 11.3 2.1
2 1 -9 8.2 2
2 1 -9 14.3 2.8
1 1 -9 31.3 3.3
1 1 -9 29.7 3.2
0 1 -9 82.89 6
0 1 -9 91.79 6.2
0 1 -9 95.49 6.5
-1 1 -9 122.29 7.9
-2 1 -9 42.9 4
2 -1 9 38.4 4.3
-3 1 -9 39.8 8
-3 1 -9 64.19 5.1
-4 1 -9 106.39 7.6
-4 1 -9 89.99 12
-4 1 -9 113.99 8.7
4 -1 9 104.59 10.2
4 -1 9 119.99 8.1
-5 1 -9 29 4.5
5 -1 9 20.1 5.1
6 0 -9 37.6 3.5
6 0 -9 39.2 4.3
-6 0 9 35.8 6.1
5 0 -9 107.69 8.5
5 0 -9 121.09 7.7
5 0 -9 102.59 7.8
5 0 -9 111.49 7.5
4 0 -9 2.6 1.3
4 0 -9 -0.1 1.6
4 0 -9 2.4 1.6
4 0 -9 0 1.9
4 0 -9 0.8 2.3
4 0 -9 3.2 2.4
3 0 -9 0.8 1.2
3 0 -9 1.7 1.5
3 0 -9 1.6 1.5
2 0 -9 108.99 7.7
2 0 -9 114.29 7.1
2 0 -9 107.49 7.7
-2 0 9 111.89 6.9
1 0 -9 6.3 1.6
1 0 -9 4 1.5
-1 0 9 7.9 1.6
0 0 -9 2.9 1.3
0 0 9 3 1.3
-1 0 -9 32.8 3.2
1 0 9 31.8 3.7
1 0 9 34.6 3.4
-2 0 -9 29.2 3.2
2 0 9 21.9 3.8
-3 0 -9 -0.7 1.3
-3 0 -9 0.2 3.7
-3 0 -9 2.7 2.2
3 0 9 1.3 1.7
3 0 9 3.4 2.8
-4 0 -9 59.39 5.9
-4 0 -9 50.39 8.9
4 0 9 68.99 8.1
-5 0 -9 0.6 1.6
5 0 9 -0.5 2.4
6 -1 -9 6.4 2.3
6 -1 -9 5.3 1.9
6 -1 -9 9.2 3
6 -1 -9 8.6 2
5 -1 -9 28.6 2.9
5 -1 -9 24.2 3.3
5 -1 -9 21.8 4
5 -1 -9 23.5 3.3
5 -1 -9 24.5 3.7
5 -1 -9 20.9 4.9
4 -1 -9 4.9 1.5
4 -1 -9 4.5 4.6
4 -1 -9 5.5 2.5
4 -1 -9 0.5 0.9
4 -1 -9 2.4 1.3
4 -1 -9 3.2 1.7
4 -1 -9 1.9 1.4
4 -1 -9 2.4 1.6
3 -1 -9 9.9 2.4
3 -1 -9 7.3 1.8
3 -1 -9 5.5 1.6
3 -1 -9 9.3 2
3 -1 -9 8.2 1.6
3 -1 -9 7.2 1.9
-3 1 9 8.1 1.7
-3 1 9 6.3 1.7
2 -1 -9 5.7 1.5
2 -1 -9 3.2 1.1
2 -1 -9 3.4 1.4
2 -1 -9 3.9 1.6
2 -1 -9 2.7 1.2
-2 1 9 3.2 1.4
-2 1 9 1.9 1
1 -1 -9 127.69 8.3
1 -1 -9 136.09 8.9
1 -1 -9 140.59 9
-1 1 9 142.29 8.5
-1 1 9 138.79 8
0 -1 -9 13.7 2.4
0 -1 -9 25.5 2.7
0 1 9 20.5 2.3
0 1 9 16.1 2.2
0 1 9 18.4 2.7
-1 -1 -9 6.4 1.7
1 1 9 4.1 2
1 1 9 2.9 1.7
1 1 9 4.8 1.7
-2 -1 -9 146.09 9.3
2 1 9 138.99 9.2
2 1 9 131.39 11.6
-3 -1 -9 10.1 2.4
-3 -1 -9 8.5 4.3
-3 -1 -9 11 2.9
3 1 9 7.3 3.8
-4 -1 -9 68.99 5.9
4 1 9 52.59 7.2
7 -2 -9 20.9 4.1
7 -2 -9 17.2 2.4
7 -2 -9 15.9 2.4
6 -2 -9 18.9 3.4
6 -2 -9 26.2 4.9
6 -2 -9 16.2 2.7
6 -2 -9 17.8 2.9
6 -2 -9 21.1 3
5 -2 -9 81.99 8
5 -2 -9 73.19 6.3
5 -2 -9 76.09 5.1
5 -2 -9 68.29 5.6
5 -2 -9 70.49 5.6
5 -2 -9 66.59 5.8
5 -2 -9 67.69 6.4
4 -2 -9 18.6 3.7
4 -2 -9 18.3 2.3
4 -2 -9 27.2 3.1
3 -2 -9 1.2 1.3
3 -2 -9 0.2 1.4
3 -2 -9 0.3 1.6
3 -2 -9 -0.6 1.1
3 -2 -9 -0.2 0.7
3 -2 -9 0.5 1.1
3 -2 -9 1.6 1.3
2 -2 -9 9.7 1.9
2 -2 -9 18.7 2.9
2 -2 -9 11.1 2.6
2 -2 -9 14.3 2.1
2 -2 -9 12.9 2.5
2 -2 -9 10.1 2.1
2 -2 -9 12.3 2.7
-2 2 9 14.2 2.3
-2 2 9 7.9 1.6
1 -2 -9 0.7 1.3
1 -2 -9 0.8 1.3
1 -2 -9 2 1.2
1 -2 -9 1.2 1.3
1 -2 -9 0.8 1.1
1 -2 -9 0 1.3
1 -2 -9 3.5 1.4
-1 2 9 0.4 1.2
-1 2 9 1 1.1
0 -2 -9 241.28 14.6
0 -2 -9 242.88 14.1
0 -2 -9 248.78 14.3
0 -2 -9 231.48 14.4
0 2 9 254.97 13.6
-1 -2 -9 229.38 17.8
-1 -2 -9 206.18 13
-1 -2 -9 207.08 12.9
1 2 9 210.08 12.5
1 2 9 212.98 12.5
1 2 9 226.58 17.2
-2 -2 -9 87.29 7.5
-2 -2 -9 100.89 7.3
2 2 9 110.79 10.1
2 2 9 103.59 7.4
-3 -2 -9 23.9 3.9
-3 -2 -9 32.7 3.9
3 2 9 27.8 3.9
3 2 9 31.1 5.8
-4 -2 -9 2.8 1.7
4 2 9 4.7 2.7
7 -3 -9 1.2 1.2
7 -3 -9 -1.3 1.9
7 -3 -9 0.9 1.3
6 -3 -9 -0.8 1.2
6 -3 -9 -1.8 1.3
6 -3 -9 -0.5 2.2
6 -3 -9 1.8 1.8
6 -3 -9 -0.5 1.3
5 -3 -9 5.9 1.8
5 -3 -9 6.6 2
5 -3 -9 8.7 2.5
5 -3 -9 5.1 1.2
5 -3 -9 5.6 2.4
5 -3 -9 9.3 3.3
5 -3 -9 4.4 1.8
4 -3 -9 26.2 5.4
4 -3 -9 32.3 4.5
4 -3 -9 22.2 2.5
4 -3 -9 29.5 3.4
4 -3 -9 25.5 3.6
4 -3 -9 30.9 3.5
4 -3 -9 31 3.5
4 -3 -9 25.6 3.9
3 -3 -9 0.9 0.9
3 -3 -9 2.6 1.5
3 -3 -9 -0.3 1.2
3 -3 -9 0.6 1.4
3 -3 -9 0.4 3.4
3 -3 -9 0.4 1.5
3 -3 -9 1.6 1.8
3 -3 -9 -0.7 1
3 -3 -9 3.5 1.8
2 -3 -9 -0.3 1.5
2 -3 -9 3.5 1.8
2 -3 -9 3.6 1.7
2 -3 -9 3.3 1.3
2 -3 -9 1.9 1.6
2 -3 -9 6.1 2.3
2 -3 -9 4.7 1.7
1 -3 -9 379.66 20.5
1 -3 -9 349.67 19.5
1 -3 -9 362.76 20.2
1 -3 -9 364.36 20.6
1 -3 -9 385.16 20.6
1 -3 -9 319.87 20.2
1 -3 -9 349.37 19.9
1 -3 -9 352.66 19.9
-1 3 9 377.46 19.5
0 -3 -9 190.48 12.4
0 -3 -9 198.08 12.4
0 -3 -9 220.98 16.7
0 -3 -9 199.18 12.7
0 -3 -9 196.38 12.7
0 3 9 196.88 11.8
0 3 9 191.68 14
0 3 9 217.48 12
-1 -3 -9 1.5 1.5
-1 -3 -9 0.2 1.8
-1 -3 -9 -1.3 2.1
1 3 9 4.1 2
1 3 9 2 2.7
1 3 9 1.1 1.5
-2 -3 -9 3.1 1.8
-2 -3 -9 1.1 1.8
2 3 9 0.5 1.9
2 3 9 1.6 2.6
2 3 9 -0.9 1.5
-3 -3 -9 8.4 2.2
3 3 9 3.2 1.9
3 3 9 4.3 3.1
6 -4 -9 7.5 2.1
6 -4 -9 6.6 1.7
6 -4 -9 6.2 1.9
6 -4 -9 8.1 3.2
5 -4 -9 5.7 2.2
5 -4 -9 2.5 1.6
5 -4 -9 4.6 2.2
5 -4 -9 4.9 1.2
5 -4 -9 3.8 2
5 -4 -9 4.4 1.9
5 -4 -9 4.3 1.7
5 -4 -9 6.2 3.3
4 -4 -9 8.5 2.1
4 -4 -9 5.7 2.3
4 -4 -9 5.1 1.3
4 -4 -9 9.9 2.8
4 -4 -9 5.9 1.8
4 -4 -9 5.1 3.2
4 -4 -9 4.6 1.9
4 -4 -9 9 2.4
3 -4 -9 -0.7 1.4
3 -4 -9 2.9 1.7
3 -4 -9 -0.2 1.6
3 -4 -9 -1.7 1.6
3 -4 -9 -0.6 0.8
3 -4 -9 0.2 1.3
3 -4 -9 2.7 1.8
3 -4 -9 1.6 1.8
3 -4 -9 1 3.1
2 -4 -9 27.7 4.2
2 -4 -9 19.6 2.8
2 -4 -9 19 3.5
2 -4 -9 24.3 3.8
2 -4 -9 18.4 5.4
2 -4 -9 19.4 3.3
2 -4 -9 22.7 3
2 -4 -9 29 3.6
2 -4 -9 22.5 3.8
-2 4 9 21.9 2.9
1 -4 -9 311.07 20.9
1 -4 -9 295.17 16.6
1 -4 -9 262.47 16.3
1 -4 -9 269.77 16.3
1 -4 -9 267.97 15.8
1 -4 -9 301.27 16.7
1 -4 -9 277.07 16.6
1 -4 -9 275.57 16.5
1 -4 -9 249.28 16.5
1 -4 -9 302.17 17
-1 4 9 275.77 15.9
-1 4 9 299.97 16.1
-1 4 9 279.37 18.2
0 -4 -9 99.99 7.3
0 -4 -9 104.59 7.6
0 -4 -9 82.89 7.4
0 -4 -9 110.99 7.6
0 4 9 102.09 7.2
0 4 9 90.19 6.9
0 4 9 88.59 9.1
-1 -4 -9 30.9 3.8
-1 -4 -9 32.2 4
1 4 9 37.2 9.3
1 4 9 31.1 3.8
1 4 9 31.4 4.1
-2 -4 -9 80.19 5.8
2 4 9 72.19 5.6
6 -5 -9 99.09 8.4
6 -5 -9 91.79 6.1
6 -5 -9 92.39 6.4
5 -5 -9 44.2 6.6
5 -5 -9 43.2 4.7
5 -5 -9 46.1 4.4
5 -5 -9 48.6 5.7
5 -5 -9 40 4.2
5 -5 -9 48.9 4.4
4 -5 -9 5.9 3.3
4 -5 -9 4.8 2.1
4 -5 -9 5.7 1.9
4 -5 -9 5.3 2
4 -5 -9 4 1.9
4 -5 -9 5 1.3
4 -5 -9 5.1 2.3
4 -5 -9 4.2 2
4 -5 -9 7.7 1.8
3 -5 -9 202.08 13
3 -5 -9 226.68 13
3 -5 -9 263.67 23.3
3 -5 -9 200.58 12.1
3 -5 -9 191.18 12.3
3 -5 -9 206.28 13.1
3 -5 -9 213.08 12.8
3 -5 -9 214.58 13.2
3 -5 -9 220.28 13.2
-3 5 9 211.68 12.2
2 -5 -9 13.4 2.8
2 -5 -9 15.2 3
2 -5 -9 18.5 3.5
2 -5 -9 15.4 3.2
2 -5 -9 20 2.7
2 -5 -9 15.2 3.1
2 -5 -9 21.4 3.4
2 -5 -9 13.2 2.6
2 -5 -9 22.1 3.4
-2 5 9 13.5 2.5
-2 5 9 18.2 2.8
-2 5 9 18.6 2.8
1 -5 -9 5.8 2.1
1 -5 -9 4.6 1.8
1 -5 -9 6.6 2.4
1 -5 -9 1.3 1.8
1 -5 -9 7 2.5
1 -5 -9 4.1 2.3
-1 5 9 6.3 2
-1 5 9 1.9 1.4
-1 5 9 7.1 2
0 -5 -9 12.6 2.8
0 -5 -9 13.4 2.9
0 5 9 21.3 3
0 5 9 20.4 3.1
-1 -5 -9 1.5 1.5
1 5 9 -0.6 1.7
5 -6 -9 3.4 1.8
5 -6 -9 5.9 1.5
5 -6 -9 3.1 1.5
4 -6 -9 24.1 3.5
4 -6 -9 28.2 3.3
4 -6 -9 25.4 3.2
4 -6 -9 25.1 3.5
3 -6 -9 87.49 6.6
3 -6 -9 88.39 6.3
3 -6 -9 92.09 6.5
3 -6 -9 74.79 6.2
-3 6 9 91.99 6.1
2 -6 -9 1 1.9
2 -6 -9 0.6 1.4
2 -6 -9 2.5 1.5
2 -6 -9 0.4 1.5
-2 6 9 -0.9 1.3
1 -6 -9 16.8 2.6
-1 6 9 22.1 2.7
-1 7 -10 1.1 1.5
-1 7 -10 0 1.4
1 -7 10 1.2 0.9
1 -7 10 -0.7 2.8
-2 7 -10 0.2 1.3
2 -7 10 0.2 0.9
2 -7 10 2.2 3
-3 7 -10 35.5 3.8
3 -7 10 31.6 2.9
3 -7 10 29.9 3.5
3 -7 10 31.4 6.1
4 -7 10 10.8 2
4 -7 10 19 4
1 6 -10 23.1 3.5
-1 -6 10 10 3.5
0 6 -10 6.9 2
0 6 -10 10.9 2.6
0 6 -10 6 2.4
0 -6 10 10.6 2
0 -6 10 6.1 3.5
-1 6 -10 -1.8 1.4
-1 6 -10 -1.8 1.7
1 -6 10 3.9 3.2
1 -6 10 0.9 3.1
1 -6 10 0.7 1.2
-2 6 -10 3.8 2.7
-2 6 -10 1.3 1.8
2 -6 10 -2.4 3.2
2 -6 10 2.3 1.3
2 -6 10 0.5 1.3
2 -6 10 4.8 3.5
-3 6 -10 3 2.6
-3 6 -10 2.9 1.7
3 -6 10 -1.2 2.9
3 -6 10 1.3 1.3
3 -6 10 4.3 1.4
3 -6 10 4.3 3.7
3 -6 10 0.6 1.7
-4 6 -10 151.38 10.3
4 -6 10 144.99 9
4 -6 10 137.99 8.5
4 -6 10 124.59 11.8
5 -6 10 8.3 3.1
5 -6 10 5.5 1.6
2 5 -10 3 2.1
-2 -5 10 8.6 3.5
1 5 -10 1.1 1.6
1 5 -10 -1.1 1.6
1 5 -10 1 2
-1 -5 10 1.7 3
-1 -5 10 4.6 3.2
0 5 -10 95.09 7.9
0 5 -10 102.69 8.1
0 5 -10 94.79 7.6
0 -5 10 111.79 10.7
0 -5 10 107.79 9.5
0 -5 10 106.99 7.4
-1 5 -10 22.3 3.6
-1 5 -10 18.9 3.5
1 -5 10 21.2 3
1 -5 10 13.9 4.2
1 -5 10 25.4 5.5
-2 5 -10 162.68 10.2
-2 5 -10 145.79 10.8
2 -5 10 144.29 9
2 -5 10 131.89 12.9
2 -5 10 136.09 11.7
2 -5 10 132.09 10.4
2 -5 10 149.59 9.2
-3 5 -10 1.3 3.4
-3 5 -10 1.3 2.2
3 -5 10 4.4 3.2
3 -5 10 0.4 1.7
3 -5 10 -0.8 1.6
3 -5 10 2.8 3.5
3 -5 10 1.1 1.1
3 -5 10 -0.7 2.8
-4 5 -10 97.49 7.9
4 -5 10 88.19 9.1
4 -5 10 93.19 7.7
4 -5 10 91.79 6.3
4 -5 10 100.19 7
4 -5 10 87.29 10.4
-5 5 -10 20.2 3.5
5 -5 10 24.5 3
5 -5 10 21.9 4.9
-6 5 -10 24.9 3.6
6 -5 10 28 2.9
6 -5 10 32.3 4.4
3 4 -10 33.8 4.6
3 4 -10 34.6 4
-3 -4 10 31.1 5.8
2 4 -10 92.39 7.8
2 4 -10 91.69 7.8
-2 -4 10 93.49 8.5
-2 -4 10 85.89 9
1 4 -10 87.39 7.2
1 4 -10 106.39 8
1 4 -10 91.19 7.7
-1 -4 10 93.69 9.3
-1 -4 10 84.79 8.3
0 4 -10 146.09 10.1
0 4 -10 155.18 10
0 4 -10 147.09 10.2
0 -4 10 137.39 11.2
0 -4 10 136.69 11.9
0 -4 10 142.29 9.4
-1 4 -10 4.5 2.7
-1 4 -10 7.8 2.1
1 -4 10 8.2 2
1 -4 10 6.8 3.1
1 -4 10 6.7 6.3
1 -4 10 5.7 1.8
1 -4 10 6 3.9
-2 4 -10 110.69 8.7
-2 4 -10 111.19 7.9
2 -4 10 100.39 11
2 -4 10 109.19 7.1
2 -4 10 105.99 9.5
-3 4 -10 8.2 5.4
-3 4 -10 21.1 3.7
3 -4 10 24.6 5.2
3 -4 10 15.1 3.4
3 -4 10 22.6 2.6
3 -4 10 22.9 3.2
3 -4 10 27.3 5.5
3 -4 10 15.3 5
-4 4 -10 35 4.5
-4 4 -10 17.2 7
4 -4 10 33.7 3.8
4 -4 10 33 6
4 -4 10 36.4 6.6
4 -4 10 28.4 4.6
4 -4 10 38.7 6.2
-5 4 -10 7.2 2.3
5 -4 10 3.1 1.5
5 -4 10 5.5 3.4
-6 4 -10 3.4 1.8
6 -4 10 0.9 1.2
4 3 -10 53.49 5.1
-4 -3 10 58.39 6.8
3 3 -10 191.38 11.9
3 3 -10 179.98 12.8
3 3 -10 184.68 12.2
3 3 -10 195.68 12.7
-3 -3 10 184.28 13
-3 -3 10 212.98 14.1
2 3 -10 110.29 8.7
2 3 -10 114.69 8.9
-2 -3 10 113.89 9.2
-2 -3 10 105.59 9.9
1 3 -10 28.6 6.3
1 3 -10 23.6 3.7
1 3 -10 30.4 4
1 3 -10 20.4 3.3
-1 -3 10 28.9 4.8
0 3 -10 107.49 8.2
0 3 -10 126.19 8.6
0 3 -10 117.09 8.4
0 -3 10 122.39 9.5
-1 3 -10 1.3 1.4
-1 3 -10 4.2 2.1
1 -3 10 4.8 1.3
1 -3 10 5.3 4.1
-2 3 -10 20.1 3.8
-2 3 -10 13.5 2.8
2 -3 10 13.4 2.3
-3 3 -10 2.8 4.3
-3 3 -10 0.7 1.7
3 -3 10 2.1 2
3 -3 10 2.6 2.5
-4 3 -10 64.99 5.5
-4 3 -10 36.8 9.1
4 -3 10 56.39 4.9
-5 3 -10 97.09 7.8
5 -3 10 90.19 6.7
-6 3 -10 91.39 6.9
6 -3 10 110.29 6.6
5 2 -10 41.9 4.3
-5 -2 10 46.2 5.5
4 2 -10 98.69 7.8
4 2 -10 118.29 8
4 2 -10 93.19 7.1
4 2 -10 63.39 7.3
-4 -2 10 109.89 9
3 2 -10 325.97 19.2
3 2 -10 349.37 19.7
3 2 -10 338.97 20.1
3 2 -10 334.97 20.4
-3 -2 10 348.87 20.9
2 2 -10 50.49 5.1
2 2 -10 35.4 4.4
2 2 -10 43.4 4.7
1 2 -10 435.16 23.4
1 2 -10 421.96 23.3
1 2 -10 391.86 22.9
0 2 -10 60.39 5.1
0 2 -10 56.39 5.8
-1 2 -10 58.19 5.7
-1 2 -10 44.1 4.5
-2 2 -10 50.19 4.8
-3 2 -10 16.2 2.9
-3 2 -10 13.1 5.5
-4 2 -10 48.9 9.4
-4 2 -10 63.09 5.4
-4 2 -10 67.09 6.5
4 -2 10 62.59 5.5
-5 2 -10 29.5 4
5 -2 10 23.7 3.3
5 -2 10 24.9 6.2
5 1 -10 104.59 9.5
5 1 -10 112.69 8.2
-5 -1 10 108.89 8.8
4 1 -10 41.1 4.9
4 1 -10 40.5 4.3
4 1 -10 43.2 4.9
4 1 -10 31.4 5.1
3 1 -10 188.38 12.5
3 1 -10 199.18 11.7
3 1 -10 179.58 12.5
2 1 -10 33.2 4
2 1 -10 29.1 3.2
2 1 -10 31.3 3.8
2 1 -10 31.2 3.9
1 1 -10 335.47 19.2
1 1 -10 338.67 19.1
0 1 -10 1.9 1.4
-1 1 -10 17.7 2.7
-2 1 -10 121.79 8.3
-3 1 -10 23.8 3.6
-3 1 -10 19.1 3.8
3 -1 10 16.9 4.3
3 -1 10 21 3.4
-4 1 -10 60.29 5.2
-4 1 -10 57.79 5.8
-4 1 -10 49.99 9.7
4 -1 10 55.69 5.2
4 -1 10 59.39 7.4
-5 1 -10 -0.2 1.5
5 -1 10 -1 2.5
6 0 -10 32.2 3.6
6 0 -10 29.5 3.1
5 0 -10 1.3 1.7
5 0 -10 4.4 2.3
5 0 -10 3.2 1.5
4 0 -10 -0.7 2.2
4 0 -10 1.3 1.7
4 0 -10 -0.6 1.7
4 0 -10 2 1.6
3 0 -10 276.07 17.5
3 0 -10 316.67 16.9
3 0 -10 291.87 17.6
2 0 -10 32.1 3.8
2 0 -10 28.7 3.5
2 0 -10 30.6 3.1
2 0 -10 29 3.7
1 0 -10 5.2 1.6
1 0 -10 5.7 1.6
-1 0 10 5.3 1.6
0 0 -10 286.37 14.8
0 0 10 239.08 14.7
-1 0 -10 1.3 1.2
-1 0 -10 3.8 1.8
1 0 10 3 2
-2 0 -10 178.08 11.1
-3 0 -10 30.4 3.6
-3 0 -10 23.9 4
3 0 10 21.7 5.4
3 0 10 23.9 3.8
-4 0 -10 58.39 5.2
-4 0 -10 66.49 5.9
4 0 10 58.99 7.2
-5 0 -10 1 1.4
5 0 10 0.9 2.3
6 -1 -10 19.1 3.2
6 -1 -10 15.4 3.9
6 -1 -10 16.7 2.6
6 -1 -10 29.6 4.7
5 -1 -10 52.29 4.8
5 -1 -10 63.99 4.9
5 -1 -10 73.79 6
5 -1 -10 49.6 6.9
5 -1 -10 55.79 4.5
5 -1 -10 55.69 5.1
5 -1 -10 54.69 5.5
4 -1 -10 1.3 1.6
4 -1 -10 -0.2 1.4
4 -1 -10 0.9 1.1
4 -1 -10 -1.3 2.2
4 -1 -10 0.5 1.4
4 -1 -10 0.1 1.7
4 -1 -10 1.1 2.8
4 -1 -10 2.3 1.5
3 -1 -10 0.1 1
3 -1 -10 -4.9 1.8
3 -1 -10 0.6 1.5
3 -1 -10 0.6 1.2
3 -1 -10 1.2 1.4
3 -1 -10 0.4 1.3
3 -1 -10 -0.1 0.9
2 -1 -10 5.7 2
2 -1 -10 4.4 1.5
2 -1 -10 4 1.5
2 -1 -10 6.4 1.8
2 -1 -10 4.5 1.9
2 -1 -10 8.2 2.3
-2 1 10 6 1.8
-2 1 10 4.8 1.6
1 -1 -10 40.9 4.1
1 -1 -10 39.9 4.1
1 -1 -10 36.4 3.8
-1 1 10 39.9 3.8
-1 1 10 34.6 3.2
0 -1 -10 213.58 12.9
0 -1 -10 235.28 12.8
0 1 10 198.48 12.9
-1 -1 -10 98.39 7
-2 -1 -10 10.9 2.4
-2 -1 -10 13 2.8
2 1 10 9.1 3.4
-3 -1 -10 15.9 3.3
-3 -1 -10 13.9 2.8
3 1 10 17.5 4.5
-4 -1 -10 1 1.7
4 1 10 -0.3 2.3
6 -2 -10 2.2 1.7
6 -2 -10 6.9 1.9
6 -2 -10 2.8 1.6
6 -2 -10 1.1 2.4
5 -2 -10 16.9 3.4
5 -2 -10 8.3 3.4
5 -2 -10 9.2 2.1
5 -2 -10 13.2 2.9
5 -2 -10 14.4 2.1
5 -2 -10 15.7 2.6
5 -2 -10 11.5 2.4
4 -2 -10 5.1 3
3 -2 -10 88.29 6.2
3 -2 -10 73.49 6.7
3 -2 -10 72.59 5.8
3 -2 -10 80.39 6.9
3 -2 -10 89.89 6.9
3 -2 -10 89.29 9.4
3 -2 -10 80.19 5.6
3 -2 -10 78.09 6.6
3 -2 -10 82.89 6
2 -2 -10 25.1 3.5
2 -2 -10 29.5 3.1
2 -2 -10 24.3 3.8
2 -2 -10 34.8 4.1
2 -2 -10 27.2 3.4
2 -2 -10 31.6 3.2
2 -2 -10 30.5 3.3
1 -2 -10 2 1.7
1 -2 -10 3.8 1.8
1 -2 -10 3.7 1.8
1 -2 -10 5.2 2.1
1 -2 -10 5 1.9
1 -2 -10 4.5 1.9
-1 2 10 3 1.3
0 -2 -10 16.3 5.2
0 -2 -10 26.4 3.9
0 -2 -10 22.6 3.2
0 -2 -10 26.3 3.6
0 -2 -10 23.1 3.7
0 2 10 24.9 3
0 2 10 24.3 5.1
-1 -2 -10 6.4 4.6
-1 -2 -10 16.9 2.9
-1 -2 -10 18.8 3.4
1 2 10 8.9 3.6
1 2 10 16.4 2.8
-2 -2 -10 6.2 2
-2 -2 -10 3 1.9
2 2 10 6.5 3.2
2 2 10 6.3 2.3
-3 -2 -10 0.9 1.5
3 2 10 1.5 2.4
3 2 10 0.6 2
6 -3 -10 3.2 2.6
6 -3 -10 2.2 1.5
6 -3 -10 -1.7 1.2
6 -3 -10 1.4 1.4
5 -3 -10 12.4 2.8
5 -3 -10 19.6 3.6
5 -3 -10 16.1 4.3
5 -3 -10 18 2.9
5 -3 -10 18.6 3
5 -3 -10 19.1 2.8
5 -3 -10 14.5 2
5 -3 -10 18.8 3.1
4 -3 -10 36.1 3.5
4 -3 -10 48 4.3
4 -3 -10 46.6 4.4
4 -3 -10 44.6 4.5
4 -3 -10 49.6 5.3
4 -3 -10 48.2 5.3
4 -3 -10 48.2 4.3
4 -3 -10 43.5 6.8
3 -3 -10 -1 2.8
3 -3 -10 -0.4 1.6
3 -3 -10 2.1 1.9
3 -3 -10 -0.2 0.9
3 -3 -10 0.4 1.6
3 -3 -10 -0.3 1.1
3 -3 -10 -0.8 1.3
3 -3 -10 1.2 1.4
3 -3 -10 0.2 1.6
2 -3 -10 17.3 2.7
2 -3 -10 14.1 3
2 -3 -10 11.9 2.8
2 -3 -10 7.5 2.2
2 -3 -10 16.1 3
2 -3 -10 13.5 2.4
2 -3 -10 15.3 2.8
2 -3 -10 11.7 2.9
2 -3 -10 13.6 4.5
1 -3 -10 19.1 3.1
1 -3 -10 17.6 3.2
1 -3 -10 21.4 3.5
1 -3 -10 21.4 3.5
1 -3 -10 10 4.3
1 -3 -10 23.3 3.6
1 -3 -10 18.2 3.3
-1 3 10 12 3.2
-1 3 10 17.7 2.7
0 -3 -10 8 2.6
0 -3 -10 12.3 4.8
0 -3 -10 15.3 3.2
0 -3 -10 18.4 3
0 -3 -10 13.2 2.8
0 3 10 15.6 4
0 3 10 14.1 2.5
0 3 10 11.4 2.2
-1 -3 -10 16.3 3.1
-1 -3 -10 13.9 3
-1 -3 -10 19.3 3.4
1 3 10 16 4.3
1 3 10 12.4 2.6
1 3 10 20 3.1
-2 -3 -10 28.1 3.6
-2 -3 -10 35.2 4.1
2 3 10 31 5.4
2 3 10 31.5 3.8
2 3 10 25.3 3.8
6 -4 -10 20.2 2.5
6 -4 -10 15.2 4
6 -4 -10 17.9 2.7
5 -4 -10 3 2.1
5 -4 -10 5.1 1.7
5 -4 -10 5.1 1.6
5 -4 -10 7.2 2
5 -4 -10 6.7 2.1
5 -4 -10 5.9 2.3
5 -4 -10 4.5 2.9
4 -4 -10 17.1 2.3
4 -4 -10 15.2 4.6
4 -4 -10 16.2 3
4 -4 -10 24.7 3.5
4 -4 -10 18.8 2.8
4 -4 -10 26 4.1
4 -4 -10 25.4 3.8
4 -4 -10 23.9 3.3
4 -4 -10 20.5 3.4
3 -4 -10 62.79 5.8
3 -4 -10 71.19 5.2
3 -4 -10 66.49 5.9
3 -4 -10 65.49 6
3 -4 -10 75.39 5.6
3 -4 -10 63.89 5.8
3 -4 -10 84.49 6.6
3 -4 -10 74.99 6.3
3 -4 -10 84.79 9.4
2 -4 -10 -0.3 1.7
2 -4 -10 -0.2 1.4
2 -4 -10 1.2 1.8
2 -4 -10 -0.5 1.5
2 -4 -10 -0.3 1.8
2 -4 -10 -0.9 1.9
2 -4 -10 0.5 1.3
2 -4 -10 1.1 1.8
2 -4 -10 1.6 3.3
-2 4 10 -0.6 1.3
-2 4 10 -0.8 2
1 -4 -10 6.8 3.9
1 -4 -10 -1.1 1.5
1 -4 -10 0.6 1.9
1 -4 -10 2.3 2
1 -4 -10 -0.4 1.7
1 -4 -10 0 1.9
1 -4 -10 6.6 2.5
-1 4 10 2.4 2.4
-1 4 10 -0.2 1.6
-1 4 10 -0.2 1.4
0 -4 -10 17 3.2
0 -4 -10 21.2 3.6
0 4 10 26.5 3.7
0 4 10 20 3.2
0 4 10 24 5.3
-1 -4 -10 1.2 1.6
1 4 10 4.8 2.6
1 4 10 0.7 1.7
1 4 10 5 2
6 -5 -10 1.9 1.4
6 -5 -10 1.2 2.1
5 -5 -10 1.1 1.4
5 -5 -10 3.3 1.9
5 -5 -10 0.9 1.5
5 -5 -10 7.6 2.9
4 -5 -10 0.6 1.5
4 -5 -10 0.8 1.5
4 -5 -10 0 3
4 -5 -10 0.3 1.8
4 -5 -10 -0.7 1.6
4 -5 -10 0.8 1.4
-4 5 10 1.5 1.3
3 -5 -10 6.3 2.2
3 -5 -10 8.3 2.4
3 -5 -10 10.3 2.6
3 -5 -10 8.8 2.4
3 -5 -10 1.4 3.6
3 -5 -10 8.9 2.1
3 -5 -10 8.7 2
3 -5 -10 6.9 2.5
-3 5 10 6.3 2.7
-3 5 10 7.6 2
2 -5 -10 27.2 3.4
2 -5 -10 21.3 3.5
2 -5 -10 24.3 3.5
2 -5 -10 21.6 3.6
2 -5 -10 21.5 3.7
2 -5 -10 22.9 3.3
-2 5 10 21.6 3.3
-2 5 10 28.4 3.4
-2 5 10 25.9 7.1
1 -5 -10 0.9 1.9
1 -5 -10 2.6 1.9
1 -5 -10 1 1.4
-1 5 10 -2.2 1.5
-1 5 10 1.9 1.6
0 -5 -10 1.9 1.8
0 5 10 4.7 1.9
4 -6 -10 7.9 2.1
4 -6 -10 7.3 1.8
4 -6 -10 7.4 1.8
-4 6 10 8 1.6
3 -6 -10 -1.7 1.4
3 -6 -10 -0.3 1.3
3 -6 -10 0.5 1.3
3 -6 -10 0.6 1.2
-3 6 10 1.5 1.2
2 -6 -10 0.1 1.2
2 -6 -10 0 1.2
-2 6 10 -0.7 1.6
-1 7 -11 8.8 3.1
-1 7 -11 9.5 1.9
1 -7 11 9.5 3.2
-2 7 -11 45.6 4
2 -7 11 36.1 5.9
-3 7 -11 41.3 4.2
3 -7 11 37.2 3.4
3 -7 11 40.9 6
1 6 -11 -2.3 1.4
-1 -6 11 2 2.6
0 6 -11 11.2 2.5
0 6 -11 10.6 2.4
0 -6 11 5.7 3.5
-1 6 -11 -0.6 1.6
-1 6 -11 2.1 2
1 -6 11 3.1 3.1
-2 6 -11 8.9 2.5
-2 6 -11 5.7 2.8
2 -6 11 7.5 1.6
2 -6 11 10 4
-3 6 -11 0.6 1.7
-3 6 -11 0.8 2.1
3 -6 11 -1.9 2.9
3 -6 11 2.5 1.5
3 -6 11 2.8 1.2
4 -6 11 0.8 1.3
4 -6 11 3.9 2.8
5 -6 11 20.5 2.4
5 -6 11 15.3 3.6
2 5 -11 8.5 2.4
-2 -5 11 6.4 3.3
1 5 -11 8.1 2.4
1 5 -11 13.2 2.9
1 5 -11 11 2.8
-1 -5 11 9.7 4
0 5 -11 3.7 2.2
0 5 -11 2.7 1.9
0 5 -11 2.4 1.9
0 -5 11 2.6 3.3
0 -5 11 2.9 3.5
-1 5 -11 19.6 3.3
1 -5 11 9.9 3.8
1 -5 11 18.3 5.1
-2 5 -11 43.3 5.6
-2 5 -11 54.69 5.3
2 -5 11 43.1 8
2 -5 11 49.2 6.9
2 -5 11 55.29 4.3
-3 5 -11 56.29 5.8
3 -5 11 45.8 4.4
3 -5 11 39.4 6.4
3 -5 11 47.1 4
3 -5 11 44.2 8
-4 5 -11 78.09 6.8
4 -5 11 80.59 9
4 -5 11 77.59 5.9
5 -5 11 99.79 6.3
5 -5 11 83.09 8.4
3 4 -11 15.7 3
-3 -4 11 15 4.1
2 4 -11 8.2 2.6
2 4 -11 3.5 2.3
-2 -4 11 3.1 3.7
-2 -4 11 0.9 3.1
1 4 -11 33.9 4.4
1 4 -11 37.4 5.1
1 4 -11 25.8 3.9
-1 -4 11 24.2 4.9
-1 -4 11 25 5.1
0 4 -11 59.19 5.5
0 4 -11 49.3 5.8
0 4 -11 55.29 5.3
0 -4 11 57.89 6.8
0 -4 11 51.29 7.9
-1 4 -11 -1 1.4
-1 4 -11 -0.3 2.6
1 -4 11 0.5 2.8
1 -4 11 0.4 1.1
1 -4 11 1 3.9
-2 4 -11 253.47 15.4
-2 4 -11 251.37 14.7
2 -4 11 247.68 13.8
2 -4 11 223.98 17.4
2 -4 11 225.78 16.3
-3 4 -11 282.67 16.6
3 -4 11 248.08 18.5
3 -4 11 269.67 15.5
-4 4 -11 14.3 3.1
4 -4 11 8.5 4.5
4 -4 11 8.4 2.1
-5 4 -11 4.7 2.1
5 -4 11 4.7 1.7
4 3 -11 81.89 6.1
-4 -3 11 81.29 7.5
3 3 -11 50.29 5.6
3 3 -11 52.19 5.9
3 3 -11 54.89 5.8
-3 -3 11 63.39 7.4
2 3 -11 1.2 2.1
2 3 -11 4.1 2.4
-2 -3 11 -0.2 3.1
1 3 -11 48.1 4.9
1 3 -11 48.3 5.7
1 3 -11 42.7 5
-1 -3 11 45.9 7.3
0 3 -11 129.49 9.6
0 3 -11 135.59 9.4
0 3 -11 142.79 9.5
-1 3 -11 54.09 5.5
-1 3 -11 57.79 5.2
-2 3 -11 34.7 4.5
-2 3 -11 39.2 4.2
-3 3 -11 89.99 7.3
3 -3 11 88.09 6.7
-4 3 -11 19.4 3.9
-4 3 -11 26.2 3.6
4 -3 11 22.7 3.3
-5 3 -11 126.49 8.8
5 -3 11 122.29 8
5 2 -11 86.29 6
-5 -2 11 75.89 7
4 2 -11 8.7 2.3
4 2 -11 3.2 2.4
4 2 -11 5.1 2.3
4 2 -11 8.3 2.6
-4 -2 11 7.7 3.1
3 2 -11 128.99 9.3
3 2 -11 135.09 10.1
3 2 -11 135.49 8.9
3 2 -11 131.39 9.9
-3 -2 11 130.99 11.7
2 2 -11 13.5 2.9
2 2 -11 15 3.5
2 2 -11 15.3 2.9
1 2 -11 7.9 2.3
1 2 -11 8.8 2.4
1 2 -11 6.4 2.3
0 2 -11 255.87 15.2
-1 2 -11 26.3 3.6
-1 2 -11 25.8 3.5
-2 2 -11 -0.4 1.4
-3 2 -11 188.18 11.3
-3 2 -11 150.18 11.5
3 -2 11 177.48 11
-4 2 -11 77.29 6.1
-4 2 -11 76.79 6.8
4 -2 11 75.69 6.1
-5 2 -11 22.1 3.3
5 -2 11 20.1 2.9
5 1 -11 118.99 8.3
4 1 -11 0.5 2
4 1 -11 1 1.8
4 1 -11 3 2.5
4 1 -11 2.2 2.1
3 1 -11 4.4 2.4
3 1 -11 1.9 1.6
3 1 -11 1.5 2.2
3 1 -11 0.9 1.8
2 1 -11 342.97 19.2
2 1 -11 295.47 19.2
2 1 -11 338.37 19.5
2 1 -11 359.26 19.8
1 1 -11 96.79 7
1 1 -11 87.89 6.8
1 1 -11 86.39 6.9
0 1 -11 6.7 1.9
-1 1 -11 91.79 6.6
-1 1 -11 76.39 6.2
-2 1 -11 34.2 3.8
-3 1 -11 58.49 5
-3 1 -11 45.5 5.5
3 -1 11 50.79 7.2
3 -1 11 56.29 5.3
-4 1 -11 76.69 6
-4 1 -11 83.59 6.7
4 -1 11 69.29 7.9
4 -1 11 77.19 6.1
-5 1 -11 20.4 3.2
5 -1 11 22 4.2
6 0 -11 2.4 1.6
5 0 -11 35.1 4.3
5 0 -11 33.9 4
5 0 -11 20.8 4.2
4 0 -11 80.99 6.9
4 0 -11 71.09 6.4
4 0 -11 76.79 6.8
4 0 -11 70.79 6
3 0 -11 112.79 8.2
3 0 -11 102.79 7.8
3 0 -11 102.39 7.3
3 0 -11 94.09 8
2 0 -11 67.79 5.9
2 0 -11 75.69 6.1
2 0 -11 66.69 5.9
1 0 -11 5.1 2
1 0 -11 6.8 2.1
1 0 -11 5.5 2
0 0 -11 15.7 2.6
0 0 -11 14.3 2.7
-1 0 -11 8.7 2.3
-1 0 -11 7.4 2.2
-2 0 -11 81.59 7
-2 0 -11 88.79 6.6
2 0 11 84.09 8.8
2 0 11 81.19 6.6
-3 0 -11 3.7 2.1
-3 0 -11 5.6 2.2
3 0 11 1.5 2.9
-4 0 -11 -1.4 1.6
4 0 11 -0.5 2.4
6 -1 -11 4.5 1.4
6 -1 -11 3.7 1.8
5 -1 -11 97.49 6.9
5 -1 -11 122.09 8.3
5 -1 -11 92.49 7.7
5 -1 -11 96.79 7.2
5 -1 -11 105.59 9.5
5 -1 -11 118.99 8
5 -1 -11 94.49 7.9
4 -1 -11 119.19 10.6
4 -1 -11 111.39 8.2
4 -1 -11 103.99 7.4
4 -1 -11 128.19 8.9
4 -1 -11 105.69 7.4
4 -1 -11 116.29 7.7
4 -1 -11 121.39 8.9
4 -1 -11 114.29 7.9
3 -1 -11 24.4 3.4
3 -1 -11 17.6 3.3
3 -1 -11 23.5 3.5
3 -1 -11 19.5 4
3 -1 -11 13.1 4.7
3 -1 -11 19.3 2.8
3 -1 -11 18.7 3.6
2 -1 -11 59.19 5.4
2 -1 -11 53.59 6.4
2 -1 -11 57.29 5.3
2 -1 -11 53.29 5.1
1 -1 -11 106.59 7.9
1 -1 -11 114.39 8.2
0 -1 -11 29 10.8
0 -1 -11 38.6 4
0 -1 -11 46.9 4.6
-1 -1 -11 32.1 3.8
-1 -1 -11 40.6 8.6
1 1 11 33.8 5.4
-2 -1 -11 1.6 2
-2 -1 -11 2.2 1.6
2 1 11 0.5 2.7
-3 -1 -11 -0.6 1.6
-3 -1 -11 -0.8 1.5
3 1 11 -1.8 2.1
-4 -1 -11 0.1 1.2
4 1 11 3.7 2.4
6 -2 -11 9.7 2
6 -2 -11 14.9 3.8
6 -2 -11 8.8 2.1
5 -2 -11 21.1 3.1
5 -2 -11 17 3.2
5 -2 -11 21.1 3.8
5 -2 -11 26.8 3.6
5 -2 -11 24.2 2.7
5 -2 -11 27.3 3.2
5 -2 -11 26 5.6
5 -2 -11 21.5 3.1
4 -2 -11 69.79 6.4
4 -2 -11 53.99 4.6
4 -2 -11 61.19 8.1
4 -2 -11 60.79 5.2
4 -2 -11 73.69 6.4
4 -2 -11 64.79 5.6
4 -2 -11 66.39 5.2
4 -2 -11 64.69 5.3
3 -2 -11 4.4 1.7
3 -2 -11 2.6 1.9
3 -2 -11 3.2 1.6
3 -2 -11 6.1 3.5
3 -2 -11 5.6 2.2
3 -2 -11 6.4 2.4
3 -2 -11 4.3 1.5
3 -2 -11 4.8 1.8
3 -2 -11 1.6 1.9
2 -2 -11 86.09 6.4
2 -2 -11 82.19 6.5
2 -2 -11 79.09 7.1
2 -2 -11 89.39 7.1
2 -2 -11 90.19 6.3
2 -2 -11 80.79 7
2 -2 -11 92.49 6.3
2 -2 -11 98.39 10.1
1 -2 -11 5.7 4.2
1 -2 -11 16.8 3.2
1 -2 -11 18.8 3.5
1 -2 -11 19.7 3.2
1 -2 -11 26 4
-1 2 11 18.1 2.6
-1 2 11 23.2 4.2
0 -2 -11 59.39 8.9
0 -2 -11 40.3 5
0 -2 -11 61.59 5.5
0 -2 -11 51.99 4.9
0 2 11 44.7 6.2
0 2 11 57.19 4.6
-1 -2 -11 25.1 3.4
-1 -2 -11 15 3.5
1 2 11 18.2 3
1 2 11 26.9 5.2
-2 -2 -11 -0.9 1.4
-2 -2 -11 0.7 1.5
2 2 11 -0.9 2.2
-3 -2 -11 1 1.6
3 2 11 2.6 2.2
6 -3 -11 -1.2 1.3
6 -3 -11 -1.4 2.2
6 -3 -11 0.5 1.2
5 -3 -11 0.3 1.4
5 -3 -11 -0.1 1.2
5 -3 -11 0.6 1.3
5 -3 -11 -0.7 1.9
5 -3 -11 -0.7 2.4
5 -3 -11 0.7 1.8
5 -3 -11 1.3 1.4
4 -3 -11 25.7 4.4
4 -3 -11 25.9 3.7
4 -3 -11 35 3.8
4 -3 -11 40.6 3.8
4 -3 -11 24.4 2.9
4 -3 -11 39 4.6
4 -3 -11 30.4 3.6
4 -3 -11 33.6 6.4
3 -3 -11 27 3.6
3 -3 -11 26.9 4.1
3 -3 -11 25.3 3.9
3 -3 -11 24.3 3.1
3 -3 -11 21.4 3.6
3 -3 -11 25.4 4.1
3 -3 -11 25.8 3
3 -3 -11 29.1 3.7
3 -3 -11 33.9 6.7
2 -3 -11 28.1 3.2
2 -3 -11 26.7 3.9
2 -3 -11 27.6 3.8
2 -3 -11 25.9 4
2 -3 -11 18.2 5.5
2 -3 -11 29 4.2
2 -3 -11 29.8 4
2 -3 -11 24.1 3.1
-2 3 11 21.2 3
1 -3 -11 27.2 6.4
1 -3 -11 45.4 5.2
1 -3 -11 53.09 5.2
1 -3 -11 50.29 4.8
1 -3 -11 40.1 4.6
-1 3 11 47.9 5.9
0 -3 -11 1 1.7
0 -3 -11 -1.1 1.5
0 -3 -11 6.3 3.6
0 -3 -11 1.8 1.9
0 3 11 5.8 2.8
0 3 11 1.9 1.6
0 3 11 0.7 1.7
-1 -3 -11 1.5 1.7
-1 -3 -11 3.8 1.9
1 3 11 2.3 1.6
1 3 11 -0.2 1.8
1 3 11 0 2.4
-2 -3 -11 43.6 4.1
2 3 11 39.5 5.5
6 -4 -11 -0.5 2.1
6 -4 -11 1.8 1.3
6 -4 -11 4.3 1.3
5 -4 -11 2.5 1.6
5 -4 -11 2.3 1.4
5 -4 -11 2.4 1.5
5 -4 -11 0.4 1.8
5 -4 -11 0.9 2.7
4 -4 -11 43.9 4.1
4 -4 -11 45.1 6.5
4 -4 -11 30.6 4.2
4 -4 -11 42.3 4.3
4 -4 -11 37.9 4.4
4 -4 -11 39.3 4.5
4 -4 -11 33.2 3.6
4 -4 -11 41 4.1
3 -4 -11 72.69 5.8
3 -4 -11 60.99 4.9
3 -4 -11 64.19 5.4
3 -4 -11 61.39 8.7
3 -4 -11 66.19 5.7
3 -4 -11 64.29 5.8
3 -4 -11 60.39 4.9
3 -4 -11 71.29 6
3 -4 -11 59.99 5.7
-3 4 11 64.89 5
2 -4 -11 3 3.8
2 -4 -11 12.8 2.2
2 -4 -11 14.1 2.8
2 -4 -11 11.1 2.6
2 -4 -11 9.6 2.8
2 -4 -11 15 2.8
2 -4 -11 11.5 2.7
2 -4 -11 13.5 2.9
2 -4 -11 12 2.3
-2 4 11 21.2 4.2
-2 4 11 10.6 2.2
1 -4 -11 6.6 2.1
1 -4 -11 1.1 2
1 -4 -11 4.7 2.2
1 -4 -11 0.8 3.6
1 -4 -11 2.7 2
-1 4 11 4.3 3
-1 4 11 7.2 1.9
-1 4 11 6.5 2
0 -4 -11 3.7 1.9
0 -4 -11 2.3 1.9
0 4 11 4.9 2.5
0 4 11 1.9 1.6
0 4 11 3 1.9
-1 -4 -11 2.8 1.5
1 4 11 0.7 2.1
1 4 11 0.5 2.5
5 -5 -11 66.49 7.1
5 -5 -11 65.79 4.9
5 -5 -11 68.39 5.3
5 -5 -11 76.09 5.1
4 -5 -11 8.3 2
4 -5 -11 15.2 2.7
4 -5 -11 9 3.8
4 -5 -11 12.1 2.2
4 -5 -11 12 2.1
-4 5 11 18.1 3.6
3 -5 -11 52.99 4.7
3 -5 -11 50.29 7.3
3 -5 -11 46.2 4.4
3 -5 -11 42.9 4.8
3 -5 -11 53.59 4.6
3 -5 -11 49.5 4.4
-3 5 11 51.49 4.2
-3 5 11 53.89 5.8
2 -5 -11 4.8 2.2
2 -5 -11 8.9 2.1
2 -5 -11 6.3 2
2 -5 -11 3.4 3.2
2 -5 -11 8.3 2
-2 5 11 8 2.9
-2 5 11 8.2 1.9
1 -5 -11 66.19 5.4
1 -5 -11 65.29 4.9
-1 5 11 64.59 4.9
0 6 -12 4.1 1.7
0 6 -12 0.8 1.2
0 -6 12 0.9 2.6
-1 6 -12 7.9 2.2
1 -6 12 8.2 3.7
-2 6 -12 0 1.6
2 -6 12 -2.1 3.1
-3 6 -12 63.19 5.7
3 -6 12 54.79 6.9
3 -6 12 49.6 4.2
4 -6 12 32.1 4.9
4 -6 12 26.7 2.9
2 5 -12 -0.5 1.5
-2 -5 12 -0.3 2.6
1 5 -12 24 3.6
1 5 -12 20.1 3.1
-1 -5 12 16 4.4
0 5 -12 6.9 3
0 5 -12 6.2 2.3
0 5 -12 7.3 2.6
0 -5 12 5.5 3.7
-1 5 -12 114.39 8
1 -5 12 96.79 9.6
1 -5 12 106.49 10.7
-2 5 -12 32.9 4.3
-2 5 -12 30.1 4.5
2 -5 12 29.6 5.9
2 -5 12 45.4 7.7
-3 5 -12 12.7 3.2
3 -5 12 18.7 4.9
3 -5 12 18.5 2.9
4 -5 12 2 2.9
4 -5 12 4.8 1.6
-5 5 -12 145.59 9.1
5 -5 12 140.39 8.2
5 -5 12 105.09 12.3
3 4 -12 2.9 1.9
-3 -4 12 4.4 2.8
2 4 -12 4.4 2.4
2 4 -12 6.3 2.5
-2 -4 12 11.4 3.9
1 4 -12 3.7 2.2
1 4 -12 5.4 2.7
1 4 -12 3.1 1.8
-1 -4 12 2.1 3.7
0 4 -12 7.9 2.8
0 4 -12 2.6 1.9
0 -4 12 6.4 3.5
-1 4 -12 19.5 3.4
1 -4 12 21.6 5.4
-2 4 -12 24.6 4.1
-2 4 -12 29.6 3.8
2 -4 12 22.8 6.1
-3 4 -12 250.97 14.9
3 -4 12 230.28 13.9
-4 4 -12 5.9 2.6
-4 4 -12 7 2.2
4 -4 12 7.3 1.9
-5 4 -12 14.1 2.8
5 -4 12 15.9 2.4
4 3 -12 2.2 1.5
4 3 -12 0.6 1.9
-4 -3 12 1.4 2.6
3 3 -12 5.6 2.4
3 3 -12 11.8 3
-3 -3 12 9.7 3.8
2 3 -12 84.19 7.6
2 3 -12 94.59 7.8
-2 -3 12 82.59 9.2
1 3 -12 1.5 1.6
1 3 -12 2.5 1.9
1 3 -12 -0.8 2.1
0 3 -12 103.89 7.5
0 3 -12 83.69 7.6
-1 3 -12 608.64 33.7
-1 3 -12 640.64 33.8
-2 3 -12 182.48 11.4
-2 3 -12 169.48 11.5
-3 3 -12 2.2 1.9
-3 3 -12 0.3 2.2
3 -3 12 1.7 1.5
-4 3 -12 61.89 5.1
-4 3 -12 51.09 5.5
4 -3 12 53.39 4.8
-5 3 -12 6.9 2.1
5 -3 12 5.6 1.6
4 2 -12 4.9 2.4
4 2 -12 20 3.1
3 2 -12 14.9 3.3
3 2 -12 19.6 3.9
2 2 -12 70.69 6.9
2 2 -12 55.69 5.7
2 2 -12 74.89 6.6
1 2 -12 630.74 34.1
1 2 -12 625.84 34.1
1 2 -12 624.74 34
0 2 -12 27.2 3.6
-1 2 -12 240.48 14.6
-1 2 -12 240.68 14.4
-2 2 -12 31 3.9
-3 2 -12 171.78 10.8
-3 2 -12 169.48 11.4
3 -2 12 161.38 10.6
-4 2 -12 346.67 19.4
-4 2 -12 349.57 20.1
4 -2 12 347.67 19.4
-5 2 -12 -1.5 1.3
5 1 -12 13.4 2.5
4 1 -12 2.1 2.2
4 1 -12 5.2 2.3
4 1 -12 4.3 2
4 1 -12 7.4 2.4
3 1 -12 16.4 3.7
3 1 -12 22 4
2 1 -12 74.29 6.6
2 1 -12 71.69 6.3
2 1 -12 80.89 7.1
1 1 -12 845.02 44.1
1 1 -12 817.82 44
1 1 -12 831.72 44.1
-1 1 -12 351.56 20.4
-1 1 -12 381.96 20.9
-2 1 -12 364.76 20.2
2 -1 12 352.86 20.1
-3 1 -12 74.49 5.9
-3 1 -12 68.99 6.3
3 -1 12 69.69 5.9
3 -1 12 64.09 7.8
-4 1 -12 82.79 6.3
4 -1 12 62.19 7.1
5 0 -12 4.6 2
4 0 -12 40.7 4.6
4 0 -12 41.1 4.8
4 0 -12 46.4 4.5
4 0 -12 37.4 4.9
3 0 -12 101.69 8
3 0 -12 101.19 7
3 0 -12 90.09 7.8
2 0 -12 28.8 4.4
2 0 -12 29.7 4
2 0 -12 23.9 3.8
1 0 -12 89.29 6.8
1 0 -12 64.99 6
1 0 -12 66.99 6
0 0 -12 60.29 9.6
0 0 -12 64.59 5.5
0 0 -12 66.89 5.2
0 0 12 50.89 7.3
-1 0 -12 157.38 15.5
-1 0 -12 150.98 10.2
-1 0 -12 156.78 9.9
1 0 12 150.48 11.9
-2 0 -12 169.38 11.3
-2 0 -12 165.88 10.8
2 0 12 182.18 13.3
-3 0 -12 21.4 3.6
-3 0 -12 27.5 3.2
3 0 12 17.6 4.4
-4 0 -12 -1.6 1.3
4 0 12 -1.3 2.1
5 -1 -12 1.5 1.9
5 -1 -12 1.2 1.6
4 -1 -12 27.3 4.1
4 -1 -12 16.9 3.4
4 -1 -12 12 4.3
4 -1 -12 13 2.9
4 -1 -12 9.7 2.2
3 -1 -12 1.3 1.8
3 -1 -12 4.5 3.9
3 -1 -12 6.1 2.3
3 -1 -12 13.6 3.2
3 -1 -12 7.3 2
3 -1 -12 5.5 2.2
2 -1 -12 45.6 5.2
2 -1 -12 38.2 4.4
2 -1 -12 37.3 4.6
2 -1 -12 47.9 7.7
1 -1 -12 127.89 9.3
1 -1 -12 134.29 9.1
1 -1 -12 123.29 9.4
1 -1 -12 119.29 12.7
-1 1 12 130.59 9.9
0 -1 -12 328.37 17.6
0 -1 -12 299.97 17.9
0 -1 -12 307.67 22.2
0 1 12 293.87 19.2
-1 -1 -12 56.99 9.9
-1 -1 -12 62.19 5.3
1 1 12 65.29 7.5
-2 -1 -12 2.4 1.8
-2 -1 -12 -1 1.3
2 1 12 0.5 2.2
-3 -1 -12 -0.2 1.6
3 1 12 1.6 2.2
6 -2 -12 24.8 2.7
6 -2 -12 21.6 4.4
5 -2 -12 6.2 1.9
5 -2 -12 4.9 1.7
5 -2 -12 4.7 2
5 -2 -12 6.1 1.8
5 -2 -12 4.7 2.9
4 -2 -12 42.1 3.9
4 -2 -12 30 3.5
4 -2 -12 37 4
4 -2 -12 43.6 4.9
4 -2 -12 49.2 5.2
4 -2 -12 51.39 7.4
4 -2 -12 45 4.2
4 -2 -12 48.1 4.5
3 -2 -12 12.9 2.4
3 -2 -12 12.9 3.1
3 -2 -12 16 2.6
3 -2 -12 14.1 3
3 -2 -12 10.5 2.7
3 -2 -12 10.9 2.1
3 -2 -12 5.9 3.8
3 -2 -12 12.6 2.6
3 -2 -12 8.9 2.4
2 -2 -12 121.69 8.8
2 -2 -12 122.49 12.3
2 -2 -12 113.69 8.3
2 -2 -12 118.69 8.8
2 -2 -12 120.29 8.8
-2 2 12 121.19 7.5
1 -2 -12 1.1 2.1
1 -2 -12 2.3 2
1 -2 -12 2.9 2.4
1 -2 -12 0.9 4.1
-1 2 12 3.5 2.2
-1 2 12 3.6 1.6
0 -2 -12 49.8 5
0 -2 -12 43.2 8.7
0 -2 -12 46 4.5
0 2 12 38.3 5.7
-1 -2 -12 10.2 2.3
1 2 12 11.9 3.5
-2 -2 -12 17.1 3.1
2 2 12 22.8 4.3
5 -3 -12 15.3 2.3
5 -3 -12 8.6 2
5 -3 -12 8.9 3.3
5 -3 -12 6.6 2.2
5 -3 -12 6.4 2.1
4 -3 -12 18.4 4.8
4 -3 -12 44.7 4.6
4 -3 -12 34.8 4.6
4 -3 -12 33.2 3.6
4 -3 -12 40 3.8
4 -3 -12 35.3 3.8
4 -3 -12 37.6 3.9
3 -3 -12 11.3 2.7
3 -3 -12 14.7 2.9
3 -3 -12 19.7 3.5
3 -3 -12 10.2 2.7
3 -3 -12 15.5 3.1
3 -3 -12 8.9 2.1
3 -3 -12 10.3 2
3 -3 -12 7.8 3.7
3 -3 -12 8.3 1.9
2 -3 -12 26.1 3.8
2 -3 -12 25.1 3.6
2 -3 -12 21.6 3.5
2 -3 -12 21.4 3.5
2 -3 -12 19.9 3.5
2 -3 -12 25.1 6.1
-2 3 12 27.1 4.5
-2 3 12 31.6 3.4
1 -3 -12 23.1 3.6
1 -3 -12 12.5 2.8
1 -3 -12 31.4 6.7
1 -3 -12 18.2 2.9
-1 3 12 19.4 4.3
-1 3 12 18.9 3
-1 3 12 21.8 3
0 -3 -12 3.3 1.7
0 -3 -12 -1.3 2.2
0 -3 -12 -2.8 3.4
0 -3 -12 -0.2 1.4
0 3 12 -0.6 1.7
0 3 12 -3.1 2
1 3 12 0 2
5 -4 -12 8.2 1.8
5 -4 -12 6.2 1.9
5 -4 -12 7.9 1.8
5 -4 -12 7.9 3
4 -4 -12 11.9 4.1
4 -4 -12 16.3 2.7
4 -4 -12 12.7 2.5
4 -4 -12 12.2 2.6
4 -4 -12 17.7 3
4 -4 -12 12.1 2.3
-4 4 12 17.3 2.5
3 -4 -12 -2 1.6
3 -4 -12 -1.6 1.5
3 -4 -12 -0.8 2.9
3 -4 -12 0.8 1.6
3 -4 -12 1.6 1.8
3 -4 -12 -5 1.9
3 -4 -12 -1.1 1.3
-3 4 12 1.5 1.5
-3 4 12 2.3 1.9
2 -4 -12 23.5 4.3
2 -4 -12 25.9 3.6
2 -4 -12 24.6 3.8
2 -4 -12 26.8 3.6
2 -4 -12 37.8 6.8
2 -4 -12 28.1 3.5
-2 4 12 22.9 4.7
-2 4 12 24.4 3.2
-2 4 12 29.9 3.3
1 -4 -12 6.3 2
1 -4 -12 3.8 1.7
1 -4 -12 0.4 3.3
-1 4 12 5.9 1.8
-1 4 12 2.4 2.6
-1 4 12 4.9 1.9
0 4 12 15.1 3.5
0 4 12 10.8 2.1
4 -5 -12 21.5 3
4 -5 -12 22.3 2.5
4 -5 -12 14.5 3.7
4 -5 -12 16.2 3.6
-4 5 12 29.1 3.7
3 -5 -12 2.5 1.6
3 -5 -12 2.6 1.5
3 -5 -12 2.6 1.5
3 -5 -12 3 2.7
3 -5 -12 2.2 1.4
-3 5 12 0.8 1.3
-3 5 12 5.1 2.2
2 -5 -12 0.5 1.3
2 -5 -12 0.1 1.3
2 -5 -12 0.4 1.8
-2 5 12 -0.7 1.7
-2 5 12 -0.8 2.2
-1 6 -13 7.4 1.9
1 -6 13 2.7 2.9
-2 6 -13 5 1.7
2 -6 13 2.4 2.9
3 -6 13 1 2.6
1 5 -13 1.9 1.7
1 5 -13 1 1.3
-1 -5 13 0.5 2.8
0 5 -13 29.2 3.7
0 5 -13 42 4.4
0 -5 13 38.3 6.4
-1 5 -13 0.3 1.5
1 -5 13 0 3.3
-2 5 -13 -0.3 2.1
-2 5 -13 1 1.5
2 -5 13 3.6 3.2
3 -5 13 12.4 2.7
3 -5 13 7.7 3.6
-4 5 -13 0.7 1.9
4 -5 13 0.1 1.2
2 4 -13 -0.7 1.7
-2 -4 13 0.5 2.9
1 4 -13 21.4 3.6
1 4 -13 16.7 3.3
1 4 -13 10.5 2.5
-1 -4 13 22.5 5.1
0 4 -13 65.49 6
0 4 -13 80.59 6.7
0 -4 13 67.39 9.1
-1 4 -13 4.7 1.9
-2 4 -13 52.59 5.3
-2 4 -13 59.89 5.3
-3 4 -13 14.5 3.3
-3 4 -13 16.4 3.1
3 -4 13 21.7 3
-4 4 -13 10.5 2.7
4 -4 13 5.6 1.8
3 3 -13 6.7 2.4
2 3 -13 60.69 5.9
2 3 -13 51.39 5.5
1 3 -13 13.6 3.3
1 3 -13 21.4 3.6
1 3 -13 18.2 3.5
0 3 -13 1.9 1.6
0 3 -13 2.8 2.9
-1 3 -13 120.49 8.7
-2 3 -13 51.99 5.3
-2 3 -13 69.49 5.6
-3 3 -13 14.3 2.9
-3 3 -13 21.5 3.9
3 -3 13 19.5 3.2
-4 3 -13 2.8 1.9
4 -3 13 3.1 1.4
4 2 -13 13.1 2.6
4 2 -13 11.9 2.5
3 2 -13 4.2 2.4
3 2 -13 8 2.6
2 2 -13 98.29 7.6
2 2 -13 100.49 8
2 2 -13 103.89 8.3
1 2 -13 121.79 9
1 2 -13 133.29 9.5
1 2 -13 122.79 9
0 2 -13 367.16 21.2
-1 2 -13 13.2 2.8
-1 2 -13 12.9 2.8
-2 2 -13 0.8 1.4
-3 2 -13 13.3 2.7
-3 2 -13 14.4 3.2
3 -2 13 11.4 2.5
-4 2 -13 56.89 4.9
4 -2 13 51.69 4.5
4 1 -13 34.1 4.5
4 1 -13 39.1 3.9
3 1 -13 152.88 10.7
3 1 -13 151.28 10.7
2 1 -13 270.07 16.8
2 1 -13 294.37 17.3
2 1 -13 285.97 17.2
1 1 -13 18.4 3.5
1 1 -13 20.4 3.8
1 1 -13 27.8 3.9
0 1 -13 9.3 2.7
-1 1 -13 1.7 1.7
-1 1 -13 3.3 1.8
-2 1 -13 237.38 14.1
-3 1 -13 10 2.1
-3 1 -13 9.9 2.6
4 -1 13 14.2 3.4
5 0 -13 26.2 3.6
5 0 -13 33.3 3.4
4 0 -13 3.3 1.9
4 0 -13 2.9 1.9
4 0 -13 0.2 2.1
3 0 -13 153.38 10.5
3 0 -13 161.68 10.5
3 0 -13 132.99 9.6
2 0 -13 254.27 15.2
2 0 -13 245.78 15.2
2 0 -13 234.38 14.7
1 0 -13 125.09 9.5
1 0 -13 137.09 9.3
0 0 -13 912.71 57.69
0 0 -13 1143.59 53.99
-1 0 -13 2.1 2.1
-1 0 -13 1.5 1.6
1 0 13 2.7 2.7
-2 0 -13 35.8 3.8
2 0 13 32.4 5.4
-3 0 -13 3.1 1.8
3 0 13 3.4 2.6
5 -1 -13 102.99 6.7
5 -1 -13 90.99 6.9
4 -1 -13 55.59 4.9
4 -1 -13 55.39 5.5
4 -1 -13 59.99 7.8
4 -1 -13 54.59 5.6
3 -1 -13 45.6 7.6
3 -1 -13 39.2 4.7
3 -1 -13 35.6 4.3
3 -1 -13 37.1 4.9
2 -1 -13 144.09 9.7
2 -1 -13 131.39 13.4
2 -1 -13 144.39 9.9
2 -1 -13 129.59 9.7
1 -1 -13 34.6 4.3
1 -1 -13 20.7 6.3
1 -1 -13 33 4.7
-1 1 13 35.4 5.1
0 -1 -13 218.38 13.3
0 -1 -13 202.08 18
0 -1 -13 228.58 13.9
0 1 13 242.28 15.6
-1 -1 -13 60.79 5.2
1 1 13 59.39 7.1
-2 -1 -13 7 2.1
-2 -1 -13 7.8 2.1
2 1 13 8.2 3
-3 -1 -13 34.5 3.4
3 1 13 34 4.6
5 -2 -13 11.2 2.2
5 -2 -13 7.1 3.4
5 -2 -13 9.5 2.2
4 -2 -13 92.39 7.1
3 -2 -13 8.2 2.5
3 -2 -13 6.3 2.6
3 -2 -13 7.7 2.2
3 -2 -13 8.7 4
3 -2 -13 9.3 2.7
2 -2 -13 289.37 16.7
2 -2 -13 265.87 16.8
2 -2 -13 276.37 20.8
2 -2 -13 282.87 16.9
-2 2 13 301.27 18
1 -2 -13 48.1 4.8
1 -2 -13 42.4 8.5
-1 2 13 42.5 5.8
0 -2 -13 23.1 6.2
0 -2 -13 15.2 2.7
0 -2 -13 17.5 2.9
0 2 13 18.7 4.1
-1 -2 -13 20.8 3
1 2 13 15.5 3.7
-2 -2 -13 3.3 1.7
2 2 13 1.3 2.1
5 -3 -13 -0.8 1
5 -3 -13 -1.1 1.2
5 -3 -13 0 1.5
5 -3 -13 2.8 2.3
4 -3 -13 123.09 8
4 -3 -13 140.69 8.8
4 -3 -13 131.39 11.2
4 -3 -13 119.89 9.7
4 -3 -13 133.49 8.3
3 -3 -13 49.99 4.2
3 -3 -13 50.19 4.6
3 -3 -13 46.1 4.6
3 -3 -13 44.5 4.3
3 -3 -13 36.4 4.3
3 -3 -13 42.9 4.5
3 -3 -13 46.7 7.4
-3 3 13 35.5 3.8
2 -3 -13 8.6 2.1
2 -3 -13 4.7 3.9
2 -3 -13 13 2.6
2 -3 -13 15.1 2.9
2 -3 -13 5.5 2.3
2 -3 -13 11.7 2.4
-2 3 13 9.3 2
-2 3 13 9.4 2.7
1 -3 -13 1.3 1.6
1 -3 -13 3.2 3.4
-1 3 13 -0.6 1.7
-1 3 13 0.3 1.6
0 3 13 2.5 2.1
1 3 13 17.1 3.5
4 -4 -13 5.5 1.6
4 -4 -13 5.5 1.9
4 -4 -13 2.2 2.9
4 -4 -13 8.2 1.9
-4 4 13 7.4 2.3
3 -4 -13 16.7 2.9
3 -4 -13 18.5 2.7
3 -4 -13 23.9 3.2
3 -4 -13 17.7 4.3
3 -4 -13 24.5 3
-3 4 13 32.1 4.2
2 -4 -13 48.7 4.1
2 -4 -13 34.1 4.1
2 -4 -13 44 6.8
2 -4 -13 46.7 4.1
-2 4 13 49.6 3.8
-2 4 13 52.99 5.5
1 -4 -13 2.8 1.4
-1 4 13 1.1 2.2
0 5 -14 1.1 1.6
0 5 -14 -1.3 1.2
0 -5 14 -0.3 2.9
-1 5 -14 3.5 1.6
1 -5 14 2.1 3.2
-2 5 -14 16.9 2.9
2 4 -14 7.3 2.1
1 4 -14 22.4 3.5
1 4 -14 26.2 3.4
0 4 -14 8.7 2.5
0 4 -14 3 1.9
-1 4 -14 43.8 4.6
-2 4 -14 56.09 5
3 3 -14 4.1 1.9
2 3 -14 1.1 1.6
2 3 -14 3.2 2
1 3 -14 26.1 3.7
1 3 -14 23.1 3.7
1 3 -14 24 3.9
0 3 -14 34.8 4.3
-1 3 -14 12.4 2.6
-2 3 -14 1.6 1.6
3 -3 14 25.7 3.3
-4 3 -14 41.4 4
4 -3 14 39.2 3.4
3 2 -14 1.9 2
2 2 -14 0.6 1.7
2 2 -14 0.9 2
2 2 -14 5.3 2.1
1 2 -14 30.3 4.6
1 2 -14 32.1 4.1
0 2 -14 5.3 2
-1 2 -14 10.3 2.5
-1 2 -14 12 3.6
-2 2 -14 9.2 2.3
-3 2 -14 1.8 1.8
3 -2 14 -1.7 1.4
4 1 -14 38.1 4.2
3 1 -14 95.99 7.4
3 1 -14 88.89 7.3
2 1 -14 13.8 2.9
2 1 -14 17 3.5
2 1 -14 13.2 2.8
1 1 -14 -0.2 1.5
1 1 -14 0.9 2
0 1 -14 53.09 5.2
-1 1 -14 -0.8 1.4
-1 1 -14 -0.6 1.4
-2 1 -14 2.6 1.5
-3 1 -14 5.7 2.2
4 0 -14 32.5 4.1
3 0 -14 20.6 3.4
3 0 -14 19.6 3.5
3 0 -14 11.9 2.7
2 0 -14 19.8 3.7
2 0 -14 12.3 2.8
2 0 -14 18.2 3.2
1 0 -14 -0.3 2.1
1 0 -14 1 1.6
0 0 -14 12.3 2.6
-1 0 -14 2.4 1.5
1 0 14 5.2 2.7
2 0 14 16.3 3.7
-3 0 -14 -1.8 1.4
3 0 14 2.5 2.1
4 -1 -14 23.7 3.7
4 -1 -14 26.5 3
3 -1 -14 29.7 4
3 -1 -14 20.5 5.5
3 -1 -14 21.9 3.7
3 -1 -14 30.4 3.8
2 -1 -14 78.29 6.3
2 -1 -14 75.99 6.4
2 -1 -14 67.59 6
2 -1 -14 64.59 10.1
-2 1 14 73.19 7.2
1 -1 -14 2.4 1.7
1 -1 -14 4.4 4.4
-1 1 14 -2.2 2.1
0 -1 -14 50.09 4.7
0 -1 -14 41.8 9
0 1 14 38.3 5.6
-1 -1 -14 0.6 1.7
1 1 14 -1 2.1
2 1 14 -0.5 2.2
4 -2 -14 79.39 5.8
4 -2 -14 74.89 5.2
4 -2 -14 52.79 7.7
3 -2 -14 2.6 1.8
3 -2 -14 5.2 2
3 -2 -14 1.4 3.5
-3 2 14 7.2 2.6
2 -2 -14 17 5.4
2 -2 -14 35.4 5.3
2 -2 -14 29.8 3.7
2 -2 -14 37.8 4.1
-2 2 14 37.2 5
1 -2 -14 10.7 4.7
1 -2 -14 11.9 2.7
-1 2 14 13.6 3.3
0 -2 -14 3.9 1.8
0 2 14 11.7 3.3
1 2 14 10.4 2.8
4 -3 -14 71.69 5.4
4 -3 -14 77.99 8.1
4 -3 -14 81.59 5.9
-4 3 14 95.29 6.9
3 -3 -14 16.6 4.5
3 -3 -14 17.3 2.8
3 -3 -14 17.8 2.7
-3 3 14 23.8 3.8
2 -3 -14 3.6 2.9
2 -3 -14 -0.4 1.2
2 -3 -14 -0.7 1.4
-2 3 14 -0.3 1.8
1 -3 -14 12.8 2.2
1 -3 -14 11.1 4.3
-1 3 14 18.5 3.8
0 3 14 18 3.8
1 4 -15 3 1.6
1 4 -15 3.5 1.6
0 4 -15 2.2 1.7
-1 4 -15 3.2 1.6
-2 4 -15 4.5 1.8
2 3 -15 109.09 7.6
1 3 -15 1.7 1.6
1 3 -15 2 1.8
0 3 -15 1.3 1.4
-1 3 -15 28.5 3.7
3 2 -15 6.2 2.1
2 2 -15 28.3 3.4
2 2 -15 23.9 3.7
1 2 -15 148.59 9.8
1 2 -15 147.79 9.9
0 2 -15 23.3 3.5
-1 2 -15 7.8 2
3 1 -15 68.09 5.7
2 1 -15 6.7 2.3
2 1 -15 1.6 1.6
1 1 -15 95.19 7.2
1 1 -15 95.69 7.2
0 1 -15 0 1.4
-1 1 -15 50.99 4.7
4 0 -15 3.8 1.7
3 0 -15 14.2 2.6
3 0 -15 21.7 3.4
2 0 -15 -1 1.5
2 0 -15 -2.9 1.7
1 0 -15 17.3 3
0 0 -15 -1.1 1.3
2 0 15 7.2 2.7
4 -1 -15 28.8 3.5
3 -1 -15 25.1 3.3
3 -1 -15 34.6 3.7
2 -1 -15 102.39 10.1
2 -1 -15 97.89 7.1
2 -1 -15 96.99 7
-2 1 15 92.59 8.1
1 -1 -15 0.1 1.4
1 -1 -15 -4.5 3.8
-1 1 15 -0.7 2.2
0 -1 -15 3.8 1.5
0 1 15 0 2.4
1 1 15 2.5 2.3
3 -2 -15 21.3 2.9
3 -2 -15 18.3 2.8
3 -2 -15 17.6 4.8
-3 2 15 27.5 4.1
2 -2 -15 66.49 8
2 -2 -15 74.89 5.6
2 -2 -15 76.79 5.9
-2 2 15 88.69 7.2
1 -2 -15 13 4.6
1 -2 -15 14.7 2.6
-1 2 15 16.2 3.6
0 2 15 3.7 2.5
1 3 -16 1 1.5
1 3 -16 0.9 1.4
0 3 -16 12.1 2.2
-1 3 -16 2.2 1.3
2 2 -16 1 1.6
1 2 -16 8.6 2.4
1 2 -16 9.6 2.2
0 2 -16 0.3 1.3
-1 2 -16 8.8 2
2 1 -16 2.4 1.6
2 1 -16 8.3 2.2
1 1 -16 8.8 2.1
0 1 -16 0 1.4
3 0 -16 12.6 2.2
2 0 -16 0.5 1.7
2 0 -16 -1.4 1.2
1 0 -16 6.4 1.9
0 0 -16 4.1 1.6
2 -1 -16 -1 1.2
2 -1 -16 0.7 1.2
1 -1 -16 8.8 2
-1 1 16 9.1 2.7
0 1 16 0.6 2.3
