#------------------------------------------------------------------------------
#$Date: 2022-06-24 11:16:43 +0300 (Fri, 24 Jun 2022) $
#$Revision: 276236 $
#$URL: file:///home/coder/svn-repositories/cod/cif/8/10/55/8105505.cif $
#------------------------------------------------------------------------------
#
# This file is available in the Crystallography Open Database (COD),
# http://www.crystallography.net/
#
# All data on this site have been placed in the public domain by the
# contributors.
#
data_8105505
loop_
_publ_author_name
'Lee, See Mun'
'Lo, Kong Mun'
'Tiekink, Edward R.T.'
_publ_section_title
;
 Crystal structure of
 (2Z)-2-amino-3-[(E)-[(2,4-dihydroxyphenyl)methylidene]-amino]but-2-enedinitrile,
 C11H8N4O2
;
_journal_issue                   6
_journal_name_full
'Zeitschrift f\"ur Kristallographie - New Crystal Structures'
_journal_page_first              1499
_journal_page_last               1501
_journal_paper_doi               10.1515/ncrs-2020-0369
_journal_volume                  235
_journal_year                    2020
_chemical_formula_moiety         'C11 H8 N4 O2'
_chemical_formula_sum            'C11 H8 N4 O2'
_chemical_formula_weight         228.21
_space_group_crystal_system      triclinic
_space_group_IT_number           2
_space_group_name_Hall           '-P 1'
_space_group_name_H-M_alt        'P -1'
_atom_sites_solution_hydrogens   mixed
_atom_sites_solution_primary     direct
_atom_sites_solution_secondary   difmap
_audit_creation_method           SHELXL-2018/3
_cell_angle_alpha                88.218(4)
_cell_angle_beta                 76.489(5)
_cell_angle_gamma                77.575(4)
_cell_formula_units_Z            2
_cell_length_a                   6.9017(4)
_cell_length_b                   6.9496(2)
_cell_length_c                   11.2372(7)
_cell_measurement_reflns_used    4750
_cell_measurement_temperature    100(2)
_cell_measurement_theta_max      76.2440
_cell_measurement_theta_min      4.0360
_cell_volume                     511.69(5)
_computing_cell_refinement       'CrysAlisPro [1]'
_computing_data_collection       'CrysAlisPro [1]'
_computing_data_reduction        'CrysAlisPro [1]'
_computing_molecular_graphics    'ORTEP-3 for Windows [4]'
_computing_publication_material  'SHELXL-2018/3 [3]'
_computing_structure_refinement  'SHELXL-2018/3 [3]'
_computing_structure_solution    'SHELXT 2014/5 [2]'
_diffrn_ambient_environment      N~2~
_diffrn_ambient_temperature      100(2)
_diffrn_detector                 'CCD plate'
_diffrn_detector_area_resol_mean 5.2558
_diffrn_detector_type            AtlasS2
_diffrn_measured_fraction_theta_full 0.999
_diffrn_measured_fraction_theta_max 0.999
_diffrn_measurement_device       'four-circle diffractometer'
_diffrn_measurement_device_type  'XtaLAB Synergy, Dualflex, AtlasS2'
_diffrn_measurement_method       '\w scans'
_diffrn_radiation_monochromator  mirror
_diffrn_radiation_type           CuK\a
_diffrn_radiation_wavelength     1.54184
_diffrn_reflns_av_R_equivalents  0.0507
_diffrn_reflns_av_unetI/netI     0.0296
_diffrn_reflns_Laue_measured_fraction_full 0.999
_diffrn_reflns_Laue_measured_fraction_max 0.999
_diffrn_reflns_limit_h_max       8
_diffrn_reflns_limit_h_min       -8
_diffrn_reflns_limit_k_max       8
_diffrn_reflns_limit_k_min       -6
_diffrn_reflns_limit_l_max       13
_diffrn_reflns_limit_l_min       -13
_diffrn_reflns_number            11895
_diffrn_reflns_point_group_measured_fraction_full 0.999
_diffrn_reflns_point_group_measured_fraction_max 0.999
_diffrn_reflns_theta_full        67.078
_diffrn_reflns_theta_max         67.078
_diffrn_reflns_theta_min         4.047
_diffrn_source                   'micro-focus sealed X-ray tube'
_exptl_absorpt_coefficient_mu    0.897
_exptl_absorpt_correction_T_max  1.000
_exptl_absorpt_correction_T_min  0.836
_exptl_absorpt_correction_type   gaussian
_exptl_absorpt_process_details   'CrysAlisPro [1]'
_exptl_crystal_colour            brown
_exptl_crystal_density_diffrn    1.481
_exptl_crystal_description       prism
_exptl_crystal_F_000             236
_exptl_crystal_size_max          0.105
_exptl_crystal_size_mid          0.039
_exptl_crystal_size_min          0.029
_refine_diff_density_max         0.220
_refine_diff_density_min         -0.314
_refine_diff_density_rms         0.062
_refine_ls_extinction_coef       .
_refine_ls_extinction_method     none
_refine_ls_goodness_of_fit_ref   1.046
_refine_ls_hydrogen_treatment    mixed
_refine_ls_matrix_type           full
_refine_ls_number_parameters     166
_refine_ls_number_reflns         1830
_refine_ls_number_restraints     4
_refine_ls_restrained_S_all      1.046
_refine_ls_R_factor_all          0.0463
_refine_ls_R_factor_gt           0.0417
_refine_ls_shift/su_max          0.000
_refine_ls_shift/su_mean         0.000
_refine_ls_structure_factor_coef Fsqd
_refine_ls_weighting_details
'w=1/[\s^2^(Fo^2^)+(0.0802P)^2^+0.0970P] where P=(Fo^2^+2Fc^2^)/3'
_refine_ls_weighting_scheme      calc
_refine_ls_wR_factor_gt          0.1150
_refine_ls_wR_factor_ref         0.1200
_reflns_Friedel_coverage         0.000
_reflns_Friedel_fraction_full    .
_reflns_Friedel_fraction_max     .
_reflns_number_gt                1616
_reflns_number_total             1830
_reflns_threshold_expression     'I > 2\s(I)'
_cod_data_source_file            suppl_ncrs-2020-0369_suppl.cif
_cod_data_source_block           shelx
_cod_database_code               8105505
_shelx_shelxl_version_number     2018/3
_shelx_space_group_comment
;
The symmetry employed for this shelxl refinement is uniquely defined
by the following loop, which should always be used as a source of
symmetry information in preference to the above space-group names.
They are only intended as comments.
;
_shelx_estimated_absorpt_t_min   0.912
_shelx_estimated_absorpt_t_max   0.974
_shelx_res_file
;
TITL  exp_1414
    shelx.res
    created by SHELXL-2018/3 at 13:23:29 on 09-Jul-2020
CELL  1.54184   6.9017   6.9496  11.2372   88.218   76.489   77.575
ZERR        2   0.0004   0.0002   0.0007    0.004    0.005    0.004
LATT  1
SFAC  C    H    N    O
UNIT  22   16   8    4
MERG  2
FMAP  2
PLAN  5
SIZE  0.029   0.039   0.105
ACTA
BOND   $H
CONF
L.S.  18
TEMP  -173
DFIX  0.84 0.01 O1 H1o O2 H2o
DFIX  0.88 0.01 N2 H1n N2 H2n
WGHT    0.080200    0.097000
FVAR       0.71289
O1    4    0.722800    0.196930    0.590532    11.00000    0.02792    0.01163 =
         0.01833    0.00110    0.00365   -0.00269
H1O   2    0.646161    0.263234    0.652650    11.00000   -1.50000
O2    4    1.095846    0.251511    0.180782    11.00000    0.02585    0.01242 =
         0.01770   -0.00418    0.00326   -0.00351
H2O   2    1.104710    0.130359    0.178534    11.00000   -1.50000
N1    3    0.536411    0.547283    0.716490    11.00000    0.01825    0.01186 =
         0.01637   -0.00241   -0.00089   -0.00228
N2    3    0.300232    0.417334    0.942316    11.00000    0.03233    0.01171 =
         0.01591   -0.00072    0.00178   -0.00553
H1N   2    0.358227    0.334119    0.880397    11.00000   -1.20000
H2N   2    0.234350    0.390083    1.017128    11.00000   -1.20000
N3    3    0.423360    1.045888    0.800615    11.00000    0.03552    0.01341 =
         0.02278   -0.00356    0.00308   -0.00577
N4    3    0.154113    0.859209    1.099475    11.00000    0.03576    0.01642 =
         0.02135   -0.00356    0.00403   -0.00715
C1    1    0.427052    0.673265    0.816023    11.00000    0.01931    0.01068 =
         0.01697   -0.00260   -0.00288   -0.00139
C2    1    0.322012    0.604156    0.921459    11.00000    0.02085    0.01077 =
         0.01742   -0.00367   -0.00306   -0.00155
C3    1    0.423015    0.880658    0.809575    11.00000    0.02206    0.01588 =
         0.01678   -0.00219   -0.00013   -0.00314
C4    1    0.226640    0.746159    1.020391    11.00000    0.02432    0.01207 =
         0.02008    0.00051   -0.00180   -0.00548
C5    1    0.614093    0.627447    0.616259    11.00000    0.01671    0.01169 =
         0.01853   -0.00193   -0.00316   -0.00262
AFIX  43
H5    2    0.589850    0.767242    0.614718    11.00000   -1.20000
AFIX   0
C6    1    0.734687    0.519917    0.506858    11.00000    0.01565    0.01279 =
         0.01678   -0.00195   -0.00280   -0.00304
C7    1    0.786910    0.311716    0.496332    11.00000    0.01680    0.01343 =
         0.01740    0.00053   -0.00339   -0.00376
C8    1    0.908223    0.219087    0.388259    11.00000    0.01888    0.00967 =
         0.02043   -0.00116   -0.00284   -0.00200
AFIX  43
H8    2    0.944870    0.079337    0.381885    11.00000   -1.20000
AFIX   0
C9    1    0.975617    0.333134    0.289316    11.00000    0.01640    0.01536 =
         0.01758   -0.00359   -0.00180   -0.00324
C10   1    0.924339    0.538612    0.297024    11.00000    0.02071    0.01472 =
         0.01727    0.00155   -0.00216   -0.00609
AFIX  43
H10   2    0.970579    0.615217    0.229059    11.00000   -1.20000
AFIX   0
C11   1    0.805685    0.627962    0.404813    11.00000    0.01943    0.01038 =
         0.01946   -0.00193   -0.00274   -0.00356
AFIX  43
H11   2    0.770611    0.767811    0.410302    11.00000   -1.20000

AFIX   0
HKLF    4




REM   exp_1414
REM wR2 = 0.1200, GooF = S = 1.046, Restrained GooF = 1.046 for all data
REM R1 = 0.0417 for 1616 Fo > 4sig(Fo) and 0.0463 for all 1830 data
REM 166 parameters refined using 4 restraints

END

WGHT      0.0731      0.1129

REM Highest difference peak  0.220,  deepest hole -0.314,  1-sigma level  0.062
Q1    1   1.2569  0.2370  0.1792  11.00000  0.05    0.22
Q2    1   0.9349  0.3022  0.1834  11.00000  0.05    0.22
Q3    1   0.8852  0.4457  0.2837  11.00000  0.05    0.22
Q4    1   1.0209  0.4526  0.3014  11.00000  0.05    0.20
Q5    1   0.2573  0.7180  0.8258  11.00000  0.05    0.20
;
_shelx_hkl_file
;
   0   0  -1   37.23    2.48
   0   0  -2    0.26    0.59
   0   0  -3   56.59    5.60
   0   0  -4    7.93    2.38
   0   0  -5  130.29   11.32
   0   0  -6    1.25    1.49
   0   0  -7   18.34    5.17
   0   0   7   16.62    5.41
   0   0  -7   21.40    1.96
   0   0  -7   20.87    5.74
   0   0   7   23.32    2.11
   0   0   7   22.38    2.03
   0   0  -7   24.22    1.91
   0   0  -8   68.98    3.84
   0   0   8   72.66    4.07
   0   0   8   68.25    3.79
   0   0   8   73.88   12.69
   0   0  -8   69.95   11.35
   0   0   8   63.87   10.62
   0   0   8   78.59    3.70
   0   0  -8   68.05   10.05
   0   0   9  472.67   34.78
   0   0  -9  360.15   28.66
   0   0   9  356.32   27.59
   0   0   9  454.80   12.56
   0   0   9  449.66   12.46
   0   0   9  467.49   13.06
   0   0  -9  376.62   25.96
   0   0  -9  434.07   12.44
   0   0 -10  541.17   14.57
   0   0  10  542.55   14.61
   0   0  10  546.56   14.95
   0   0  10  543.59   14.48
   0   0 -11    8.20    1.35
   0   0  11    6.95    1.49
   0   0 -11    7.03    1.19
   0   0  11    9.20    1.56
   0   0  11    7.82    1.36
   0   0  12    1.23    0.78
   0   0  12    0.48    0.55
   0   0 -12    0.27    0.69
   0   0 -12    0.20    0.41
   0   0 -12    0.46    0.67
   0   0 -13   19.49    1.63
   0   0 -13   19.56    1.58
   0   0 -13   16.03    1.17
   0   0  13   18.45    1.52
   0   0  13   19.01    1.50
   0   1 -12    5.28    1.15
   0   1 -12    5.85    1.29
   0  -1  12    6.96    1.15
   0  -1  12    6.06    1.25
   0   1 -12    5.31    1.00
   0  -1  11   27.76    2.78
   0  -1  11   28.27    2.68
   0   1 -11   27.18    2.47
   0   1 -11   31.78    3.02
   0   1 -11   26.66    2.45
   0   1 -10  260.26    8.92
   0  -1  10  265.11   27.21
   0  -1  10  275.80    9.42
   0   1 -10  249.54    9.78
   0  -1  10  255.83    8.64
   0  -1  10  259.74    8.97
   0   1  -9  117.96    5.42
   0  -1   9   77.83   12.47
   0  -1   9  116.76    5.73
   0  -1   9  111.00    5.12
   0   1  -9   88.43   12.42
   0  -1   8    1.27    0.74
   0   1  -8    1.26    0.70
   0  -1   8    1.68    0.77
   0   1  -7   29.95    7.11
   0   1  -7   40.93    2.64
   0   1  -7   36.29    6.88
   0   1  -7   39.51    2.56
   0  -1   7   36.46    2.54
   0   1  -7   40.40    2.71
   0   1  -6   13.16    4.28
   0   1  -6   16.67    4.35
   0   1  -5   63.33    8.25
   0   1  -5   67.45    7.88
   0   1  -4  531.51   23.28
   0   1  -4  612.64   22.60
   0   1  -3 1579.32   32.51
   0   1  -3 1449.27   32.45
   0   1  -3 1420.83   33.00
   0   1  -3 1483.55   39.38
   0   1  -3 1507.09   38.32
   0   1  -3 1476.65   32.70
   0   1  -2   20.69    3.03
   0   1  -2   19.17    2.27
   0   1  -2   20.38    2.29
   0   1  -2   17.56    2.36
   0   1  -2   20.23    2.37
   0   1  -2   19.01    2.89
   0   1  -1 1216.99   26.81
   0   1  -1 1189.24   27.40
   0   1  -1 1167.73   27.10
   0   1  -1 1194.88   28.36
   0   1  -1 1153.78   27.44
   0   1   0 1278.13   29.07
   0   1   0 1274.33   28.82
   0   1   1   54.53    4.59
   0   1   1   48.39    3.50
   0   1   1   46.62    4.08
   0   1   1   46.09    3.64
   0   1   1   55.12    3.85
   0   1   1   49.63    4.00
   0  -1  -1   42.86    3.50
   0   1   2  202.95    8.46
   0   1   2  184.74    7.74
   0  -1  -2  185.51    9.02
   0   1   2  207.87   10.85
   0   1   2  194.57    8.06
   0   1   2  214.98    8.33
   0   1   2  185.77   10.03
   0   1   3    7.33    2.72
   0   1   3   10.60    1.69
   0   1   3    7.88    1.43
   0   1   3    8.98    1.61
   0   1   3    8.89    1.64
   0  -1  -3    9.92    2.47
   0   1   3    9.25    3.12
   0  -1  -4    6.25    2.16
   0   1   4    5.78    2.65
   0   1   4    4.69    2.60
   0   1   5 1223.83   41.38
   0  -1  -5 1287.70   40.88
   0   1   5 1276.55   44.62
   0  -1  -6    3.83    2.00
   0   1   6    5.60    3.39
   0   1   6    1.81    1.82
   0  -1  -7  127.53   13.81
   0   1   7  127.86    5.29
   0   1   7  124.38    5.24
   0   1   7  125.17    5.04
   0   1   7  130.02   15.82
   0   1   7  125.69    4.99
   0   1   7  127.17    5.49
   0   1   7  133.67    5.15
   0  -1  -7  122.37    5.04
   0   1   7  122.60    5.00
   0   1   7  121.74   13.73
   0   1   8    1.66    0.81
   0   1   8   -0.29    0.56
   0  -1  -8    1.21    0.77
   0   1   8   -3.34    3.08
   0   1   8    2.31    3.05
   0   1   8    0.96    0.68
   0   1   8    0.96    0.57
   0   1   8    1.48    0.88
   0  -1  -8   -1.81    2.22
   0  -1  -9  263.35    8.89
   0  -1  -9  228.61   19.95
   0   1   9  301.51   27.75
   0   1   9  278.16    8.69
   0   1   9  263.29    8.69
   0  -1  -9  209.17   21.09
   0   1   9  226.88   21.95
   0   1   9  265.66    8.86
   0   1   9  274.71    9.25
   0   1  10  169.69    6.70
   0   1  10  171.56   21.63
   0   1  10  170.70    6.82
   0   1  10  171.41    6.99
   0  -1 -10  164.20    6.72
   0   1  10  175.66    6.45
   0  -1 -11   -0.78    0.63
   0   1  11   -0.01    0.75
   0   1  11    0.66    0.87
   0  -1 -11    0.23    0.71
   0   1  12    4.52    0.90
   0   1  12    3.76    0.93
   0  -1 -12    2.28    0.85
   0   2 -12   59.76    3.03
   0  -2  12   54.40    3.16
   0  -2  12   62.64    3.46
   0   2 -12   56.91    3.15
   0   2 -12   61.93    3.49
   0  -2  11   19.70    2.20
   0   2 -11   15.59    1.90
   0   2 -11   19.18    2.35
   0  -2  11   19.01    2.05
   0   2 -11   18.17    1.92
   0   2 -10    1.86    0.91
   0  -2  10    3.13    1.06
   0  -2  10    2.74    1.13
   0   2 -10    2.93    1.18
   0  -2  10    1.86    0.70
   0   2  -9   22.24    2.29
   0  -2   9   16.66    2.01
   0   2  -9   19.27    2.10
   0  -2   9   24.65    2.59
   0   2  -9   21.71    2.65
   0   2  -8    0.57    0.58
   0  -2   8   -0.14    0.62
   0   2  -8    0.94    3.09
   0   2  -8    0.85    0.82
   0   2  -7    1.75    0.73
   0  -2   7    1.45    0.65
   0   2  -7    2.30    1.11
   0   2  -7    0.47    1.58
   0   2  -7    1.40    0.59
   0   2  -7    2.53    0.73
   0   2  -6   20.41    2.03
   0   2  -6   20.44    1.78
   0   2  -6   21.71    1.85
   0   2  -6   21.06    5.06
   0   2  -5  511.90   24.50
   0   2  -4  125.78    8.90
   0   2  -4  111.13   10.33
   0   2  -4  126.64    8.57
   0   2  -4  118.81    8.08
   0   2  -4  123.89    8.28
   0   2  -3   -0.09    0.99
   0   2  -3   -0.08    1.18
   0   2  -3   -0.02    1.02
   0   2  -3   -0.62    1.08
   0   2  -3    0.31    1.12
   0   2  -2  165.25   10.48
   0   2  -2  172.55   10.13
   0   2  -2  173.85   10.22
   0   2  -2  184.62   10.19
   0   2  -1  133.02    8.68
   0   2  -1  145.27    8.86
   0   2  -1  146.26    8.97
   0   2  -1  140.75    9.17
   0   2   0  214.40   11.27
   0   2   0  190.05   10.38
   0   2   1  322.26   14.05
   0   2   1  319.74   14.43
   0   2   1  311.21   13.73
   0   2   1  297.72   13.35
   0   2   2   47.49    6.56
   0   2   2   39.98    4.70
   0   2   2   45.16    5.06
   0   2   2   45.00    5.26
   0   2   2   37.17    5.45
   0  -2  -2   34.83    4.56
   0   2   2   38.03    4.76
   0   2   3   38.51    4.79
   0   2   3   42.13    6.70
   0   2   3   40.55    4.99
   0   2   3   36.91    4.45
   0   2   3   33.17    5.60
   0   2   3   37.02    4.70
   0  -2  -3   36.56    5.12
   0   2   4  310.63   13.99
   0   2   4  312.95   13.96
   0   2   4  320.73   14.65
   0  -2  -4  299.86   16.73
   0   2   4  303.56   18.45
   0   2   4  339.40   20.63
   0   2   4  323.41   15.17
   0  -2  -5  412.80   21.86
   0   2   5  465.25   26.65
   0   2   5  431.70   24.39
   0   2   6   78.09    4.03
   0   2   6   89.02   13.09
   0   2   6   77.86    3.76
   0   2   6   80.96    3.73
   0   2   6   87.35   11.60
   0   2   6   82.18    3.68
   0   2   6   76.76    3.76
   0  -2  -6   73.11    9.67
   0   2   6   81.42    3.91
   0   2   7   81.64    4.27
   0   2   7   81.83    3.88
   0   2   7   81.83    4.25
   0   2   7   86.36   13.99
   0   2   7   78.02    4.43
   0   2   7   83.50    4.11
   0  -2  -7   79.95    3.93
   0   2   7   81.93   12.32
   0  -2  -7   71.19   10.78
   0   2   7   83.50    4.27
   0   2   7   86.01    4.12
   0   2   8   26.53    8.89
   0   2   8   18.71    6.71
   0   2   8   20.17    2.17
   0   2   8   20.42    2.19
   0   2   8   18.01    2.08
   0  -2  -8   13.04    4.97
   0   2   8   17.16    2.38
   0   2   8   18.40    2.17
   0   2   8   22.79    2.22
   0   2   8   19.42    1.97
   0  -2  -8   21.06    2.06
   0   2   9    4.39    3.01
   0   2   9    4.86    2.52
   0   2   9    8.25    1.47
   0   2   9    7.68    1.52
   0   2   9    3.52    0.95
   0   2   9    6.01    1.32
   0  -2  -9    7.51    1.31
   0   2   9    6.57    1.14
   0   2   9    7.61    1.54
   0  -2 -10   47.24    3.28
   0   2  10   48.32    3.07
   0   2  10   52.31    3.45
   0   2  10   49.71    3.49
   0   2  10   47.53    3.31
   0   2  10   40.52   11.28
   0   2  11    5.00    1.08
   0  -2 -11    4.01    1.03
   0   2  11    3.94    0.87
   0   2  11    7.08    1.31
   0   2  12    1.64    0.52
   0   2  12    0.28    0.51
   0  -2 -12    1.57    0.49
   0   3 -12    1.91    0.79
   0   3 -12    3.02    0.85
   0   3 -12    3.45    0.74
   0   3 -12    1.98    0.62
   0  -3  12    2.53    0.74
   0  -3  12    3.03    0.78
   0  -3  11    1.60    0.76
   0   3 -11    1.77    0.59
   0   3 -11    2.49    0.81
   0   3 -11    2.64    1.07
   0  -3  11    2.81    0.89
   0   3 -11    3.20    0.90
   0   3 -10    1.88    0.92
   0  -3  10    0.23    0.89
   0   3 -10    1.14    0.65
   0   3 -10   -0.53    0.75
   0   3 -10    1.31    0.79
   0   3 -10   -0.35    0.67
   0  -3  10    0.48    0.82
   0   3  -9    6.18    1.56
   0   3  -9    6.78    1.38
   0   3  -9    6.81    1.24
   0   3  -8    1.22    0.79
   0   3  -8    2.05    0.85
   0   3  -8    1.55    0.80
   0   3  -7   56.42    3.83
   0   3  -7   54.45    3.51
   0   3  -7   58.71    3.63
   0   3  -7   62.40    3.43
   0   3  -7   58.25    4.07
   0   3  -7   59.29    3.30
   0   3  -7   56.70    3.44
   0   3  -6    2.74    0.90
   0   3  -6    2.05    0.74
   0   3  -6    3.54    1.10
   0   3  -6    2.62    0.87
   0   3  -6    2.87    0.81
   0   3  -6    1.09    0.47
   0   3  -5   88.37    3.85
   0   3  -5   94.64    4.56
   0   3  -5   92.08    4.20
   0   3  -5   92.14    4.48
   0   3  -5   90.26    9.07
   0   3  -5   98.14    4.22
   0   3  -5   92.37    9.32
   0   3  -5   88.02    4.01
   0   3  -4   69.93    3.20
   0   3  -4   80.17    8.53
   0   3  -4   71.10    8.37
   0   3  -4   71.01    3.10
   0   3  -4   76.06    8.31
   0   3  -4   84.14    9.41
   0   3  -3    9.24    3.23
   0   3  -3    8.95    1.04
   0   3  -3    6.95    2.61
   0   3  -3    7.47    2.82
   0   3  -3    8.80    2.97
   0   3  -3    7.62    1.03
   0   3  -2  154.07   11.97
   0   3  -2  165.12   12.08
   0   3  -2  161.02   12.55
   0   3  -2  165.64    4.97
   0   3  -2  143.56    4.88
   0   3  -2  161.14   11.83
   0   3  -1   13.10    3.38
   0   3  -1   13.43    3.57
   0   3  -1   14.19    3.68
   0   3  -1   15.16    3.71
   0   3  -1   14.17    1.29
   0   3  -1   15.29    1.30
   0   3   0    2.47    0.59
   0   3   0    4.59    2.56
   0   3   0    1.93    1.09
   0   3   0    1.22    1.84
   0   3   0    2.00    1.56
   0   3   0    2.54    0.63
   0   3   1  129.47   10.90
   0   3   1  142.95   11.22
   0   3   1  122.66    4.26
   0   3   1  125.62    4.28
   0   3   1  124.59   10.23
   0   3   1  128.55   10.52
   0   3   2   21.53    1.60
   0   3   2   22.00    1.69
   0   3   2   25.43    4.56
   0   3   2   25.96    5.01
   0  -3  -2   27.10    5.07
   0   3   2   23.51    4.71
   0   3   2   25.10    4.96
   0   3   3   16.39    3.79
   0   3   3   18.42    1.56
   0  -3  -3   15.39    3.65
   0   3   3   18.13    1.46
   0   3   3   20.92    4.53
   0   3   3   18.35    4.00
   0   3   3   19.86    4.50
   0   3   4   12.36    3.48
   0   3   4   14.64    1.30
   0  -3  -4   10.74    3.44
   0   3   4   12.13    3.87
   0   3   4   12.62    1.34
   0   3   4   10.89    4.11
   0   3   4   14.15    3.55
   0   3   4   13.08    3.57
   0   3   5    6.79    1.09
   0   3   5    6.27    1.12
   0   3   5    4.88    1.11
   0   3   5    6.20    1.15
   0   3   5    6.03    1.07
   0  -3  -5    6.30    2.48
   0   3   5    7.13    2.51
   0   3   5    5.78    1.08
   0   3   5    6.11    0.98
   0   3   5    8.00    4.61
   0   3   6   92.91    4.37
   0   3   6   98.89    4.36
   0   3   6  120.55   16.30
   0   3   6   98.67    4.78
   0   3   6  104.02    4.68
   0   3   6   92.24    4.49
   0   3   6  102.28    4.73
   0   3   6   98.68    4.92
   0  -3  -6   90.23   11.38
   0   3   6   92.58   13.24
   0   3   6   89.46    5.14
   0   3   6   96.12    4.18
   0   3   7    0.64    0.74
   0   3   7   -0.50    0.60
   0   3   7   -0.58    0.85
   0   3   7   -2.85    5.25
   0   3   7    1.63    0.93
   0  -3  -7    0.90    3.15
   0   3   7    0.14    0.57
   0   3   7   -0.44    0.71
   0   3   7   -0.17    0.45
   0   3   7    0.19    0.61
   0  -3  -8    8.83    1.27
   0   3   8    7.74    1.62
   0   3   8    6.51    1.54
   0   3   8    8.48    1.49
   0   3   8    4.39    3.21
   0   3   8    8.41    1.56
   0   3   8    7.28    1.56
   0  -3  -8    2.63    2.09
   0   3   8    4.88    1.42
   0   3   9   28.02    2.65
   0   3   9   23.22    2.43
   0  -3  -9   26.07    2.21
   0   3   9   29.07    2.51
   0   3   9   26.46    2.71
   0   3   9   34.48    9.40
   0   3  10    5.80    1.08
   0  -3 -10    9.10    1.23
   0   3  10   10.61    1.65
   0   3  10    6.74    1.78
   0   3  10    7.68    1.57
   0   3  10    8.05    1.35
   0   3  11    0.35    0.55
   0  -3 -11    0.85    0.50
   0   3  11    0.82    0.71
   0   3  11   -0.05    0.43
   0   3  12    3.71    0.88
   0   3  12    4.88    0.74
   0  -4  11    3.63    0.70
   0   4 -11    3.83    1.01
   0   4 -11    5.20    0.98
   0   4 -11    5.13    0.86
   0  -4  11    4.73    0.94
   0   4 -11    4.10    0.94
   0   4 -10    1.56    0.89
   0   4 -10   -0.12    0.54
   0  -4  10   -0.03    0.63
   0   4 -10    0.58    0.58
   0   4 -10   -0.36    0.42
   0   4 -10    0.15    0.73
   0   4 -10    1.88    1.07
   0  -4  10    0.35    0.56
   0   4  -9   16.14    2.62
   0   4  -9   19.40    2.52
   0   4  -9   20.11    1.96
   0   4  -9   15.44    1.92
   0   4  -9   20.47    2.38
   0   4  -9   19.51    2.17
   0  -4   9   16.86    1.86
   0   4  -8   40.27    3.74
   0   4  -8   37.23    3.58
   0   4  -8   32.74    2.83
   0   4  -8   41.85    2.91
   0   4  -8   37.84    3.37
   0   4  -8   36.99    2.78
   0   4  -8   37.36    3.19
   0  -4   8   30.28    2.51
   0   4  -7   38.82    3.13
   0   4  -7   44.39    3.58
   0   4  -7   44.34    3.51
   0   4  -7   40.96    3.86
   0   4  -7   44.50    3.18
   0   4  -6   97.31    4.81
   0   4  -6  100.54    5.00
   0   4  -6  102.54    4.94
   0   4  -6  101.19    5.89
   0   4  -6   99.33    5.40
   0   4  -6  102.99    5.58
   0   4  -6  104.77    5.28
   0   4  -5   22.14    2.18
   0   4  -5   22.34    2.15
   0   4  -5   23.54    2.52
   0   4  -5   22.99    2.41
   0   4  -5   23.47    2.38
   0   4  -5   22.69    2.62
   0   4  -5   20.50    2.20
   0   4  -5   21.41    2.09
   0   4  -5   23.03    5.80
   0   4  -5   26.89    6.11
   0   4  -4  129.51    5.83
   0   4  -4  128.16    5.11
   0   4  -4  122.65    4.99
   0   4  -4  128.29   13.67
   0   4  -4  132.02    4.95
   0   4  -4  122.27    5.00
   0   4  -4  133.28   13.13
   0   4  -4  129.49    5.71
   0   4  -4  123.92    5.48
   0   4  -4  125.62    5.34
   0   4  -4  130.46   13.49
   0   4  -4  130.48    5.88
   0   4  -4  116.33    4.78
   0   4  -4  135.03    6.12
   0   4  -4  130.03    4.95
   0   4  -4  121.37    5.41
   0   4  -4  120.74    5.20
   0   4  -4  131.80   13.11
   0   4  -4  115.87    4.74
   0   4  -3   19.13    1.84
   0   4  -3   25.96    5.96
   0   4  -3   21.04    1.96
   0   4  -3   22.82    2.21
   0   4  -3   22.89    2.00
   0   4  -3   22.50    2.04
   0   4  -3   24.38    2.24
   0   4  -3   22.97    5.55
   0   4  -3   20.71    1.90
   0   4  -3   20.36    1.87
   0   4  -3   22.20    1.90
   0   4  -3   22.11    2.20
   0   4  -3   22.47    1.87
   0   4  -3   19.52    4.62
   0   4  -3   22.12    2.10
   0   4  -3   23.64    1.94
   0   4  -3   24.03    2.25
   0   4  -3   20.65    1.98
   0   4  -3   20.04    5.17
   0   4  -2    9.41    1.29
   0   4  -2    8.57    1.40
   0   4  -2    9.89    1.27
   0   4  -2    8.25    1.14
   0   4  -2    7.91    1.18
   0   4  -2    8.03    3.07
   0   4  -2    9.32    1.27
   0   4  -2    9.70    3.12
   0   4  -2    9.94    1.32
   0   4  -2   10.44    1.55
   0   4  -2    9.47    1.27
   0   4  -2    9.90    1.24
   0   4  -2    9.28    1.26
   0   4  -2    9.41    3.49
   0   4  -2   11.89    4.54
   0   4  -2    8.64    1.41
   0   4  -2    8.76    1.25
   0   4  -2    8.88    1.21
   0   4  -2    9.99    1.37
   0   4  -1    1.59    0.75
   0   4  -1    0.96    1.66
   0   4  -1    2.83    0.73
   0   4  -1    2.45    0.69
   0   4  -1    2.46    0.72
   0   4  -1    2.51    0.75
   0   4  -1    3.39    0.71
   0   4  -1    2.78    0.88
   0   4  -1    2.94    0.84
   0   4  -1    2.86    0.71
   0   4  -1    1.95    0.79
   0   4  -1    3.40    2.18
   0   4  -1    2.27    0.67
   0   4  -1    3.75    3.01
   0   4  -1    0.77    2.67
   0   4   0    0.46    1.45
   0   4   0    3.94    2.90
   0   4   0    0.90    0.51
   0   4   0    2.09    0.71
   0   4   0    2.04    0.67
   0   4   0    1.93    0.55
   0   4   0    1.67    2.08
   0   4   0    2.86    0.86
   0   4   0    1.40    0.72
   0   4   0    1.62    0.58
   0   4   0    2.46    0.73
   0   4   0    2.43    2.28
   0   4   1  124.03    4.78
   0   4   1  123.46   12.93
   0   4   1  116.55    4.65
   0   4   1  120.75    4.60
   0   4   1  119.62    5.27
   0   4   1  125.89   12.46
   0   4   1  129.87   13.10
   0   4   1  117.02    4.47
   0   4   1  123.74    4.87
   0   4   1  124.09    4.87
   0   4   1  132.69    5.24
   0   4   1  127.06    5.34
   0   4   1  124.62    5.30
   0   4   1  124.99    4.84
   0   4   1  111.54   11.76
   0   4   1  124.49    5.02
   0   4   2    0.70    0.35
   0   4   2    0.35    0.44
   0   4   2    1.73    2.07
   0   4   2    0.85    0.38
   0   4   2    0.64    0.77
   0   4   2    0.89    0.54
   0   4   2    0.51    0.67
   0   4   2    1.31    0.65
   0   4   2    1.59    1.98
   0   4   2   -0.35    0.64
   0   4   2    0.56    0.71
   0   4   2    0.84    0.49
   0   4   2    1.50    1.24
   0   4   2    0.33    0.43
   0   4   2   -0.29    1.94
   0   4   2    0.61    0.50
   0   4   2    0.79    0.59
   0   4   2    0.55    0.38
   0  -4  -2   -1.12    1.16
   0   4   3   64.55    9.69
   0   4   3   69.89    3.52
   0   4   3   60.97    3.27
   0   4   3   68.22    3.50
   0   4   3   67.90    3.74
   0   4   3   70.72    3.83
   0   4   3   66.12    3.53
   0   4   3   69.09    3.90
   0   4   3   71.76    4.11
   0   4   3   70.08    4.10
   0   4   3   71.33    3.92
   0   4   3   69.85    9.45
   0   4   3   69.29    3.54
   0   4   3   63.81    3.15
   0   4   3   63.51    3.34
   0   4   3   67.02    9.21
   0  -4  -3   57.86    8.55
   0   4   3   70.32    9.87
   0   4   3   65.78    3.77
   0   4   3   70.31    3.53
   0   4   3   65.49    3.34
   0   4   3   66.56    3.31
   0   4   3   65.09    3.56
   0   4   4   83.86    3.85
   0   4   4   83.90    3.94
   0   4   4   81.10    3.80
   0   4   4   73.94    3.85
   0   4   4   73.61    9.87
   0   4   4   68.18    3.49
   0   4   4   78.57    4.62
   0   4   4   86.67   11.08
   0   4   4   80.62    4.60
   0   4   4   83.36    3.86
   0   4   4   81.65    4.46
   0   4   4   82.51    4.20
   0  -4  -4   71.76    9.90
   0   4   4   92.81   11.62
   0   4   4   79.62    4.00
   0   4   4   76.55    3.71
   0   4   4   79.22    4.14
   0   4   4   75.19    9.98
   0   4   4   78.77    3.87
   0   4   4   76.34    3.86
   0   4   4   78.02    4.41
   0   4   4   81.91    3.91
   0   4   5    0.91    0.65
   0   4   5    0.79    0.52
   0   4   5    1.48    0.80
   0   4   5    1.00    0.48
   0   4   5    1.35    0.81
   0   4   5    2.79    0.92
   0  -4  -5    1.69    2.28
   0   4   5    1.18    0.69
   0   4   5    0.05    2.37
   0   4   5    0.67    0.61
   0   4   6  150.05    6.21
   0   4   6  154.94    6.37
   0   4   6  152.17    6.30
   0   4   6  156.39    6.23
   0   4   6  156.89    7.00
   0   4   6  145.62    5.96
   0   4   6  143.33    7.11
   0   4   6  151.84    6.68
   0   4   7    2.39    0.77
   0   4   7    3.83    1.09
   0   4   7    2.81    0.91
   0   4   7    3.41    1.09
   0   4   7    1.75    0.72
   0   4   7    2.43    1.08
   0   4   7    1.76    0.85
   0   4   7    2.99    1.05
   0   4   8    4.24    1.24
   0   4   8    3.32    1.29
   0   4   8    5.43    1.17
   0   4   8    4.84    1.31
   0   4   8    4.11    1.08
   0   4   8    5.50    1.28
   0   4   8    4.86    1.37
   0   4   8    4.33    1.33
   0   4   9    4.06    1.33
   0   4   9    3.38    1.01
   0   4   9    6.21    1.42
   0   4   9    5.86    1.21
   0   4   9    6.40    1.48
   0   4  10    0.54    0.58
   0   4  10    0.07    0.44
   0   4  10    0.83    0.67
   0   4  10    0.02    0.66
   0   4  11    0.13    0.45
   0   4  11    0.07    0.38
   0   5 -10    8.58    1.11
   0   5 -10    8.89    1.34
   0   5 -10   12.13    1.40
   0  -5  10    9.71    1.30
   0   5 -10   11.40    1.50
   0   5  -9    1.14    0.96
   0  -5   9    0.47    0.58
   0   5  -9    1.31    0.83
   0   5  -9    3.04    1.00
   0   5  -9    1.22    0.67
   0   5  -8    4.40    1.18
   0   5  -8    1.95    0.73
   0   5  -8    3.01    0.84
   0   5  -8    2.34    0.94
   0   5  -8    3.25    1.20
   0   5  -8    2.62    1.04
   0   5  -8    2.61    0.89
   0   5  -8    1.99    0.61
   0   5  -7   36.05    3.00
   0   5  -7   44.75    3.70
   0   5  -7   48.08    3.55
   0   5  -7   44.69    3.37
   0   5  -7   46.47    3.90
   0   5  -7   46.53    3.64
   0   5  -7   49.20    3.33
   0   5  -6  346.33   11.06
   0   5  -6  366.70   11.46
   0   5  -6  377.80   12.71
   0   5  -6  363.70   11.63
   0   5  -6  379.34   11.32
   0   5  -6  373.46   11.97
   0   5  -6  380.10   12.24
   0   5  -5   52.92    3.88
   0   5  -5   63.70    4.16
   0   5  -5   49.92    3.84
   0   5  -5   55.03    3.33
   0   5  -5   59.29    4.05
   0   5  -5   65.40    4.06
   0   5  -5   52.89    3.40
   0   5  -5   59.66    4.30
   0   5  -5   55.64    3.75
   0   5  -4  201.29    7.45
   0   5  -4  211.44    8.21
   0   5  -4  225.46    8.70
   0   5  -4  216.74    8.06
   0   5  -4  206.37    7.57
   0   5  -4  202.83    7.79
   0   5  -4  213.92    8.45
   0   5  -4  211.62   19.29
   0   5  -4  211.86    7.85
   0   5  -4  204.37    7.11
   0   5  -4  199.42    7.64
   0   5  -4  218.88    7.38
   0   5  -4  193.38   19.17
   0   5  -4  212.42    8.36
   0   5  -3  215.97    7.36
   0   5  -3  212.41   20.08
   0   5  -3  211.64    7.94
   0   5  -3  230.71    8.10
   0   5  -3  245.62   21.79
   0   5  -3  230.53    8.66
   0   5  -3  210.00    7.76
   0   5  -3  230.69    7.81
   0   5  -3  225.59    7.96
   0   5  -3  229.14    7.70
   0   5  -3  226.10    8.40
   0   5  -3  230.91    8.75
   0   5  -3  219.79    7.81
   0   5  -3  228.27    7.61
   0   5  -3  215.59    7.75
   0   5  -3  235.44   20.24
   0   5  -3  225.91    8.17
   0   5  -3  223.47    8.42
   0   5  -3  239.61   20.17
   0   5  -2   21.62    2.17
   0   5  -2   22.97    1.98
   0   5  -2   23.67    2.32
   0   5  -2   25.73    2.58
   0   5  -2   29.59    7.83
   0   5  -2   23.98    2.35
   0   5  -2   23.75    2.25
   0   5  -2   22.72    2.39
   0   5  -2   22.63    2.21
   0   5  -2   21.92    2.23
   0   5  -2   24.98    2.25
   0   5  -2   20.86    2.11
   0   5  -2   20.75    5.89
   0   5  -2   24.00    6.67
   0   5  -2   22.17    2.22
   0   5  -2   22.49    2.32
   0   5  -2   19.08    5.65
   0   5  -2   22.76    2.11
   0   5  -2   24.31    2.13
   0   5  -2   25.85    2.42
   0   5  -2   22.36    2.22
   0   5  -1    4.80    1.01
   0   5  -1    7.60    1.38
   0   5  -1    5.20    1.09
   0   5  -1    6.24    1.27
   0   5  -1    6.41    1.21
   0   5  -1    4.84    1.23
   0   5  -1    5.73    1.22
   0   5  -1    4.77    1.01
   0   5  -1    0.42    2.81
   0   5  -1    6.54    3.40
   0   5  -1    5.96    1.18
   0   5  -1    6.52    1.27
   0   5  -1    4.92    1.00
   0   5  -1    3.95    1.03
   0   5  -1    5.93    1.25
   0   5  -1    5.25    1.05
   0   5  -1    5.35    1.03
   0   5  -1    5.91    2.96
   0   5  -1    4.61    0.98
   0   5  -1    1.37    1.85
   0   5  -1    5.03    1.08
   0   5  -1    4.94    1.13
   0   5   0   19.61    2.06
   0   5   0   16.22    1.76
   0   5   0   17.60    1.93
   0   5   0   19.77    1.81
   0   5   0   16.43    1.78
   0   5   0   18.11    5.79
   0   5   0   19.88    6.31
   0   5   0   15.02    1.83
   0   5   0   17.30    1.95
   0   5   0   17.88    2.03
   0   5   0   17.83    1.94
   0   5   0   17.73    2.03
   0   5   0   17.20    1.79
   0   5   0   19.27    2.13
   0   5   0   18.97    5.54
   0   5   0   11.20    4.64
   0   5   0   18.35    1.98
   0   5   0   16.72    2.09
   0   5   0   16.83    1.85
   0   5   0   18.44    1.97
   0   5   0   15.62    1.81
   0   5   0   16.29    1.79
   0   5   0   15.61    1.74
   0   5   0   15.84    1.75
   0   5   1    3.04    1.00
   0   5   1    2.84    0.87
   0   5   1    3.31    1.12
   0   5   1    1.81    0.72
   0   5   1    1.91    0.84
   0   5   1    3.46    0.79
   0   5   1    3.46    0.94
   0   5   1    0.41    2.02
   0   5   1    2.37    0.80
   0   5   1    2.95    0.95
   0   5   1    1.78    0.51
   0   5   1    4.02    1.06
   0   5   1    4.93    2.73
   0   5   1    1.40    0.72
   0  -5  -1    3.10    2.01
   0   5   1    1.80    0.60
   0   5   1    2.01    0.70
   0   5   1    4.83    2.70
   0   5   1    1.79    0.57
   0   5   1    1.68    0.59
   0   5   1    2.47    0.82
   0   5   1    1.67    0.68
   0   5   1    3.01    0.94
   0   5   1    1.22    1.37
   0   5   2   61.46    3.60
   0   5   2   57.19    3.40
   0   5   2   54.35    3.29
   0   5   2   58.37   10.03
   0   5   2   56.34    9.70
   0   5   2   61.67    3.92
   0   5   2   63.04    3.77
   0   5   2   58.46    3.61
   0   5   2   59.91    3.59
   0   5   2   62.42    4.05
   0   5   2   56.46    3.85
   0   5   2   59.46    3.87
   0   5   2   66.43   11.13
   0  -5  -2   60.37    9.51
   0   5   2   57.02    3.71
   0   5   2   53.78    9.77
   0   5   2   62.24    3.63
   0   5   2   64.79    3.91
   0   5   2   64.33    3.71
   0   5   2   63.58    3.89
   0   5   2   57.55    3.49
   0   5   2   56.10    3.37
   0   5   3   38.16    2.90
   0   5   3   36.30    2.76
   0   5   3   34.77    2.76
   0   5   3   34.84    2.50
   0   5   3   34.59    2.69
   0   5   3   34.39    2.68
   0   5   3   32.11    7.55
   0   5   3   37.04    2.80
   0   5   3   36.87    3.16
   0   5   3   35.75    8.42
   0   5   3   40.61    8.69
   0  -5  -3   30.19    7.16
   0   5   3   35.41    2.97
   0   5   3   37.94    2.85
   0   5   3   39.15    3.18
   0   5   3   34.57    2.33
   0   5   3   37.65    2.82
   0   5   3   37.56    8.00
   0   5   3   38.12    3.01
   0   5   3   38.55    3.25
   0   5   3   32.69    2.81
   0   5   3   31.66    2.44
   0   5   3   39.50    3.08
   0   5   4   93.12    4.90
   0   5   4   90.47    4.41
   0   5   4   90.26    5.03
   0   5   4   94.50    4.82
   0   5   4   88.52    4.31
   0   5   4   87.80    5.28
   0   5   4   94.96    4.69
   0   5   4   92.44    5.10
   0   5   4   94.00    5.15
   0   5   4   90.83    4.44
   0   5   4   94.33    4.64
   0   5   4   83.59   12.11
   0   5   4   93.89    4.78
   0   5   4   89.09    4.36
   0   5   4   97.13    5.46
   0   5   5  126.58    5.52
   0   5   5  125.81    5.50
   0   5   5  134.27    6.66
   0   5   5  123.33    5.89
   0   5   5  132.97    5.89
   0   5   5  124.97    5.72
   0   5   5  130.24    5.45
   0   5   5  127.66    6.27
   0   5   5  127.70    6.35
   0   5   6   83.78    4.43
   0   5   6   87.38    4.53
   0   5   6   85.31    5.31
   0   5   6   81.45    4.58
   0   5   6   88.84    4.60
   0   5   6   89.09    4.89
   0   5   6   84.91    5.05
   0   5   6   87.75    5.17
   0   5   7   68.71    4.00
   0   5   7   73.15    4.08
   0   5   7   63.14    4.65
   0   5   7   65.87    4.47
   0   5   7   69.55    4.38
   0   5   7   71.83    3.89
   0   5   7   68.84    4.65
   0   5   7   67.98    3.99
   0   5   8    0.18    0.51
   0   5   8    0.52    0.68
   0   5   8   -0.43    0.74
   0   5   8   -0.58    0.81
   0   5   8    0.00    0.66
   0   5   8    0.21    0.59
   0   5   8    0.98    0.91
   0   5   9    1.52    0.73
   0   5   9    1.84    0.82
   0   5   9    1.59    0.73
   0   5   9    2.15    0.69
   0   5  10    2.66    0.77
   0   5  10    2.79    0.78
   0   5  10    4.05    0.69
   0   6  -8   -0.49    0.59
   0   6  -8    1.50    0.75
   0   6  -8    0.49    0.50
   0   6  -8    1.54    0.63
   0   6  -8    0.65    0.38
   0   6  -7    6.31    1.40
   0   6  -7    5.97    1.30
   0   6  -7    6.90    1.21
   0   6  -7    8.72    1.43
   0   6  -7    6.38    1.23
   0   6  -7    4.75    1.22
   0   6  -6    0.25    0.58
   0   6  -6    0.00    0.69
   0   6  -6    1.11    0.75
   0   6  -6    0.22    0.63
   0   6  -6    1.10    0.92
   0   6  -6    0.68    0.47
   0   6  -6   -0.61    0.57
   0   6  -5   68.81    3.57
   0   6  -5   66.76    4.28
   0   6  -5   64.81    4.14
   0   6  -5   65.63    3.71
   0   6  -5   72.49    4.63
   0   6  -5   62.73    4.14
   0   6  -5   66.67    4.13
   0   6  -5   62.76    4.01
   0   6  -5   61.28    3.73
   0   6  -4  121.33    5.60
   0   6  -4  127.68    6.02
   0   6  -4  131.58    6.14
   0   6  -4  130.73    6.46
   0   6  -4  124.82    5.77
   0   6  -4  124.38    5.88
   0   6  -4  131.87    6.50
   0   6  -4  130.64    6.31
   0   6  -4  135.19    5.62
   0   6  -4  131.51    6.19
   0   6  -3    0.86    0.73
   0   6  -3    0.84    0.73
   0   6  -3    0.69    0.93
   0   6  -3   -0.17    0.53
   0   6  -3    0.35    0.77
   0   6  -3   -0.41    0.56
   0   6  -3    0.69    0.68
   0   6  -3    1.09    1.29
   0   6  -3   -1.99    4.15
   0   6  -3   -0.38    0.55
   0   6  -3    1.13    0.67
   0   6  -3   -0.24    0.73
   0   6  -3    0.12    0.58
   0   6  -2    0.85    0.79
   0   6  -2    1.41    0.79
   0   6  -2    3.31    3.61
   0   6  -2    1.16    0.93
   0   6  -2   -0.64    0.93
   0   6  -2    0.08    0.92
   0   6  -2   -0.20    0.64
   0   6  -2    0.74    0.57
   0   6  -2    0.69    0.66
   0   6  -2    0.61    0.70
   0   6  -2    3.43    4.30
   0   6  -2    1.07    0.59
   0   6  -2    0.67    0.74
   0   6  -2    1.01    0.86
   0   6  -2    0.56    0.52
   0   6  -1  160.92    6.78
   0   6  -1  165.04    6.74
   0   6  -1  170.06    7.03
   0   6  -1  169.80    6.68
   0   6  -1  176.45    7.55
   0   6  -1  156.46    6.33
   0   6  -1  165.44    6.78
   0   6  -1  169.55   18.83
   0   6  -1  172.95    6.94
   0   6  -1  171.68    7.40
   0   6  -1  162.40    6.87
   0   6  -1  157.86    6.77
   0   6  -1  172.94    7.46
   0   6  -1  151.15   18.40
   0   6  -1  169.19    6.84
   0   6  -1  168.91    6.93
   0   6  -1  159.80   18.15
   0   6  -1  168.72    6.48
   0   6   0    4.71    0.98
   0   6   0    4.20    1.10
   0   6   0    5.28    1.12
   0   6   0    3.58    0.93
   0   6   0    4.35    1.03
   0   6   0    5.46    1.47
   0   6   0    4.20    1.20
   0   6   0    2.28    2.17
   0   6   0    5.65    1.31
   0   6   0    2.06    3.47
   0   6   0    1.52    3.71
   0   6   0    3.73    0.84
   0   6   0    5.75    1.31
   0   6   0    4.76    1.09
   0   6   0    4.07    0.96
   0   6   0    3.87    0.98
   0   6   0    4.60    1.11
   0   6   0    4.03    1.11
   0   6   1   30.80    2.75
   0   6   1   31.67    2.68
   0   6   1   27.49    2.41
   0   6   1   26.80    7.28
   0   6   1   28.26    2.64
   0   6   1   32.07    2.88
   0   6   1   27.83    2.49
   0   6   1   28.40    7.65
   0   6   1   31.85    2.80
   0   6   1   27.15    2.61
   0   6   1   34.26    2.78
   0   6   1   34.45    3.14
   0   6   1   28.75    2.44
   0   6   1   31.60    2.77
   0   6   1   29.63    2.44
   0   6   1   32.97    2.99
   0   6   1   31.68    2.62
   0   6   1   33.81    8.38
   0   6   1   30.35    2.43
   0   6   1   29.77    2.71
   0   6   1   29.09    2.61
   0   6   2    4.51    1.36
   0   6   2    5.49    1.16
   0   6   2    3.04    1.00
   0   6   2    3.52    1.25
   0   6   2    2.88    0.88
   0   6   2    7.14    4.12
   0   6   2    2.26    0.81
   0   6   2    1.64    1.74
   0   6   2    3.46    1.02
   0   6   2    3.52    0.97
   0   6   2    3.23    0.98
   0   6   2    3.47    1.04
   0   6   2    3.84    1.04
   0   6   2    2.35    0.63
   0   6   2    3.20    1.11
   0   6   2    3.07    0.98
   0   6   3   96.53    5.47
   0   6   3   93.36    4.60
   0   6   3   91.86    4.75
   0   6   3   96.01    5.41
   0   6   3   92.91    5.01
   0   6   3   90.64    5.03
   0   6   3   94.51    5.09
   0   6   3   96.76    5.22
   0   6   3   91.18    4.81
   0   6   3   88.07    4.52
   0   6   3   94.75    4.84
   0   6   4   91.48    5.34
   0   6   4   93.50    5.20
   0   6   4   87.43    4.74
   0   6   4   87.49    4.69
   0   6   4   89.69    4.38
   0   6   4   85.39    4.49
   0   6   4   87.11    4.50
   0   6   4   91.77    5.02
   0   6   5   16.34    1.71
   0   6   5   17.07    2.28
   0   6   5   19.55    2.41
   0   6   5   15.79    1.94
   0   6   5   16.65    1.67
   0   6   5   16.82    1.97
   0   6   5   17.88    1.96
   0   6   5   15.48    2.07
   0   6   5   17.01    1.80
   0   6   6    7.29    1.22
   0   6   6    6.43    1.24
   0   6   6    5.99    1.36
   0   6   6    6.22    1.28
   0   6   6    5.20    1.08
   0   6   6    6.06    1.45
   0   6   6    4.96    1.15
   0   6   7   43.32    3.15
   0   6   7   41.21    2.97
   0   6   7   41.91    2.94
   0   6   7   43.87    3.23
   0   6   7   44.78    2.79
   0   6   8   56.75    3.07
   0   6   8   56.85    3.32
   0   6   8   54.07    2.64
   0   6   8   52.94    3.19
   0   7  -6    6.11    1.08
   0   7  -6    5.87    1.05
   0   7  -6    5.39    0.98
   0   7  -6    5.49    1.00
   0   7  -6    5.48    0.97
   0   7  -6    4.33    0.93
   0   7  -5   22.57    2.10
   0   7  -5   20.99    1.99
   0   7  -5   21.11    2.11
   0   7  -5   18.28    1.87
   0   7  -5   18.10    1.91
   0   7  -5   20.14    1.90
   0   7  -4   89.09    3.97
   0   7  -4   87.26    4.33
   0   7  -4   88.39    4.38
   0   7  -4   90.60    4.40
   0   7  -4   87.10    4.46
   0   7  -4   90.57    4.69
   0   7  -4   89.00    4.19
   0   7  -4   89.00    4.54
   0   7  -3    5.75    1.06
   0   7  -3    4.86    0.99
   0   7  -3    6.71    1.24
   0   7  -3    6.16    1.22
   0   7  -3    7.68    1.44
   0   7  -3    5.66    1.29
   0   7  -3    7.08    1.25
   0   7  -3    7.35    1.16
   0   7  -3    7.24    1.25
   0   7  -2    3.15    0.92
   0   7  -2    2.25    0.56
   0   7  -2    2.73    0.84
   0   7  -2    2.76    0.93
   0   7  -2    2.17    0.76
   0   7  -2    2.23    0.78
   0   7  -2    1.97    0.60
   0   7  -2    2.74    0.92
   0   7  -2    1.28    0.56
   0   7  -2    3.51    1.07
   0   7  -1   33.93    2.61
   0   7  -1   35.52    2.70
   0   7  -1   37.48    2.64
   0   7  -1   33.27    2.61
   0   7  -1   39.13    3.08
   0   7  -1   33.53    2.62
   0   7  -1   33.92    2.42
   0   7  -1   36.78    3.06
   0   7  -1   34.67    2.85
   0   7  -1   34.70    2.67
   0   7  -1   35.24    2.72
   0   7   0    8.11    1.36
   0   7   0    6.44    1.13
   0   7   0    9.53    1.34
   0   7   0    8.11    1.49
   0   7   0    7.09    1.22
   0   7   0    7.85    1.24
   0   7   0    7.09    1.18
   0   7   0    9.70    1.57
   0   7   0    7.07    1.16
   0   7   0    6.89    1.17
   0   7   0    7.31    1.31
   0   7   1  182.31    7.30
   0   7   1  172.17    6.45
   0   7   1  176.78    6.56
   0   7   1  171.54    6.72
   0   7   1  182.12    6.91
   0   7   1  167.54    5.95
   0   7   1  172.55    6.07
   0   7   1  182.35    7.21
   0   7   1  166.37    6.05
   0   7   1  169.12    6.40
   0   7   1  173.02    6.46
   0   7   2    4.45    1.11
   0   7   2    4.41    1.13
   0   7   2    3.94    1.15
   0   7   2    3.21    0.92
   0   7   2    2.85    0.85
   0   7   2    3.31    0.97
   0   7   2    4.15    1.04
   0   7   2    3.75    1.30
   0   7   3    1.38    0.55
   0   7   3    0.88    0.52
   0   7   3    0.99    0.74
   0   7   3    0.58    0.60
   0   7   3    1.06    0.72
   0   7   3   -0.21    0.77
   0   7   4    1.96    0.65
   0   7   4    1.78    0.75
   0   7   4    2.24    0.86
   0   7   4    2.26    0.69
   0   7   4    1.63    0.67
   0   7   4    1.43    0.79
   0   7   5  163.30    6.13
   0   7   5  167.60    6.04
   0   7   5  156.05    5.60
   0   7   5  148.08    5.58
   0   7   6   35.79    2.43
   0   7   6   31.94    2.22
   0   7   6   29.25    2.08
   0   7   6   39.19    2.29
   0   8  -2    1.72    0.53
   0   8  -2    2.14    0.64
   0   8  -2    0.70    0.29
   0   8  -2    0.78    0.47
   0   8  -1    3.69    0.83
   0   8  -1    2.23    0.59
   0   8  -1    2.17    0.65
   0   8  -1    2.08    0.59
   0   8   0    2.67    0.70
   0   8   0    2.28    0.64
   0   8   0    3.06    0.69
   0   8   0    3.67    0.80
   0   8   1   70.09    2.88
   0   8   1   69.20    2.93
   0   8   1   70.63    3.26
   0   8   1   74.54    3.45
  -1   7   5   38.91    2.24
  -1   7   5   41.01    2.43
  -1   7   5   39.71    2.13
  -1   7   5   43.39    2.52
  -1   7   4    7.61    1.21
  -1   7   4    7.14    0.90
  -1   7   4    7.09    1.06
  -1   7   4    6.56    0.94
  -1   7   4    6.78    1.11
  -1   7   3   13.11    1.65
  -1   7   3   14.06    1.49
  -1   7   3   12.93    1.39
  -1   7   3   12.45    1.36
  -1   7   3   13.13    1.57
  -1   7   2    5.21    0.95
  -1   7   2    5.76    1.18
  -1   7   2    5.63    1.05
  -1   7   2    5.30    1.15
  -1   7   2    4.27    1.02
  -1   7   2    4.95    1.03
  -1   7   2    5.49    0.85
  -1   7   1   48.56    2.74
  -1   7   1   47.73    3.37
  -1   7   1   53.11    3.25
  -1   7   1   48.72    3.31
  -1   7   1   50.91    3.06
  -1   7   1   52.26    3.10
  -1   7   1   52.51    3.32
  -1   7   1   50.26    3.39
  -1   7   1   49.18    2.97
  -1   7   0    3.20    0.83
  -1   7   0    2.11    0.68
  -1   7   0    1.12    0.44
  -1   7   0    1.73    0.73
  -1   7   0    1.64    0.75
  -1   7   0    1.79    0.65
  -1   7   0    2.20    0.97
  -1   7   0    1.59    0.65
  -1   7   0    3.28    0.99
  -1   7   0    2.18    0.96
  -1   7  -1   14.13    1.76
  -1   7  -1   15.48    1.99
  -1   7  -1   13.64    1.73
  -1   7  -1   14.14    1.54
  -1   7  -1   12.97    1.70
  -1   7  -1   12.86    1.57
  -1   7  -1   12.69    1.62
  -1   7  -1   10.88    1.46
  -1   7  -1   11.51    1.35
  -1   7  -1   14.05    1.61
  -1   7  -2   -0.24    0.72
  -1   7  -2    0.81    0.70
  -1   7  -2    0.68    0.65
  -1   7  -2    0.32    0.62
  -1   7  -2   -0.71    0.61
  -1   7  -2    0.04    0.61
  -1   7  -2    0.12    0.51
  -1   7  -2    0.99    0.74
  -1   7  -2   -0.03    0.52
  -1   7  -3    7.12    1.28
  -1   7  -3    6.23    1.11
  -1   7  -3    8.28    1.35
  -1   7  -3    8.23    1.24
  -1   7  -3    8.14    1.23
  -1   7  -3    8.02    1.38
  -1   7  -3    8.66    1.38
  -1   7  -3    9.38    1.43
  -1   7  -4    4.07    0.98
  -1   7  -4    4.89    1.01
  -1   7  -4    5.43    1.06
  -1   7  -4    5.20    0.99
  -1   7  -4    5.83    1.11
  -1   7  -4    5.74    1.06
  -1   7  -4    5.50    1.12
  -1   7  -5    0.29    0.49
  -1   7  -5    1.72    0.66
  -1   7  -5    0.85    0.50
  -1   7  -5    0.42    0.51
  -1   7  -5   -0.16    0.37
  -1   7  -6   26.97    2.08
  -1   7  -6   29.31    2.10
  -1   7  -6   30.61    2.12
  -1   7  -6   32.74    2.29
  -1   6   7   53.05    2.68
  -1   6   7   51.93    2.70
  -1   6   7   54.47    3.19
  -1   6   7   53.28    3.09
  -1   6   7   54.55    3.07
  -1   6   7   47.18    2.88
  -1   6   6   -0.12    0.45
  -1   6   6    0.36    0.49
  -1   6   6    0.94    0.53
  -1   6   6    1.43    0.71
  -1   6   6    0.20    0.52
  -1   6   6    1.04    0.42
  -1   6   6    0.41    0.50
  -1   6   5    2.42    0.98
  -1   6   5    3.54    1.07
  -1   6   5    3.96    1.09
  -1   6   5    3.02    0.90
  -1   6   5    3.05    0.78
  -1   6   5    3.36    0.88
  -1   6   5    3.30    0.94
  -1   6   4   28.75    2.22
  -1   6   4   25.81    2.48
  -1   6   4   29.89    2.61
  -1   6   4   25.42    2.69
  -1   6   4   27.38    2.17
  -1   6   4   25.76    2.38
  -1   6   4   28.67    2.52
  -1   6   4   27.87    2.69
  -1   6   3  146.37    6.55
  -1   6   3  150.29    6.78
  -1   6   3  127.79    5.91
  -1   6   3  142.64    6.18
  -1   6   3  154.29    6.27
  -1   6   3  145.00    5.77
  -1   6   3  139.02    5.43
  -1   6   3  141.34    6.04
  -1   6   3  154.63    6.66
  -1   6   2    1.52    0.91
  -1   6   2    2.14    0.98
  -1   6   2    3.03    1.13
  -1   6   2    2.12    0.96
  -1   6   2    1.74    0.88
  -1   6   2    1.81    0.81
  -1   6   2    0.85    0.42
  -1   6   2    2.65    1.07
  -1   6   2    1.37    0.57
  -1   6   2    1.50    0.90
  -1   6   2    1.84    0.81
  -1   6   2    0.74    0.86
  -1   6   2    2.63    3.76
  -1   6   2    1.31    0.78
  -1   6   1   29.50    8.02
  -1   6   1   29.92    2.76
  -1   6   1   28.85    2.84
  -1   6   1   25.29    2.59
  -1   6   1   31.29    2.55
  -1   6   1   30.57    2.85
  -1   6   1   29.49    2.74
  -1   6   1   28.68    2.52
  -1   6   1   24.84    2.35
  -1   6   1   32.41    2.70
  -1   6   1   29.12    2.45
  -1   6   1   32.65    8.74
  -1   6   1   33.61    2.82
  -1   6   1   28.83    2.81
  -1   6   1   28.67    2.91
  -1   6   0    0.53    0.70
  -1   6   0    1.55    0.91
  -1   6   0    0.39    0.66
  -1   6   0   -0.59    0.94
  -1   6   0    0.19    1.03
  -1   6   0    1.03    0.85
  -1   6   0    0.49    0.74
  -1   6   0    5.30    2.51
  -1   6   0    0.33    0.61
  -1   6   0    0.87    2.99
  -1   6   0    0.64    0.53
  -1   6   0    0.58    0.61
  -1   6   0    0.77    0.73
  -1   6   0    1.82    0.94
  -1   6   0    0.60    0.75
  -1   6   0    0.56    0.50
  -1   6  -1   80.57   13.57
  -1   6  -1   68.36    4.20
  -1   6  -1   71.81    3.93
  -1   6  -1   75.17    4.76
  -1   6  -1   70.49    4.08
  -1   6  -1   72.41    4.02
  -1   6  -1   78.63    4.38
  -1   6  -1   75.49    4.12
  -1   6  -1   77.15    4.70
  -1   6  -1   77.10    4.48
  -1   6  -1   77.58    4.26
  -1   6  -1   76.80    4.62
  -1   6  -1   68.45    4.17
  -1   6  -1   78.87   12.93
  -1   6  -1   67.24    4.33
  -1   6  -1   70.22    4.35
  -1   6  -2    2.01    0.79
  -1   6  -2    2.09    0.89
  -1   6  -2    2.81    1.11
  -1   6  -2    2.36    0.69
  -1   6  -2    1.76    0.85
  -1   6  -2    2.93    1.15
  -1   6  -2    1.30    0.81
  -1   6  -2    1.84    0.84
  -1   6  -2    1.77    0.96
  -1   6  -2    1.31    0.56
  -1   6  -2    2.43    0.83
  -1   6  -2    0.57    3.82
  -1   6  -2    3.38    1.13
  -1   6  -2    2.74    1.11
  -1   6  -2    2.80    1.03
  -1   6  -2    1.05    1.97
  -1   6  -3   59.43    4.04
  -1   6  -3   61.70    4.19
  -1   6  -3   59.60   11.19
  -1   6  -3   60.18    4.25
  -1   6  -3   59.92    4.01
  -1   6  -3   63.35    3.85
  -1   6  -3   60.73    3.66
  -1   6  -3   57.25    3.95
  -1   6  -3   54.75    3.96
  -1   6  -3   62.50    4.03
  -1   6  -3   60.61    4.32
  -1   6  -3   65.06    4.23
  -1   6  -3   68.40   12.11
  -1   6  -3   56.29    3.40
  -1   6  -3   61.94    4.05
  -1   6  -4    3.73    1.12
  -1   6  -4    3.74    1.10
  -1   6  -4    4.49    1.10
  -1   6  -4    3.75    1.21
  -1   6  -4    4.47    1.07
  -1   6  -4    3.56    0.85
  -1   6  -4    3.29    1.05
  -1   6  -4    3.10    1.05
  -1   6  -4    4.68    1.12
  -1   6  -4    2.15    0.96
  -1   6  -4    2.42    1.07
  -1   6  -4    2.50    0.92
  -1   6  -4   -1.02    2.83
  -1   6  -5   41.70    3.41
  -1   6  -5   43.37    2.79
  -1   6  -5   44.97    3.57
  -1   6  -5   44.29    3.30
  -1   6  -5   42.24    3.29
  -1   6  -5   45.22    3.54
  -1   6  -5   46.26    3.50
  -1   6  -5   44.22    3.23
  -1   6  -5   42.66    3.05
  -1   6  -6   10.29    1.70
  -1   6  -6    9.28    1.48
  -1   6  -6    8.00    1.57
  -1   6  -6    9.10    1.63
  -1   6  -6    9.55    1.56
  -1   6  -6    9.14    1.56
  -1   6  -6    8.04    1.47
  -1   6  -7   23.76    2.17
  -1   6  -7   22.58    2.10
  -1   6  -7   21.59    2.32
  -1   6  -7   20.32    1.96
  -1   6  -7   23.36    2.34
  -1   6  -7   23.12    2.37
  -1   6  -8   27.00    2.32
  -1   6  -8   28.68    2.04
  -1   6  -8   30.46    2.36
  -1   6  -8   30.35    2.38
  -1   6  -8   29.59    2.18
  -1   5   9    0.26    0.47
  -1   5   9    0.23    0.46
  -1   5   9    0.47    0.44
  -1   5   9    0.30    0.40
  -1   5   8    1.86    0.71
  -1   5   8    1.89    0.66
  -1   5   8    2.75    0.98
  -1   5   8    0.73    0.62
  -1   5   8    1.72    0.76
  -1   5   8    4.48    0.95
  -1   5   8    2.49    0.79
  -1   5   7   29.85    2.43
  -1   5   7   34.57    2.98
  -1   5   7   27.51    2.83
  -1   5   7   28.06    2.91
  -1   5   7   32.57    2.56
  -1   5   7   30.71    2.96
  -1   5   7   32.59    2.69
  -1   5   6   57.43    3.64
  -1   5   6   53.85    3.76
  -1   5   6   59.71    4.07
  -1   5   6   55.00    4.10
  -1   5   6   52.17    4.24
  -1   5   6   58.71    3.58
  -1   5   6   58.24    4.13
  -1   5   5    1.67    0.99
  -1   5   5    0.50    0.81
  -1   5   5    1.72    0.94
  -1   5   5    0.34    0.62
  -1   5   5    0.70    0.58
  -1   5   5    0.85    1.03
  -1   5   5    1.35    0.77
  -1   5   5    0.34    0.44
  -1   5   4   59.69    3.67
  -1   5   4   55.48    3.68
  -1   5   4   56.42    3.30
  -1   5   4   62.22   10.72
  -1   5   4   53.95    3.56
  -1   5   4   56.95    3.79
  -1   5   4   53.19    9.56
  -1   5   4   56.00    3.40
  -1   5   4   59.54    4.07
  -1   5   4   59.44    4.12
  -1   5   4   56.55    3.53
  -1   5   4   57.16    3.40
  -1   5   4   55.38    4.02
  -1   5   4   59.25    4.29
  -1   5   4   58.91    3.93
  -1   5   3  463.26   13.34
  -1   5   3  420.98   11.75
  -1   5   3  436.16   13.54
  -1   5   3  413.22   11.40
  -1   5   3  442.35   13.46
  -1   5   3  467.78   13.67
  -1   5   3  455.03   12.60
  -1   5   3  452.62   29.27
  -1   5   3  452.94   13.05
  -1   5   3  414.81   11.98
  -1   5   3  447.00   12.83
  -1   5   3  428.63   13.08
  -1   5   3  443.65   12.65
  -1   5   3  460.16   12.48
  -1   5   3  436.43   11.97
  -1   5   3  443.96   12.53
  -1   5   2  332.15   10.39
  -1   5   2  350.81   25.72
  -1   5   2  337.41   10.45
  -1   5   2  360.35   26.73
  -1   5   2  350.46   10.93
  -1   5   2  334.04   11.13
  -1   5   2  301.31   10.12
  -1   5   2  341.26   11.02
  -1   5   2  340.02   10.48
  -1   5   2  345.27   10.33
  -1   5   2  338.08   10.80
  -1   5   2  311.79    9.60
  -1   5   2  312.82    9.66
  -1   5   2  325.47   11.01
  -1   5   2  343.17   10.41
  -1   5   2  331.27    9.89
  -1   5   2  346.27   10.25
  -1   5   1    3.89    1.02
  -1   5   1    2.80    0.87
  -1   5   1    2.91    0.85
  -1   5   1    2.93    0.74
  -1   5   1    3.02    1.08
  -1   5   1    3.11    1.02
  -1   5   1    1.81    0.68
  -1   5   1    4.63    2.42
  -1   5   1    2.58    0.76
  -1   5   1    2.80    0.98
  -1   5   1    2.04    0.77
  -1   5   1    3.02    0.89
  -1   5   1    3.74    1.19
  -1   5   1    0.45    3.15
  -1   5   1    2.51    1.18
  -1   5   1    1.97    0.95
  -1   5   1    3.08    0.95
  -1   5   1    3.81    1.00
  -1   5   1    2.09    0.81
  -1   5   1    2.31    0.74
  -1   5   0   32.70    2.47
  -1   5   0   33.91    2.72
  -1   5   0   32.06    2.87
  -1   5   0   31.59    2.78
  -1   5   0   36.72    3.05
  -1   5   0   46.29    9.18
  -1   5   0   31.37    2.58
  -1   5   0   30.78    2.79
  -1   5   0   31.84    2.64
  -1   5   0   30.92    2.61
  -1   5   0   36.27    2.79
  -1   5   0   37.72    8.41
  -1   5   0   31.59    2.93
  -1   5   0   32.24    2.73
  -1   5   0   28.77    2.93
  -1   5   0   33.13    2.73
  -1   5   0   32.47    8.54
  -1   5   0   30.27    2.34
  -1   5   0   29.99    2.72
  -1   5   0   29.23    2.63
  -1   5  -1   43.37    8.74
  -1   5  -1   34.14    3.09
  -1   5  -1   36.57    2.82
  -1   5  -1   33.53    2.72
  -1   5  -1   36.44    3.19
  -1   5  -1   34.78    2.90
  -1   5  -1   32.72    8.10
  -1   5  -1   33.72    2.85
  -1   5  -1   41.03    3.22
  -1   5  -1   32.24    2.84
  -1   5  -1   37.00    2.86
  -1   5  -1   35.06    2.61
  -1   5  -1   35.44    3.06
  -1   5  -1   38.61    3.00
  -1   5  -1   31.92    2.84
  -1   5  -1   35.58    2.96
  -1   5  -1   33.97    2.77
  -1   5  -1   31.99    8.74
  -1   5  -1   35.95    3.03
  -1   5  -2   45.49    3.60
  -1   5  -2   41.81    3.23
  -1   5  -2   42.60    3.49
  -1   5  -2   49.75    9.17
  -1   5  -2   37.06    3.16
  -1   5  -2   44.36    2.94
  -1   5  -2   46.40    3.10
  -1   5  -2   44.05    3.36
  -1   5  -2   47.56    3.45
  -1   5  -2   50.43   10.28
  -1   5  -2   49.63    3.35
  -1   5  -2   41.38    3.25
  -1   5  -2   46.33    3.64
  -1   5  -2   45.02    3.46
  -1   5  -2   41.58    3.29
  -1   5  -2   44.48    2.97
  -1   5  -2   42.89    3.28
  -1   5  -3    8.64    3.82
  -1   5  -3    6.68    5.09
  -1   5  -3    6.01    1.29
  -1   5  -3    6.98    1.64
  -1   5  -3    6.25    1.34
  -1   5  -3    5.71    1.24
  -1   5  -3    7.33    1.38
  -1   5  -3    7.10    1.33
  -1   5  -3    5.40    1.24
  -1   5  -3    5.84    1.48
  -1   5  -3    5.81    1.19
  -1   5  -3    4.94    1.15
  -1   5  -3    5.69    1.36
  -1   5  -3    4.69    1.28
  -1   5  -3    6.38    1.30
  -1   5  -4   16.20    1.97
  -1   5  -4   14.94    1.77
  -1   5  -4   16.66    5.85
  -1   5  -4   14.63    1.90
  -1   5  -4   12.40    1.91
  -1   5  -4   14.48    2.24
  -1   5  -4   16.55    2.25
  -1   5  -4   14.54    1.82
  -1   5  -4   12.68    1.84
  -1   5  -4   15.90    2.14
  -1   5  -4   12.43    1.78
  -1   5  -4   15.16    2.10
  -1   5  -4   13.69    2.19
  -1   5  -4   14.75    2.12
  -1   5  -4    9.81    4.03
  -1   5  -5    8.50    1.50
  -1   5  -5    9.64    1.57
  -1   5  -5    7.56    1.35
  -1   5  -5    8.76    1.62
  -1   5  -5    8.25    1.45
  -1   5  -5    6.83    2.21
  -1   5  -5    6.78    1.55
  -1   5  -5   10.89    1.79
  -1   5  -5    9.76    1.48
  -1   5  -5    9.84    1.41
  -1   5  -5    6.75    1.45
  -1   5  -5    3.20    4.02
  -1   5  -5    7.99    1.45
  -1   5  -5    7.62    1.53
  -1   5  -6  280.67   10.10
  -1   5  -6  268.01    9.74
  -1   5  -6  273.73    9.34
  -1   5  -6  278.28    9.57
  -1   5  -6  279.90   10.23
  -1   5  -6  282.98    9.93
  -1   5  -6  273.20    9.57
  -1   5  -7   10.67    1.72
  -1   5  -7   13.46    1.97
  -1   5  -7   11.26    1.60
  -1   5  -7   10.18    1.92
  -1   5  -7   11.77    1.85
  -1   5  -7    9.65    1.68
  -1   5  -7   10.59    1.70
  -1   5  -8  147.65    5.80
  -1   5  -8  130.28    5.91
  -1   5  -8  136.67    6.57
  -1   5  -8  135.47    6.47
   1  -5   8  130.50    5.47
  -1   5  -8  139.51    6.01
  -1   5  -8  149.10    6.50
  -1   5  -9   12.13    1.74
   1  -5   9    7.31    1.25
  -1   5  -9    8.36    1.34
  -1   5  -9    9.30    1.71
  -1   5  -9   13.06    1.52
  -1   5  -9   10.26    1.62
  -1   5  -9   12.25    1.34
  -1   5 -10    0.43    0.41
   1  -5  10    0.94    0.50
  -1   5 -10    1.10    0.59
  -1   5 -10    0.60    0.44
  -1   5 -10    0.76    0.47
  -1   5 -10    1.64    0.71
  -1   4  10    6.53    1.17
  -1   4  10    7.07    1.03
  -1   4  10    6.32    1.17
  -1   4  10    4.62    0.85
  -1   4   9    0.65    0.76
  -1   4   9    0.53    0.58
  -1   4   9    0.67    0.74
  -1   4   9    0.51    0.65
  -1   4   9    0.42    0.58
  -1   4   8    0.43    0.78
  -1   4   8    0.24    0.65
  -1   4   8   -1.00    0.72
  -1   4   8    0.65    0.67
  -1   4   8    0.44    0.75
  -1   4   8    0.74    0.93
  -1   4   7   23.49    2.47
  -1   4   7   19.62    2.76
  -1   4   7   26.16    2.57
  -1   4   7   23.13    2.68
  -1   4   7   22.45    2.71
  -1   4   7   22.70    2.35
  -1   4   6   56.93    3.77
  -1   4   6   57.62    3.72
  -1   4   6   59.06    3.92
  -1   4   6   50.31    4.20
  -1   4   6   55.01    3.38
  -1   4   6   55.64    4.21
  -1   4   6   59.55    4.10
  -1   4   5  259.42    8.61
  -1   4   5  261.21    8.84
  -1   4   5  272.56    9.66
  -1   4   5  264.85    9.25
  -1   4   5  253.24    8.03
  -1   4   5  264.86    8.77
  -1   4   5  267.14    9.96
  -1   4   4  454.02   12.49
  -1   4   4  465.23   12.30
  -1   4   4  470.67   13.08
  -1   4   4  464.55   12.64
  -1   4   4  452.49   11.60
  -1   4   4  503.87   14.01
  -1   4   4  431.13   11.66
  -1   4   4  466.26   26.65
  -1   4   4  472.57   12.63
  -1   4   4  471.24   12.53
  -1   4   4  533.49   29.30
  -1   4   4  463.75   13.34
  -1   4   4  492.42   12.25
  -1   4   4  462.90   11.89
  -1   4   4  509.09   13.66
  -1   4   3   72.69    3.73
  -1   4   3   70.25    3.85
  -1   4   3   80.54    4.51
  -1   4   3   72.23    3.59
  -1   4   3   76.23    4.31
  -1   4   3   70.11    3.97
  -1   4   3   71.28    4.37
  -1   4   3   70.25    3.78
  -1   4   3   64.99    3.46
  -1   4   3   84.45   11.23
  -1   4   3   73.57    3.66
  -1   4   3   64.85    3.77
  -1   4   3   65.35    4.37
  -1   4   3   83.51   10.81
  -1   4   3   72.90    4.19
  -1   4   3   72.97    3.85
  -1   4   3   73.12    3.90
  -1   4   2    2.21    0.98
  -1   4   2    0.92    0.76
  -1   4   2    0.34    1.95
  -1   4   2    1.48    0.60
  -1   4   2    1.70    0.73
  -1   4   2    1.04    0.57
  -1   4   2    0.84    0.56
  -1   4   2    2.75    0.94
  -1   4   2    2.01    0.71
  -1   4   2    0.87    0.49
  -1   4   2   -0.98    3.26
  -1   4   2    1.14    0.67
  -1   4   2    0.44    1.61
  -1   4   2    1.09    0.47
  -1   4   2    0.59    0.47
  -1   4   2    1.70    0.69
  -1   4   2    0.75    0.65
  -1   4   2    1.61    0.85
  -1   4   2    1.05    0.68
  -1   4   2    1.33    0.70
  -1   4   1    6.81    1.28
  -1   4   1    5.88    0.97
  -1   4   1    5.12    1.13
  -1   4   1    5.47    1.11
  -1   4   1    4.59    0.98
  -1   4   1    5.36    0.97
  -1   4   1    4.82    0.99
  -1   4   1    6.59    1.14
  -1   4   1    6.13    1.00
  -1   4   1    1.70    2.14
  -1   4   1    5.22    1.03
  -1   4   1    5.40    0.96
   1  -4  -1    5.70    2.09
  -1   4   1    5.40    1.12
  -1   4   1    4.40    0.69
  -1   4   1    4.85    1.14
  -1   4   1    6.48    1.80
  -1   4   1    5.30    1.11
  -1   4   1    5.46    1.00
  -1   4   1    5.54    3.14
  -1   4   1    5.43    2.66
  -1   4   1    5.33    1.08
  -1   4   1    5.97    1.11
  -1   4   0   22.93    2.09
  -1   4   0   25.26    2.34
  -1   4   0   30.00    6.86
  -1   4   0   25.84    2.17
  -1   4   0   23.09    2.13
  -1   4   0   24.34    2.11
  -1   4   0   21.54    2.05
  -1   4   0   24.45    2.20
  -1   4   0   21.21    5.45
  -1   4   0   23.15    2.02
  -1   4   0   25.89    2.35
  -1   4   0   23.84    2.27
  -1   4   0   25.63    2.22
  -1   4   0   22.68    5.91
  -1   4   0   26.76    2.34
  -1   4   0   25.07    1.92
  -1   4   0   23.58    2.02
  -1   4   0   25.00    2.16
  -1   4   0   25.08    2.01
  -1   4   0   27.54    2.40
  -1   4   0   25.63    2.16
  -1   4   0   27.70    6.11
  -1   4   0   24.15    2.10
  -1   4  -1   20.01    1.92
  -1   4  -1   21.54    1.88
  -1   4  -1   18.89    2.04
  -1   4  -1   19.53    1.92
  -1   4  -1   21.78    2.11
  -1   4  -1   21.12    1.80
  -1   4  -1   15.67    4.65
  -1   4  -1   18.23    5.25
  -1   4  -1   23.77    2.15
  -1   4  -1   19.91    2.13
  -1   4  -1   18.84    1.90
  -1   4  -1   22.06    1.90
  -1   4  -1   20.28    2.00
  -1   4  -1   18.26    1.89
  -1   4  -1   22.12    2.06
  -1   4  -1   19.55    2.01
  -1   4  -1   18.20    1.84
  -1   4  -1   18.08    4.81
  -1   4  -1   18.85    1.92
  -1   4  -1   17.97    5.46
  -1   4  -1   20.61    1.98
  -1   4  -2   80.47    3.76
  -1   4  -2   82.16    4.16
  -1   4  -2   82.35   11.12
  -1   4  -2   81.53    4.30
  -1   4  -2   70.98    3.88
  -1   4  -2   76.23    4.02
  -1   4  -2   78.30   10.47
  -1   4  -2   75.44    3.95
  -1   4  -2   85.24    4.32
  -1   4  -2   69.13    4.14
  -1   4  -2   82.96    4.45
  -1   4  -2   74.23   10.75
  -1   4  -2   80.70    3.98
  -1   4  -2   70.83    3.84
  -1   4  -2   74.98    3.90
  -1   4  -2   77.74    3.59
  -1   4  -2   84.27   10.53
  -1   4  -2   81.29    4.26
  -1   4  -3  131.39   14.31
  -1   4  -3  122.87    5.31
  -1   4  -3  137.18    6.04
  -1   4  -3  135.89    5.91
  -1   4  -3  130.32    5.54
  -1   4  -3  138.51    5.15
  -1   4  -3  131.51    5.62
  -1   4  -3  122.45    5.19
  -1   4  -3  131.22    5.04
  -1   4  -3  127.61    5.38
  -1   4  -3  135.91    5.90
  -1   4  -3  128.50    5.87
  -1   4  -3  123.74    5.31
  -1   4  -3  140.35   14.81
  -1   4  -3  129.52    5.55
  -1   4  -3  122.09    5.62
  -1   4  -3  146.66   13.96
  -1   4  -4   16.41    1.91
  -1   4  -4   19.85    5.85
  -1   4  -4   17.06    1.74
  -1   4  -4   19.99    2.27
  -1   4  -4   17.40    2.07
  -1   4  -4   17.18    2.21
  -1   4  -4   18.85    2.10
  -1   4  -4   17.75    1.86
  -1   4  -4   18.74    1.78
  -1   4  -4   17.09    1.86
  -1   4  -4   21.58    5.72
  -1   4  -4   19.13    2.15
  -1   4  -4   19.73    2.25
  -1   4  -4   18.75    1.98
  -1   4  -5  204.63    6.71
  -1   4  -5  211.50    7.76
  -1   4  -5  216.71    8.14
  -1   4  -5  213.56    6.92
  -1   4  -5  202.87    8.41
  -1   4  -5  198.57    7.14
  -1   4  -5  204.49    6.88
  -1   4  -5  193.97    7.92
  -1   4  -5  208.04    7.51
  -1   4  -5  216.21   17.46
  -1   4  -5  214.66    8.22
  -1   4  -5  232.78   18.99
  -1   4  -5  202.88    7.64
  -1   4  -6  241.80    9.11
  -1   4  -6  228.88    8.52
  -1   4  -6  228.35    8.79
  -1   4  -6  236.42    8.56
  -1   4  -6  242.95    8.27
  -1   4  -6  219.00    7.33
  -1   4  -6  231.29    9.34
  -1   4  -6  230.18    9.02
  -1   4  -7   19.85    2.49
  -1   4  -7   23.03    2.71
  -1   4  -7   24.92    2.56
  -1   4  -7   18.51    2.05
  -1   4  -7   18.13    2.62
  -1   4  -7   15.00    1.77
  -1   4  -7   19.14    2.39
  -1   4  -7   18.63    2.44
  -1   4  -8   31.47    2.56
  -1   4  -8   29.21    2.71
  -1   4  -8   24.30    2.57
  -1   4  -8   26.71    2.38
  -1   4  -8   31.08    3.25
  -1   4  -8   30.99    3.03
  -1   4  -8   29.03    3.05
  -1   4  -8   29.17    2.95
  -1   4  -9    0.23    0.82
   1  -4   9    0.73    0.85
  -1   4  -9    1.15    0.78
  -1   4  -9    1.11    0.80
  -1   4  -9    0.46    0.56
  -1   4  -9    0.43    0.73
  -1   4  -9   -0.71    0.50
  -1   4 -10    3.52    1.13
  -1   4 -10    5.28    1.02
  -1   4 -10    3.73    1.08
  -1   4 -10    4.27    1.06
   1  -4  10    2.75    1.03
  -1   4 -10    3.04    1.04
  -1   4 -10    2.70    0.79
  -1   4 -11   45.64    3.10
  -1   4 -11   59.44    3.37
  -1   4 -11   46.69    3.04
  -1   4 -11   39.59    2.62
   1  -4  11   54.21    2.93
  -1   4 -11   49.82    2.59
  -1   3  11   19.09    2.00
  -1   3  11   21.20    1.95
  -1   3  10   25.67    2.20
  -1   3  10   17.29    1.86
   1  -3 -10   23.24    1.73
  -1   3  10   19.23    2.47
  -1   3   9   31.79    2.71
  -1   3   9   26.00    2.70
   1  -3  -9   33.19    2.41
  -1   3   9   29.06    2.76
  -1   3   9   24.91    3.22
  -1   3   9   28.19    3.00
  -1   3   8   54.59    4.07
   1  -3  -8   55.02    3.24
  -1   3   8   58.04    3.40
  -1   3   8   58.53    3.74
  -1   3   8   54.26    4.14
  -1   3   8   57.64   13.93
  -1   3   8   54.29    3.83
  -1   3   7   70.19    3.90
  -1   3   7   64.61    4.03
  -1   3   7   60.81    3.62
  -1   3   7   65.95   13.16
  -1   3   7   63.69    3.48
  -1   3   7   60.97    3.99
  -1   3   7   61.67    4.37
   1  -3  -7   65.65    3.48
  -1   3   7   61.63    4.26
  -1   3   6    2.61    4.17
  -1   3   6    1.79    0.83
  -1   3   6    1.31    0.67
  -1   3   6    1.18    0.56
  -1   3   6    1.75    0.92
  -1   3   6    0.76    0.76
  -1   3   6    1.02    0.79
  -1   3   5   26.27    7.87
  -1   3   5   31.53    2.45
  -1   3   5   31.01    2.33
  -1   3   5   28.91    2.56
  -1   3   5   28.56    2.39
  -1   3   4  186.52    6.10
  -1   3   4  184.21   13.84
   1  -3  -4  184.79   12.98
  -1   3   4  196.57    6.87
  -1   3   4  194.44    6.59
  -1   3   4  214.56   15.87
  -1   3   4  190.52    6.08
  -1   3   4  193.72    7.06
  -1   3   4  194.89    6.57
  -1   3   4  196.73    7.49
  -1   3   3   29.43    2.39
   1  -3  -3   26.43    4.44
  -1   3   3   39.79    6.47
  -1   3   3   39.99    6.36
  -1   3   3   30.38    2.10
  -1   3   2   16.34    4.17
  -1   3   2   17.83    4.49
  -1   3   2   19.44    4.81
  -1   3   2   14.23    3.86
  -1   3   2   17.22    1.54
   1  -3  -2   17.41    3.50
  -1   3   1   31.39    5.88
  -1   3   1   31.21    2.11
   1  -3  -1   33.23    4.76
  -1   3   1   26.12    5.54
  -1   3   1   34.76    5.92
  -1   3   1   33.26    2.18
  -1   3   1   34.76    6.32
  -1   3   0  139.33   12.20
  -1   3   0  132.03   11.83
  -1   3   0  133.74   11.45
  -1   3   0  129.82    4.63
  -1   3   0  123.32    4.50
  -1   3   0  126.84   11.72
  -1   3  -1  422.95   20.71
  -1   3  -1  416.54   21.82
  -1   3  -1  373.80   21.05
  -1   3  -1  397.93    9.91
  -1   3  -1  450.71   22.55
  -1   3  -1  383.40    9.82
  -1   3  -2  215.96    6.55
  -1   3  -2  250.98   15.40
  -1   3  -2  204.04   14.90
  -1   3  -2  216.19   15.44
  -1   3  -2  216.72   15.65
  -1   3  -2  226.04    6.59
  -1   3  -3  530.72   24.94
  -1   3  -3  446.74   11.23
  -1   3  -3  472.80   23.91
  -1   3  -3  513.44   23.23
  -1   3  -4   74.58    8.65
  -1   3  -4   67.39    3.76
  -1   3  -4   65.33    3.57
  -1   3  -4   55.20    3.00
  -1   3  -4   74.57    9.25
  -1   3  -5   42.05    2.95
  -1   3  -5   49.46    7.49
  -1   3  -5   44.55    2.63
  -1   3  -5   43.24    2.99
  -1   3  -5   46.94    3.18
  -1   3  -5   48.48    7.04
  -1   3  -5   46.19    3.46
  -1   3  -5   45.22    2.65
  -1   3  -5   47.47    2.92
  -1   3  -6    1.96    1.01
  -1   3  -6    2.52    0.79
  -1   3  -6    3.64    1.02
  -1   3  -6    2.40    0.87
  -1   3  -6    2.65    1.09
  -1   3  -6    3.35    0.89
  -1   3  -7   28.07    2.65
  -1   3  -7   32.79    2.52
  -1   3  -7   31.14    3.24
  -1   3  -7   39.08    3.01
   1  -3   7   28.95    2.29
  -1   3  -7   29.81    2.90
  -1   3  -7   31.81    2.49
  -1   3  -7   32.92    2.39
   1  -3   8   -0.35    0.70
  -1   3  -8   -0.68    0.59
  -1   3  -8    0.21    0.58
  -1   3  -8   -1.16    0.71
  -1   3  -8    0.58    0.74
  -1   3  -8   -0.50    0.89
  -1   3  -9   44.82    2.96
  -1   3  -9   44.16    3.24
  -1   3  -9   41.22    3.69
  -1   3  -9   40.12    3.92
  -1   3  -9   44.20    3.15
   1  -3   9   42.54    3.46
   1  -3   9   42.95    3.11
  -1   3 -10   41.50    2.74
  -1   3 -10   38.58    3.71
  -1   3 -10   42.58    3.59
  -1   3 -10   41.87    3.05
  -1   3 -10   45.09    3.64
   1  -3  10   46.34    3.44
   1  -3  10   42.51    3.00
  -1   3 -11  100.34    4.07
  -1   3 -11   96.59    5.00
  -1   3 -11  104.95    4.63
   1  -3  11  104.42    4.83
  -1   3 -11   94.54    5.14
   1  -3  11   94.91    4.31
  -1   3 -11  110.20    5.34
  -1   3 -12    4.29    0.87
  -1   3 -12    5.47    1.06
   1  -3  12    3.96    0.90
  -1   3 -12    4.04    0.82
   1  -3  12    4.37    0.86
  -1   3 -12    4.13    0.95
  -1   3 -12    2.99    0.85
   1  -2 -12    4.75    0.80
  -1   2  12    2.82    0.75
   1  -2 -12    5.28    0.74
  -1   2  12    2.86    0.61
   1  -2 -11    1.83    0.67
  -1   2  11    1.03    0.55
  -1   2  10   35.94    2.75
   1  -2 -10   40.27    2.82
  -1   2  10   36.68    2.75
   1  -2  -9  132.21    5.66
  -1   2   9  121.66    5.30
  -1   2   9  135.92    5.83
  -1   2   9  143.49   20.61
  -1   2   9  139.67    5.80
  -1   2   9  138.85    6.14
  -1   2   8   24.99    2.81
   1  -2  -8   29.26    2.52
  -1   2   8   29.73    2.54
  -1   2   8   27.15    8.63
  -1   2   8   29.44    2.72
  -1   2   8   26.15    2.49
  -1   2   8   30.12    2.66
  -1   2   8   27.38    2.41
  -1   2   7    5.65    1.23
  -1   2   7    6.61    1.41
  -1   2   7    4.13    0.93
  -1   2   7    6.01    1.26
  -1   2   7    4.75    1.10
   1  -2  -7    4.54    1.23
   1  -2  -6   12.39    1.54
  -1   2   6    8.09    1.24
  -1   2   6   10.58    1.37
   1  -2  -6    7.01    2.16
  -1   2   6   10.46    1.46
  -1   2   6   11.69    1.57
  -1   2   6   11.20    4.80
  -1   2   6   13.42    5.38
  -1   2   6   12.77    1.72
  -1   2   5  137.63   15.52
  -1   2   5  119.46   12.89
  -1   2   5  134.59    4.92
  -1   2   5  131.61    5.13
   1  -2  -5  115.73   10.66
  -1   2   5  134.96    5.32
  -1   2   4  169.76   10.67
   1  -2  -4  157.25   11.05
  -1   2   4  185.49   16.38
  -1   2   4  179.85   11.51
  -1   2   3  112.63    9.02
  -1   2   3  102.04   11.66
  -1   2   3   98.75    3.48
   1  -2  -3   98.05    7.49
  -1   2   3  109.73    8.48
  -1   2   2   16.00    3.41
  -1   2   2   14.02    3.33
   1  -2  -2   14.06    2.62
  -1   2   2   19.97    4.91
  -1   2   2   15.59    3.38
  -1   2   1  272.66   14.36
  -1   2   1  298.98   14.42
   1  -2  -1  260.19   11.24
  -1   2   1  296.72   15.17
  -1   2   1  295.33   15.23
  -1   2   0 1443.24   40.48
  -1   2   0 1345.30   38.97
  -1   2   0 1470.08   40.68
  -1   2   0 1494.69   39.94
  -1   2   0 1433.60   38.63
  -1   2  -1  369.57   17.06
  -1   2  -1  388.56   17.60
  -1   2  -1  400.41   17.39
  -1   2  -1  413.42   17.09
  -1   2  -1  384.55   17.48
  -1   2  -2    6.43    2.33
  -1   2  -2    6.95    2.26
  -1   2  -2    7.38    2.47
  -1   2  -2    6.17    2.14
  -1   2  -3   16.77    3.83
  -1   2  -3   17.66    3.78
  -1   2  -3   20.60    3.70
  -1   2  -4   10.53    2.99
  -1   2  -4   13.16    3.02
  -1   2  -5   69.75    7.16
  -1   2  -5   78.99    6.98
  -1   2  -6  414.44   11.50
  -1   2  -7    0.95    0.41
  -1   2  -7    0.90    0.51
  -1   2  -7    1.10    0.78
  -1   2  -7    1.07    0.57
  -1   2  -8   65.83    3.74
  -1   2  -8   63.88    3.73
   1  -2   8   60.56    3.71
  -1   2  -8   58.56    4.13
   1  -2   9    5.51    1.53
  -1   2  -9    5.00    1.17
  -1   2  -9    4.55    1.09
  -1   2  -9    3.39    1.22
   1  -2   9    4.60    1.30
   1  -2  10   28.43    2.70
  -1   2 -10   27.22    2.53
   1  -2  10   23.74    2.51
  -1   2 -10   27.46    2.51
  -1   2 -10   28.91    3.03
   1  -2  11    1.17    0.94
  -1   2 -11    1.22    0.79
  -1   2 -11    1.96    0.80
   1  -2  11    1.92    1.18
  -1   2 -11    1.60    0.82
  -1   2 -12    7.33    1.38
  -1   2 -12    5.29    1.12
  -1   2 -12    6.58    1.05
   1  -2  12    8.58    1.41
  -1   2 -12    8.63    1.29
  -1   2 -12    9.77    1.58
   1  -2  12    7.61    1.29
  -1   1  12    3.22    0.64
   1  -1 -12    4.17    0.98
   1  -1 -12    4.51    0.79
  -1   1  11    0.46    0.45
  -1   1  11    0.78    0.59
   1  -1 -11    1.64    0.78
  -1   1  11    0.78    0.60
   1  -1 -11    1.50    0.49
  -1   1  10   45.73    3.22
   1  -1 -10   53.64    3.54
  -1   1  10   57.91    3.48
  -1   1  10   52.40    3.29
  -1   1  10   56.34   12.94
  -1   1  10   57.42    3.69
   1  -1  -9   84.11    4.58
  -1   1   9   89.04   16.00
  -1   1   9   85.24    4.67
  -1   1   9   86.43    4.66
  -1   1   9   90.51    4.50
  -1   1   9   81.58    4.26
   1  -1  -9   72.34   12.00
  -1   1   9   78.05    4.44
  -1   1   8    1.22    0.77
  -1   1   8    0.32    0.74
  -1   1   8    0.31    0.52
   1  -1  -8   -2.09    2.88
   1  -1  -8    0.43    0.69
  -1   1   8    1.77    3.14
  -1   1   8   -0.05    0.59
  -1   1   8   -0.45    2.83
  -1   1   8    2.17    1.17
  -1   1   7   21.09    6.48
  -1   1   7   25.25    2.29
  -1   1   7   28.06    2.37
  -1   1   7   26.90    6.06
  -1   1   7   25.34    2.43
   1  -1  -7   26.44    2.29
  -1   1   7   25.25    2.33
  -1   1   7   26.32    2.17
   1  -1  -7   17.01    5.25
  -1   1   6   22.49    2.04
   1  -1  -6   19.84    5.35
  -1   1   6   20.97    1.93
  -1   1   6   23.22    1.92
  -1   1   6   19.43    6.44
  -1   1   6   21.37    5.22
  -1   1   6   22.68    1.85
   1  -1  -6   21.29    1.94
  -1   1   5   18.73    5.76
  -1   1   5   17.27    4.43
   1  -1  -5   18.00    4.08
  -1   1   4   37.54    6.58
  -1   1   4   29.05    3.45
  -1   1   4   25.86    2.94
   1  -1  -4   30.28    4.66
  -1   1   4   31.74    5.15
  -1   1   3  510.36   20.30
  -1   1   3  547.83   17.51
  -1   1   3  518.78   16.80
   1  -1  -3  516.14   18.13
  -1   1   3  532.92   23.11
  -1   1   2   50.83    5.45
  -1   1   2   53.87    4.96
  -1   1   2   59.24    7.04
  -1   1   2   59.87    4.83
   1  -1  -2   51.66    4.01
  -1   1   2   53.00    4.94
  -1   1   1   49.80    4.66
  -1   1   1   50.53    4.88
  -1   1   1   55.81    5.78
   1  -1  -1   52.54    2.92
  -1   1   0  236.38   10.98
  -1   1   0  261.68   10.94
  -1   1  -1    3.40    1.67
  -1   1  -1    2.89    1.64
  -1   1  -2  223.51   10.24
  -1   1  -2  206.56   10.29
  -1   1  -2  197.37   10.06
  -1   1  -3  170.22    9.19
  -1   1  -3  180.41   10.73
  -1   1  -3  191.90    9.03
  -1   1  -3  163.22    8.87
  -1   1  -4  439.88   15.97
  -1   1  -4  447.40   17.16
  -1   1  -4  496.12   15.80
  -1   1  -4  468.79   20.77
  -1   1  -5  126.95    9.29
  -1   1  -5  112.91    6.42
  -1   1  -5  136.13   11.81
  -1   1  -5  114.06    6.87
  -1   1  -6   15.98    4.44
  -1   1  -6   14.66    3.54
  -1   1  -7   21.91    2.00
  -1   1  -7   16.81    5.32
  -1   1  -7   18.73    4.74
   1  -1   7   20.54    1.86
   1  -1   7   19.27    2.00
   1  -1   8    4.89    1.17
   1  -1   8    4.52    1.20
   1  -1   8    3.53    1.17
  -1   1  -8    4.93    1.12
  -1   1  -8    7.89    4.28
  -1   1  -9    2.46    1.01
   1  -1   9    0.83    0.81
   1  -1   9    2.76    1.10
   1  -1   9    2.88    0.95
  -1   1 -10   82.03    4.60
  -1   1 -10   89.94    5.41
   1  -1  10   83.18    4.96
   1  -1  10   85.28    4.71
  -1   1 -10   89.73    4.77
  -1   1 -11   31.63    2.70
   1  -1  11   31.65    2.86
   1  -1  11   30.01    2.93
  -1   1 -11   31.45    2.76
  -1   1 -11   32.12    3.14
   1  -1  12    2.45    0.99
  -1   1 -12    2.54    0.75
  -1   1 -12    3.03    0.83
  -1   1 -12    3.59    1.16
   1  -1  12    1.76    0.83
   1  -1  13    1.34    0.62
  -1   1 -13    2.38    0.74
   1  -1  13    1.74    0.64
  -1   1 -13    2.87    0.94
  -1   1 -13    1.69    0.48
  -1   1 -13    2.18    0.58
   1   0 -12   25.47    2.05
  -1   0  12   21.38    1.77
   1   0 -12   22.57    1.69
  -1   0  12   25.01    1.93
   1   0 -12   27.99    2.09
   1   0 -11    1.02    0.68
  -1   0  11    1.40    1.13
  -1   0  11    1.97    0.91
  -1   0  11    0.13    0.66
   1   0 -11    0.80    0.79
  -1   0  10   29.52    9.46
  -1   0  10   27.85    2.60
   1   0 -10   27.10    2.60
  -1   0  10   26.89    2.53
  -1   0  10   26.66    2.58
  -1   0   9   28.54    2.30
  -1   0   9   26.61    2.57
  -1   0   9   28.26    2.69
   1   0  -9   26.93    2.67
   1   0  -9   27.96    8.16
  -1   0   9   26.76    9.27
  -1   0   8   41.03    2.98
  -1   0   8   41.57    2.91
  -1   0   8   33.25    7.53
  -1   0   8   39.81   10.35
   1   0  -8   40.97    8.97
  -1   0   8   38.91    3.06
   1   0  -8   39.16    2.95
  -1   0   8   41.47    2.98
   1   0  -8   37.18    2.63
  -1   0   8   40.24    2.69
  -1   0   7   11.10    4.89
   1   0  -7   10.21    1.26
  -1   0   7    9.64    1.54
  -1   0   7    9.33    5.25
  -1   0   7    9.11    1.36
   1   0  -7    9.03    1.35
  -1   0   7   10.93    1.34
  -1   0   7   10.26    1.37
   1   0  -6    9.32    1.27
   1   0  -6    9.41    3.89
  -1   0   6    7.91    3.15
  -1   0   6    9.32    1.19
   1   0  -5  145.72   11.91
  -1   0   5  136.71   11.11
   1   0  -4   64.47    7.19
  -1   0   4   65.94    6.51
   1   0  -3  109.11    7.88
  -1   0   3  115.17    5.46
  -1   0   3  110.60    7.22
  -1   0   2    2.98    0.85
  -1   0   2    2.48    0.93
   1   0  -2    3.53    1.34
  -1   0   1  113.39    4.68
  -1   0   0    9.33    1.44
  -1   0  -1    5.03    0.99
  -1   0  -2  133.93    7.08
  -1   0  -2  109.32    3.48
  -1   0  -3   29.61    2.98
  -1   0  -3   32.02    2.75
  -1   0  -3   31.21    4.14
  -1   0  -4    6.83    2.71
  -1   0  -4    5.70    1.29
  -1   0  -4    4.92    1.44
  -1   0  -4    4.63    1.20
  -1   0  -5   30.66    5.39
  -1   0  -5   25.59    3.81
  -1   0  -6   18.30    3.74
  -1   0  -6   20.25    5.14
  -1   0  -7  105.63    4.51
  -1   0  -7  100.66    9.66
   1   0   7  106.48    4.60
   1   0   7  106.60    4.77
  -1   0  -7  101.83   12.45
   1   0   7  103.41    4.43
   1   0   8    1.70    0.81
  -1   0  -8   -2.09    2.39
   1   0   8    2.53    0.99
  -1   0  -8    1.59    0.61
   1   0   8    1.75    0.81
   1   0   8   -0.12    2.65
   1   0   9   22.57    2.27
  -1   0  -9   17.45    6.49
   1   0   9   18.85    6.39
   1   0   9   20.83    2.35
   1   0   9   23.86    2.35
   1   0   9   14.79    6.20
  -1   0  -9   21.20    2.18
   1   0  10    3.11    3.15
   1   0  10    8.00    1.57
  -1   0 -10    7.24    3.86
   1   0  10   14.08    7.41
  -1   0 -10    9.47    1.64
  -1   0 -10    8.53    1.54
   1   0  10    7.32    1.53
   1   0  11   23.74    2.33
  -1   0 -11   31.86    2.62
   1   0  11   31.07    2.79
   1   0  11   31.68    2.95
   1   0  11   21.83    7.52
  -1   0 -11   29.82    2.71
  -1   0 -12   13.31    1.58
   1   0  12   12.99    1.71
  -1   0 -12   11.73    1.72
  -1   0 -12   12.31    1.57
   1   0  12   11.40    1.78
  -1   0 -13    4.54    0.74
  -1   0 -13    3.79    0.82
   1   0  13    5.59    0.96
  -1   0 -13    5.27    1.04
   1   0  13    4.93    0.98
  -1  -1  12    2.40    0.73
   1   1 -12    1.61    0.72
   1   1 -12    1.22    0.74
   1   1 -12    1.45    0.57
  -1  -1  12    1.17    0.62
  -1  -1  11    4.03    1.10
   1   1 -11    5.95    1.29
  -1  -1  11    5.03    1.22
  -1  -1  11    5.03    1.17
   1   1 -11    6.21    1.25
  -1  -1  10    3.94    1.14
  -1  -1  10    3.37    1.13
   1   1 -10    5.03    1.48
  -1  -1  10    6.34    3.94
  -1  -1  10    3.63    1.06
   1   1 -10    1.48    0.77
  -1  -1   9   34.39    2.86
   1   1  -9   35.03    8.52
   1   1  -9   32.92    2.78
  -1  -1   9   27.31    9.20
  -1  -1   9   34.23    2.98
   1   1  -8  170.79    6.63
   1   1  -8  165.14    6.32
   1   1  -8  174.02   18.23
  -1  -1   8  174.09    6.50
  -1  -1   8  174.12    6.88
  -1  -1   7    1.17    0.81
  -1  -1   7    2.77    0.92
   1   1  -7    2.07    1.59
   1   1  -7    1.49    0.64
   1   1  -7    1.67    0.67
  -1  -1   7    2.13    2.42
   1   1  -7    0.99    0.59
   1   1  -6   64.90    3.18
   1   1  -6   68.15    9.92
   1   1  -6   65.90    3.42
  -1  -1   6   58.18    3.13
   1   1  -5   10.12    4.00
   1   1  -4   12.90    1.74
   1   1  -4    9.23    1.75
   1   1  -3  380.20   12.54
   1   1  -3  367.09   12.75
   1   1  -2  637.70   17.92
   1   1  -2  666.47   21.90
   1   1  -2  600.43   18.72
   1   1  -1  100.06    5.73
   1   1  -1   99.28    6.32
   1   1  -1  105.22    6.63
   1   1   0  366.41   12.23
   1   1   0  370.12   12.39
   1   1   1   28.37    2.99
   1   1   1   31.22    3.12
   1   1   2  597.92   18.85
   1   1   2  609.35   19.54
   1   1   2  645.82   18.88
  -1  -1  -2  605.75   19.89
   1   1   2  609.45   17.58
   1   1   3   47.53    4.15
   1   1   3   55.87    4.84
  -1  -1  -3   52.17    5.64
   1   1   3   59.56    5.84
   1   1   3   53.96    5.94
   1   1   4  182.83   12.58
   1   1   4  171.34    8.08
   1   1   4  215.81   13.11
   1   1   4  186.71    8.49
  -1  -1  -4  195.58   12.64
   1   1   4  181.06    8.62
   1   1   5  163.93    6.49
   1   1   5  230.68   15.72
   1   1   5  200.27   14.73
  -1  -1  -5  201.22   14.50
   1   1   5  160.10    6.83
   1   1   6   37.79    7.38
   1   1   6   50.37    8.36
  -1  -1  -6   47.13    7.70
   1   1   7   -0.50    0.61
   1   1   7    0.23    0.66
  -1  -1  -7   -0.18    0.56
  -1  -1  -7    1.87    1.18
   1   1   7   -0.49    0.70
   1   1   7    0.15    2.49
   1   1   7   -0.62    0.72
   1   1   7   -0.17    1.81
   1   1   8   15.34    1.72
   1   1   8   11.69    5.79
  -1  -1  -8   16.67    1.82
   1   1   8   13.84    1.78
   1   1   8   14.85    1.83
  -1  -1  -8   17.24    6.05
   1   1   8   16.04    5.51
   1   1   8   16.47    1.80
  -1  -1  -9   11.16    1.63
  -1  -1  -9   11.25    1.49
   1   1   9    9.46    1.52
   1   1   9   11.08    1.61
   1   1   9   11.32    1.52
  -1  -1  -9   12.99    5.39
   1   1   9   12.05    1.87
   1   1   9    8.69    4.47
   1   1   9   10.91    5.62
   1   1  10    5.65    1.36
   1   1  10    9.21    5.55
  -1  -1 -10    3.84    3.08
  -1  -1 -10    7.04    1.21
  -1  -1 -10    7.14    1.48
   1   1  10    6.89    1.30
   1   1  10    6.44    1.51
   1   1  10    0.48    3.98
   1   1  11   29.29    2.62
  -1  -1 -11   27.96    2.20
  -1  -1 -11   28.52    2.66
   1   1  11   27.15    2.77
   1   1  12   81.08    4.33
  -1  -1 -12   75.86    3.36
  -1  -1 -12   78.89    3.99
   1   1  12   80.39    4.01
  -1  -1 -13    0.80    0.51
  -1  -1 -13    0.26    0.49
   1   1  13    0.76    0.42
   1   1  13    0.88    0.47
  -1  -2  12   17.63    1.62
   1   2 -12   15.64    1.48
   1   2 -12   18.90    1.52
  -1  -2  12   17.24    1.63
   1   2 -12   12.37    1.66
   1   2 -12   13.51    1.37
  -1  -2  11   13.90    1.63
  -1  -2  11   12.38    1.70
   1   2 -11   16.03    1.89
  -1  -2  11   14.75    1.78
   1   2 -11   16.26    1.77
   1   2 -10   14.33    1.76
  -1  -2  10   20.06    2.04
   1   2 -10   17.40    2.25
  -1  -2  10   17.46    2.22
   1   2 -10   20.83    2.18
  -1  -2   9   25.75    2.66
   1   2  -9   21.73    2.28
   1   2  -9   28.42    2.51
   1   2  -9   16.99    5.95
  -1  -2   9   23.05    2.29
   1   2  -9   22.64    2.62
   1   2  -8    0.45    0.53
  -1  -2   8    0.19    0.66
   1   2  -8    0.13    0.78
   1   2  -8    3.64    3.02
   1   2  -8    4.62    1.10
   1   2  -8    0.63    0.72
   1   2  -7    1.95    3.16
   1   2  -7    0.07    0.50
  -1  -2   7    0.11    0.65
   1   2  -7    0.41    0.59
   1   2  -7    0.00    0.55
   1   2  -7    0.08    0.62
   1   2  -6  151.01    5.45
   1   2  -6  153.91    5.53
   1   2  -6  152.59    5.58
  -1  -2   6  143.17    5.25
   1   2  -6  148.10    5.96
   1   2  -5    3.66    1.68
   1   2  -4  413.60   17.03
   1   2  -4  454.27   22.84
   1   2  -4  433.39   16.62
   1   2  -3   71.44    6.79
   1   2  -3   74.43    6.60
   1   2  -3   67.45    7.83
   1   2  -2   12.27    2.90
   1   2  -2   14.68    3.04
   1   2  -2   12.65    3.37
   1   2  -2   13.50    2.94
   1   2  -1   90.62    6.97
   1   2  -1   87.47    7.36
   1   2  -1   92.45    7.87
   1   2  -1   96.85    7.45
   1   2  -1   93.05    7.37
   1   2   0    0.52    1.13
   1   2   0    0.78    1.38
   1   2   1   26.76    3.91
   1   2   1   25.24    3.55
   1   2   1   23.00    3.70
   1   2   1   25.56    3.84
   1   2   2  924.51   28.08
   1   2   2  923.41   27.66
  -1  -2  -2  887.88   29.67
   1   2   2  954.13   28.94
   1   2   2 1041.07   31.75
   1   2   2  961.26   30.58
   1   2   2 1044.02   29.12
   1   2   3  431.38   17.16
   1   2   3  400.88   17.08
   1   2   3  398.42   19.55
   1   2   3  428.37   20.05
  -1  -2  -3  376.27   18.39
   1   2   4   73.93    6.73
   1   2   4   69.67    8.58
   1   2   4   76.86    8.95
   1   2   4   72.96    6.68
  -1  -2  -4   66.82    8.15
   1   2   5   88.95    6.98
   1   2   5   81.76   10.31
   1   2   5   83.70   10.23
   1   2   5   91.00    7.09
  -1  -2  -5   75.92    9.34
   1   2   6   99.69    4.41
   1   2   6  101.11    4.27
   1   2   6   99.37   12.53
   1   2   6  102.13   12.67
   1   2   6  102.51    4.59
  -1  -2  -6   91.22   11.31
   1   2   6  105.93    4.44
   1   2   7  124.90    5.64
  -1  -2  -7  120.43   14.01
   1   2   7  149.01   16.52
   1   2   7  120.20    5.31
  -1  -2  -7  122.83    4.96
   1   2   7  134.09    6.01
   1   2   7  127.26    5.15
   1   2   7  127.03    5.42
   1   2   7  129.91    5.30
   1   2   7  117.38    4.93
   1   2   7  139.84   16.03
   1   2   8    8.83    1.38
   1   2   8    8.37    1.74
  -1  -2  -8   11.55    5.03
   1   2   8   11.83    1.61
  -1  -2  -8    9.81    1.50
   1   2   8   11.10    1.61
   1   2   8   10.76    1.41
   1   2   8   10.90    4.70
   1   2   8    8.20    1.44
   1   2   8    4.99    3.59
   1   2   9    2.61    0.98
  -1  -2  -9    2.39    0.95
   1   2   9    1.71    0.89
  -1  -2  -9    0.01    2.04
   1   2   9   -0.24    3.41
   1   2   9    3.09    1.01
   1   2   9    2.83    1.01
   1   2   9    2.88    4.98
   1   2  10   16.82    2.02
  -1  -2 -10   13.08    5.26
   1   2  10   27.20    8.97
  -1  -2 -10   18.90    2.12
   1   2  10   10.39    5.72
   1   2  10   19.39    2.07
   1   2  10   21.28    2.36
   1   2  10   19.38    2.12
   1   2  10   14.09    1.93
  -1  -2 -11   62.12    3.59
   1   2  11   65.34    4.01
   1   2  11   58.42    3.44
   1   2  12   14.32    1.71
  -1  -2 -12   17.52    1.67
   1   2  12   16.46    1.60
  -1  -3  11    1.60    0.71
   1   3 -11    1.25    0.65
   1   3 -11    1.70    0.56
  -1  -3  11    1.69    0.73
   1   3 -11   -0.11    0.57
   1   3 -11    1.49    0.64
   1   3 -11    1.18    0.55
  -1  -3  10    3.53    1.01
  -1  -3  10    2.77    0.94
   1   3 -10    4.04    1.17
   1   3 -10    2.81    0.85
   1   3 -10    3.22    0.80
   1   3 -10    3.52    1.23
   1   3  -9  128.14    6.02
  -1  -3   9  116.42    4.86
   1   3  -9  121.72    5.12
   1   3  -9  115.78    5.59
   1   3  -8   37.98    8.99
   1   3  -8   42.07    3.23
   1   3  -8   44.34    3.19
   1   3  -8   42.51    3.52
   1   3  -8   43.09    2.88
   1   3  -7   53.67    3.40
   1   3  -7   47.56    3.74
   1   3  -7   60.27   10.72
   1   3  -7   59.07    3.36
   1   3  -7   54.06    3.19
   1   3  -7   53.03    3.47
   1   3  -6   10.70    1.43
   1   3  -6    9.79    1.32
   1   3  -6   11.50    1.38
   1   3  -6   12.20    1.60
   1   3  -6   11.36    4.47
   1   3  -6    8.60    1.49
   1   3  -6    9.91    1.43
   1   3  -5  171.63   12.09
   1   3  -5  146.69    5.49
   1   3  -5  150.11    5.97
   1   3  -5  151.87    5.42
   1   3  -5  173.99   11.66
   1   3  -5  155.77   15.74
   1   3  -5  148.62    5.46
   1   3  -5  155.17    5.70
   1   3  -4   91.11    9.07
   1   3  -4   93.63    8.86
   1   3  -4   82.15   10.43
   1   3  -4   91.21    3.46
   1   3  -3  318.26   17.57
   1   3  -3  314.51    8.03
   1   3  -3  316.67   19.67
   1   3  -3  330.36   17.47
   1   3  -2  105.70    9.67
   1   3  -2  114.86    4.05
   1   3  -2  120.22   10.24
   1   3  -2  126.32   10.60
   1   3  -1  500.92   22.50
   1   3  -1  545.67   23.13
   1   3  -1  519.71   22.57
   1   3  -1  506.74   11.89
   1   3  -1  537.82   11.94
   1   3  -1  536.28   24.01
   1   3   0  502.85   11.77
   1   3   0  526.05   22.78
   1   3   0  537.45   22.82
   1   3   0  503.38   23.19
   1   3   0  509.70   22.20
   1   3   0  537.64   11.88
   1   3   1  836.78   29.98
   1   3   1  852.38   30.01
   1   3   1  785.24   29.24
   1   3   1  855.42   31.15
   1   3   1  814.55   17.06
   1   3   1  788.61   16.98
   1   3   2  215.10   13.83
   1   3   2  207.40   13.71
   1   3   2  194.23   13.16
   1   3   2  195.98    5.81
   1   3   3   13.79    3.59
   1   3   3   14.71    3.68
   1   3   3   11.49    1.20
  -1  -3  -3   13.51    3.90
   1   3   3   12.72    3.20
   1   3   3   10.82    3.43
   1   3   4    1.35    1.88
  -1  -3  -4    3.71    2.09
   1   3   4    3.61    0.78
   1   3   4    3.41    1.84
   1   3   4    4.08    2.27
   1   3   4    5.88    3.40
   1   3   5  135.63   11.06
   1   3   5  125.18    4.32
   1   3   5  115.57   13.56
   1   3   5  140.09    5.60
   1   3   5  121.58    4.97
   1   3   5  136.98   11.01
   1   3   5  134.00   14.75
   1   3   5  120.02    4.98
   1   3   5  123.45    4.82
  -1  -3  -5  103.18   11.95
  -1  -3  -6    6.43    3.40
   1   3   6    8.12    1.55
   1   3   6    5.72    1.09
   1   3   6   10.31    4.64
   1   3   6    8.93    1.27
   1   3   6    8.55    1.41
   1   3   6    8.82    1.46
   1   3   6    6.16    3.46
   1   3   6    8.10    1.35
   1   3   6    7.76    1.30
  -1  -3  -7    1.40    2.34
   1   3   7    0.70    0.67
   1   3   7   -0.47    0.57
   1   3   7   -2.67    3.07
   1   3   7    0.77    0.59
   1   3   7    0.02    0.58
   1   3   7    0.01    0.72
   1   3   7   -1.13    1.82
   1   3   7    1.35    0.82
   1   3   7    0.35    0.53
   1   3   8    0.44    0.51
   1   3   8    0.19    0.65
   1   3   8    1.95    0.96
  -1  -3  -8    1.66    1.68
   1   3   8    0.62    0.63
   1   3   8    0.15    0.84
   1   3   8    0.85    0.49
   1   3   8    1.79    0.80
   1   3   8    0.12    3.47
   1   3   8   -4.16    4.21
  -1  -3  -8    0.58    0.72
   1   3   9   32.66    2.91
   1   3   9   33.72    3.10
  -1  -3  -9   21.42    6.69
   1   3   9   35.21    3.03
  -1  -3  -9   33.99    2.52
   1   3   9   29.03    9.50
   1   3   9   35.04    2.55
   1   3   9   44.60   10.57
   1   3   9   36.96    2.94
   1   3  10   81.79    4.38
   1   3  10   82.51    4.54
   1   3  10   75.24    3.71
  -1  -3 -10   78.18    3.87
   1   3  10   70.88    4.34
   1   3  10   66.66    3.78
   1   3  11   67.04    4.28
   1   3  11   73.71    3.96
  -1  -3 -11   69.08    3.28
   1   3  12    5.24    1.05
   1   3  12    9.30    1.21
  -1  -4  11   11.98    1.38
  -1  -4  11    9.46    1.11
   1   4 -11    8.50    0.96
   1   4 -11    8.30    1.25
   1   4 -11   11.94    1.17
   1   4 -11   10.48    1.35
  -1  -4  10    5.23    1.20
   1   4 -10    3.97    0.83
   1   4 -10    4.02    0.89
  -1  -4  10    4.88    1.02
   1   4 -10    6.20    1.31
   1   4 -10    3.45    0.89
   1   4 -10    3.31    1.11
   1   4  -9  127.20    5.90
   1   4  -9  133.44    6.77
   1   4  -9  140.45    6.12
   1   4  -8    2.23    0.84
   1   4  -8    3.19    1.21
   1   4  -8    1.12    0.70
   1   4  -8    2.43    0.71
   1   4  -8    1.28    0.74
   1   4  -7   -0.52    0.45
   1   4  -7    0.10    0.81
   1   4  -7    0.00    0.63
   1   4  -7   -0.40    0.58
   1   4  -7   -0.91    0.64
   1   4  -7    0.80    0.62
   1   4  -7   -0.11    0.51
   1   4  -6   80.67    4.83
   1   4  -6   87.75    4.57
   1   4  -6   82.50    4.81
   1   4  -6   88.75    4.59
   1   4  -6   84.53    5.29
   1   4  -6   81.37    4.20
   1   4  -6   85.24    4.48
   1   4  -5   39.13    6.92
   1   4  -5   39.18    2.68
   1   4  -5   39.01    3.05
   1   4  -5   40.09    3.41
   1   4  -5   41.83    6.97
   1   4  -5   39.88    2.88
   1   4  -5   40.48    3.14
   1   4  -5   41.19    2.98
   1   4  -5   38.40    2.75
   1   4  -4  140.88    5.65
   1   4  -4  141.65    5.33
   1   4  -4  143.37    5.26
   1   4  -4  139.70    5.98
   1   4  -4  133.57    4.99
   1   4  -4  152.93   13.61
   1   4  -4  143.16    5.43
   1   4  -4  138.27    6.17
   1   4  -4  140.81    5.39
   1   4  -4  141.65    5.64
   1   4  -4  156.12    6.61
   1   4  -4  144.60   13.76
   1   4  -4  138.52    5.37
   1   4  -4  141.37    5.97
   1   4  -4  141.87    5.37
   1   4  -4  150.68    5.26
   1   4  -3   96.50    4.42
   1   4  -3   90.42    4.13
   1   4  -3   94.06    4.11
   1   4  -3   91.34    4.14
   1   4  -3   95.42    4.10
   1   4  -3   98.34    4.52
   1   4  -3   91.91    4.26
   1   4  -3   90.46    4.25
   1   4  -3   90.18    4.66
   1   4  -3   98.33   11.41
   1   4  -3  102.40    4.91
   1   4  -3   93.11   10.90
   1   4  -3   92.58    4.50
   1   4  -3   98.58    4.67
   1   4  -3   91.52    3.94
   1   4  -3   91.02    4.13
   1   4  -2    8.01    1.13
   1   4  -2    7.92    1.17
   1   4  -2    9.47    3.66
   1   4  -2   14.39    4.17
   1   4  -2    9.61    1.24
   1   4  -2   10.50    1.27
   1   4  -2    9.82    3.23
   1   4  -2   10.07    1.31
   1   4  -2   10.43    1.46
   1   4  -2   10.77    1.25
   1   4  -2    8.32    1.24
   1   4  -2    8.93    1.17
   1   4  -2   10.02    1.25
   1   4  -2    9.76    1.23
   1   4  -1  261.66    7.67
   1   4  -1  266.91   18.22
   1   4  -1  278.82   18.55
   1   4  -1  281.33   19.19
   1   4   0  119.74   12.73
   1   4   0  111.72    4.54
   1   4   0  117.17   11.81
   1   4   0  107.56   11.46
   1   4   0   91.44   10.82
   1   4   0  116.67    4.55
   1   4   1  107.28   11.43
   1   4   1  122.59    4.71
   1   4   1  125.13    4.87
   1   4   1  127.59   12.32
   1   4   1  110.00   12.06
   1   4   2    2.19    1.75
   1   4   2    1.91    0.72
   1   4   2    2.44    0.78
   1   4   2    3.21    2.73
   1   4   2    2.06    0.78
   1   4   2    3.04    0.76
   1   4   2    2.39    0.77
  -1  -4  -2    4.01    2.57
   1   4   2    2.45    0.63
   1   4   2    1.63    1.71
   1   4   3    0.01    0.41
   1   4   3    1.46    1.32
   1   4   3    0.53    0.44
   1   4   3    0.09    0.36
   1   4   3    0.23    0.42
   1   4   3    0.05    0.43
   1   4   3    0.42    0.40
   1   4   3   -0.77    2.31
   1   4   3    0.09    0.43
   1   4   3   -0.39    0.63
   1   4   3    0.41    0.64
   1   4   3    0.14    0.43
   1   4   3    0.57    0.39
   1   4   3    0.38    0.58
   1   4   4    3.61    0.73
   1   4   4    5.27    1.20
   1   4   4    3.87    0.90
   1   4   4    4.15    0.99
   1   4   4    4.24    0.79
   1   4   4    5.65    0.93
   1   4   4    4.25    2.29
   1   4   4    4.35    0.97
   1   4   4    4.69    1.07
   1   4   4    4.25    0.94
   1   4   4    4.33    2.53
   1   4   4    3.38    0.91
   1   4   4    4.43    0.97
   1   4   4    3.63    0.90
  -1  -4  -4    5.65    3.27
   1   4   4    4.22    0.92
   1   4   4    4.61    0.93
   1   4   4    3.97    1.06
   1   4   4    3.70    0.83
   1   4   5   68.74    4.25
   1   4   5   71.17    4.14
  -1  -4  -5   53.49    9.50
   1   4   5   67.20    4.18
   1   4   5   64.06    3.59
   1   4   5   69.30    3.81
   1   4   5   69.39    3.89
   1   4   5   74.31    9.54
   1   4   5   72.34    3.69
   1   4   5   69.18    4.15
   1   4   5   68.40    3.68
   1   4   5   77.46    9.96
   1   4   5   67.35    3.85
   1   4   5   72.13    3.44
   1   4   6  319.95   10.05
   1   4   6  304.03   10.34
   1   4   6  295.11   10.06
   1   4   6  291.52    9.22
   1   4   6  294.10    9.20
   1   4   6  286.59    9.36
   1   4   6  286.60    9.62
   1   4   6  285.94    9.18
  -1  -4  -6  294.82   23.60
   1   4   6  304.57    9.89
   1   4   7  175.98    6.81
   1   4   7  183.01    7.95
   1   4   7  183.51    7.12
   1   4   7  189.83    7.31
   1   4   7  178.05    7.53
   1   4   7  188.73    7.67
   1   4   7  181.37    7.14
   1   4   7  190.30    7.50
   1   4   7  190.51    8.07
   1   4   8   55.18    4.31
   1   4   8   59.28    4.33
   1   4   8   56.95    4.16
   1   4   8   58.07    3.87
   1   4   8   62.71    3.48
   1   4   8   64.53    4.00
   1   4   8   57.15    3.91
   1   4   8   57.06    3.87
   1   4   8   61.80    4.03
   1   4   9   12.32    1.98
   1   4   9   12.17    1.66
   1   4   9   11.49    2.10
   1   4   9   14.49    1.81
   1   4   9   12.14    1.76
   1   4   9    9.92    1.53
   1   4  10    1.71    0.95
   1   4  10    1.11    0.63
   1   4  10    1.03    0.56
   1   4  11    1.25    0.71
   1   4  11    0.69    0.50
   1   4  11    0.37    0.45
   1   5 -10    1.76    0.53
  -1  -5  10    1.96    0.60
   1   5 -10    1.25    0.68
   1   5 -10    0.83    0.43
   1   5  -9    1.87    0.68
   1   5  -9    2.49    0.80
   1   5  -9    1.02    0.65
   1   5  -9    1.84    0.83
  -1  -5   9    0.42    0.52
   1   5  -9    0.85    0.56
   1   5  -8   10.76    1.46
   1   5  -8    9.20    1.16
   1   5  -8   10.26    1.57
   1   5  -8   10.80    1.69
   1   5  -8    8.96    1.66
  -1  -5   8    9.08    1.26
   1   5  -8   10.98    1.50
   1   5  -8    8.51    1.63
   1   5  -7   21.95    2.23
   1   5  -7   18.50    1.82
   1   5  -7   19.44    2.33
   1   5  -7   21.91    2.20
   1   5  -7   22.37    2.68
   1   5  -7   18.36    2.40
   1   5  -7   22.27    2.37
   1   5  -6  125.68    5.71
   1   5  -6  118.85    6.08
   1   5  -6  125.58    6.05
   1   5  -6  117.30    5.93
   1   5  -6  112.10    6.57
   1   5  -6  129.51    5.80
   1   5  -6  110.47    5.37
   1   5  -5   15.94    1.66
   1   5  -5    9.78    1.57
   1   5  -5   15.69    2.00
   1   5  -5   13.98    1.49
   1   5  -5   15.50    2.21
   1   5  -5   14.81    2.12
   1   5  -5    8.15    1.52
   1   5  -5   12.99    1.99
   1   5  -5   13.00    1.72
   1   5  -4  479.03   13.47
   1   5  -4  473.25   14.19
   1   5  -4  518.22   29.60
   1   5  -4  486.05   12.93
   1   5  -4  486.05   13.87
   1   5  -4  494.95   13.89
   1   5  -4  485.35   14.01
   1   5  -4  502.73   12.91
   1   5  -4  473.73   29.65
   1   5  -4  478.29   13.36
   1   5  -4  498.03   14.58
   1   5  -4  496.54   13.01
   1   5  -4  510.21   12.89
   1   5  -4  468.34   12.65
   1   5  -3   64.86    3.72
   1   5  -3   63.27    3.60
   1   5  -3   61.92    3.68
   1   5  -3   64.26    3.86
   1   5  -3   66.05    3.97
   1   5  -3   63.43    4.16
   1   5  -3   61.65    3.78
   1   5  -3   70.88    4.09
   1   5  -3   65.04    3.78
   1   5  -3   62.03   10.44
   1   5  -3   66.48   10.54
   1   5  -3   64.79    4.23
   1   5  -3   60.16    3.32
   1   5  -3   62.72    4.00
   1   5  -3   66.50    3.82
   1   5  -3   60.39    3.69
   1   5  -3   67.81    3.74
   1   5  -2   18.26    2.14
   1   5  -2   15.54    1.85
   1   5  -2   18.02    1.89
   1   5  -2   18.90    1.93
   1   5  -2   19.73    2.01
   1   5  -2   16.09    5.14
   1   5  -2   17.98    1.94
   1   5  -2   24.39    6.64
   1   5  -2   19.27    1.95
   1   5  -2   18.97    2.14
   1   5  -2   19.23    2.16
   1   5  -2   19.60    2.07
   1   5  -2   17.57    1.94
   1   5  -2   19.57    1.94
   1   5  -2   19.19    1.96
   1   5  -2   20.45    2.11
   1   5  -2   18.54    1.94
   1   5  -1    7.53    3.90
   1   5  -1    4.44    1.03
   1   5  -1    3.99    0.96
   1   5  -1    4.88    3.17
   1   5  -1    5.14    1.19
   1   5  -1    5.46    1.10
   1   5  -1    4.61    1.02
   1   5  -1    5.17    1.11
   1   5  -1    5.19    1.18
   1   5  -1    5.56    1.10
   1   5  -1    5.71    3.05
   1   5  -1    4.76    0.95
   1   5  -1    4.34    0.91
   1   5  -1    3.80    1.00
   1   5  -1    4.19    0.92
   1   5  -1    3.79    1.01
   1   5  -1    5.65    1.08
   1   5  -1    4.28    0.89
   1   5  -1    3.59    0.86
   1   5   0  111.50    4.87
   1   5   0  106.64    4.70
   1   5   0  101.94    4.98
   1   5   0  106.25    5.24
   1   5   0  111.00    5.12
   1   5   0  102.30    4.81
   1   5   0   99.59    4.62
   1   5   0  116.47   13.55
   1   5   0  110.59    4.83
   1   5   0  102.36    4.68
   1   5   0  104.88    5.13
   1   5   0  108.56    4.73
   1   5   0  100.37    4.75
   1   5   0  109.53    5.20
   1   5   0  107.67    4.76
   1   5   0  100.99   12.83
   1   5   0   99.49   13.03
   1   5   0  103.61    4.85
   1   5   0  104.41    4.73
   1   5   0  113.45    5.35
   1   5   1   77.74    3.91
   1   5   1   71.68    4.06
   1   5   1   77.04    4.06
   1   5   1   68.52    3.77
   1   5   1   75.95    3.91
   1   5   1   75.43    3.95
   1   5   1   75.47    3.97
   1   5   1   76.01    4.05
   1   5   1   80.93   11.72
   1   5   1   77.59    3.78
   1   5   1   79.55    4.49
   1   5   1   80.19    4.42
   1   5   1   78.86    4.35
   1   5   1   71.89    3.72
   1   5   1   75.65    4.24
   1   5   1   73.53   11.05
   1   5   1   76.37   11.03
   1   5   1   78.63    4.09
   1   5   1   76.85    3.92
   1   5   2    0.62    0.44
   1   5   2    0.42    0.47
   1   5   2    3.68    3.58
   1   5   2    1.19    0.69
   1   5   2    0.63    0.46
   1   5   2    1.53    0.64
   1   5   2    0.66    0.61
   1   5   2   -0.35    0.61
   1   5   2   -0.28    0.54
   1   5   2    3.34    2.67
   1   5   2    1.21    0.66
   1   5   2    1.54    0.69
   1   5   2    0.66    0.58
   1   5   2    0.34    0.59
  -1  -5  -2   -1.07    2.67
   1   5   2    0.08    0.70
   1   5   3   12.15    4.22
   1   5   3    8.88    1.31
   1   5   3   10.22    1.48
   1   5   3    8.26    1.49
   1   5   3   11.11    1.40
   1   5   3    8.50    1.04
   1   5   3   10.87    1.62
   1   5   3   10.39    1.48
   1   5   3    9.00    1.39
   1   5   3    9.03    1.31
   1   5   3    9.18    1.42
   1   5   3   10.29    1.57
   1   5   3   10.91    1.45
   1   5   3   10.02    1.43
  -1  -5  -3    5.58    3.76
   1   5   3   11.02    1.67
   1   5   3    5.77    3.23
   1   5   3    8.88    1.27
   1   5   4  325.73    9.58
   1   5   4  318.04   23.80
   1   5   4  315.43   10.13
   1   5   4  310.00   10.53
   1   5   4  316.98   10.46
   1   5   4  326.26   10.52
   1   5   4  288.12    9.15
   1   5   4  318.33    9.39
   1   5   4  298.37    9.67
   1   5   4  299.51    9.62
   1   5   4  295.00    9.04
   1   5   4  292.31    9.32
   1   5   4  298.16   22.43
   1   5   4  323.07    9.60
  -1  -5  -4  284.85   23.33
   1   5   4  309.18   10.20
   1   5   4  322.88    9.61
   1   5   5  499.77   13.98
   1   5   5  502.22   14.61
   1   5   5  497.68   14.38
   1   5   5  473.22   12.65
   1   5   5  477.89   13.36
   1   5   5  473.06   13.40
   1   5   5  486.38   14.08
   1   5   5  474.94   13.37
   1   5   5  492.11   28.87
   1   5   5  476.74   12.62
   1   5   5  515.17   13.11
  -1  -5  -5  433.15   29.90
   1   5   5  465.46   12.90
   1   5   5  524.33   30.49
   1   5   5  516.66   13.11
   1   5   5  503.68   12.99
   1   5   5  512.23   12.88
   1   5   6  143.42    6.37
   1   5   6  140.42    6.73
   1   5   6  138.20    6.05
   1   5   6  141.82    6.14
   1   5   6  137.33    6.74
   1   5   6  132.27    5.82
   1   5   6  138.14    6.16
  -1  -5  -6  110.17   14.69
   1   5   6  127.66    5.56
   1   5   6  139.57    6.55
   1   5   7    5.91    1.29
   1   5   7    6.50    1.34
   1   5   7    7.26    1.41
   1   5   7    7.95    1.53
   1   5   7    5.56    1.41
   1   5   7    7.13    1.31
   1   5   7    7.91    1.42
   1   5   7    9.52    1.98
   1   5   7    6.31    1.44
   1   5   8   51.20    3.31
   1   5   8   44.53    3.75
   1   5   8   46.59    3.75
   1   5   8   50.53    3.14
   1   5   8   50.50    3.25
   1   5   8   49.73    3.52
   1   5   8   52.25    3.41
   1   5   9   31.94    3.04
   1   5   9   31.67    2.88
   1   5   9   32.54    2.29
   1   5   9   29.69    2.45
   1   5   9   37.04    2.54
   1   5  10    5.42    1.13
   1   5  10    5.29    1.02
   1   6  -8    2.22    0.60
   1   6  -8    2.45    0.78
   1   6  -8    1.62    0.58
   1   6  -8    1.42    0.61
   1   6  -8    1.84    0.81
   1   6  -7    2.83    0.84
   1   6  -7    3.10    0.89
   1   6  -7    2.78    0.90
   1   6  -7    2.66    0.83
   1   6  -7    2.77    0.97
   1   6  -7    3.76    0.88
   1   6  -6   43.08    3.23
   1   6  -6   46.45    3.39
   1   6  -6   48.60    3.42
   1   6  -6   49.53    3.29
   1   6  -6   40.30    3.22
   1   6  -6   50.02    3.70
   1   6  -5   37.81    3.03
   1   6  -5   34.64    2.95
   1   6  -5   40.93    3.20
   1   6  -5   39.08    3.14
   1   6  -5   40.49    2.76
   1   6  -5   41.94    3.08
   1   6  -5   39.67    3.35
   1   6  -4   33.84    2.91
   1   6  -4   32.09    2.58
   1   6  -4   32.01    2.64
   1   6  -4   32.83    2.89
   1   6  -4   36.49    3.04
   1   6  -4   33.13    7.62
   1   6  -4   33.62    2.67
   1   6  -4   32.94    2.86
   1   6  -4   33.89    3.20
   1   6  -4   32.67    2.84
   1   6  -4   27.48    7.68
   1   6  -3   74.13    4.32
   1   6  -3   76.17    4.53
   1   6  -3   69.36    4.64
   1   6  -3   72.46    4.31
   1   6  -3   77.68    4.15
   1   6  -3   76.35    4.24
   1   6  -3   71.86    4.31
   1   6  -3   74.14    4.32
   1   6  -3   70.39   11.99
   1   6  -3   69.40    4.15
   1   6  -3   71.58    4.18
   1   6  -3   79.72   12.90
   1   6  -3   73.74    4.68
   1   6  -2    6.62    1.36
   1   6  -2    5.04    4.37
   1   6  -2    6.06    1.42
   1   6  -2    8.22    1.33
   1   6  -2    6.89    1.32
   1   6  -2    6.05    1.28
   1   6  -2    5.56    1.29
   1   6  -2    5.92    1.21
   1   6  -2    6.57    1.12
   1   6  -2    7.47    1.39
   1   6  -2    7.49    4.01
   1   6  -2    6.88    1.56
   1   6  -2    6.58    1.28
   1   6  -2    7.46    1.39
   1   6  -2    5.86    1.25
   1   6  -2    7.10    1.39
   1   6  -2    6.47    1.30
   1   6  -1   31.58    2.74
   1   6  -1   23.95    7.07
   1   6  -1   31.43    2.61
   1   6  -1   33.15    2.77
   1   6  -1   37.52    2.89
   1   6  -1   36.57    2.86
   1   6  -1   36.76    2.98
   1   6  -1   36.60    2.92
   1   6  -1   36.80    3.14
   1   6  -1   34.57    2.91
   1   6  -1   32.55    7.71
   1   6  -1   39.36    3.36
   1   6  -1   36.42    2.94
   1   6  -1   38.46    3.25
   1   6  -1   35.79    2.72
   1   6  -1   39.29    3.07
   1   6  -1   33.43    2.74
   1   6   0    1.15    0.59
   1   6   0    1.48    0.69
   1   6   0    0.50    2.61
   1   6   0    0.23    0.60
   1   6   0    1.53    0.70
   1   6   0    1.65    0.73
   1   6   0    0.10    0.88
   1   6   0    1.82    0.99
   1   6   0    1.75    0.72
   1   6   0    2.21    0.63
   1   6   0    0.87    1.57
   1   6   0    0.64    0.65
   1   6   0    2.15    0.97
   1   6   0    1.69    0.97
   1   6   0    1.78    1.06
   1   6   0    2.24    0.83
   1   6   0    2.57    0.81
   1   6   0    0.64    0.67
   1   6   1   99.26    4.80
   1   6   1   99.32   14.56
   1   6   1  102.44    5.09
   1   6   1  102.59    5.56
   1   6   1  108.86    5.38
   1   6   1  104.29    5.11
   1   6   1  104.77    4.92
   1   6   1   98.11   13.86
   1   6   1  103.53    4.98
   1   6   1   96.24    4.62
   1   6   1  104.28    5.54
   1   6   1  102.71    5.24
  -1  -6  -1   96.57   14.28
   1   6   1  103.92    5.18
   1   6   1  106.77    5.14
   1   6   1  102.15    4.74
   1   6   1  107.35    5.46
   1   6   1  108.18    5.17
   1   6   2   -0.29    0.77
   1   6   2    0.56    0.47
   1   6   2   -0.34    0.64
   1   6   2   -0.10    0.61
   1   6   2   -0.48    0.66
   1   6   2    0.56    0.71
   1   6   2    0.33    0.63
   1   6   2   -0.18    1.46
   1   6   2    0.13    0.48
   1   6   2    0.81    1.87
   1   6   2   -0.83    0.59
   1   6   2    0.65    0.54
   1   6   2   -1.92    1.09
   1   6   2    0.11    0.73
   1   6   2   -0.20    0.56
  -1  -6  -2    1.43    2.65
   1   6   3   36.51    3.11
   1   6   3   34.99    2.94
   1   6   3   32.04    8.10
   1   6   3   35.18    3.08
   1   6   3   33.55    2.74
   1   6   3   34.25    2.80
   1   6   3   35.52    2.84
   1   6   3   36.28    2.87
  -1  -6  -3   30.42    7.81
   1   6   3   35.80    2.92
   1   6   3   38.41    2.96
   1   6   3   35.87    3.18
   1   6   3   37.78    3.17
   1   6   3   48.46    9.60
   1   6   4    0.33    0.61
   1   6   4    0.57    0.76
   1   6   4    0.95    0.92
   1   6   4    0.29    0.50
   1   6   4   -0.34    0.63
   1   6   4    0.59    0.80
   1   6   4   -0.11    0.48
   1   6   4   -0.75    1.93
   1   6   4    0.27    0.64
   1   6   4    1.21    0.79
   1   6   4   -0.97    1.04
   1   6   4   -0.49    0.67
   1   6   4   -2.09    2.96
   1   6   5  221.06    8.05
   1   6   5  208.74    8.43
   1   6   5  214.93    8.37
   1   6   5  215.52    7.88
   1   6   5  221.20    7.39
   1   6   5  209.16    7.39
   1   6   5  216.73    7.41
   1   6   5  208.54    7.35
   1   6   5  206.40    8.19
   1   6   6   20.67    2.13
   1   6   6   23.68    2.29
   1   6   6   20.89    2.43
   1   6   6   23.39    2.40
   1   6   6   20.09    2.40
   1   6   6   22.88    2.19
   1   6   7   22.00    2.08
   1   6   7   20.85    2.30
   1   6   7   20.33    2.00
   1   6   7   22.60    2.42
   1   6   7   20.97    2.22
   1   6   8    1.11    0.37
   1   6   8    1.30    0.63
   1   6   8    1.57    0.71
   1   6   8    2.13    0.92
   1   6   8    1.13    0.73
   1   6   9   26.94    2.13
   1   6   9   27.07    1.80
   1   6   9   27.62    2.16
   1   7  -6   -0.17    0.42
   1   7  -6    0.82    0.59
   1   7  -6    0.27    0.44
   1   7  -6   -0.29    0.45
   1   7  -6    1.10    0.43
   1   7  -6    0.56    0.47
   1   7  -5    7.16    1.24
   1   7  -5    5.61    0.97
   1   7  -5    7.53    1.13
   1   7  -5    9.34    1.32
   1   7  -5    8.89    1.41
   1   7  -5    8.40    1.26
   1   7  -4   28.73    2.50
   1   7  -4   26.65    2.21
   1   7  -4   29.92    2.26
   1   7  -4   33.58    2.72
   1   7  -4   31.73    2.50
   1   7  -4   31.24    2.47
   1   7  -3    7.38    1.29
   1   7  -3    8.19    1.39
   1   7  -3    8.80    1.39
   1   7  -3    8.45    1.33
   1   7  -3    8.20    1.22
   1   7  -3    8.20    1.39
   1   7  -3    7.39    1.17
   1   7  -3    8.28    1.35
   1   7  -2    2.57    1.02
   1   7  -2    3.41    1.20
   1   7  -2    2.01    0.67
   1   7  -2    3.25    1.01
   1   7  -2    2.08    1.02
   1   7  -2    1.04    0.48
   1   7  -2    1.52    0.67
   1   7  -2    2.18    0.76
   1   7  -2    2.25    0.96
   1   7  -1   12.73    1.82
   1   7  -1   14.24    1.55
   1   7  -1   13.27    1.68
   1   7  -1   14.09    1.83
   1   7  -1   14.19    1.59
   1   7  -1   13.66    1.66
   1   7  -1   16.18    1.94
   1   7  -1   14.22    1.70
   1   7  -1   15.92    1.82
   1   7  -1   14.81    1.63
   1   7  -1   14.50    1.79
   1   7  -1   14.04    1.78
   1   7   0    0.19    0.52
   1   7   0    0.81    0.73
   1   7   0    0.33    0.66
   1   7   0   -0.08    0.52
   1   7   0   -0.31    0.68
   1   7   0   -0.25    0.69
   1   7   0   -0.28    0.65
   1   7   0   -0.98    0.56
   1   7   0    0.62    0.47
   1   7   0   -0.44    0.41
   1   7   0   -1.35    0.86
   1   7   0    1.55    0.93
   1   7   1    7.86    1.21
   1   7   1   11.00    1.67
   1   7   1    9.29    1.44
   1   7   1    9.46    1.36
   1   7   1   10.68    1.50
   1   7   1    8.92    1.19
   1   7   1   10.37    1.61
   1   7   1   11.17    1.62
   1   7   1    5.18    1.16
   1   7   1   11.18    1.75
   1   7   1    9.81    1.58
   1   7   2   -0.58    0.63
   1   7   2   -0.36    0.75
   1   7   2    0.71    0.88
   1   7   2    1.08    0.69
   1   7   2    1.15    0.70
   1   7   2    0.83    0.58
   1   7   2    0.55    0.70
   1   7   2    1.02    0.76
   1   7   2    0.57    0.68
   1   7   2    0.96    0.54
   1   7   3   46.77    3.18
   1   7   3   42.85    3.26
   1   7   3   46.12    3.08
   1   7   3   42.11    3.04
   1   7   3   44.45    2.95
   1   7   3   45.25    3.03
   1   7   3   46.20    3.32
   1   7   3   47.22    3.16
   1   7   4   13.60    1.62
   1   7   4   10.95    1.59
   1   7   4   11.60    1.60
   1   7   4   15.09    1.77
   1   7   4   12.86    1.72
   1   7   4   13.37    1.57
   1   7   5   22.01    2.16
   1   7   5   22.95    2.16
   1   7   5   23.37    2.14
   1   7   5   21.51    2.17
   1   7   5   24.02    2.08
   1   7   6    2.29    0.74
   1   7   6    1.34    0.72
   1   7   6    1.63    0.69
   1   7   6    1.95    0.72
   1   7   6    1.78    0.73
   1   7   7   14.51    1.50
   1   7   7   12.89    1.38
   1   7   7   15.19    1.45
   1   7   7   16.04    1.37
   1   8  -3   66.06    3.06
   1   8  -3   61.15    2.79
   1   8  -3   66.68    3.08
   1   8  -3   65.10    2.94
   1   8  -2   32.05    2.11
   1   8  -2   32.51    2.01
   1   8  -2   32.17    2.12
   1   8  -2   35.19    2.27
   1   8  -1   31.59    2.08
   1   8  -1   32.21    2.30
   1   8  -1   30.88    1.90
   1   8  -1   35.46    2.34
   1   8  -1   33.62    2.23
   1   8   0    8.36    1.01
   1   8   0    8.70    1.07
   1   8   0    9.16    1.17
   1   8   0    7.70    1.08
   1   8   1    1.23    0.44
   1   8   1    1.33    0.44
   1   8   1    1.94    0.67
   1   8   2   33.90    2.30
   1   8   2   34.20    2.21
   1   8   2   32.17    2.14
   1   8   3    2.37    0.61
   1   8   3    1.66    0.52
   1   8   3    3.41    0.73
   1   8   3    2.99    0.63
  -2   7   3  121.44    3.83
  -2   7   3  136.66    4.49
  -2   7   3  137.10    4.42
  -2   7   3  132.12    4.35
  -2   7   2    0.52    0.42
  -2   7   2    0.65    0.44
  -2   7   2    1.09    0.43
  -2   7   2    1.42    0.57
  -2   7   1    6.36    1.00
  -2   7   1    5.68    0.92
  -2   7   1    7.71    1.07
  -2   7   1    6.79    1.03
  -2   7   1    7.54    1.17
  -2   7   0    8.98    1.19
  -2   7   0    8.16    1.07
  -2   7   0    8.68    1.14
  -2   7   0    7.77    1.25
  -2   7   0    8.45    1.06
  -2   7   0    8.64    1.22
  -2   7   0    7.21    1.28
  -2   7  -1   60.30    3.24
  -2   7  -1   58.34    2.88
  -2   7  -1   63.33    3.16
  -2   7  -1   60.88    3.54
  -2   7  -1   60.08    3.36
  -2   7  -1   62.56    3.58
  -2   7  -2    2.88    0.81
  -2   7  -2    1.98    0.76
  -2   7  -2    1.63    0.58
  -2   7  -2    1.23    0.70
  -2   7  -2    1.21    0.58
  -2   7  -3   11.37    1.29
  -2   7  -3    9.03    1.30
  -2   7  -3   11.28    1.37
  -2   7  -3   10.33    1.41
  -2   7  -3   11.92    1.42
  -2   7  -4   -0.36    0.37
  -2   7  -4   -1.08    0.58
  -2   7  -4   -0.69    0.46
  -2   7  -4    0.49    0.41
  -2   7  -4    0.23    0.47
  -2   7  -5    3.81    0.72
  -2   7  -5    5.66    0.90
  -2   7  -5    3.67    0.72
  -2   7  -5    3.99    0.80
  -2   6   6   49.16    2.47
  -2   6   6   45.07    2.49
  -2   6   6   46.62    2.52
  -2   6   6   53.06    2.87
  -2   6   6   47.65    2.73
  -2   6   5   58.84    3.28
  -2   6   5   65.74    3.33
  -2   6   5   66.65    3.50
  -2   6   5   61.66    3.06
  -2   6   5   62.74    3.54
  -2   6   4   13.95    1.74
  -2   6   4   12.76    1.27
  -2   6   4   13.02    1.69
  -2   6   4   14.91    1.77
  -2   6   4   14.13    1.53
  -2   6   4   13.14    1.76
  -2   6   3   -0.45    0.66
  -2   6   3    1.20    0.83
  -2   6   3    0.71    0.58
  -2   6   3   -0.43    0.60
  -2   6   3   -0.19    0.65
  -2   6   3   -0.34    0.69
  -2   6   3    0.31    0.54
  -2   6   3    0.71    0.64
  -2   6   2  105.59    5.01
  -2   6   2   99.74    4.57
  -2   6   2  101.50    4.75
  -2   6   2  103.41    4.94
  -2   6   2   90.71    4.27
  -2   6   2   96.01    4.46
  -2   6   2   99.44    4.89
  -2   6   2   99.26    5.20
  -2   6   2   99.96    5.07
  -2   6   1   62.38    3.91
  -2   6   1   58.21    3.71
  -2   6   1   57.20    4.16
  -2   6   1   63.56    3.64
  -2   6   1   63.94    3.71
  -2   6   1   58.19    3.35
  -2   6   1   64.77    4.11
  -2   6   1   59.70    3.49
  -2   6   1   61.54    4.23
  -2   6   1   64.57    3.91
  -2   6   1   59.09    3.61
  -2   6   0    1.48    0.89
  -2   6   0    0.97    0.61
  -2   6   0    0.50    0.71
  -2   6   0    0.29    0.67
  -2   6   0    1.83    0.92
  -2   6   0    1.24    0.79
  -2   6   0    0.97    0.82
  -2   6   0    1.01    0.87
  -2   6   0    0.41    0.50
  -2   6   0    0.52    0.71
  -2   6   0    1.73    1.00
  -2   6   0    0.60    0.80
  -2   6   0    0.88    0.65
  -2   6  -1   77.82    4.47
  -2   6  -1   80.41    4.73
  -2   6  -1   65.52    4.21
  -2   6  -1   76.53    4.13
  -2   6  -1   73.57    3.86
  -2   6  -1   64.77    3.45
  -2   6  -1   78.25    4.69
  -2   6  -1   77.85    4.27
  -2   6  -1   71.11    4.44
  -2   6  -1   69.44    4.46
  -2   6  -1   80.68    4.14
  -2   6  -1   81.84    4.64
  -2   6  -1   80.98    4.42
  -2   6  -2   -0.07    0.61
  -2   6  -2    0.71    0.67
  -2   6  -2    1.51    1.13
  -2   6  -2    0.54    0.63
  -2   6  -2    0.86    0.78
  -2   6  -2    0.46    0.58
  -2   6  -2   -0.11    0.76
  -2   6  -2   -0.07    0.69
  -2   6  -2    0.84    0.61
  -2   6  -2    1.91    0.90
  -2   6  -2    1.31    1.17
  -2   6  -2    1.50    1.02
  -2   6  -3  101.47    5.34
  -2   6  -3  121.44    5.73
  -2   6  -3  123.27    5.80
  -2   6  -3  122.02    5.37
  -2   6  -3  118.82    5.73
  -2   6  -3  109.66    5.64
  -2   6  -3  122.22    5.96
  -2   6  -3  110.21    5.44
  -2   6  -3  122.27    5.19
  -2   6  -3  117.87    5.30
  -2   6  -3  128.07    6.03
  -2   6  -3  116.59    5.89
  -2   6  -4    0.20    0.81
  -2   6  -4   -0.53    0.67
  -2   6  -4    0.08    0.79
  -2   6  -4   -0.10    0.50
  -2   6  -4   -0.79    0.64
  -2   6  -4   -0.43    0.60
  -2   6  -4    0.25    0.73
  -2   6  -4    0.04    0.72
  -2   6  -4    0.35    0.56
  -2   6  -4    1.25    0.71
  -2   6  -5   15.21    1.65
  -2   6  -5   14.27    1.84
  -2   6  -5   17.08    2.02
  -2   6  -5   14.75    1.63
  -2   6  -5   15.22    1.66
  -2   6  -5   17.85    2.02
  -2   6  -5   16.00    2.03
  -2   6  -5   17.76    2.12
  -2   6  -5   15.72    1.96
  -2   6  -6    8.44    1.44
  -2   6  -6    7.84    1.33
  -2   6  -6    8.77    1.30
  -2   6  -6    7.28    1.31
  -2   6  -6    7.02    1.27
  -2   6  -6    6.76    1.23
  -2   6  -7    6.01    1.08
  -2   6  -7    6.52    1.15
  -2   6  -7    4.25    0.99
  -2   6  -7    5.35    1.08
  -2   6  -7    6.94    1.19
  -2   6  -7    6.23    1.20
  -2   6  -8    1.66    0.67
  -2   6  -8    1.95    0.55
  -2   6  -8    1.00    0.49
  -2   6  -8    1.13    0.52
  -2   6  -8    1.92    0.52
  -2   5   8   17.84    1.68
  -2   5   8   17.12    1.53
  -2   5   8   16.10    1.22
  -2   5   8   16.76    1.79
  -2   5   8   23.35    1.66
  -2   5   8   21.58    1.80
  -2   5   8   18.03    1.67
  -2   5   7    1.10    0.64
  -2   5   7    0.67    0.63
  -2   5   7    0.62    0.53
  -2   5   7    0.45    0.68
  -2   5   7    1.05    0.52
  -2   5   7    1.02    0.56
  -2   5   7   -0.55    0.49
  -2   5   6    1.75    0.88
  -2   5   6    5.09    1.18
  -2   5   6    1.52    0.63
  -2   5   6    3.54    1.15
  -2   5   6    2.18    0.75
  -2   5   6    2.70    0.95
  -2   5   6    2.30    0.99
  -2   5   5   52.37    3.70
  -2   5   5   62.12    4.03
  -2   5   5   56.03    3.73
  -2   5   5   59.26    4.15
  -2   5   5   58.44    3.62
  -2   5   5   57.68    3.37
  -2   5   5   51.16    3.90
  -2   5   4   29.33    3.01
  -2   5   4   27.62    2.64
  -2   5   4   34.24    2.60
  -2   5   4   31.22    3.02
  -2   5   4   28.41    2.29
  -2   5   4   30.90    3.05
  -2   5   4   32.34    2.87
  -2   5   4   30.04    2.51
  -2   5   4   30.35    2.66
  -2   5   4   29.59    2.29
  -2   5   4   32.18    2.85
  -2   5   3   38.24    3.39
  -2   5   3   39.34    3.39
  -2   5   3   40.30    2.87
  -2   5   3   47.71    3.45
  -2   5   3   46.88    3.28
  -2   5   3   33.57    2.49
  -2   5   3   42.53    3.12
  -2   5   3   41.49    9.39
  -2   5   3   41.52    2.88
  -2   5   3   33.55    8.21
  -2   5   3   41.74    3.03
  -2   5   3   36.80    2.98
  -2   5   3   46.84    3.60
  -2   5   2   26.84    2.78
  -2   5   2   24.31    2.34
  -2   5   2   28.67    2.51
  -2   5   2   29.33    2.49
  -2   5   2   31.73    2.73
  -2   5   2   31.01    2.85
  -2   5   2   27.00    2.45
  -2   5   2   28.20    7.74
  -2   5   2   30.92    2.88
  -2   5   2   30.67    2.68
  -2   5   2   25.78    2.57
  -2   5   2   27.58    2.96
  -2   5   2   25.96    7.28
  -2   5   2   25.20    2.82
  -2   5   2   27.07    2.66
  -2   5   1   20.43    2.01
  -2   5   1   21.39    2.16
  -2   5   1   17.26    2.41
  -2   5   1   16.59    2.26
  -2   5   1   20.45    2.35
  -2   5   1   20.69    2.21
  -2   5   1   20.73    2.23
  -2   5   1   17.68    2.32
  -2   5   1   18.27    5.90
  -2   5   1   15.23    5.69
  -2   5   1   18.90    2.06
  -2   5   1   18.77    2.28
  -2   5   1   17.24    2.21
  -2   5   1   19.08    2.13
  -2   5   1   17.86    2.28
  -2   5   0   44.86    3.42
  -2   5   0   41.55    3.40
  -2   5   0   41.30    3.10
  -2   5   0   37.51    2.94
  -2   5   0   44.27    3.04
  -2   5   0   41.04    3.47
  -2   5   0   40.12    3.31
  -2   5   0   59.65   11.16
  -2   5   0   41.77    3.48
  -2   5   0   44.76    3.23
  -2   5   0   38.33    2.94
  -2   5   0   39.30    8.77
  -2   5   0   35.87    3.26
  -2   5   0   35.40    3.13
  -2   5   0   39.70    2.84
  -2   5   0   40.74    3.57
  -2   5   0   40.53    3.12
  -2   5  -1    3.63    1.08
  -2   5  -1    2.99    0.94
  -2   5  -1    3.21    1.08
  -2   5  -1    3.12    0.86
  -2   5  -1    2.63    0.94
  -2   5  -1    4.92    1.14
  -2   5  -1    3.60    0.94
  -2   5  -1    4.16    1.32
  -2   5  -1    2.88    0.99
  -2   5  -1    2.96    0.99
  -2   5  -1    4.26    1.20
  -2   5  -1    2.95    0.87
  -2   5  -1    2.83    0.98
  -2   5  -1    2.63    0.99
  -2   5  -1    1.75    0.84
  -2   5  -1   -1.35    2.39
  -2   5  -2    2.20    1.12
  -2   5  -2    0.23    0.50
  -2   5  -2    1.70    0.97
  -2   5  -2    1.88    0.90
  -2   5  -2    0.25    0.53
  -2   5  -2    1.85    1.01
  -2   5  -2    1.58    0.92
  -2   5  -2   -0.51    2.03
  -2   5  -2    0.90    0.65
  -2   5  -2    1.52    0.88
  -2   5  -2    1.06    1.08
  -2   5  -2    5.83    2.41
  -2   5  -2    1.78    0.90
  -2   5  -2    1.76    1.00
  -2   5  -2    1.27    1.01
  -2   5  -2    0.64    0.61
  -2   5  -2    1.15    0.78
  -2   5  -3   -0.18    0.75
  -2   5  -3    1.14    0.91
  -2   5  -3    0.09    0.63
  -2   5  -3   -0.18    0.62
  -2   5  -3    0.44    3.27
  -2   5  -3   -0.72    0.78
  -2   5  -3    1.41    1.01
  -2   5  -3    0.72    0.71
  -2   5  -3    2.16    2.90
  -2   5  -3    1.32    0.93
  -2   5  -3    0.26    0.64
  -2   5  -3   -0.12    0.51
  -2   5  -3   -0.47    0.67
  -2   5  -3    0.47    1.12
  -2   5  -3    0.44    0.60
  -2   5  -3    0.64    0.60
  -2   5  -4    0.61    0.67
  -2   5  -4    2.44    1.13
  -2   5  -4    1.09    0.94
  -2   5  -4    2.70    1.04
  -2   5  -4    2.94    1.04
  -2   5  -4    2.19    0.83
  -2   5  -4   -0.30    3.07
  -2   5  -4    4.85    2.56
  -2   5  -4    1.61    0.77
  -2   5  -4    2.25    1.28
  -2   5  -4    1.13    0.86
  -2   5  -4    0.97    0.70
  -2   5  -4    2.36    1.10
  -2   5  -4    1.34    0.91
  -2   5  -4    4.10    1.24
  -2   5  -4    1.40    0.92
  -2   5  -5  138.98    6.71
  -2   5  -5  135.05    6.36
  -2   5  -5  150.31    6.82
  -2   5  -5  126.70    5.76
  -2   5  -5  137.82    6.49
  -2   5  -5  128.11   15.75
  -2   5  -5  144.44    5.70
  -2   5  -5  148.47    6.92
  -2   5  -5  141.04    6.46
  -2   5  -5  144.00    6.69
  -2   5  -5  135.36    5.67
  -2   5  -5  142.28    6.73
  -2   5  -5  128.67   15.36
  -2   5  -6  129.51    6.77
  -2   5  -6  147.71    6.99
  -2   5  -6  152.99    7.04
  -2   5  -6  142.89    5.45
  -2   5  -6  155.39    6.71
  -2   5  -6  143.97    6.43
  -2   5  -6  160.40    7.09
  -2   5  -6  154.50    7.12
  -2   5  -6  145.11    5.47
  -2   5  -6  147.16    6.54
  -2   5  -7   20.29    2.35
  -2   5  -7   21.24    2.20
  -2   5  -7   21.33    2.25
  -2   5  -7   19.76    2.36
  -2   5  -7   21.27    2.42
  -2   5  -7   21.34    2.46
  -2   5  -7   16.60    1.97
  -2   5  -8  171.35    6.79
  -2   5  -8  177.82    6.43
  -2   5  -8  168.40    6.82
  -2   5  -8  166.46    6.82
  -2   5  -8  162.66    6.25
  -2   5  -8  168.01    6.78
  -2   5  -9   23.29    2.19
  -2   5  -9   22.35    2.06
  -2   5  -9   19.97    2.03
  -2   5  -9   24.32    2.22
  -2   5 -10    0.88    0.36
  -2   5 -10    0.41    0.39
  -2   5 -10    0.92    0.51
  -2   5 -10    1.06    0.61
  -2   4   9    0.03    0.51
  -2   4   9   -1.06    0.62
  -2   4   9    0.07    0.42
  -2   4   9    0.36    0.55
  -2   4   9   -0.30    0.44
  -2   4   8    6.25    1.31
  -2   4   8    7.95    1.33
  -2   4   8    5.49    0.91
  -2   4   8    7.31    1.46
  -2   4   8    7.18    1.24
  -2   4   8    7.24    1.39
  -2   4   7    2.54    1.11
  -2   4   7    3.27    1.06
  -2   4   7    3.14    0.87
  -2   4   7    3.06    1.02
  -2   4   7    4.86    1.26
  -2   4   7    1.89    1.06
  -2   4   6    0.89    0.75
  -2   4   6    0.26    0.79
  -2   4   6    0.80    0.91
  -2   4   6   -0.59    0.68
  -2   4   6    0.37    0.87
  -2   4   6   -0.65    0.61
  -2   4   5    0.60    0.78
  -2   4   5    0.97    0.66
  -2   4   5    0.99    0.68
  -2   4   5    0.39    0.71
  -2   4   5    0.74    1.08
  -2   4   5   -0.22    0.75
  -2   4   5    1.13    0.67
  -2   4   4  243.08    9.29
  -2   4   4  243.37    9.08
  -2   4   4  236.37    7.68
  -2   4   4  245.64    8.60
  -2   4   4  246.40    8.93
  -2   4   4  268.48    8.19
  -2   4   4  259.30   20.97
  -2   4   4  211.77   18.29
  -2   4   4  244.23    8.68
  -2   4   4  235.29    7.62
  -2   4   4  268.09    9.62
  -2   4   3   16.57    2.11
  -2   4   3   26.08    6.68
  -2   4   3   24.44    6.98
  -2   4   3   22.72    2.12
  -2   4   3   19.09    2.04
  -2   4   3   19.04    2.01
  -2   4   3   17.55    2.04
  -2   4   3   19.08    2.39
  -2   4   3   19.04    2.38
  -2   4   3   18.84    1.78
  -2   4   3   19.62    2.34
  -2   4   3   18.07    2.15
  -2   4   3   18.67    2.15
  -2   4   3   20.08    1.93
  -2   4   3   20.24    2.47
  -2   4   2   66.50    4.14
  -2   4   2   65.39   10.43
  -2   4   2   64.17    4.20
  -2   4   2   57.32    3.52
  -2   4   2   55.09    3.86
  -2   4   2   61.01    3.93
  -2   4   2   65.69    3.76
  -2   4   2   61.45    4.28
  -2   4   2   60.43    3.40
  -2   4   2   60.27    3.71
  -2   4   2   71.03   11.00
  -2   4   2   60.46    3.83
  -2   4   2   65.65    4.08
  -2   4   2   68.52    3.86
  -2   4   2   70.15    4.12
  -2   4   1   39.15    3.07
  -2   4   1   36.40    2.51
  -2   4   1   34.44    2.62
  -2   4   1   32.17    2.82
  -2   4   1   35.15    2.74
  -2   4   1   35.79    2.79
  -2   4   1   28.53    2.62
  -2   4   1   34.15    2.83
  -2   4   1   35.95    7.44
  -2   4   1   36.66    2.94
  -2   4   1   36.47    3.06
  -2   4   1   37.64    3.00
  -2   4   1   36.63    2.72
  -2   4   1   32.77    2.79
  -2   4   1   35.76    2.38
  -2   4   1   32.54    2.99
  -2   4   1   40.53    8.90
  -2   4   0    1.11    0.56
  -2   4   0    2.84    0.99
  -2   4   0    1.32    0.77
  -2   4   0    0.61    0.62
  -2   4   0    0.04    0.63
  -2   4   0    2.08    0.92
  -2   4   0    1.33    0.67
  -2   4   0    2.19    2.78
  -2   4   0    1.10    2.48
  -2   4   0    0.53    0.74
  -2   4   0    0.98    0.69
  -2   4   0    0.59    0.91
  -2   4   0    0.67    0.56
  -2   4   0    1.70    0.97
  -2   4   0    1.52    0.54
  -2   4   0    1.28    0.90
  -2   4   0    0.63    0.51
  -2   4   0    1.62    0.86
  -2   4   0    0.79    0.68
  -2   4  -1   15.46    1.91
  -2   4  -1   19.00    2.06
  -2   4  -1   15.67    1.74
  -2   4  -1   13.49    1.68
  -2   4  -1   15.56    1.98
  -2   4  -1   14.69    1.90
  -2   4  -1   18.31    5.40
  -2   4  -1   17.53    1.88
  -2   4  -1   16.49    1.99
  -2   4  -1   15.09    2.00
  -2   4  -1   14.90    1.99
  -2   4  -1   17.10    6.17
  -2   4  -1   16.63    1.98
  -2   4  -1   17.83    1.69
  -2   4  -1   15.03    1.78
  -2   4  -1   16.23    1.53
  -2   4  -1   16.36    2.03
  -2   4  -1   18.02    2.08
  -2   4  -2   21.31    2.31
  -2   4  -2   24.67    2.31
  -2   4  -2   24.26    1.90
  -2   4  -2   21.82    2.08
  -2   4  -2   22.89    2.03
  -2   4  -2   21.32    2.27
  -2   4  -2   28.52    6.92
  -2   4  -2   24.30    6.35
  -2   4  -2   26.64    2.36
  -2   4  -2   25.06    2.50
  -2   4  -2   25.93    2.62
  -2   4  -2   24.07    2.44
  -2   4  -2   20.90    2.12
  -2   4  -2   21.90    2.40
  -2   4  -2   21.37    2.28
  -2   4  -2   23.84    2.42
  -2   4  -2   25.16    2.10
  -2   4  -2   22.61    2.56
  -2   4  -3    0.97    0.60
  -2   4  -3    0.23    0.67
  -2   4  -3    0.88    0.65
  -2   4  -3    1.07    0.73
  -2   4  -3    0.93    0.66
  -2   4  -3   -0.22    0.66
  -2   4  -3    3.09    2.59
  -2   4  -3    1.24    0.72
  -2   4  -3    1.45    0.97
  -2   4  -3   -0.35    1.66
  -2   4  -3    0.54    0.67
  -2   4  -3    0.67    0.58
  -2   4  -3    1.29    0.89
  -2   4  -3   -0.56    0.55
  -2   4  -3    0.49    0.60
  -2   4  -4   -0.48    0.71
  -2   4  -4    0.21    0.47
  -2   4  -4    0.35    0.67
  -2   4  -4   -0.61    0.78
  -2   4  -4    0.19    0.65
  -2   4  -4    2.18    2.47
  -2   4  -4   -0.14    0.63
  -2   4  -4    0.78    0.57
  -2   4  -4   -0.52    0.70
  -2   4  -4   -0.38    0.67
  -2   4  -4   -0.02    2.74
  -2   4  -4    0.16    0.68
  -2   4  -4    0.16    0.54
  -2   4  -4    0.02    0.48
  -2   4  -5   -0.14    0.54
  -2   4  -5    3.44    2.85
  -2   4  -5    0.20    0.79
  -2   4  -5    0.45    0.54
  -2   4  -5    0.70    0.68
  -2   4  -5    0.66    0.56
  -2   4  -5    0.31    0.54
  -2   4  -5   -0.05    0.64
  -2   4  -5    1.72    3.27
  -2   4  -5    1.10    0.75
  -2   4  -5    0.21    0.71
  -2   4  -5   -0.63    1.00
  -2   4  -5   -0.63    0.71
  -2   4  -6  161.07    7.30
  -2   4  -6  160.98    6.04
  -2   4  -6  184.04    7.77
  -2   4  -6  175.52    7.17
  -2   4  -6  169.28    6.18
  -2   4  -6  159.69    7.83
  -2   4  -6  178.56    7.14
  -2   4  -6  181.12    7.53
  -2   4  -6  177.14    7.66
  -2   4  -7    1.76    0.68
  -2   4  -7    0.28    0.52
  -2   4  -7    1.71    0.86
  -2   4  -7    0.97    0.73
  -2   4  -7    1.60    0.78
  -2   4  -7    0.37    0.90
   2  -4   7    2.61    0.86
  -2   4  -7    1.99    1.20
  -2   4  -8   69.65    4.67
  -2   4  -8   62.61    3.63
  -2   4  -8   75.84    4.24
  -2   4  -8   73.90    4.10
   2  -4   8   62.01    3.75
  -2   4  -8   62.01    4.65
  -2   4  -8   71.69    4.58
  -2   4  -8   70.03    4.53
  -2   4  -9   16.72    1.78
   2  -4   9   16.48    1.74
  -2   4  -9   18.90    1.89
  -2   4  -9   14.42    2.08
  -2   4  -9   14.93    2.06
  -2   4  -9   15.10    1.73
  -2   4  -9   18.22    2.30
  -2   4  -9   18.57    2.27
  -2   4 -10   20.62    1.79
  -2   4 -10   21.14    2.14
  -2   4 -10   21.72    2.26
  -2   4 -10   20.66    2.13
   2  -4  10   18.92    1.72
  -2   4 -10   23.82    2.36
  -2   4 -11    3.67    0.82
  -2   4 -11    5.11    0.99
  -2   4 -11    3.48    0.79
   2  -4  11    3.56    0.65
  -2   4 -11    4.28    0.90
  -2   3  10    7.53    1.22
  -2   3  10    7.10    1.05
  -2   3   9    0.63    0.56
  -2   3   9   -0.10    0.57
   2  -3  -9    0.11    0.47
  -2   3   9    1.09    0.66
  -2   3   9    0.10    0.51
  -2   3   8    7.71    1.74
  -2   3   8   11.01    1.63
  -2   3   8    8.18    1.29
  -2   3   8    9.34    1.65
   2  -3  -8    8.09    1.27
  -2   3   8    7.77    1.39
  -2   3   8   10.89    1.68
  -2   3   8    7.15    1.64
   2  -3  -7   37.57    2.71
  -2   3   7   29.77    3.27
  -2   3   7   36.87    3.11
  -2   3   7   27.83    2.48
  -2   3   7   35.05    2.53
  -2   3   7   38.05    3.32
  -2   3   7   39.42    2.90
  -2   3   7   37.67    3.06
  -2   3   6    0.23    0.85
  -2   3   6    0.19    0.51
  -2   3   6   -0.05    0.66
   2  -3  -6    1.40    0.66
  -2   3   6    0.32    0.78
  -2   3   6   -0.37    0.69
  -2   3   6   -0.28    0.63
  -2   3   5    0.38    0.79
  -2   3   5    0.57    0.59
  -2   3   5    0.97    0.71
  -2   3   5    0.52    0.75
  -2   3   5   -0.02    0.56
  -2   3   4   36.80    3.45
  -2   3   4   45.33    3.09
  -2   3   4   44.13    2.87
  -2   3   4   42.78    7.73
  -2   3   4   47.00    3.22
  -2   3   4   41.42    2.74
  -2   3   4   35.86    6.68
  -2   3   4   42.28    2.74
  -2   3   4   47.94    3.22
  -2   3   4   42.56    3.30
  -2   3   3    0.68    0.73
  -2   3   3    2.89    1.58
  -2   3   3    0.41    0.54
  -2   3   3    0.35    0.53
  -2   3   3    1.28    0.76
  -2   3   3    1.94    1.00
  -2   3   3    0.55    0.44
  -2   3   3    0.72    0.54
  -2   3   3    3.30    2.83
  -2   3   3    1.33    0.66
  -2   3   3    0.19    0.56
  -2   3   3    2.70    3.09
  -2   3   3   -0.01    0.53
  -2   3   3    0.79    0.59
  -2   3   2   13.05    1.61
  -2   3   2   11.60    1.71
  -2   3   2   12.34    1.36
  -2   3   2   10.00    1.52
  -2   3   2   10.78    1.53
  -2   3   2   10.59    1.67
  -2   3   2   11.00    1.49
  -2   3   2   15.23    1.67
  -2   3   2   16.18    5.28
  -2   3   2   10.51    1.28
  -2   3   2   13.19    1.37
  -2   3   2   12.66    1.47
  -2   3   2   12.34    1.54
  -2   3   2   11.32    3.79
  -2   3   2   10.85    1.63
  -2   3   2   13.36    1.41
  -2   3   1    0.59    0.54
  -2   3   1    0.17    0.60
  -2   3   1    0.39    2.15
  -2   3   1   -0.35    0.49
  -2   3   1   -0.42    0.50
  -2   3   1    0.54    0.57
  -2   3   1    0.23    0.50
  -2   3   1    0.57    0.49
  -2   3   1   -0.16    0.53
  -2   3   1   -0.38    1.66
  -2   3   1   -0.42    0.45
  -2   3   0    0.10    0.51
  -2   3   0    0.36    1.40
  -2   3   0    1.01    2.10
  -2   3  -1   96.05    4.22
  -2   3  -1  101.41   11.33
  -2   3  -2   20.18    5.60
  -2   3  -2   16.76    1.67
  -2   3  -2   14.12    1.62
  -2   3  -2   14.57    1.63
  -2   3  -2   13.86    1.62
  -2   3  -2   18.64    4.86
  -2   3  -2   15.36    1.79
  -2   3  -3   18.48    1.93
  -2   3  -3   17.31    4.50
  -2   3  -3   17.02    1.88
  -2   3  -3   18.81    1.73
  -2   3  -3   16.81    1.73
  -2   3  -3   17.65    1.78
  -2   3  -3   17.52    1.58
  -2   3  -3   20.72    2.16
  -2   3  -3   22.74    5.47
  -2   3  -3   19.15    1.89
  -2   3  -3   17.50    1.76
  -2   3  -3   20.53    2.06
  -2   3  -4   24.68    2.31
  -2   3  -4   28.92    2.39
  -2   3  -4   27.07    1.98
  -2   3  -4   27.26    2.06
  -2   3  -4   25.59    5.73
  -2   3  -4   25.99    2.22
  -2   3  -4   27.02    2.60
  -2   3  -4   22.28    2.03
  -2   3  -4   29.65    2.63
  -2   3  -4   25.47    2.20
  -2   3  -4   21.95    5.93
  -2   3  -4   25.39    2.37
  -2   3  -4   28.66    2.48
  -2   3  -4   26.55    2.28
  -2   3  -5   -0.14    0.52
  -2   3  -5    0.25    1.40
  -2   3  -5   -0.11    0.40
  -2   3  -5   -0.73    0.70
  -2   3  -5    0.19    0.58
  -2   3  -5    0.04    0.46
  -2   3  -5    0.29    0.89
  -2   3  -5    0.21    0.46
  -2   3  -5   -0.01    2.37
  -2   3  -5    1.16    0.82
  -2   3  -5    0.80    0.60
  -2   3  -5    0.07    0.65
  -2   3  -6   28.74    2.71
  -2   3  -6   32.23    6.75
  -2   3  -6   29.19    2.33
  -2   3  -6   30.22    3.06
  -2   3  -6   34.46    2.71
  -2   3  -6   33.16    6.07
  -2   3  -6   30.93    2.57
  -2   3  -6   32.47    2.83
  -2   3  -6   34.03    3.02
  -2   3  -7   13.91    1.83
  -2   3  -7   11.27    1.91
  -2   3  -7   14.45    1.78
  -2   3  -7   13.25    2.13
   2  -3   7   12.25    1.77
  -2   3  -7   14.05    1.77
  -2   3  -7   11.16    1.95
  -2   3  -8    0.97    0.59
  -2   3  -8    0.59    0.76
  -2   3  -8    1.29    0.89
  -2   3  -8    1.15    0.62
  -2   3  -8    1.52    0.92
   2  -3   8    0.07    0.56
   2  -3   8   -0.55    0.50
  -2   3  -8    0.89    0.97
   2  -3   9   11.54    1.51
  -2   3  -9   14.97    1.90
  -2   3  -9   13.38    2.26
  -2   3  -9   14.66    1.71
   2  -3   9   11.94    1.76
  -2   3  -9   12.86    2.06
  -2   3  -9   15.22    2.16
   2  -3  10    2.52    0.97
  -2   3 -10    0.32    0.61
  -2   3 -10    0.79    0.72
  -2   3 -10    1.00    0.81
   2  -3  10    1.00    0.63
  -2   3 -10    2.69    0.99
  -2   3 -11   13.14    1.59
   2  -3  11   11.51    1.53
  -2   3 -11    8.84    1.44
   2  -3  11    9.58    1.20
  -2   3 -11   11.49    1.66
  -2   3 -11   11.17    1.61
  -2   3 -12    0.29    0.41
   2  -3  12    0.59    0.37
   2  -3  12   -0.14    0.36
  -2   3 -12    0.60    0.39
  -2   3 -12    0.28    0.37
  -2   3 -12   -0.02    0.43
  -2   3 -12    0.09    0.38
  -2   2  11    2.13    0.62
   2  -2 -11    3.28    0.63
  -2   2  11    3.39    0.67
  -2   2  10    0.14    0.63
  -2   2  10   -0.18    0.50
  -2   2  10   -0.31    0.63
  -2   2  10    0.45    0.58
   2  -2 -10    1.36    0.67
  -2   2   9    0.09    0.61
  -2   2   9   -0.80    0.95
   2  -2  -9   -0.35    0.71
  -2   2   9    0.38    0.69
  -2   2   9    0.31    0.88
  -2   2   8   21.93    2.20
  -2   2   8   23.07    2.30
   2  -2  -8   22.94    2.27
  -2   2   8   22.65    2.30
  -2   2   8   22.81    2.33
  -2   2   8   22.43    8.54
  -2   2   8   18.19    2.40
  -2   2   7   12.45    1.85
  -2   2   7    8.42    1.25
  -2   2   7   13.68    1.63
  -2   2   7   13.69    1.76
   2  -2  -7   13.88    1.70
  -2   2   7   12.63    1.68
  -2   2   7   18.33    7.07
  -2   2   6   29.48    2.41
  -2   2   6   30.42    2.76
   2  -2  -6   27.12    2.36
  -2   2   6   24.35    2.27
  -2   2   6   28.50    2.38
  -2   2   6   31.44    8.72
  -2   2   6   27.96    2.47
   2  -2  -5   72.76    3.75
  -2   2   5   77.66    4.16
  -2   2   5   75.12    3.67
  -2   2   5   85.69   13.27
  -2   2   5   73.20    3.84
  -2   2   5   79.90    3.89
  -2   2   5   81.68    3.97
  -2   2   5   81.83    4.14
  -2   2   4   86.06    8.66
  -2   2   4   99.53    4.51
   2  -2  -4   83.82    3.85
  -2   2   4   96.89    4.53
  -2   2   4  105.11   10.06
  -2   2   4   92.25    4.10
  -2   2   4   93.66   13.25
  -2   2   4   90.74    4.23
  -2   2   3  125.72    4.49
  -2   2   3  140.91   12.14
  -2   2   3  129.10   11.03
  -2   2   3  137.43   14.43
  -2   2   2   84.79    8.95
  -2   2   2   78.81    3.38
  -2   2   2   78.73    8.51
  -2   2   2   77.04    8.87
  -2   2   1   75.18    8.66
  -2   2   1   73.70    8.22
  -2   2   1   73.49    8.70
  -2   2   1   69.26    3.23
  -2   2   0   15.48    4.09
  -2   2   0   13.48    1.42
  -2   2   0   17.24    4.22
  -2   2   0   17.78    4.20
  -2   2  -1   70.31    8.30
  -2   2  -1   66.98    3.16
  -2   2  -1   76.81    8.07
  -2   2  -1   70.06    8.35
  -2   2  -2   69.87    7.82
  -2   2  -2   76.35    7.99
  -2   2  -2   63.35    3.05
  -2   2  -2   69.78    8.34
  -2   2  -3   49.25    6.68
  -2   2  -3   51.58    2.74
  -2   2  -3   55.79    7.32
  -2   2  -3   55.84    7.17
  -2   2  -4   21.00    4.59
  -2   2  -4   21.68    5.01
  -2   2  -4   16.90    1.53
  -2   2  -4   19.13    3.99
  -2   2  -5    3.17    0.88
  -2   2  -5    1.86    0.64
  -2   2  -5    5.84    2.89
  -2   2  -5    1.90    2.24
  -2   2  -6   17.70    1.98
  -2   2  -6   16.97    1.75
  -2   2  -6   17.82    1.77
  -2   2  -6   21.00    1.92
  -2   2  -6   17.78    1.69
  -2   2  -6    9.97    3.07
   2  -2   6   14.75    1.63
  -2   2  -6   14.45    3.88
  -2   2  -6   18.23    2.07
   2  -2   7  123.66    5.50
  -2   2  -7  135.70    5.57
   2  -2   7  120.93    5.27
  -2   2  -7  132.16    6.09
  -2   2  -7  138.52    5.45
  -2   2  -8    1.09    0.78
  -2   2  -8   -0.22    0.59
   2  -2   8   -0.51    0.71
   2  -2   8    0.35    0.56
  -2   2  -8   -0.47    0.97
  -2   2  -9    9.05    1.50
   2  -2   9    7.93    1.72
   2  -2   9    9.21    1.59
  -2   2  -9    8.31    1.44
  -2   2  -9   10.26    1.79
   2  -2  10    1.43    0.91
  -2   2 -10    1.06    0.69
  -2   2 -10    0.79    0.67
   2  -2  10   -0.19    0.82
  -2   2 -10    1.21    0.95
  -2   2 -10    1.05    0.84
  -2   2 -11   12.27    1.66
   2  -2  11   11.60    1.74
  -2   2 -11   11.46    1.54
  -2   2 -11    7.32    1.45
   2  -2  11    9.74    1.53
  -2   2 -11   11.33    1.85
  -2   2 -11    9.41    1.50
  -2   2 -12   -0.15    0.54
  -2   2 -12   -0.40    0.52
  -2   2 -12   -0.37    0.52
   2  -2  12    0.67    0.67
  -2   2 -12   -0.25    0.75
   2  -2  12   -0.40    0.65
  -2   1  11    3.38    1.00
   2  -1 -11    1.78    0.70
  -2   1  11    3.04    0.80
  -2   1  10    1.94    1.07
   2  -1 -10    0.76    0.81
  -2   1  10    1.68    0.74
  -2   1  10    1.76    0.65
  -2   1   9    0.60    0.86
   2  -1  -9    4.78    4.19
   2  -1  -9    0.97    0.71
  -2   1   9   -3.78    5.50
  -2   1   9    1.15    0.76
  -2   1   9    1.03    0.76
  -2   1   9    0.03    0.56
  -2   1   9    0.63    0.55
  -2   1   8  318.34    9.85
  -2   1   8  328.72   10.08
   2  -1  -8  303.46    9.93
  -2   1   8  334.92   29.71
  -2   1   8  327.88   10.11
  -2   1   7  109.34    4.98
  -2   1   7  111.51    5.07
  -2   1   7  115.97    5.20
   2  -1  -7  106.18    5.07
  -2   1   7  109.36    5.25
  -2   1   7  102.61   15.75
  -2   1   6    3.25    0.89
  -2   1   6    4.90    1.02
  -2   1   6    4.33    1.12
  -2   1   6    4.68    1.04
   2  -1  -6    4.05    1.00
  -2   1   6    2.37    2.54
  -2   1   5   64.64    3.31
  -2   1   5   64.59   10.69
  -2   1   5   64.89    3.59
   2  -1  -5   61.31    3.37
  -2   1   5   61.56    3.33
  -2   1   5   66.64    3.49
  -2   1   4   10.91    3.11
  -2   1   4    5.44    2.02
  -2   1   4    8.50    2.71
  -2   1   4    6.13    3.36
  -2   1   3 1488.29   41.51
  -2   1   3 1503.19   48.30
  -2   1   3 1439.07   28.16
  -2   1   3 1475.24   40.93
  -2   1   2   53.82    2.48
  -2   1   2   61.36    6.81
  -2   1   2   60.66    6.56
  -2   1   2   53.41    7.60
  -2   1   1    7.18    2.73
  -2   1   1    5.04    2.28
  -2   1   1    6.39    2.45
  -2   1   0   38.74    5.39
  -2   1   0   39.45    5.29
  -2   1  -1  131.26    9.95
  -2   1  -1  137.29    9.86
  -2   1  -2   19.26    3.80
  -2   1  -2   18.61    3.84
  -2   1  -2   16.63    2.81
  -2   1  -3   54.97    6.55
  -2   1  -3   58.89    6.65
  -2   1  -3   48.43    5.70
  -2   1  -4    0.71    1.13
  -2   1  -4    2.81    1.75
  -2   1  -4    4.46    1.99
  -2   1  -5  355.52   15.84
  -2   1  -5  355.42   16.98
  -2   1  -5  311.38   15.81
  -2   1  -5  368.45   20.18
  -2   1  -6  304.16    8.44
  -2   1  -6  310.59   20.47
  -2   1  -7  131.40    5.75
  -2   1  -7  138.81    5.36
  -2   1  -7  133.00    5.24
   2  -1   7  133.10    5.54
  -2   1  -7  138.43   15.09
   2  -1   7  118.01    5.25
  -2   1  -8   -1.00    1.82
  -2   1  -8    0.12    0.54
   2  -1   8    0.75    0.78
  -2   1  -8    0.21    0.66
   2  -1   8    0.83    0.72
  -2   1  -8    0.74    0.91
   2  -1   9   11.59    1.78
  -2   1  -9   12.74    5.25
  -2   1  -9   11.89    1.68
  -2   1  -9   10.92    1.71
   2  -1   9    9.32    1.73
  -2   1  -9   11.25    1.89
   2  -1  10    0.42    1.01
  -2   1 -10    0.07    0.81
  -2   1 -10    0.13    0.71
   2  -1  10    0.26    0.69
  -2   1 -10   -0.01    0.72
  -2   1 -11   16.22    1.98
  -2   1 -11   18.47    2.09
   2  -1  11   19.87    2.31
   2  -1  11   18.45    2.22
  -2   1 -11   20.77    2.46
  -2   1 -12   72.34    3.79
   2  -1  12   68.25    3.71
  -2   1 -12   70.43    3.72
  -2   1 -12   69.41    4.07
   2  -1  12   70.74    3.96
  -2   1 -13    1.86    0.62
  -2   1 -13    1.53    0.68
  -2   1 -13    2.62    0.70
   2  -1  13    1.89    0.67
   2  -1  13    1.87    0.61
   2   0 -11   34.84    2.52
  -2   0  11   33.12    2.38
  -2   0  11   38.39    2.40
  -2   0  10    4.49    1.07
  -2   0  10    3.47    0.93
  -2   0  10    3.87    1.17
   2   0 -10    3.25    1.11
   2   0 -10    2.66    0.86
  -2   0   9   40.33    2.96
   2   0  -9   32.48    8.58
  -2   0   9   35.43    2.93
   2   0  -9   40.46    3.09
  -2   0   9   35.14    2.69
  -2   0   9   38.40    2.68
  -2   0   9   37.44   10.25
   2   0  -8  302.25    8.87
  -2   0   8  295.27    9.20
   2   0  -8  300.01   25.56
  -2   0   8  273.74    9.32
  -2   0   8  311.84   28.18
   2   0  -8  282.84    9.64
  -2   0   8  312.10    9.33
  -2   0   8  298.81    9.26
   2   0  -7  347.93   10.55
   2   0  -7  361.19    9.89
  -2   0   7  363.01   10.47
  -2   0   7  357.71   10.24
  -2   0   7  351.23   28.32
  -2   0   7  362.03   10.24
  -2   0   7  373.32   10.29
   2   0  -6  167.20    5.67
  -2   0   6  170.13    6.10
   2   0  -6  162.22    6.17
  -2   0   6  166.64   17.67
  -2   0   6  171.10    5.97
  -2   0   6  175.14    5.98
  -2   0   6  161.30    6.16
  -2   0   5    1.31    0.73
  -2   0   5    0.70    0.49
  -2   0   5    1.12    1.80
   2   0  -5    0.59    0.48
  -2   0   4   24.47    3.52
  -2   0   4   26.23    3.73
  -2   0   4   26.48    3.83
  -2   0   4   29.10    6.34
  -2   0   3    6.55    1.99
  -2   0   3    6.24    2.48
  -2   0   2    2.28    1.57
  -2   0   2    1.70    1.50
  -2   0   1  124.10    7.97
  -2   0   0   47.69    3.33
  -2   0  -1   14.69    2.01
  -2   0  -2 9999.00  188.40
  -2   0  -3   11.67    2.65
  -2   0  -3   14.11    2.94
  -2   0  -4   81.95    6.94
  -2   0  -4   86.06    8.32
  -2   0  -5    3.27    1.23
  -2   0  -5    3.80    2.04
  -2   0  -5    3.76    1.75
  -2   0  -6    3.56    2.64
  -2   0  -7   54.62    3.06
  -2   0  -7   52.16    9.40
  -2   0  -7   53.37    3.15
   2   0   7   52.05    3.17
   2   0   7   50.20    3.18
  -2   0  -8    5.55    2.74
  -2   0  -8    6.51    1.19
  -2   0  -8    6.86    1.23
   2   0   8    5.47    1.21
   2   0   8    5.01    1.10
  -2   0  -9   35.28    8.70
  -2   0  -9   36.87    2.87
   2   0   9   35.68    3.04
  -2   0  -9   39.07    3.00
   2   0   9   40.70    3.11
   2   0   9   35.29    7.82
   2   0   9   29.40    8.42
  -2   0 -10    0.83    2.51
  -2   0 -10    7.25    1.27
   2   0  10    7.18    1.54
  -2   0 -10    7.50    1.43
   2   0  10   10.22    4.84
   2   0  10    6.83    1.48
   2   0  10    2.78    3.88
  -2   0 -11  261.19    8.83
  -2   0 -11  257.70    8.47
   2   0  11  263.69    9.20
   2   0  11  255.58    8.87
  -2   0 -11  256.52    9.59
  -2   0 -12  398.27   11.56
  -2   0 -12  369.07   10.29
   2   0  12  402.64   11.29
   2   0  12  401.42   10.97
  -2   0 -12  385.48   10.73
  -2   0 -13    2.01    0.64
   2   0  13    2.02    0.78
   2   0  13    1.16    0.63
  -2   0 -13    2.61    0.80
  -2  -1  11   19.49    1.90
  -2  -1  11   21.14    1.91
   2   1 -11   20.84    1.97
  -2  -1  10    0.01    0.82
   2   1 -10    1.86    0.79
   2   1 -10    1.61    0.87
  -2  -1  10    0.83    0.65
   2   1  -9   79.21    4.19
  -2  -1   9   79.88    4.40
  -2  -1   9   82.12    4.46
   2   1  -9   86.00    4.67
   2   1  -9   73.98    4.36
   2   1  -9   66.67   12.47
  -2  -1   9   67.09   13.95
  -2  -1   8  433.35   12.99
   2   1  -8  465.94   12.47
  -2  -1   8  459.35   12.84
   2   1  -8  481.49   32.97
   2   1  -8  471.73   13.07
  -2  -1   8  470.39   34.83
  -2  -1   8  476.38   12.08
   2   1  -8  455.40   12.23
   2   1  -7  214.51    7.51
   2   1  -7  207.72    7.10
   2   1  -7  215.61   20.86
  -2  -1   7  202.71    7.20
  -2  -1   7  207.56   21.49
  -2  -1   7  207.57    6.79
   2   1  -7  206.66    6.96
  -2  -1   6    0.35    0.79
   2   1  -6   -1.53    2.09
  -2  -1   6    0.21    0.51
   2   1  -6   -0.63    0.62
   2   1  -6    0.50    0.70
   2   1  -6   -0.40    0.58
   2   1  -5   26.04    2.02
  -2  -1   5   24.89    1.97
   2   1  -5   26.53    6.46
   2   1  -4   56.76    5.35
   2   1  -4   70.36    8.86
   2   1  -3    8.50    2.16
  -2  -1   3    6.23    1.31
   2   1  -2  322.16   14.32
   2   1  -1 1199.57   32.85
   2   1  -1 1175.82   33.99
   2   1   0   56.73    5.13
   2   1   1 1833.86   41.82
   2   1   1 1920.61   41.56
   2   1   2 2093.43   47.29
  -2  -1  -2 2126.97   49.36
  -2  -1  -3    0.13    1.05
   2   1   3    1.55    1.49
   2   1   3    1.31    1.02
   2   1   4   96.44    7.64
  -2  -1  -4   99.97    9.59
   2   1   4   97.21    8.30
  -2  -1  -5   19.25    4.60
   2   1   5   17.68    2.77
   2   1   5   11.27    2.75
   2   1   5   15.77    4.34
  -2  -1  -6   33.07    6.69
   2   1   6   32.41    6.44
   2   1   6   33.05    7.00
  -2  -1  -7  230.10    7.06
   2   1   7  219.55    7.64
  -2  -1  -7  232.98    7.38
   2   1   7  233.11   20.15
   2   1   7  275.37   20.68
   2   1   7  229.82    7.49
  -2  -1  -7  239.10   20.09
  -2  -1  -8    1.18    2.65
  -2  -1  -8    0.63    0.62
  -2  -1  -8    0.17    0.69
   2   1   8    0.76    2.16
   2   1   8    0.85    0.90
   2   1   8   -2.20    2.78
   2   1   8    0.54    0.59
   2   1   9   58.98   11.63
  -2  -1  -9   49.73   10.52
  -2  -1  -9   62.93    3.84
  -2  -1  -9   59.88    3.46
   2   1   9   61.71    4.01
   2   1   9   65.43    3.92
   2   1   9   73.05   12.26
   2   1  10    5.04    4.12
  -2  -1 -10    2.98    1.06
  -2  -1 -10   -1.34    1.52
  -2  -1 -10    2.71    0.76
   2   1  10    3.32    1.05
   2   1  10    3.54    0.98
   2   1  10    4.66    4.94
   2   1  11  315.19   11.05
  -2  -1 -11  337.16    9.73
   2   1  11  345.56   11.10
   2   1  11  356.60   10.66
  -2  -1 -11  346.26   10.49
   2   1  12   13.26    1.63
  -2  -1 -12   15.78    1.53
  -2  -1 -12   17.85    2.20
   2   1  12   19.90    2.19
  -2  -1 -12   17.68    1.86
   2   1  12   17.73    1.90
  -2  -1 -13    0.36    0.47
   2   1  13    0.06    0.60
  -2  -1 -13    0.49    0.48
   2   1  13    0.92    0.56
  -2  -2  11    0.83    0.62
   2   2 -11    0.26    0.37
  -2  -2  11    0.02    0.54
   2   2 -11   -0.09    0.52
  -2  -2  11    0.34    0.44
   2   2 -10   86.03    4.20
  -2  -2  10   77.17    4.01
  -2  -2  10   83.09    4.31
   2   2  -9   49.73    3.34
   2   2  -9   44.60    3.19
  -2  -2   9   46.80    3.22
  -2  -2   9   50.12    3.50
   2   2  -9   38.54    9.12
  -2  -2   9   50.47   12.04
   2   2  -9   39.75    3.15
   2   2  -8   40.12    3.27
   2   2  -8   43.86    3.16
  -2  -2   8   41.87    3.12
   2   2  -8   39.31    8.96
   2   2  -8   45.67    3.23
   2   2  -8   43.68    3.18
   2   2  -7    7.01    1.31
  -2  -2   7    6.99    1.15
   2   2  -7   10.69    4.90
   2   2  -7    6.82    1.32
   2   2  -7    7.29    1.28
   2   2  -7    6.45    1.16
   2   2  -6    0.17    3.05
   2   2  -6    0.66    0.45
  -2  -2   6   -0.26    0.58
   2   2  -6    0.56    0.61
   2   2  -6    0.61    0.50
   2   2  -6    0.01    0.52
   2   2  -5    4.69    0.95
  -2  -2   5    3.35    0.79
   2   2  -5    2.87    0.79
   2   2  -5    2.76    2.61
   2   2  -4   42.58    5.48
   2   2  -4   49.17    5.55
   2   2  -4   45.47    5.59
   2   2  -4   49.88    7.95
   2   2  -3  405.54    9.56
   2   2  -3  404.88   17.70
   2   2  -3  363.34   20.92
   2   2  -3  399.78   18.51
   2   2  -2   67.93    6.85
   2   2  -2   65.39    2.89
   2   2  -2   70.43    8.01
   2   2  -2   77.88    7.85
   2   2  -1   16.73    3.81
   2   2  -1   15.66    3.37
   2   2  -1   19.13    4.01
   2   2  -1   15.69    1.35
   2   2   0  186.41   11.31
   2   2   0  180.18   11.31
   2   2   0  185.69   12.21
   2   2   0  178.31    5.36
   2   2   1  215.26   12.24
   2   2   1  222.06    6.15
   2   2   1  211.74   13.11
   2   2   1  228.11   11.76
   2   2   2   26.26    4.30
   2   2   2   30.62    4.63
   2   2   2   28.08    1.81
   2   2   2   28.85    4.94
  -2  -2  -2   29.36    4.98
   2   2   3  146.83   10.15
   2   2   3  131.73   10.87
   2   2   3  147.03   10.72
   2   2   3  130.29    4.57
   2   2   3  139.52   11.18
  -2  -2  -3  128.62   11.15
   2   2   4    5.41    2.73
   2   2   4    5.01    0.79
   2   2   4    7.01    2.80
  -2  -2  -4    9.35    3.26
   2   2   4    6.06    2.62
   2   2   4    9.14    3.85
   2   2   5    0.28    1.79
  -2  -2  -5   -0.66    1.73
   2   2   5   -0.08    0.95
   2   2   5   -0.18    1.41
   2   2   5    0.31    1.53
   2   2   5    0.78    1.62
   2   2   5    0.71    0.46
   2   2   6  199.67   11.93
   2   2   6  226.31   18.69
   2   2   6  211.02    7.07
   2   2   6  182.59   11.81
   2   2   6  227.84    7.05
   2   2   6  216.33    6.85
  -2  -2  -6  225.96   18.39
   2   2   6  225.03   17.87
   2   2   7  296.15    9.20
   2   2   7  289.66    9.29
  -2  -2  -7  284.22    8.61
   2   2   7  311.53    9.13
   2   2   7  347.44   24.40
   2   2   7  299.12    8.93
  -2  -2  -7  315.27   23.60
   2   2   7  327.02   24.60
   2   2   8   49.91    4.01
  -2  -2  -8   41.33    9.21
   2   2   8   39.62    3.01
   2   2   8   43.12    9.97
   2   2   8   44.18    3.40
   2   2   8   47.56    3.20
  -2  -2  -8   43.97    3.03
   2   2   8   46.40    3.19
   2   2   9   29.24    3.25
  -2  -2  -9   25.46    7.26
   2   2   9   25.47    7.97
  -2  -2  -9   30.99    2.63
   2   2   9   33.49    2.95
   2   2   9   31.09    2.67
   2   2   9   34.82    9.18
  -2  -2 -10   10.57    4.92
   2   2  10    7.01    4.24
   2   2  10    6.10    1.45
  -2  -2 -10    4.76    1.13
   2   2  10    7.93    1.51
   2   2  10    4.15    1.51
   2   2  11    5.51    1.21
  -2  -2 -11    6.24    1.14
   2   2  11    7.23    1.64
   2   2  11    6.54    1.19
   2   2  12   46.48    3.19
  -2  -2 -12   43.20    2.68
   2   2  12   41.80    2.70
   2   2  13    1.74    0.50
   2   2  13    4.40    0.88
   2   2  13    5.20    0.77
  -2  -2 -13    3.71    0.92
   2   3 -11   -0.33    0.33
   2   3 -11    0.75    0.47
  -2  -3  11    0.21    0.50
  -2  -3  11    1.21    0.68
  -2  -3  10    4.40    0.90
   2   3 -10    3.24    0.90
  -2  -3  10    5.12    1.15
   2   3 -10    5.36    0.98
   2   3 -10    4.36    1.18
   2   3  -9    4.31    1.11
   2   3  -9    3.16    0.94
  -2  -3   9    2.74    0.94
  -2  -3   9    5.13    1.34
   2   3  -9    5.14    1.06
   2   3  -8    5.83    1.33
  -2  -3   8    6.00    1.24
   2   3  -8    5.52    1.12
   2   3  -8    3.49    1.08
   2   3  -8    6.05    1.26
   2   3  -7   -0.04    0.64
   2   3  -7    0.08    0.57
  -2  -3   7    0.75    0.64
   2   3  -7   -0.80    0.71
   2   3  -7    0.68    3.28
   2   3  -7    1.53    0.64
   2   3  -7    0.49    0.65
   2   3  -6    4.07    1.03
  -2  -3   6    4.63    0.98
   2   3  -6    3.52    3.02
   2   3  -6    3.60    0.82
   2   3  -6    4.15    1.00
   2   3  -6    2.87    0.86
   2   3  -6    3.32    0.81
   2   3  -5   53.45    3.06
  -2  -3   5   50.98    2.91
   2   3  -5   63.98   10.34
   2   3  -5   52.14    2.86
   2   3  -5   52.97    3.31
   2   3  -5   56.50    3.27
   2   3  -4    1.06    0.39
   2   3  -4    1.83    1.83
   2   3  -4    1.00    0.62
   2   3  -4   -1.54    1.62
   2   3  -4   -0.19    0.32
   2   3  -3  286.04    7.75
   2   3  -3  269.42   19.52
   2   3  -3  264.62   16.91
   2   3  -3  286.40   17.76
   2   3  -2   27.10    5.34
   2   3  -2   24.28    4.93
   2   3  -2   26.44    5.21
   2   3  -2   25.55    1.88
   2   3  -2   28.86    5.91
   2   3  -1   24.22    5.14
   2   3  -1   23.85    4.72
   2   3  -1   23.35    1.80
   2   3  -1   20.29    4.08
   2   3  -1   23.82    4.92
   2   3   0  142.35    4.95
   2   3   0  128.68   11.16
   2   3   0  139.22   11.21
   2   3   0  139.01   11.89
   2   3   1    3.44    1.59
   2   3   1    4.41    1.74
   2   3   1    3.87    2.47
   2   3   1    4.52    0.85
   2   3   2   30.73    5.36
   2   3   2   30.93    2.07
   2   3   2   28.93    5.06
   2   3   2   33.24    5.82
   2   3   3    9.67    3.74
   2   3   3    7.93    1.10
   2   3   3    9.82    3.39
   2   3   3    6.55    2.40
   2   3   3    8.34    3.04
  -2  -3  -3    8.96    3.20
  -2  -3  -4   35.17    6.78
   2   3   4   39.82    7.19
   2   3   4   39.55    6.40
   2   3   4   36.42    2.28
   2   3   4   37.00    6.32
   2   3   5   14.73    1.62
  -2  -3  -5   13.73    4.66
   2   3   5   16.43    1.93
   2   3   5   12.51    3.81
   2   3   5   15.56    1.74
   2   3   5   14.81    1.66
   2   3   5   12.63    3.93
   2   3   5   13.43    1.39
   2   3   5   12.18    3.98
   2   3   5   15.22    4.85
   2   3   6   26.63    2.50
  -2  -3  -6   19.96    5.62
   2   3   6   21.10    4.56
   2   3   6   18.82    2.30
   2   3   6   19.06    1.90
   2   3   6   18.37    5.79
   2   3   6   20.81    2.04
   2   3   6   20.28    2.04
   2   3   6   23.34    4.89
   2   3   6   20.60    2.00
   2   3   6   21.15    1.87
   2   3   6   17.83    2.00
   2   3   6   19.72    1.98
   2   3   6   30.14    7.84
   2   3   7   25.17    2.68
  -2  -3  -7   29.31    7.59
   2   3   7   25.92    2.53
   2   3   7   30.76    7.88
   2   3   7   26.62    2.51
   2   3   7   25.59    2.25
   2   3   7   27.53    2.44
   2   3   7   31.95    7.71
  -2  -3  -8   44.51    2.84
   2   3   8   42.23    3.81
   2   3   8   41.74    3.45
   2   3   8   51.77   11.10
   2   3   8   45.37    3.36
   2   3   8   43.29    3.20
   2   3   8   45.53    3.08
  -2  -3  -8   56.37   11.06
   2   3   8   54.57   11.41
   2   3   9   -0.81    0.93
  -2  -3  -9    1.68    2.91
   2   3   9    0.90    0.66
   2   3   9    1.01    0.99
   2   3   9   -1.19    4.23
  -2  -3  -9    1.26    0.73
   2   3   9    0.57    0.70
   2   3   9    1.24    2.70
   2   3  10   10.69    1.75
   2   3  10    9.93    1.72
   2   3  10    7.60    1.71
  -2  -3 -10    2.22    4.43
   2   3  10    9.94    1.48
  -2  -3 -10   11.29    1.42
   2   3  10    9.96    4.88
   2   3  10   11.52    1.59
   2   3  11   16.08    1.87
   2   3  11   13.22    1.96
   2   3  11   17.71    2.10
  -2  -3 -11   16.79    1.62
   2   3  11   16.70    1.63
   2   3  12    0.27    0.56
   2   3  12   -0.52    0.60
   2   4 -10    2.63    0.77
  -2  -4  10    3.03    0.85
   2   4 -10    1.41    0.62
  -2  -4  10    2.22    0.72
   2   4 -10    2.42    0.90
   2   4  -9   10.23    1.57
   2   4  -9   10.06    1.61
   2   4  -8    5.18    1.26
   2   4  -8    2.81    1.02
   2   4  -8    3.50    1.17
   2   4  -8    3.45    0.80
   2   4  -8    3.09    0.99
   2   4  -8    4.40    1.26
   2   4  -7   19.83    2.12
   2   4  -7   18.69    2.56
   2   4  -7   19.37    2.19
   2   4  -7   22.34    2.16
   2   4  -7   19.47    2.25
   2   4  -6   22.06    2.10
   2   4  -6   19.87    2.07
   2   4  -6   21.04    2.58
   2   4  -6   18.53    2.19
   2   4  -6   22.76    2.32
   2   4  -6   21.69    2.20
   2   4  -5   90.49    4.40
   2   4  -5   81.95    4.38
   2   4  -5   87.74    4.19
   2   4  -5   82.66    4.29
   2   4  -5   83.77    5.06
   2   4  -5   80.49    4.39
   2   4  -5   79.50    4.44
   2   4  -4   83.37    4.14
   2   4  -4   73.97   10.07
   2   4  -4   80.64    4.28
   2   4  -4   85.70   10.46
   2   4  -4   91.78    3.96
   2   4  -4   88.53    4.90
   2   4  -4   77.23    4.10
   2   4  -4   78.03    4.24
   2   4  -4   81.21    4.09
   2   4  -3   79.01    3.94
   2   4  -3   89.76   11.06
   2   4  -3   75.65    4.29
   2   4  -3   80.98    4.21
   2   4  -3   81.05    3.94
   2   4  -3   82.23    3.98
   2   4  -3   85.20    3.90
   2   4  -3   91.10   10.91
   2   4  -3   81.76    4.41
   2   4  -3   87.78    4.51
   2   4  -3   79.82    3.98
   2   4  -3   81.16    4.14
   2   4  -3   78.07    3.78
   2   4  -2   35.06    2.50
   2   4  -2   36.16    2.47
   2   4  -2   33.51    2.68
   2   4  -2   30.61    6.67
   2   4  -2   34.81    2.47
   2   4  -2   35.02    2.45
   2   4  -2   33.23    2.43
   2   4  -2   37.91    2.68
   2   4  -2   42.27    7.27
   2   4  -2   35.22    2.50
   2   4  -2   38.71    2.78
   2   4  -2   33.80    2.49
   2   4  -2   37.24    2.74
   2   4  -1   26.72    2.17
   2   4  -1   24.51    5.67
   2   4  -1   26.86    2.24
   2   4  -1   30.31    2.23
   2   4  -1   28.80    2.19
   2   4  -1   28.69    2.14
   2   4  -1   29.98    2.22
   2   4  -1   30.08    6.22
   2   4  -1   28.80    2.23
   2   4  -1   26.22    2.28
   2   4  -1   27.92    2.10
   2   4   0    2.82    0.61
   2   4   0    3.56    2.77
   2   4   0    4.42    0.94
   2   4   0    3.62    0.83
   2   4   0    2.98    0.78
   2   4   0    2.41    0.82
   2   4   0    3.24    1.59
   2   4   0    3.79    0.91
   2   4   0    2.59    0.67
   2   4   0    2.89    0.68
   2   4   1   18.08    1.61
   2   4   1   18.75    1.81
   2   4   1   14.72    4.15
   2   4   1   17.98    1.69
   2   4   1   15.43    1.55
   2   4   1   20.31    5.20
   2   4   1   17.41    1.72
   2   4   1   15.22    1.57
   2   4   1   16.91    1.58
   2   4   1   18.06    1.70
   2   4   1   16.60    1.76
   2   4   1   16.86    1.65
   2   4   2    5.33    0.98
   2   4   2    3.54    2.68
   2   4   2    5.75    1.11
   2   4   2    6.01    0.99
   2   4   2    4.60    0.97
   2   4   2    4.22    0.90
   2   4   2    5.01    1.12
   2   4   2    4.25    0.90
   2   4   2    6.79    2.89
  -2  -4  -2    4.16    2.88
   2   4   2    5.59    1.03
   2   4   2    5.71    1.00
   2   4   2    5.47    0.96
   2   4   3  135.59    5.57
   2   4   3  139.75    5.67
   2   4   3  137.38    5.37
   2   4   3  139.20    5.76
   2   4   3  141.67    5.31
   2   4   3  125.66    5.04
   2   4   3  138.22   13.75
   2   4   3  128.27    5.25
   2   4   3  129.13    5.40
   2   4   3  136.57    5.26
   2   4   3  145.80   14.26
   2   4   3  142.14    5.69
   2   4   3  142.95    5.48
  -2  -4  -3  121.80   13.92
  -2  -4  -4    5.46    3.45
   2   4   4    5.11    1.13
   2   4   4    5.30    1.24
   2   4   4    4.85    3.08
   2   4   4    5.05    1.14
   2   4   4    5.58    1.05
   2   4   4    7.26    1.24
   2   4   4    4.31    0.93
   2   4   4    5.79    1.05
   2   4   4    5.24    0.92
   2   4   4    5.26    2.22
   2   4   4    4.22    0.92
   2   4   4    6.27    1.22
   2   4   4    5.92    1.24
   2   4   4    5.73    1.16
  -2  -4  -5   15.31    5.34
   2   4   5   21.93    2.30
   2   4   5   18.87    2.14
   2   4   5   19.92    5.03
   2   4   5   20.04    2.21
   2   4   5   17.43    1.80
   2   4   5   19.74    1.93
   2   4   5   17.89    1.92
   2   4   5   18.70    1.84
   2   4   5   18.31    5.11
   2   4   5   19.10    2.01
   2   4   5   17.23    1.84
   2   4   5   14.32    1.63
   2   4   5   19.02    2.00
   2   4   5   16.15    1.57
   2   4   5   17.84    1.97
  -2  -4  -6   35.06    8.21
   2   4   6   46.67    3.61
   2   4   6   46.61    3.63
   2   4   6   51.41    3.70
   2   4   6   44.37    3.17
   2   4   6   50.98    3.43
   2   4   6   44.68    3.26
   2   4   6   48.85    8.00
   2   4   6   47.90    3.22
   2   4   6   47.10    3.38
   2   4   6   46.09    3.16
   2   4   7   23.40    2.73
  -2  -4  -7   23.69    7.19
   2   4   7   24.94    2.74
   2   4   7   24.63    2.29
   2   4   7   22.04    2.54
   2   4   7   24.23    2.47
   2   4   7   23.77    2.44
   2   4   7   20.34    2.27
   2   4   8   36.81    3.36
   2   4   8   34.21    3.30
  -2  -4  -8   30.18    8.37
   2   4   8   35.73    3.26
   2   4   8   41.10    3.29
   2   4   8   36.39    2.86
   2   4   9    5.94    1.42
   2   4   9    4.54    1.34
  -2  -4  -9    7.62    5.29
   2   4   9    6.53    1.35
   2   4   9    6.16    1.34
   2   4  10    1.86    0.77
   2   4  10    2.26    1.02
   2   4  10    1.58    0.73
   2   4  10    3.76    1.20
   2   4  11    3.59    0.66
   2   4  11    3.73    0.88
   2   4  11    3.92    0.83
   2   4  11    4.28    0.95
   2   5  -9   38.03    2.63
   2   5  -9   32.80    2.39
  -2  -5   9   37.27    2.17
   2   5  -9   32.01    2.44
   2   5  -8   21.30    2.30
   2   5  -8   23.74    2.32
   2   5  -8   28.75    2.16
   2   5  -8   22.12    2.24
   2   5  -7    1.58    0.75
   2   5  -7    1.55    0.75
   2   5  -7    0.44    0.56
   2   5  -7    1.62    0.95
   2   5  -7    1.10    0.64
   2   5  -7    1.84    0.75
   2   5  -7    1.21    0.80
   2   5  -7    1.39    0.68
   2   5  -6   18.02    1.96
   2   5  -6   14.66    1.73
   2   5  -6   14.94    2.05
   2   5  -6   12.40    2.17
   2   5  -6   16.47    1.99
   2   5  -6   13.65    1.85
   2   5  -6   14.22    1.98
   2   5  -6   16.34    1.99
   2   5  -5   63.12    3.86
   2   5  -5   51.08    3.38
   2   5  -5   54.81    3.26
   2   5  -5   61.90    4.11
   2   5  -5   60.63    4.26
   2   5  -5   53.25    3.71
   2   5  -5   54.69    3.72
   2   5  -5   54.91    3.87
   2   5  -5   57.16    3.64
   2   5  -4  416.44   11.95
   2   5  -4  429.86   27.80
   2   5  -4  402.48   11.75
   2   5  -4  421.42   11.47
   2   5  -4  435.63   11.57
   2   5  -4  386.57   10.73
   2   5  -4  421.31   12.40
   2   5  -4  424.88   12.80
   2   5  -4  448.59   27.28
   2   5  -4  398.98   11.97
   2   5  -4  414.31   12.00
   2   5  -4  375.15   11.85
   2   5  -4  419.83   11.44
   2   5  -4  442.82   11.41
   2   5  -4  404.62   11.47
   2   5  -3   33.62    2.77
   2   5  -3   36.22    3.11
   2   5  -3   33.93    7.95
   2   5  -3   38.01    2.98
   2   5  -3   35.30    2.79
   2   5  -3   40.83    2.92
   2   5  -3   37.33    2.38
   2   5  -3   38.99    2.86
   2   5  -3   39.52    3.04
   2   5  -3   40.90    8.36
   2   5  -3   37.39    3.12
   2   5  -3   36.69    2.98
   2   5  -3   35.42    2.83
   2   5  -3   40.58    3.00
   2   5  -3   33.15    2.77
   2   5  -3   36.55    2.73
   2   5  -3   35.32    2.60
   2   5  -2   76.90    4.21
   2   5  -2   70.04   11.18
   2   5  -2   85.85    4.31
   2   5  -2   80.54    4.61
   2   5  -2   82.68    4.45
   2   5  -2   79.13    4.30
   2   5  -2   84.22    4.30
   2   5  -2   82.82    4.38
   2   5  -2   79.24   11.35
   2   5  -2   85.17    4.68
   2   5  -2   79.48    4.35
   2   5  -2   86.55    4.65
   2   5  -2   82.19    4.32
   2   5  -2   80.30    4.36
   2   5  -2   80.16    4.17
   2   5  -2   77.92    3.83
   2   5  -1  124.21    5.57
   2   5  -1  132.72    5.56
   2   5  -1  127.02    5.62
   2   5  -1  134.51   15.40
   2   5  -1  134.77    6.00
   2   5  -1  136.43    5.89
   2   5  -1  130.74    5.59
   2   5  -1  135.67    5.63
   2   5  -1  138.11    5.64
   2   5  -1  134.02    5.60
   2   5  -1  135.15    5.58
   2   5  -1  141.57    6.02
   2   5  -1  131.49   14.91
   2   5  -1  135.46    5.94
   2   5  -1  132.04    5.68
   2   5  -1  140.45    5.64
   2   5  -1  134.84    5.64
   2   5   0   51.00    3.18
   2   5   0   44.51    3.15
   2   5   0   44.43    3.22
   2   5   0   47.48    3.29
   2   5   0   46.70    9.05
   2   5   0   46.99    3.11
   2   5   0   46.55    3.08
   2   5   0   49.73    3.18
   2   5   0   46.29    2.93
   2   5   0   51.37    3.27
   2   5   0   41.52    8.27
   2   5   0   47.00    3.18
   2   5   0   53.30    3.43
   2   5   0   47.04    3.26
   2   5   0   51.29    3.09
   2   5   0   50.62    3.41
   2   5   0   46.59    3.15
   2   5   1    9.14    1.34
   2   5   1    8.48    1.42
   2   5   1    8.76    1.38
   2   5   1    7.01    3.86
   2   5   1    9.99    1.62
   2   5   1    7.64    1.23
   2   5   1    9.31    1.33
   2   5   1    9.71    1.47
   2   5   1    8.19    1.23
   2   5   1    8.95    1.40
   2   5   1    8.29    1.30
   2   5   1    8.30    1.27
   2   5   1    7.97    3.73
   2   5   1    9.09    1.30
   2   5   1    7.23    1.23
   2   5   2    6.48    1.07
   2   5   2    6.28    1.32
   2   5   2    7.38    1.26
   2   5   2    6.49    3.73
   2   5   2    4.73    1.10
   2   5   2    6.66    1.20
   2   5   2    6.00    1.13
   2   5   2    6.05    1.16
   2   5   2    5.52    1.15
   2   5   2    1.96    1.91
   2   5   2    5.44    1.15
   2   5   2    7.35    1.10
   2   5   2    7.31    1.20
  -2  -5  -2    5.98    4.02
   2   5   2    6.80    1.24
   2   5   2    6.17    1.11
   2   5   3   19.30    1.83
   2   5   3   17.84    2.01
   2   5   3   19.09    2.21
   2   5   3   19.53    5.94
   2   5   3   20.62    2.25
   2   5   3   17.71    1.86
   2   5   3   16.20    1.92
   2   5   3   15.20    1.81
   2   5   3   18.01    1.97
   2   5   3   17.01    1.83
   2   5   3   15.57    4.91
   2   5   3   21.33    2.12
   2   5   3   21.13    2.13
   2   5   3   17.87    1.96
   2   5   3   16.81    1.97
  -2  -5  -3   15.71    5.57
  -2  -5  -4   19.96    6.36
   2   5   4   21.93    1.93
   2   5   4   23.55    2.42
   2   5   4   22.48    2.44
   2   5   4   23.53    6.14
   2   5   4   23.06    2.40
   2   5   4   26.05    2.24
   2   5   4   22.08    2.11
   2   5   4   23.81    2.14
   2   5   4   20.55    2.09
   2   5   4   22.72    2.36
   2   5   4   26.21    6.96
   2   5   4   23.34    2.47
   2   5   4   23.64    2.24
   2   5   4   24.16    2.45
   2   5   4   24.34    2.29
  -2  -5  -5   30.01    8.03
   2   5   5   38.56    2.80
   2   5   5   42.44    3.28
   2   5   5   39.45    3.30
   2   5   5   40.39    8.37
   2   5   5   43.60    3.44
   2   5   5   41.53    2.93
   2   5   5   36.12    2.98
   2   5   5   40.13    3.22
   2   5   5   41.01    8.30
   2   5   5   39.66    2.88
   2   5   5   41.05    3.27
   2   5   5   39.43    3.05
   2   5   6  104.31    5.46
   2   5   6   99.92    5.56
   2   5   6  104.29    5.58
   2   5   6   99.13    5.02
   2   5   6  106.59    5.36
   2   5   6  110.97    4.70
  -2  -5  -6   93.75   14.48
   2   5   6  105.54    4.92
   2   5   6  102.14    5.42
   2   5   7  102.02    5.39
   2   5   7   93.38    5.37
   2   5   7   97.51    5.43
   2   5   7   92.75    4.77
   2   5   7   94.93    5.01
  -2  -5  -7   78.06   13.48
   2   5   7   98.75    4.46
   2   5   7   96.59    5.04
   2   5   8   59.98    4.02
   2   5   8   62.57    4.21
   2   5   8   62.47    4.17
   2   5   8   54.68    3.37
   2   5   8   59.99    3.82
   2   5   8   56.46    3.65
   2   5   9   26.44    2.60
   2   5   9   28.61    2.42
   2   5   9   25.97    2.58
   2   5   9   30.33    2.57
   2   5   9   24.55    2.11
   2   5  10    2.01    0.80
   2   5  10    1.59    0.55
   2   5  10    0.80    0.56
   2   5  10    1.19    0.65
   2   6  -8   12.07    1.37
   2   6  -8    8.70    1.10
   2   6  -8   12.84    1.19
   2   6  -7   28.18    2.15
   2   6  -7   32.58    2.53
   2   6  -7   25.89    2.27
   2   6  -7   33.20    2.34
   2   6  -7   22.85    1.99
   2   6  -6    0.89    0.56
   2   6  -6    1.21    0.76
   2   6  -6    0.30    0.52
   2   6  -6    0.32    0.44
   2   6  -6    1.59    0.71
   2   6  -6    1.25    0.63
   2   6  -6    0.59    0.48
   2   6  -5   25.05    2.42
   2   6  -5   23.55    2.25
   2   6  -5   24.22    2.47
   2   6  -5   22.92    2.51
   2   6  -5   24.02    2.31
   2   6  -5   17.97    2.02
   2   6  -5   18.77    1.98
   2   6  -4    7.92    1.35
   2   6  -4    7.47    1.22
   2   6  -4    8.36    1.36
   2   6  -4    9.77    1.62
   2   6  -4    8.74    1.35
   2   6  -4    6.65    1.46
   2   6  -4   10.53    1.57
   2   6  -4    7.98    1.35
   2   6  -4    5.90    1.20
   2   6  -4    8.97    1.37
   2   6  -4    6.96    1.23
   2   6  -3  151.40    6.43
   2   6  -3  141.54   17.00
   2   6  -3  147.90    6.13
   2   6  -3  152.46    6.29
   2   6  -3  152.85    6.49
   2   6  -3  161.31   17.56
   2   6  -3  142.09    5.61
   2   6  -3  154.45    6.78
   2   6  -3  147.28    6.37
   2   6  -3  150.55    6.26
   2   6  -3  154.65    6.43
   2   6  -3  139.08    5.89
   2   6  -3  161.30    6.38
   2   6  -3  163.17    6.29
   2   6  -2  307.12    9.85
   2   6  -2  279.27   24.70
   2   6  -2  294.48    9.65
   2   6  -2  303.37   10.40
   2   6  -2  307.07    9.78
   2   6  -2  297.81    9.60
   2   6  -2  303.03    9.74
   2   6  -2  297.71    9.73
   2   6  -2  305.34   24.55
   2   6  -2  312.83   10.30
   2   6  -2  295.66    9.85
   2   6  -2  313.81    9.85
   2   6  -2  299.01    9.64
   2   6  -2  312.36   10.16
   2   6  -2  286.07    8.58
   2   6  -2  308.90    9.67
   2   6  -1    8.69    1.43
   2   6  -1    8.22    1.40
   2   6  -1    7.39    1.30
   2   6  -1    5.84    4.40
   2   6  -1    8.47    1.40
   2   6  -1    7.01    1.29
   2   6  -1    6.72    1.29
   2   6  -1    8.84    1.46
   2   6  -1    7.50    1.26
   2   6  -1    9.89    1.76
   2   6  -1    7.30    1.24
   2   6  -1    7.84    3.66
   2   6  -1    9.22    1.60
   2   6  -1    8.27    1.39
   2   6  -1    7.41    1.42
   2   6  -1    8.85    1.41
   2   6   0   17.47    2.27
   2   6   0   14.75    2.00
   2   6   0   13.22    5.48
   2   6   0   14.37    1.91
   2   6   0   16.65    1.94
   2   6   0   13.70    1.81
   2   6   0   16.08    1.89
   2   6   0   15.15    1.87
   2   6   0   11.92    1.73
   2   6   0   12.58    1.59
   2   6   0   12.98    1.64
   2   6   0   10.49    3.69
   2   6   0   13.98    1.94
   2   6   0   15.19    1.72
   2   6   0   13.23    1.79
   2   6   0   13.41    1.96
   2   6   1  104.83    5.02
   2   6   1  107.51   15.17
   2   6   1  119.74    5.72
   2   6   1  120.25    5.89
   2   6   1  109.76    5.53
   2   6   1  108.48    5.31
   2   6   1  103.78    5.12
   2   6   1  101.50    5.07
   2   6   1  112.11    5.36
   2   6   1  105.37    5.22
   2   6   1   97.87   14.05
   2   6   1  123.88    5.61
   2   6   1  111.73    5.57
  -2  -6  -1  100.59   15.18
   2   6   1  102.65    4.77
   2   6   1  109.49    5.62
   2   6   2   19.38    2.00
   2   6   2   19.76    2.18
   2   6   2   20.39    2.29
   2   6   2   16.51    6.14
   2   6   2   18.18    2.18
   2   6   2   19.64    2.12
   2   6   2   19.16    2.10
   2   6   2   18.70    2.00
   2   6   2   20.29    2.16
   2   6   2   17.89    2.05
   2   6   2   15.92    5.46
   2   6   2   19.47    2.11
   2   6   2   18.94    2.03
   2   6   2   17.77    2.17
  -2  -6  -2   13.41    5.41
  -2  -6  -3    5.03    2.94
   2   6   3    0.30    0.53
   2   6   3    1.62    0.71
   2   6   3    1.71    1.02
   2   6   3    2.06    3.06
   2   6   3    1.09    0.88
   2   6   3    0.97    0.73
   2   6   3    2.12    0.89
   2   6   3    1.88    1.09
   2   6   3    0.68    0.51
   2   6   3    0.72    0.58
   2   6   3    1.14    2.33
   2   6   3    0.94    0.88
   2   6   3    0.17    0.49
   2   6   3    1.99    0.67
  -2  -6  -4   17.94    6.16
   2   6   4   16.90    2.11
   2   6   4   17.75    5.67
   2   6   4   14.56    1.94
   2   6   4   16.56    1.92
   2   6   4   14.89    1.81
   2   6   4   16.42    2.12
   2   6   4   16.60    1.87
   2   6   4   16.61    2.02
   2   6   4   13.02    5.18
   2   6   4   16.04    1.91
   2   6   4   15.30    1.98
   2   6   5  121.68    5.75
   2   6   5  112.52    5.79
   2   6   5  116.14    5.91
   2   6   5  120.98    5.19
   2   6   5  113.78    5.47
   2   6   5  100.60   13.56
   2   6   5  122.08    5.23
  -2  -6  -5  101.39   15.10
   2   6   5  113.69    5.28
   2   6   5  111.48    5.67
   2   6   5  119.96    5.20
   2   6   6   23.93    2.44
   2   6   6   24.05    2.53
   2   6   6   21.81    2.44
   2   6   6   20.89    2.16
   2   6   6   23.31    2.25
   2   6   6   22.86    2.03
   2   6   6   21.33    2.41
   2   6   7   64.94    3.87
   2   6   7   61.92    3.94
   2   6   7   66.80    4.10
   2   6   7   62.65    3.61
   2   6   7   61.59    3.60
   2   6   7   61.46    3.80
   2   6   8   56.66    3.52
   2   6   8   55.78    3.68
   2   6   8   64.63    3.41
   2   6   8   59.98    3.34
   2   6   8   65.92    3.55
   2   6   9   14.36    1.39
   2   6   9   13.42    1.42
   2   6   9   13.09    1.55
   2   6   9   11.94    1.17
   2   7  -6   -0.56    0.44
   2   7  -6   -0.91    0.53
   2   7  -6    0.24    0.32
   2   7  -6   -0.25    0.38
   2   7  -5    4.11    0.97
   2   7  -5    4.68    0.94
   2   7  -5    3.57    0.76
   2   7  -5    3.44    0.80
   2   7  -4    8.75    1.33
   2   7  -4   10.38    1.28
   2   7  -4   10.55    1.37
   2   7  -4   11.28    1.39
   2   7  -4    9.79    1.44
   2   7  -4   10.67    1.28
   2   7  -3   -0.05    0.68
   2   7  -3    0.75    0.52
   2   7  -3    0.88    0.67
   2   7  -3    0.51    0.47
   2   7  -3   -0.32    0.64
   2   7  -3   -0.35    0.53
   2   7  -3    1.02    0.69
   2   7  -2   38.26    2.87
   2   7  -2   38.19    3.03
   2   7  -2   34.69    2.49
   2   7  -2   34.50    2.71
   2   7  -2   36.78    2.64
   2   7  -2   38.83    2.79
   2   7  -2   36.66    2.86
   2   7  -2   33.96    2.68
   2   7  -2   37.77    2.75
   2   7  -1    1.78    0.71
   2   7  -1    2.21    0.92
   2   7  -1    1.66    0.48
   2   7  -1    1.24    0.69
   2   7  -1    2.58    0.77
   2   7  -1    2.00    0.76
   2   7  -1    1.70    0.65
   2   7  -1    1.53    0.67
   2   7  -1    2.40    0.77
   2   7  -1    2.33    0.93
   2   7  -1    2.61    0.80
   2   7   0   10.81    1.52
   2   7   0   10.44    1.57
   2   7   0    9.55    1.41
   2   7   0   10.84    1.56
   2   7   0   10.55    1.52
   2   7   0    9.89    1.54
   2   7   0    9.64    1.33
   2   7   0    8.79    1.34
   2   7   0   12.59    1.72
   2   7   0   10.44    1.46
   2   7   1   57.08    3.42
   2   7   1   57.19    3.61
   2   7   1   59.95    3.87
   2   7   1   58.24    3.66
   2   7   1   55.81    3.49
   2   7   1   56.94    3.55
   2   7   1   56.62    3.50
   2   7   1   57.50    3.58
   2   7   1   56.13    3.53
   2   7   1   56.17    3.14
   2   7   1   56.63    3.53
   2   7   1   59.62    3.79
   2   7   2    1.62    0.64
   2   7   2    2.85    0.93
   2   7   2    2.49    0.98
   2   7   2    2.47    0.97
   2   7   2    2.05    0.60
   2   7   2    3.53    0.98
   2   7   2    2.11    0.73
   2   7   2    1.62    0.68
   2   7   2    2.94    0.89
   2   7   2    1.33    0.82
   2   7   2    0.79    0.74
   2   7   3  182.93    6.06
   2   7   3  171.64    6.81
   2   7   3  175.97    6.99
   2   7   3  174.98    6.94
   2   7   3  182.93    6.69
   2   7   3  174.61    6.71
   2   7   3  175.85    6.65
   2   7   3  181.57    6.73
   2   7   3  176.54    6.60
   2   7   3  171.78    6.96
   2   7   4    1.26    0.76
   2   7   4    1.20    0.81
   2   7   4    1.62    0.82
   2   7   4    1.44    0.54
   2   7   4    0.37    0.35
   2   7   4    1.69    0.87
   2   7   4    0.29    0.63
   2   7   4    2.01    0.72
   2   7   4    1.45    0.61
   2   7   5    3.02    0.93
   2   7   5    2.64    0.90
   2   7   5    1.67    0.77
   2   7   5    2.27    0.69
   2   7   5    2.09    0.91
   2   7   5    1.54    0.53
   2   7   5    1.81    0.76
   2   7   5    1.18    0.51
   2   7   6    5.01    0.97
   2   7   6    2.90    0.70
   2   7   6    2.80    0.75
   2   7   6    4.27    0.95
   2   7   6    3.73    1.00
   2   7   7   76.44    3.42
   2   7   7   65.87    3.29
   2   7   7   72.72    3.50
   2   7   7   67.67    3.24
   2   8  -2   30.87    2.07
   2   8  -2   31.49    2.03
   2   8  -2   29.62    1.88
   2   8  -1    1.94    0.59
   2   8  -1    2.32    0.61
   2   8  -1    2.25    0.55
   2   8   0    0.41    0.42
   2   8   0    1.15    0.54
   2   8   0    1.46    0.55
   2   8   0    0.61    0.53
   2   8   1    6.49    0.88
   2   8   1    6.00    0.98
   2   8   1    6.34    0.85
   2   8   1    6.45    1.02
   2   8   1    7.76    1.08
   2   8   2   31.82    2.20
   2   8   2   29.22    1.96
   2   8   2   33.49    2.20
   2   8   2   31.30    2.20
   2   8   3   26.43    1.92
   2   8   3   25.89    1.83
   2   8   3   30.38    2.01
   2   8   3   28.59    2.02
  -3   6   4    2.60    0.68
  -3   6   4    3.20    0.78
  -3   6   4    3.09    0.70
  -3   6   4    2.25    0.59
  -3   6   3    3.91    0.86
  -3   6   3    3.40    0.62
  -3   6   3    3.81    0.85
  -3   6   3    4.97    0.81
  -3   6   3    2.50    0.66
  -3   6   2   15.50    1.48
  -3   6   2   15.10    1.63
  -3   6   2   13.47    1.35
  -3   6   2   16.24    1.70
  -3   6   2   16.98    1.78
  -3   6   2   13.56    1.70
  -3   6   2   13.70    1.44
  -3   6   1   63.06    3.86
  -3   6   1   69.55    3.49
  -3   6   1   68.28    3.55
  -3   6   1   75.71    3.89
  -3   6   1   69.56    3.78
  -3   6   1   61.68    3.28
  -3   6   1   66.67    3.43
  -3   6   0    2.39    0.89
  -3   6   0    1.73    0.74
  -3   6   0    2.78    0.82
  -3   6   0    1.75    0.81
  -3   6   0    2.74    0.82
  -3   6   0    1.05    0.58
  -3   6   0    1.53    0.50
  -3   6   0    1.59    0.96
  -3   6  -1   26.20    2.23
  -3   6  -1   26.53    2.01
  -3   6  -1   29.95    2.45
  -3   6  -1   27.65    2.42
  -3   6  -1   29.31    2.28
  -3   6  -1   28.58    2.56
  -3   6  -1   25.36    2.44
  -3   6  -1   24.04    1.97
  -3   6  -1   30.00    2.76
  -3   6  -2    6.03    1.38
  -3   6  -2    7.82    1.28
  -3   6  -2    7.86    1.36
  -3   6  -2    7.03    1.27
  -3   6  -2    6.25    1.22
  -3   6  -2    7.13    1.18
  -3   6  -2    8.14    1.34
  -3   6  -2    4.12    0.90
  -3   6  -2    4.76    1.15
  -3   6  -3   26.96    2.15
  -3   6  -3   26.65    2.55
  -3   6  -3   23.19    2.20
  -3   6  -3   24.26    2.21
  -3   6  -3   27.69    2.19
  -3   6  -3   27.75    2.47
  -3   6  -3   27.06    2.36
  -3   6  -3   26.71    2.55
  -3   6  -4    1.74    0.83
  -3   6  -4    1.24    0.74
  -3   6  -4    1.40    0.79
  -3   6  -4    2.40    0.75
  -3   6  -4    2.46    0.89
  -3   6  -4    1.05    0.70
  -3   6  -4    1.42    0.57
  -3   6  -4    2.39    0.92
  -3   6  -5   47.90    2.62
  -3   6  -5   45.51    2.74
  -3   6  -5   45.01    3.15
  -3   6  -5   52.21    3.10
  -3   6  -5   49.21    2.62
  -3   6  -5   52.49    3.27
  -3   6  -5   51.57    3.26
  -3   6  -6    6.84    1.15
  -3   6  -6    4.74    0.79
  -3   6  -6    5.05    0.90
  -3   6  -6    6.97    1.15
  -3   6  -6    6.61    1.06
  -3   6  -7    8.80    1.08
  -3   6  -7    9.11    1.17
  -3   6  -7    6.07    0.81
  -3   6  -7    7.70    1.11
  -3   5   6    0.59    0.43
  -3   5   6   -0.60    0.55
  -3   5   6   -0.51    0.59
  -3   5   6   -0.14    0.40
  -3   5   6    0.59    0.55
  -3   5   6    0.11    0.45
  -3   5   5    7.37    1.17
  -3   5   5   12.15    1.59
  -3   5   5   11.48    1.58
  -3   5   5   10.64    1.27
  -3   5   5   13.61    1.68
  -3   5   5   11.74    1.68
  -3   5   4   38.25    2.75
  -3   5   4   28.93    2.36
  -3   5   4   43.50    3.09
  -3   5   4   47.38    3.24
  -3   5   4   34.38    2.33
  -3   5   4   46.66    3.10
  -3   5   4   45.02    3.23
  -3   5   3    9.42    1.43
  -3   5   3   10.98    1.56
  -3   5   3   11.63    1.71
  -3   5   3   10.34    1.58
  -3   5   3   10.26    1.39
  -3   5   3    9.17    1.57
  -3   5   3   11.24    1.52
  -3   5   3    6.47    1.14
  -3   5   3   11.96    1.57
  -3   5   3   11.34    1.77
  -3   5   2    6.83    1.30
  -3   5   2    6.06    1.25
  -3   5   2    8.09    1.49
  -3   5   2    7.69    1.31
  -3   5   2    7.64    1.23
  -3   5   2    8.53    1.51
  -3   5   2    8.24    1.56
  -3   5   2    7.21    1.42
  -3   5   2    5.54    1.19
  -3   5   1  307.01    9.21
  -3   5   1  310.53    9.64
  -3   5   1  295.05   10.62
  -3   5   1  314.79    9.51
  -3   5   1  316.75    9.63
  -3   5   1  313.43    9.93
  -3   5   1  304.99   10.19
  -3   5   1  315.63   26.46
  -3   5   1  302.99   10.31
  -3   5   1  295.64   10.38
  -3   5   1  289.93    9.63
  -3   5   1  274.18    9.19
  -3   5   0  200.07    7.34
  -3   5   0  189.52    7.74
  -3   5   0  191.77    7.72
  -3   5   0  193.73    7.16
  -3   5   0  200.85    7.19
  -3   5   0  175.13    7.80
  -3   5   0  205.73    7.65
  -3   5   0  180.05   19.35
  -3   5   0  179.90   20.20
  -3   5   0  195.20    7.92
  -3   5   0  190.18    6.90
  -3   5   0  190.29    8.14
  -3   5   0  191.54    7.20
  -3   5  -1    1.15    0.86
  -3   5  -1    1.97    1.03
  -3   5  -1    0.40    0.47
  -3   5  -1    0.60    0.73
  -3   5  -1    0.70    0.82
  -3   5  -1    1.37    0.99
  -3   5  -1   -0.13    0.78
  -3   5  -1    0.19    0.82
  -3   5  -1    2.47    2.15
  -3   5  -1    0.78    0.76
  -3   5  -1    0.64    0.77
  -3   5  -1    0.80    1.01
  -3   5  -1    4.19    1.87
  -3   5  -2   57.14    3.70
  -3   5  -2   59.64    3.73
  -3   5  -2   52.77    3.23
  -3   5  -2   48.88    3.98
  -3   5  -2   59.31    3.89
  -3   5  -2   57.79    4.09
  -3   5  -2   66.90   11.95
  -3   5  -2   59.12    4.15
  -3   5  -2   60.16    3.62
  -3   5  -2   61.58    4.06
  -3   5  -2   58.87   10.67
  -3   5  -2   52.91    3.48
  -3   5  -2   58.39    4.12
  -3   5  -2   53.62    3.10
  -3   5  -2   43.16    3.83
  -3   5  -3    5.47    1.47
  -3   5  -3    3.88    1.09
  -3   5  -3    4.89    1.36
  -3   5  -3    4.04    1.20
  -3   5  -3    4.78    1.43
  -3   5  -3    5.00    1.25
  -3   5  -3    4.54    1.13
  -3   5  -3    4.81    1.40
  -3   5  -3    6.82    1.51
  -3   5  -3    3.67    4.55
  -3   5  -3    8.14    3.53
  -3   5  -3    6.96    1.34
  -3   5  -3    4.86    0.89
  -3   5  -3    5.35    1.37
  -3   5  -3    4.99    1.32
  -3   5  -4    4.63    1.18
  -3   5  -4    4.32    3.23
  -3   5  -4    4.24    1.33
  -3   5  -4    4.79    1.20
  -3   5  -4    8.56    4.64
  -3   5  -4    5.24    1.44
  -3   5  -4    5.37    1.12
  -3   5  -4    6.12    1.28
  -3   5  -4    2.91    1.10
  -3   5  -4    6.09    1.07
  -3   5  -4    5.05    1.40
  -3   5  -4    4.65    1.30
  -3   5  -4    6.49    1.49
  -3   5  -4    4.86    1.20
  -3   5  -5    0.84    0.44
  -3   5  -5    1.65    0.86
  -3   5  -5    0.67    0.68
  -3   5  -5    0.68    0.74
  -3   5  -5    1.06    0.62
  -3   5  -5    2.92    0.94
  -3   5  -5    0.26    0.72
  -3   5  -5    1.18    0.66
  -3   5  -5   -0.41    0.61
  -3   5  -5    0.19    0.63
  -3   5  -5    1.12    0.78
  -3   5  -5    0.88    0.90
  -3   5  -6   11.56    1.87
  -3   5  -6   10.40    1.73
  -3   5  -6    8.50    1.47
  -3   5  -6    9.35    1.36
  -3   5  -6    9.86    1.24
  -3   5  -6    8.15    1.27
  -3   5  -6   10.18    1.61
  -3   5  -6    6.42    1.05
  -3   5  -6   10.28    1.79
  -3   5  -6   10.68    1.74
  -3   5  -6   12.07    1.72
  -3   5  -6   10.05    1.21
  -3   5  -7    0.23    0.55
  -3   5  -7    1.17    0.88
  -3   5  -7    0.08    0.71
  -3   5  -7    1.17    0.57
  -3   5  -7    1.29    0.92
  -3   5  -7    1.46    0.82
  -3   5  -8  109.23    4.92
  -3   5  -8  116.94    4.55
  -3   5  -8   90.28    4.19
  -3   5  -8   84.67    4.08
  -3   5  -8  101.65    4.76
  -3   5  -8  105.66    4.74
  -3   5  -9    7.42    1.16
  -3   5  -9    4.63    0.75
  -3   5  -9    4.94    0.78
  -3   5  -9    6.89    1.12
  -3   5  -9    7.27    1.08
  -3   4   8    1.09    0.54
  -3   4   8    1.83    0.63
  -3   4   8    1.18    0.62
  -3   4   8    0.53    0.43
  -3   4   8    1.19    0.58
  -3   4   7    4.07    0.97
  -3   4   7    2.85    0.68
  -3   4   7    4.38    0.96
  -3   4   7    3.67    0.95
  -3   4   7    5.06    1.20
  -3   4   7    3.87    1.07
  -3   4   6    0.84    0.60
  -3   4   6    1.53    0.60
  -3   4   6    0.62    0.49
  -3   4   6    0.71    0.57
  -3   4   6    0.18    0.66
  -3   4   6    0.86    0.78
  -3   4   6    1.08    0.75
  -3   4   5   19.68    2.26
  -3   4   5   23.44    2.37
  -3   4   5   22.51    2.39
  -3   4   5   30.65    2.64
  -3   4   5   28.17    2.77
  -3   4   5   23.90    2.16
  -3   4   5   24.72    2.84
  -3   4   4   44.88    3.42
  -3   4   4   52.65    3.77
  -3   4   4   44.96    3.48
  -3   4   4   53.85    3.62
  -3   4   4   52.90    3.12
  -3   4   4   49.25    3.87
  -3   4   3  166.14    6.88
  -3   4   3  164.00    6.38
  -3   4   3  176.13    7.02
  -3   4   3  189.81    6.90
  -3   4   3  178.50    7.38
  -3   4   3  175.73    7.41
  -3   4   3  163.28    6.15
  -3   4   3  164.47   17.95
  -3   4   3  179.90    7.16
  -3   4   3  166.66    6.03
  -3   4   3  180.69    7.50
  -3   4   2  361.08   10.72
  -3   4   2  324.79    9.75
  -3   4   2  307.10    9.94
  -3   4   2  359.78   10.72
  -3   4   2  366.20   10.68
  -3   4   2  334.03    9.43
  -3   4   2  303.29   10.53
  -3   4   2  294.07   23.73
  -3   4   2  376.94   28.02
  -3   4   2  289.72   10.40
  -3   4   2  332.45    9.22
  -3   4   2  350.12   10.69
  -3   4   2  299.50   11.10
  -3   4   2  344.82   10.96
  -3   4   1   36.95    2.90
  -3   4   1   36.41    3.25
  -3   4   1   36.14    2.93
  -3   4   1   35.54    2.91
  -3   4   1   39.43    3.10
  -3   4   1   35.01    3.08
  -3   4   1   37.21    8.97
  -3   4   1   38.72    3.23
  -3   4   1   35.36    2.68
  -3   4   1   37.73    8.35
  -3   4   1   34.13    3.22
  -3   4   1   36.36    2.48
  -3   4   1   38.34    3.06
  -3   4   1   36.92    2.97
  -3   4   0   15.24    2.03
  -3   4   0   12.45    1.80
  -3   4   0   12.28    1.85
  -3   4   0   11.66    2.03
  -3   4   0   16.05    6.50
  -3   4   0   15.35    2.06
  -3   4   0   15.21    2.06
  -3   4   0   15.35    1.79
  -3   4   0   16.91    6.33
  -3   4   0   13.15    2.06
  -3   4   0   14.44    1.99
  -3   4   0   14.70    1.73
  -3   4   0   15.98    2.16
  -3   4   0    9.71    1.60
  -3   4  -1    2.59    1.11
  -3   4  -1    3.31    1.01
  -3   4  -1    0.69    0.85
  -3   4  -1    1.47    0.73
  -3   4  -1    1.92    1.07
  -3   4  -1    2.28    0.86
  -3   4  -1    4.39    1.24
  -3   4  -1    1.94    2.77
  -3   4  -1    2.80    1.14
  -3   4  -1    6.13    4.39
  -3   4  -1    2.48    0.94
  -3   4  -1    2.84    1.05
  -3   4  -1    3.56    1.02
  -3   4  -1    4.10    1.13
  -3   4  -2   13.26    1.99
  -3   4  -2   13.65    1.84
  -3   4  -2   14.73    1.89
  -3   4  -2   14.42    2.06
  -3   4  -2   17.09    2.01
  -3   4  -2   16.56    2.24
  -3   4  -2   18.08    1.96
  -3   4  -2   15.37    2.05
  -3   4  -2   13.92    5.86
  -3   4  -2   12.45    4.86
  -3   4  -2   16.87    2.11
  -3   4  -2   15.50    1.73
  -3   4  -2   13.39    2.22
  -3   4  -2   13.48    1.91
  -3   4  -2   19.51    2.33
  -3   4  -3    0.52    0.54
  -3   4  -3    4.59    4.07
  -3   4  -3    1.06    0.77
  -3   4  -3    0.95    0.58
  -3   4  -3    1.19    0.81
  -3   4  -3    0.69    0.94
  -3   4  -3   -1.14    3.05
  -3   4  -3    1.49    0.85
  -3   4  -3    0.31    0.51
  -3   4  -3    0.46    0.59
  -3   4  -3    1.00    0.79
  -3   4  -3   -0.28    0.76
  -3   4  -3    0.71    0.56
  -3   4  -4   42.78    3.67
  -3   4  -4   49.37    3.30
  -3   4  -4   40.34    3.42
  -3   4  -4   46.16    3.25
  -3   4  -4   43.33    3.76
  -3   4  -4   46.13    9.94
  -3   4  -4   50.76    3.09
  -3   4  -4   46.82    8.97
  -3   4  -4   46.91    3.58
  -3   4  -4   46.70    3.66
  -3   4  -4   33.73    3.38
  -3   4  -4   50.28    3.73
  -3   4  -5   36.16    3.00
  -3   4  -5   36.60    3.17
  -3   4  -5   34.71    3.45
  -3   4  -5   32.04    7.78
  -3   4  -5   40.40    2.85
  -3   4  -5   38.96    3.59
  -3   4  -5   38.33    8.51
  -3   4  -5   37.48    3.22
  -3   4  -5   37.42    3.03
  -3   4  -5   33.84    3.32
  -3   4  -5   40.57    3.37
  -3   4  -5   37.46    3.35
  -3   4  -6   11.12    1.73
  -3   4  -6    6.85    1.21
  -3   4  -6    8.76    1.37
  -3   4  -6    8.78    1.97
  -3   4  -6    9.32    1.29
  -3   4  -6    9.08    1.60
  -3   4  -6   11.38    1.78
  -3   4  -6    9.14    1.69
  -3   4  -6   11.27    1.85
  -3   4  -7  168.30    6.75
  -3   4  -7  157.52    7.45
  -3   4  -7  141.75    6.55
  -3   4  -7  159.48    6.91
  -3   4  -7  153.63    6.75
  -3   4  -7  174.17    7.24
  -3   4  -8  196.26    8.07
  -3   4  -8  209.65    7.14
  -3   4  -8  185.93    7.44
  -3   4  -8  206.26    7.72
  -3   4  -9   16.02    2.15
  -3   4  -9   11.73    1.61
  -3   4  -9   17.45    2.10
  -3   4  -9   17.98    1.95
  -3   4 -10    2.00    0.72
  -3   4 -10    2.94    0.86
  -3   4 -10    2.89    0.94
  -3   4 -10    1.97    0.61
  -3   4 -10    1.67    0.61
  -3   3   9   18.20    1.74
  -3   3   9   20.06    1.71
  -3   3   9   14.90    1.60
   3  -3  -8   34.80    2.10
  -3   3   8   33.72    2.60
  -3   3   8   34.34    2.80
  -3   3   8   41.34    2.71
  -3   3   8   37.29    2.76
  -3   3   8   33.24    2.94
  -3   3   7    3.66    1.01
  -3   3   7    3.85    0.98
   3  -3  -7    3.79    0.86
  -3   3   7    4.31    1.11
  -3   3   7    4.90    1.13
  -3   3   7    5.02    1.31
  -3   3   7    5.02    1.13
  -3   3   7    4.54    1.44
  -3   3   6   24.62    2.62
  -3   3   6   27.73    2.67
  -3   3   6   32.86    3.04
   3  -3  -6   35.37    2.46
  -3   3   6   37.65    2.84
  -3   3   6   38.74    3.03
  -3   3   5   37.03    3.23
  -3   3   5   44.55    3.14
  -3   3   5   33.85    3.22
   3  -3  -5   42.36    2.83
  -3   3   5   43.91    3.43
  -3   3   5   46.06    3.33
  -3   3   4    1.61    0.72
  -3   3   4    1.32    0.79
  -3   3   4    1.55    0.85
  -3   3   4    0.05    0.63
   3  -3  -4    0.34    0.55
  -3   3   4    1.22    0.92
  -3   3   4    1.69    1.00
  -3   3   4    1.26    0.85
  -3   3   3  111.39    5.30
  -3   3   3  121.15    5.68
  -3   3   3  109.85    4.93
  -3   3   3  112.46    5.32
  -3   3   3   98.79   13.19
  -3   3   3  116.27    5.24
  -3   3   3  118.80    5.58
  -3   3   3  109.99    4.65
  -3   3   3  114.78    4.94
  -3   3   3  117.17    5.42
  -3   3   3   92.86   11.75
  -3   3   2  382.59   11.90
  -3   3   2  378.62   10.51
  -3   3   2  387.55   10.96
  -3   3   2  386.29   11.51
  -3   3   2  357.16   24.19
  -3   3   2  387.71   11.46
  -3   3   2  371.09   10.12
  -3   3   2  370.35   10.37
  -3   3   2  390.47   26.24
  -3   3   2  385.30   11.17
  -3   3   1   -0.26    0.53
  -3   3   1    0.11    0.58
  -3   3   1    0.03    0.52
  -3   3   1   -0.30    0.60
  -3   3   1    0.18    0.56
  -3   3   1    1.90    2.56
  -3   3   1    0.55    0.75
  -3   3   1    0.44    0.56
  -3   3   1    0.21    0.52
  -3   3   1    0.74    0.61
  -3   3   1    0.07    0.42
  -3   3   0    4.81    1.08
  -3   3   0    4.19    1.14
  -3   3   0    4.85    1.21
  -3   3   0    4.25    0.99
  -3   3   0    3.84    1.10
  -3   3   0    3.71    3.56
  -3   3   0    4.38    0.82
  -3   3   0    4.64    1.16
  -3   3   0    2.96    2.80
  -3   3   0    4.96    1.12
  -3   3   0    4.47    0.95
  -3   3   0    5.55    1.25
  -3   3   0    3.83    1.02
  -3   3  -1    6.80    1.22
  -3   3  -1    7.77    1.43
  -3   3  -1    9.05    4.33
  -3   3  -1    6.96    1.37
  -3   3  -1    8.44    1.45
  -3   3  -1    9.13    1.64
  -3   3  -1    8.68    1.23
  -3   3  -1    8.13    1.45
  -3   3  -1    7.16    3.29
  -3   3  -1    8.49    1.42
  -3   3  -1    7.60    1.24
  -3   3  -1    7.81    1.50
  -3   3  -1    6.32    1.39
  -3   3  -1    9.43    1.43
  -3   3  -2   16.97    1.89
  -3   3  -2   16.39    2.01
  -3   3  -2   20.49    6.21
  -3   3  -2   17.68    2.19
  -3   3  -2   20.33    2.24
  -3   3  -2   17.81    1.68
  -3   3  -2   18.90    2.01
  -3   3  -2   20.95    6.00
  -3   3  -2   16.91    2.09
  -3   3  -2   18.65    1.79
  -3   3  -2   15.61    1.98
  -3   3  -2   14.20    1.87
  -3   3  -2   20.19    2.13
  -3   3  -3   67.66    3.86
  -3   3  -3   71.17    4.10
  -3   3  -3   69.02    3.96
  -3   3  -3   76.73   10.91
  -3   3  -3   69.48   10.79
  -3   3  -3   75.48    4.45
  -3   3  -3   72.22    3.68
  -3   3  -3   72.47    4.02
  -3   3  -3   72.15    4.05
  -3   3  -3   61.50    4.02
  -3   3  -3   77.16    4.35
  -3   3  -4   46.97    2.85
  -3   3  -4   48.01    3.15
  -3   3  -4   46.54    3.25
  -3   3  -4   44.33    3.17
  -3   3  -4   53.91    9.17
  -3   3  -4   39.05    8.19
  -3   3  -4   44.98    3.65
  -3   3  -4   47.23    3.24
  -3   3  -4   42.96    3.29
  -3   3  -4   41.84    3.24
  -3   3  -4   50.80    3.53
  -3   3  -5  163.32    6.40
  -3   3  -5  189.04    7.05
  -3   3  -5  167.53    6.57
  -3   3  -5  169.41   15.95
  -3   3  -5  179.93    7.60
  -3   3  -5  187.49    6.30
  -3   3  -5  178.76    7.09
  -3   3  -5  158.56    6.81
  -3   3  -5  177.85    7.14
  -3   3  -5  190.68    7.47
  -3   3  -6   47.87    3.08
  -3   3  -6   55.78    3.57
  -3   3  -6   49.06    4.10
  -3   3  -6   57.50    3.37
  -3   3  -6   46.94    8.52
  -3   3  -6   56.89    3.11
  -3   3  -6   52.19    8.63
  -3   3  -6   51.40    3.66
  -3   3  -6   53.17    3.64
  -3   3  -6   48.58    3.66
  -3   3  -6   54.41    3.93
  -3   3  -7    5.39    1.16
  -3   3  -7    5.22    1.11
  -3   3  -7    4.26    1.44
  -3   3  -7    4.36    1.24
  -3   3  -7    3.58    1.01
  -3   3  -7    1.73    0.86
  -3   3  -7    2.50    1.05
  -3   3  -8   13.21    1.79
  -3   3  -8   14.94    1.68
  -3   3  -8    8.99    1.58
  -3   3  -8   10.81    1.96
  -3   3  -8   14.07    1.97
  -3   3  -9    4.07    1.02
  -3   3  -9    3.28    0.93
  -3   3  -9    3.93    1.17
  -3   3  -9    4.65    1.21
  -3   3 -10    2.02    0.96
  -3   3 -10    0.51    0.55
  -3   3 -10    0.34    0.89
  -3   3 -10    2.22    0.82
  -3   3 -11   16.83    1.96
  -3   3 -11    9.24    1.17
  -3   3 -11   17.38    1.85
  -3   3 -11   12.00    1.33
  -3   2  10   -0.03    0.41
   3  -2 -10    0.30    0.44
  -3   2  10   -0.01    0.33
  -3   2   9   -0.24    0.41
  -3   2   9    0.90    0.74
   3  -2  -9    0.86    0.54
  -3   2   9   -0.51    0.50
  -3   2   9   -0.45    0.55
  -3   2   9    0.05    0.48
  -3   2   8   28.61    2.32
  -3   2   8   25.71    2.48
   3  -2  -8   27.33    2.33
  -3   2   8   27.59    2.51
  -3   2   8   27.15    2.48
  -3   2   8   31.22    2.62
  -3   2   7  123.23    5.09
  -3   2   7  126.23    5.81
   3  -2  -7  118.25    5.25
  -3   2   7  126.24    5.43
  -3   2   7  126.64    5.58
  -3   2   6   14.97    2.08
  -3   2   6   14.76    1.83
  -3   2   6   19.78    1.99
  -3   2   6   20.45    2.29
   3  -2  -6   19.87    2.08
  -3   2   6   22.25    2.26
  -3   2   6   20.32    2.20
  -3   2   5   41.84    2.86
  -3   2   5   44.07    3.23
   3  -2  -5   41.13    2.97
  -3   2   5   44.65    3.19
  -3   2   5   49.02    3.34
  -3   2   4    7.76    1.30
  -3   2   4    5.95    1.25
   3  -2  -4    5.98    1.09
  -3   2   4    8.29    1.37
  -3   2   4    4.74    1.84
  -3   2   4    3.35    2.64
  -3   2   4    6.22    1.40
  -3   2   4    7.93    1.37
  -3   2   3   20.48    1.87
  -3   2   3   24.53    2.23
  -3   2   3   25.33    6.16
  -3   2   3   21.18    2.04
  -3   2   3   23.78    2.21
  -3   2   3   22.08    2.05
  -3   2   3   23.16    5.24
  -3   2   3   22.24    2.12
  -3   2   3   16.84    5.58
  -3   2   2   42.95    7.21
  -3   2   2   44.49    2.66
  -3   2   2   46.15    3.08
  -3   2   2   45.18    2.88
  -3   2   2   41.62    7.62
  -3   2   2   48.54    3.05
  -3   2   2   44.40    2.50
  -3   2   2   45.11    2.83
  -3   2   2   44.79    3.01
  -3   2   2   45.61    2.86
  -3   2   2   44.56    3.14
  -3   2   2   35.02    7.04
  -3   2   1   33.46    2.22
  -3   2   1   34.74    2.62
  -3   2   1   32.04    2.38
  -3   2   1   28.93    2.00
  -3   2   1   28.30    2.32
  -3   2   1   32.74    6.79
  -3   2   1   35.62    7.11
  -3   2   1   32.83    2.31
  -3   2   1   36.71    6.81
  -3   2   1   28.98    2.55
  -3   2   0    4.38    2.21
  -3   2   0    2.01    0.79
  -3   2   0    6.71    3.63
  -3   2   0    2.55    1.22
  -3   2   0    3.50    0.84
  -3   2   0    5.10    0.91
  -3   2   0    3.31    0.86
  -3   2  -1   45.01    2.92
  -3   2  -1   45.74    7.38
  -3   2  -1   40.86    7.83
  -3   2  -1   50.17    8.01
  -3   2  -2  646.10   30.97
  -3   2  -2  686.42   29.98
  -3   2  -2  616.18   15.00
  -3   2  -2  659.70   30.24
  -3   2  -3  307.03    8.28
  -3   2  -3  273.53    8.35
  -3   2  -3  286.77   20.01
  -3   2  -3  313.58   19.58
  -3   2  -3  289.42    7.85
  -3   2  -3  270.44    8.54
  -3   2  -3  299.95   19.68
  -3   2  -4   -0.23    0.67
  -3   2  -4   -0.47    0.45
  -3   2  -4   -1.07    2.66
  -3   2  -4    0.48    0.51
  -3   2  -4   -0.01    0.46
  -3   2  -4   -1.10    2.08
  -3   2  -4    1.21    2.12
  -3   2  -4   -0.03    0.49
  -3   2  -4    0.58    0.42
  -3   2  -5    0.83    0.58
  -3   2  -5    1.68    0.60
  -3   2  -5    0.91    0.63
  -3   2  -5    2.09    2.83
  -3   2  -5    0.67    0.62
  -3   2  -5   -0.77    2.13
  -3   2  -5    0.66    0.51
  -3   2  -5   -0.43    1.20
  -3   2  -5    1.17    0.65
  -3   2  -5   -0.02    0.55
  -3   2  -5    1.02    0.57
  -3   2  -6    5.74    1.12
  -3   2  -6    8.12    1.27
  -3   2  -6    4.54    1.02
  -3   2  -6    6.88    3.14
  -3   2  -6    8.22    3.59
  -3   2  -6    6.27    1.32
  -3   2  -6    6.46    1.16
  -3   2  -6    4.94    1.25
  -3   2  -6    7.06    1.25
  -3   2  -7   21.63    2.16
  -3   2  -7   22.00    2.38
   3  -2   7   20.21    1.91
  -3   2  -7   18.22    2.06
  -3   2  -7   21.12    2.39
  -3   2  -7   22.82    2.38
  -3   2  -8  175.07    6.87
   3  -2   8  161.90    6.51
   3  -2   8  167.53    6.34
  -3   2  -8  184.37    7.45
  -3   2  -8  173.18    7.03
  -3   2  -9    0.86    0.66
  -3   2  -9    1.60    0.78
   3  -2   9    1.06    0.61
  -3   2  -9    1.71    0.93
  -3   2  -9    1.85    0.83
  -3   2 -10    9.26    1.60
   3  -2  10    5.84    1.20
  -3   2 -10    5.09    1.25
   3  -2  10    6.87    1.42
  -3   2 -10    7.93    1.68
  -3   2 -10    7.47    1.35
  -3   2 -11   14.83    1.80
   3  -2  11   13.36    1.59
  -3   2 -11   10.03    1.46
   3  -2  11   12.49    1.53
  -3   2 -11   13.28    1.84
  -3   2 -11   10.09    1.29
   3  -2  12   41.44    2.46
   3  -2  12   41.28    2.35
  -3   2 -12   48.28    2.95
  -3   1  10    4.37    0.90
  -3   1  10   10.89    1.28
  -3   1  10    8.48    1.12
   3  -1 -10    9.97    1.28
  -3   1  10    4.49    0.97
  -3   1   9    8.68    1.38
   3  -1  -9    8.85    1.37
  -3   1   9    7.43    1.27
  -3   1   9    7.61    1.35
   3  -1  -8   13.58    5.79
  -3   1   8   11.81    1.73
  -3   1   8   10.28    1.57
   3  -1  -8   11.53    1.65
  -3   1   8   11.23    1.57
   3  -1  -7  150.73    6.46
  -3   1   7  165.18    6.49
  -3   1   7  160.69    6.41
  -3   1   7  140.66   18.40
  -3   1   7  168.87    6.47
  -3   1   7  159.24    6.48
  -3   1   6    1.46    0.84
   3  -1  -6    3.02    1.04
  -3   1   6    3.24    0.95
  -3   1   6    1.63    0.85
  -3   1   6    3.01    0.87
  -3   1   6    2.61    2.31
  -3   1   5   19.27    1.81
   3  -1  -5   18.38    2.03
  -3   1   5   19.33    1.96
  -3   1   5   21.80    2.08
  -3   1   5   18.45    1.98
  -3   1   5   17.73    7.28
  -3   1   4   22.62    2.13
  -3   1   4   23.95    2.10
  -3   1   4   14.40    3.93
   3  -1  -4   23.40    2.44
  -3   1   4   23.43    5.02
  -3   1   4   18.78    4.82
  -3   1   4   24.56    2.17
  -3   1   4   23.97    2.10
  -3   1   4   17.57    4.88
  -3   1   3   62.87    3.19
  -3   1   3   58.40    8.28
  -3   1   3   66.62    3.38
  -3   1   3   55.16    8.19
  -3   1   3   63.29    3.26
  -3   1   3   68.58   10.57
  -3   1   3   61.18    3.14
  -3   1   2    0.59    0.52
  -3   1   2    0.42    1.73
  -3   1   2    1.62    2.13
  -3   1   1  358.33    9.80
  -3   1   1  379.64   22.03
  -3   1   0    0.16    1.58
  -3   1   0    0.42    0.65
  -3   1   0   -0.18    2.12
  -3   1  -1    1.20    1.88
  -3   1  -1    1.91    0.77
  -3   1  -1    2.55    2.38
  -3   1  -2   -0.56    0.58
  -3   1  -2   -1.66    1.55
  -3   1  -2    0.22    1.48
  -3   1  -3   54.92    3.01
  -3   1  -3   55.05    8.17
  -3   1  -3   62.60    8.28
  -3   1  -3   60.28    5.96
  -3   1  -4   38.67    6.97
  -3   1  -4   45.28    7.41
  -3   1  -4   41.27    2.61
  -3   1  -4   47.17    6.22
  -3   1  -5   92.67    4.00
  -3   1  -5   75.89    3.74
  -3   1  -5   91.50   10.52
  -3   1  -5   86.50    9.80
  -3   1  -5   86.01    9.61
  -3   1  -6  156.64    5.83
  -3   1  -6  160.68    5.89
  -3   1  -6  144.20   12.85
  -3   1  -6  155.88   14.61
   3  -1   6  149.51    5.66
  -3   1  -6  157.73   12.33
  -3   1  -6  160.05    6.06
  -3   1  -6  153.73   13.12
  -3   1  -7    5.61    3.09
  -3   1  -7    4.89    1.12
   3  -1   7    3.96    1.13
  -3   1  -7    5.43    1.03
   3  -1   7    4.42    1.11
  -3   1  -7    2.92    0.95
  -3   1  -8   20.19    2.15
  -3   1  -8   24.87    7.04
  -3   1  -8   24.57    2.36
   3  -1   8   21.17    2.19
   3  -1   8   23.58    2.34
  -3   1  -8   22.27    2.59
  -3   1  -9   20.02    2.24
  -3   1  -9   12.87    5.59
   3  -1   9   13.96    2.02
  -3   1  -9   18.83    2.16
   3  -1   9   20.71    2.26
  -3   1  -9   14.70    2.10
  -3   1 -10   -0.47    0.81
   3  -1  10   -0.59    0.96
   3  -1  10    0.50    0.62
  -3   1 -10    0.19    0.79
  -3   1 -10    1.21    0.81
  -3   1 -11    0.01    0.56
   3  -1  11   -1.34    0.91
  -3   1 -11   -0.54    0.81
  -3   1 -11   -0.07    0.51
   3  -1  11    0.41    0.92
  -3   1 -11   -0.80    0.69
  -3   1 -12   14.05    1.58
   3  -1  12   14.86    1.69
   3  -1  12   13.98    1.67
  -3   1 -12   12.35    1.64
   3  -1  13    7.01    1.02
   3  -1  13    9.08    1.10
   3  -1  13   10.05    1.14
  -3   1 -13    7.92    1.12
  -3   0  10   44.63    2.87
   3   0 -10   42.48    2.79
  -3   0   9    1.29    0.76
  -3   0   9    2.85    1.24
   3   0  -9    0.79    0.89
  -3   0   9    1.06    0.82
   3   0  -8   28.84    2.20
  -3   0   8   29.62    2.63
   3   0  -8   20.45    7.61
   3   0  -8   29.24    2.66
  -3   0   8   30.10    2.53
  -3   0   8   29.59    2.28
  -3   0   8   19.51    7.38
   3   0  -7   39.30    2.65
  -3   0   7   37.64    3.00
   3   0  -7   30.31    8.26
   3   0  -7   41.59    3.26
  -3   0   7   41.25    3.00
  -3   0   7   38.77    2.73
  -3   0   7   27.52    8.42
   3   0  -6   46.97    2.88
  -3   0   6   46.60    3.17
   3   0  -6   44.63    3.17
  -3   0   6   52.36    3.09
  -3   0   6   48.44   10.11
  -3   0   5    4.41    1.21
   3   0  -5    3.16    0.85
  -3   0   5    3.39    1.04
  -3   0   5    4.38    0.94
   3   0  -4   18.11    4.33
  -3   0   4   24.93    2.08
  -3   0   4   19.48    4.31
  -3   0   4   14.68    3.82
  -3   0   4   24.71    1.99
   3   0  -4   21.34    2.01
  -3   0   4   21.08    6.12
  -3   0   3  103.91   10.92
  -3   0   3   90.05    3.81
  -3   0   3   92.28    9.94
  -3   0   3   88.91    9.41
  -3   0   2   33.46    5.72
  -3   0   2   38.54    6.00
  -3   0   1   63.71    7.84
  -3   0   0    1.97    2.08
  -3   0  -1   94.51    9.74
  -3   0  -1   95.99    5.45
  -3   0  -2    0.84    0.92
  -3   0  -2    0.34    2.02
  -3   0  -3    9.56    2.64
  -3   0  -3   10.40    2.96
  -3   0  -4  113.93   10.06
  -3   0  -4  124.41   10.19
  -3   0  -5    2.70    1.65
  -3   0  -5    4.57    2.04
  -3   0  -6    3.61    1.74
  -3   0  -6    3.10    1.67
  -3   0  -6    3.13    0.77
  -3   0  -6    1.89    1.31
  -3   0  -6    3.14    0.84
   3   0   6    2.90    0.84
  -3   0  -7   -0.17    1.96
  -3   0  -7    1.79    0.70
  -3   0  -7    1.90    0.81
   3   0   7    2.30    0.93
   3   0   7    1.55    0.56
  -3   0  -8    2.82    1.80
  -3   0  -8    3.58    1.10
   3   0   8    2.98    0.88
  -3   0  -8    2.95    0.98
   3   0   8    1.74    4.14
   3   0   8    4.52    1.23
  -3   0  -9   37.66    9.36
  -3   0  -9   40.04    3.01
   3   0   9   50.77   10.28
  -3   0  -9   42.37    3.17
   3   0   9   40.36    3.29
   3   0   9   38.81    3.18
  -3   0  -9   40.52    3.43
   3   0   9   41.65   10.07
  -3   0 -10    1.62    1.93
  -3   0 -10    0.59    0.60
   3   0  10    1.15    1.03
  -3   0 -10   -0.30    0.85
   3   0  10    2.60    1.11
  -3   0 -10    1.08    0.80
   3   0  10    1.50    3.16
  -3   0 -11   30.46    2.57
   3   0  11   28.23    2.78
  -3   0 -11   30.77    2.73
   3   0  11   31.04    2.75
  -3   0 -11   27.88    2.72
  -3   0 -12    0.53    0.62
   3   0  12    0.69    0.76
   3   0  12   -0.11    0.72
  -3   0 -12    0.14    0.59
   3   0  13   24.10    1.87
   3   0  13   30.37    2.22
   3   0  13   31.63    2.16
  -3   0 -13   27.98    2.11
  -3  -1  11    3.98    0.79
   3   1 -11    4.72    0.84
  -3  -1  11    5.04    0.79
  -3  -1  10   -0.25    0.80
   3   1 -10    1.36    0.75
  -3  -1  10   -0.34    0.48
   3   1  -9    4.18    0.98
  -3  -1   9    4.53    1.07
   3   1  -9    6.20    1.31
   3   1  -8    1.85    0.77
  -3  -1   8    2.27    1.04
   3   1  -8    2.41    1.16
  -3  -1   8    1.78    0.92
  -3  -1   8    7.51    6.16
   3   1  -8    4.81    2.62
   3   1  -7    5.21    1.09
  -3  -1   7    5.66    1.14
  -3  -1   7    1.88    0.98
   3   1  -7    4.91    1.26
   3   1  -7    2.26    2.30
   3   1  -7    4.81    0.90
  -3  -1   6  127.98    5.10
  -3  -1   6  118.25   15.57
   3   1  -6  136.92   16.63
  -3  -1   6  121.98    5.39
   3   1  -6  127.81    5.62
   3   1  -6  129.37    5.10
   3   1  -5    1.44    2.95
  -3  -1   5    2.33    0.97
   3   1  -5    2.95    0.95
  -3  -1   5    1.91    0.57
  -3  -1   5   -1.53    3.46
   3   1  -5    2.40    0.71
   3   1  -4   78.65    8.53
   3   1  -4  106.08   13.08
  -3  -1   4  101.29    4.37
   3   1  -4   62.88    7.93
   3   1  -4  106.36    4.52
  -3  -1   4  115.41   12.47
  -3  -1   4   82.01    9.11
  -3  -1   4  108.68    4.24
   3   1  -3    0.12    1.56
   3   1  -3    0.24    2.02
  -3  -1   3    2.53    2.11
   3   1  -2   53.45    7.13
   3   1  -2   59.32    7.90
  -3  -1   2   63.46    6.53
   3   1  -1  235.24   14.64
  -3  -1   1  208.13   10.07
   3   1   0  257.76   14.43
   3   1   1    9.14    1.88
   3   1   1   10.78    2.44
  -3  -1  -1   10.48    2.90
  -3  -1  -2  107.84    9.13
   3   1   2  111.06    8.00
  -3  -1  -3    4.69    2.31
   3   1   4  204.26   13.73
  -3  -1  -4  226.07   15.04
  -3  -1  -5   12.86    4.01
   3   1   5    9.33    3.05
   3   1   5    8.86    2.85
   3   1   6  141.38   11.18
  -3  -1  -6  133.97    5.01
   3   1   6  141.65    5.40
  -3  -1  -6  148.40   11.48
   3   1   6  147.95   14.84
   3   1   6  125.46   13.04
   3   1   6  136.15    5.31
  -3  -1  -6  148.57   14.49
  -3  -1  -6  135.61    5.19
  -3  -1  -7   45.05    2.81
   3   1   7   45.81    3.16
  -3  -1  -7   45.46    3.01
   3   1   7   54.23   10.20
   3   1   7   44.37    3.04
   3   1   7   51.91    8.44
  -3  -1  -7   56.75    9.98
  -3  -1  -8    6.55    3.33
  -3  -1  -8    9.13    1.33
   3   1   8    6.67    1.41
  -3  -1  -8    8.18    1.30
   3   1   8    6.98    1.26
   3   1   8    0.26    3.92
   3   1   8   10.40    5.28
  -3  -1  -9    1.15    3.17
  -3  -1  -9    3.22    0.83
   3   1   9    1.82    1.04
  -3  -1  -9    2.71    1.04
   3   1   9    2.47    0.96
   3   1   9    1.52    2.07
   3   1  10    9.53    5.20
  -3  -1 -10    2.76    3.28
  -3  -1 -10    6.84    1.18
   3   1  10    6.67    1.39
   3   1  10    6.96    1.41
  -3  -1 -10    6.77    1.45
   3   1  11    3.06    1.20
   3   1  11    2.00    1.01
  -3  -1 -11    3.69    1.11
   3   1  11    5.09    1.24
  -3  -1 -11    2.38    1.02
  -3  -1 -12    7.35    1.35
   3   1  12    5.63    1.32
   3   1  12    8.98    1.53
   3   1  12    6.43    1.20
  -3  -1 -12    6.88    1.30
   3   1  13    8.82    1.10
   3   1  13   10.49    1.34
   3   1  13   11.85    1.30
  -3  -1 -13   10.07    1.30
  -3  -2  10   19.76    1.77
   3   2 -10   19.96    1.82
   3   2  -9   12.71    1.60
  -3  -2   9   11.38    1.60
   3   2  -9   11.01    1.67
  -3  -2   9   11.24    1.45
   3   2  -8   38.34    2.88
  -3  -2   8   35.62    2.86
   3   2  -8   35.92    2.90
  -3  -2   8   34.93    2.74
   3   2  -8   33.02    8.59
   3   2  -8   41.37    2.92
   3   2  -7  111.47    5.25
   3   2  -7  113.64    5.22
  -3  -2   7  110.12    5.18
   3   2  -7  109.68   15.35
  -3  -2   7   99.23   14.40
   3   2  -7  113.71    5.16
  -3  -2   6   19.42    2.00
   3   2  -6   16.32    6.10
   3   2  -6   22.92    2.20
  -3  -2   6   19.29    7.73
   3   2  -6   22.74    2.11
   3   2  -5    0.37    0.72
  -3  -2   5    0.10    0.78
   3   2  -5   -1.39    3.41
   3   2  -5    0.43    0.58
   3   2  -4  105.73    9.63
   3   2  -4  104.11   13.19
  -3  -2   4   98.93    4.32
   3   2  -4   81.91    9.10
   3   2  -4  104.05    4.45
  -3  -2   3   12.70    1.40
   3   2  -3   15.76    1.76
   3   2  -3   19.05    5.51
   3   2  -3   15.67    3.90
   3   2  -3   12.64    1.44
   3   2  -3   13.76    4.05
   3   2  -2   83.05    9.22
   3   2  -2   95.50   10.61
   3   2  -2   86.56    3.89
   3   2  -2   86.92    9.99
   3   2  -1    3.29    2.27
   3   2  -1    4.56    2.55
   3   2  -1    3.62    3.01
   3   2   0   15.66    4.14
   3   2   0   15.93    3.69
   3   2   1   48.05    6.85
   3   2   1   51.33    6.15
   3   2   2   25.54    4.12
   3   2   2   21.77    4.55
  -3  -2  -2   21.58    4.65
   3   2   3   91.57    9.16
   3   2   3   94.25    9.13
  -3  -2  -3  102.95   10.30
   3   2   4  123.87   10.94
   3   2   4  125.66    4.88
   3   2   4  125.31   12.02
   3   2   4  134.50   12.20
  -3  -2  -4  121.73   12.38
   3   2   5  124.91   11.01
   3   2   5  108.72    4.53
   3   2   5   98.27   11.34
   3   2   5  137.45   13.52
   3   2   5  126.12   11.33
   3   2   5  120.70    4.73
  -3  -2  -5  122.54   13.09
   3   2   6   24.51    2.07
   3   2   6   32.49    7.01
  -3  -2  -6   34.16    7.31
   3   2   6   29.76    2.54
   3   2   6   29.03    5.24
  -3  -2  -6   32.79    2.34
   3   2   6   22.75    5.54
   3   2   6   31.89    2.47
   3   2   6   40.33    6.83
   3   2   7   22.15    6.64
  -3  -2  -7   16.25    5.43
  -3  -2  -7   19.10    1.98
   3   2   7   20.42    2.18
   3   2   7   21.94    2.14
   3   2   7   17.56    6.29
   3   2   7   16.05    2.02
   3   2   8    8.21    1.39
   3   2   8   10.05    1.63
  -3  -2  -8   12.78    5.09
   3   2   8    8.51    4.70
  -3  -2  -8   10.63    1.57
   3   2   8   10.11    1.59
   3   2   9   51.24    4.25
  -3  -2  -9   36.72    9.11
   3   2   9   50.28   11.37
   3   2   9   38.40    3.30
   3   2   9   47.92    3.35
   3   2  10    2.29    1.30
  -3  -2 -10    1.17    1.61
  -3  -2 -10    2.76    0.89
   3   2  10    4.22    1.14
   3   2  10    4.91    1.30
   3   2  11    2.58    0.76
   3   2  11    3.27    1.17
   3   2  11    4.88    1.14
  -3  -2 -11    3.46    0.99
   3   2  11    4.10    1.19
   3   2  12    2.62    0.81
   3   2  12    4.58    1.09
   3   2  12    3.82    0.92
  -3  -2 -12    4.09    1.03
   3   2  13    7.42    1.07
   3   2  13    7.89    0.99
  -3  -3  10    2.26    0.69
   3   3 -10    1.62    0.62
   3   3  -9    8.51    1.35
  -3  -3   9    7.38    1.21
  -3  -3   9    8.55    1.40
   3   3  -9    9.01    1.22
   3   3  -9    4.14    0.92
   3   3  -8    6.01    1.29
  -3  -3   8    5.89    1.22
   3   3  -8    5.56    1.04
   3   3  -8    2.94    0.91
   3   3  -8    6.53    1.37
   3   3  -7   63.55    3.80
  -3  -3   7   65.75    3.75
   3   3  -7   68.40    3.73
   3   3  -7   55.40   11.33
   3   3  -7   59.66    3.58
   3   3  -7   67.81    3.95
   3   3  -6   11.63    1.55
  -3  -3   6    9.58    1.45
   3   3  -6    9.51    4.27
   3   3  -6   11.76    1.61
   3   3  -6    9.22    1.50
   3   3  -6   11.15    1.63
  -3  -3   5   20.92    2.13
   3   3  -5   22.07    7.21
   3   3  -5   21.89    2.03
   3   3  -5   22.89    2.16
   3   3  -4   37.31    2.51
   3   3  -4   34.97    2.89
   3   3  -4   25.40    5.70
  -3  -3   4   34.71    2.51
   3   3  -4   34.13    7.94
   3   3  -4   36.50    2.43
   3   3  -4   36.96    6.51
   3   3  -3  209.21    6.63
   3   3  -3  186.34   15.40
   3   3  -3  212.39    7.39
   3   3  -3  210.92   15.56
   3   3  -3  178.99    6.43
  -3  -3   3  193.83    6.26
   3   3  -3  228.46   19.41
   3   3  -3  199.43   15.90
   3   3  -3  200.48    6.53
   3   3  -3  170.40    6.32
   3   3  -2  105.56    4.74
   3   3  -2  113.93   11.17
   3   3  -2  103.16    4.31
   3   3  -2  105.73    4.46
   3   3  -2  121.79   13.16
   3   3  -2  103.34   11.61
   3   3  -1  328.73   19.39
   3   3  -1  331.89   20.68
   3   3  -1  303.40    8.92
   3   3  -1  315.96   20.68
   3   3   0  121.91   11.70
   3   3   0  115.98    4.85
   3   3   0  114.37   12.47
   3   3   1  147.25   12.48
   3   3   1  143.64   13.99
   3   3   1  156.32    5.76
   3   3   2  257.43   17.11
   3   3   2  268.36   19.11
   3   3   2  270.02    8.12
  -3  -3  -2  278.71   19.20
   3   3   3  404.48   21.91
   3   3   3  411.34   10.98
   3   3   3  400.24   24.15
  -3  -3  -3  383.11   23.92
   3   3   3  429.83   23.07
   3   3   4   81.07    4.29
   3   3   4   80.70    9.57
   3   3   4   72.41    3.64
   3   3   4   75.09    3.81
   3   3   4   77.16    3.81
   3   3   4   69.53    9.80
   3   3   4   69.48    3.49
   3   3   4   83.75   10.56
  -3  -3  -4   71.71   10.60
   3   3   4   79.14    3.99
   3   3   5    1.07    0.54
   3   3   5    0.94    0.50
  -3  -3  -5    0.56    1.60
   3   3   5    1.05    0.63
   3   3   5    1.58    1.77
   3   3   5    1.55    0.66
   3   3   5    1.98    0.67
   3   3   5    0.37    0.57
   3   3   5    1.58    1.47
   3   3   5    0.16    0.64
   3   3   5   -0.59    1.55
   3   3   5   -0.26    1.66
   3   3   5    0.67    0.53
   3   3   5    1.51    0.66
   3   3   6    2.79    0.94
  -3  -3  -6    2.48    2.78
   3   3   6    3.65    1.08
   3   3   6   -1.18    1.79
   3   3   6    2.59    0.85
   3   3   6    2.04    0.70
   3   3   6    1.35    1.63
   3   3   6    2.99    0.94
   3   3   6    4.20    2.76
   3   3   6    4.70    1.03
   3   3   7  127.92    6.55
   3   3   7  135.22    5.82
   3   3   7  120.25    5.72
   3   3   7  121.82    5.34
   3   3   7  130.13   16.41
  -3  -3  -7  120.95   16.01
   3   3   7  111.11    5.59
   3   3   8    8.73    1.43
  -3  -3  -8    6.32    3.51
   3   3   8   12.59    2.10
   3   3   8   10.07    1.54
   3   3   8    6.69    3.85
   3   3   8   11.98    1.80
  -3  -3  -8   12.21    1.54
   3   3   8   12.38    1.65
   3   3   8    8.51    1.47
   3   3   9   11.01    1.66
   3   3   9   14.12    2.22
  -3  -3  -9    9.78    4.93
   3   3   9   10.84    4.13
   3   3   9   14.11    2.04
   3   3   9   14.70    1.93
   3   3  10    0.27    0.51
   3   3  10    0.12    0.81
   3   3  10    0.95    0.85
   3   3  10    1.07    0.75
   3   3  11    6.05    1.10
   3   3  11    8.07    1.51
   3   3  11    8.79    1.48
   3   3  11   10.16    1.39
   3   3  12   59.58    3.22
   3   3  12   65.35    3.06
   3   4  -9    2.54    0.86
  -3  -4   9    2.76    0.81
   3   4  -8    2.97    0.91
   3   4  -8    1.77    0.65
   3   4  -8    2.09    0.52
   3   4  -8    2.70    0.84
   3   4  -7  212.96    7.26
   3   4  -7  197.68    7.07
   3   4  -7  214.74    7.55
   3   4  -6   30.11    2.58
   3   4  -6   25.33    2.58
   3   4  -6   30.76    2.75
   3   4  -6   31.95    2.75
   3   4  -5   -0.31    0.53
   3   4  -5   -0.05    0.56
   3   4  -5   -0.23    0.84
   3   4  -5   -0.03    0.49
   3   4  -5    0.26    0.66
   3   4  -4   74.02    3.96
   3   4  -4   68.05   10.12
   3   4  -4   69.35    4.27
   3   4  -4   72.94   10.15
   3   4  -4   79.78   13.09
   3   4  -4   69.56    3.58
   3   4  -4   72.84    3.99
   3   4  -3  102.74    4.72
   3   4  -3   91.99   12.06
   3   4  -3   99.07    5.04
   3   4  -3   94.32    4.54
   3   4  -3   98.96    4.55
   3   4  -3  110.64   13.08
   3   4  -3   95.00    4.58
   3   4  -2   10.65    1.53
   3   4  -2    9.59    3.97
   3   4  -2   12.03    1.63
   3   4  -2    8.15    1.26
   3   4  -2    9.24    1.41
   3   4  -2   11.80    1.52
   3   4  -2   10.98    4.30
   3   4  -2    9.95    1.49
   3   4  -2   10.07    1.36
   3   4  -1    0.53    0.46
   3   4  -1    1.30    1.60
   3   4  -1    0.81    0.72
   3   4  -1    0.79    0.55
   3   4  -1    3.69    0.84
   3   4  -1    1.15    0.69
   3   4  -1   -0.13    1.19
   3   4  -1   -1.07    2.50
   3   4  -1    1.41    0.66
   3   4  -1    1.29    0.68
   3   4  -1    1.05    0.51
   3   4   0    1.34    0.43
   3   4   0    5.14    2.84
   3   4   0    2.76    0.86
   3   4   0    2.04    0.76
   3   4   0    1.07    0.42
   3   4   0    2.61    0.69
   3   4   0    2.16    1.95
   3   4   0   -0.27    2.21
   3   4   0    2.67    0.88
   3   4   0    2.74    0.76
   3   4   0    1.84    0.65
   3   4   1  140.63    5.54
   3   4   1  138.65   14.47
   3   4   1  146.54    5.97
   3   4   1  141.29   13.64
   3   4   1  139.09    5.55
   3   4   1  138.08    5.15
   3   4   1  148.17    5.77
   3   4   1  144.98    5.76
   3   4   1  139.50   14.81
   3   4   1  139.91    5.58
   3   4   1  150.13    5.97
   3   4   1  143.14    5.70
   3   4   2  119.12    5.11
   3   4   2  123.46   13.70
   3   4   2  122.63    5.40
   3   4   2  110.22   12.14
   3   4   2  120.93    5.09
   3   4   2  112.10    5.01
   3   4   2  108.70    5.18
   3   4   2  120.33    5.20
   3   4   2  118.06   13.70
  -3  -4  -2  120.54   14.28
   3   4   2  125.11    5.15
   3   4   2  121.77    5.32
   3   4   2  121.76    5.16
   3   4   3  212.18    7.54
   3   4   3  221.90   18.54
   3   4   3  212.08    7.60
   3   4   3  212.94    7.21
   3   4   3  206.69   17.01
   3   4   3  198.51    7.12
   3   4   3  194.62    7.27
   3   4   3  209.33    7.30
   3   4   3  216.92   18.52
   3   4   3  185.84    6.46
  -3  -4  -3  200.43   18.85
   3   4   3  217.04    7.28
   3   4   3  216.33    7.49
   3   4   3  218.87    7.49
  -3  -4  -4    3.04    1.78
   3   4   4    6.41    1.23
   3   4   4    5.05    2.68
   3   4   4    6.84    1.33
   3   4   4    5.46    1.17
   3   4   4    5.97    1.18
   3   4   4    4.90    1.05
   3   4   4    5.70    1.19
   3   4   4    8.10    3.66
   3   4   4    5.65    1.15
   3   4   4    7.49    1.26
   3   4   4    4.23    0.95
   3   4   4    6.68    1.24
  -3  -4  -5    2.68    2.88
   3   4   5    0.49    0.55
   3   4   5    0.18    0.68
   3   4   5    0.34    2.27
   3   4   5    0.72    0.75
   3   4   5    0.23    0.47
   3   4   5    0.89    0.61
   3   4   5    0.34    0.57
   3   4   5    0.40    0.68
   3   4   5    1.34    2.58
   3   4   5    0.74    0.51
   3   4   5    1.02    0.75
   3   4   5    0.63    0.64
   3   4   5    0.08    0.54
  -3  -4  -6    2.56    2.25
   3   4   6    0.04    0.59
   3   4   6    1.66    0.81
   3   4   6    0.84    1.10
   3   4   6    1.57    0.72
   3   4   6    1.32    0.77
   3   4   6    2.37    0.95
   3   4   6    0.84    0.51
   3   4   6   -1.55    3.69
   3   4   6    5.21    3.10
   3   4   6    0.61    0.66
   3   4   6    1.19    0.55
   3   4   6    0.95    0.58
   3   4   7   12.68    1.76
  -3  -4  -7   12.46    5.20
   3   4   7   12.48    1.70
   3   4   7   13.98    2.10
   3   4   7   13.39    1.94
   3   4   7   17.37    6.90
   3   4   7   13.96    1.61
   3   4   7   13.60    1.80
   3   4   8   71.18    4.62
   3   4   8   59.15    3.85
  -3  -4  -8   52.84   11.03
   3   4   8   66.67    4.21
   3   4   8   70.67    4.30
   3   4   8   71.37   12.92
   3   4   8   66.42    3.67
   3   4   8   55.90    3.48
   3   4   9   64.00    4.40
   3   4   9   52.38    3.53
  -3  -4  -9   52.62   11.22
   3   4   9   66.19    3.97
   3   4   9   64.86    4.15
   3   4   9   60.47    3.42
   3   4  10   42.41    3.35
   3   4  10   37.33    2.60
   3   4  10   46.44    3.31
   3   4  10   41.05    2.58
   3   4  11    8.31    1.31
   3   4  11   10.22    1.44
   3   5  -8    5.75    1.13
   3   5  -8    6.22    0.92
   3   5  -8    5.66    1.12
   3   5  -7   -0.27    0.65
   3   5  -7    0.06    0.53
   3   5  -7    0.12    0.51
   3   5  -7   -0.76    0.48
   3   5  -7   -2.07    0.68
   3   5  -7    0.21    0.52
   3   5  -6   11.78    1.46
   3   5  -6   11.58    1.49
   3   5  -6   10.82    1.81
   3   5  -6    7.98    1.41
   3   5  -6    9.80    1.53
   3   5  -6    8.83    1.40
   3   5  -6   11.17    1.66
   3   5  -5   43.95    3.00
   3   5  -5   36.58    2.67
   3   5  -5   35.92    3.17
   3   5  -5   33.06    2.80
   3   5  -5   35.17    2.95
   3   5  -5   28.81    2.53
   3   5  -5   38.48    3.02
   3   5  -4   49.66    3.46
   3   5  -4   48.87    3.57
   3   5  -4   53.00    3.28
   3   5  -4   51.32    3.14
   3   5  -4   51.78    3.69
   3   5  -4   47.06    3.35
   3   5  -4   50.37    3.22
   3   5  -4   53.20    3.64
   3   5  -4   53.48    3.19
   3   5  -4   53.44    3.48
   3   5  -3   11.04    1.55
   3   5  -3   11.26    1.64
   3   5  -3    8.38    4.40
   3   5  -3   10.50    1.69
   3   5  -3    9.45    1.56
   3   5  -3   10.95    1.78
   3   5  -3   11.54    1.48
   3   5  -3    7.72    3.52
   3   5  -3   11.00    1.60
   3   5  -3    8.60    1.45
   3   5  -3   10.69    1.48
   3   5  -2  437.01   12.47
   3   5  -2  433.51   29.48
   3   5  -2  450.06   13.06
   3   5  -2  448.01   12.50
   3   5  -2  444.99   12.68
   3   5  -2  473.95   12.63
   3   5  -2  477.01   30.07
   3   5  -2  452.48   12.56
   3   5  -2  456.98   12.78
   3   5  -2  449.67   12.25
   3   5  -1   81.90    4.21
   3   5  -1   78.39    4.25
   3   5  -1   79.81   12.20
   3   5  -1   82.50    4.47
   3   5  -1   77.91    4.52
   3   5  -1   83.72    4.38
   3   5  -1   67.62    3.62
   3   5  -1   78.67    4.17
   3   5  -1   84.75    4.46
   3   5  -1   94.30   13.03
   3   5  -1   81.77    4.34
   3   5  -1   82.32    4.37
   3   5  -1   84.44    4.68
   3   5  -1   81.56    4.30
   3   5   0   31.60    7.70
   3   5   0   29.16    2.47
   3   5   0   27.75    2.38
   3   5   0   29.14    2.55
   3   5   0   29.29    2.69
   3   5   0   23.71    6.61
   3   5   0   25.37    2.36
   3   5   0   25.05    2.01
   3   5   0   29.64    2.57
   3   5   0   26.28    2.38
   3   5   0   25.02    2.39
   3   5   0   28.27    2.66
   3   5   0   27.68    2.43
   3   5   1    0.96    0.56
   3   5   1    0.86    0.88
   3   5   1    0.16    0.63
   3   5   1    0.97    2.00
   3   5   1    0.99    0.88
   3   5   1    0.06    0.36
   3   5   1   -0.61    0.70
   3   5   1    0.56    0.63
   3   5   1    1.56    0.79
   3   5   1   -0.46    1.45
   3   5   1    0.17    0.56
   3   5   1   -0.12    0.61
   3   5   1    0.08    0.54
   3   5   1   -0.02    0.46
   3   5   2  110.63    5.06
   3   5   2  107.03    5.19
   3   5   2  110.34   14.54
   3   5   2  111.95    5.17
   3   5   2  109.86    5.49
   3   5   2  113.28    5.18
   3   5   2   95.31    4.31
   3   5   2  113.54    5.32
   3   5   2  114.51    5.28
   3   5   2  111.55   14.41
  -3  -5  -2   92.42   13.77
   3   5   2  115.04    4.80
   3   5   2  115.00    5.27
   3   5   2  113.68    5.53
   3   5   2  111.86    5.24
   3   5   3   40.98    2.98
   3   5   3   41.27    3.20
   3   5   3   43.38    3.17
   3   5   3   43.55    9.11
   3   5   3   41.71    3.29
   3   5   3   47.47    3.21
   3   5   3   39.27    3.02
   3   5   3   44.96    3.35
   3   5   3   42.94    9.00
   3   5   3   46.01    3.22
   3   5   3   45.14    3.21
   3   5   3   43.95    3.33
   3   5   3   45.44    3.25
  -3  -5  -3   38.81    8.88
  -3  -5  -4   11.08    5.30
   3   5   4    5.01    1.06
   3   5   4    5.66    1.35
   3   5   4    5.37    1.21
   3   5   4    6.95    3.06
   3   5   4    7.47    1.44
   3   5   4    5.21    1.23
   3   5   4    4.52    1.11
   3   5   4    6.00    1.34
   3   5   4    5.44    1.17
   3   5   4    3.08    2.31
   3   5   4    6.55    1.19
   3   5   4    4.04    1.11
   3   5   4    5.10    1.24
   3   5   5   19.40    1.97
  -3  -5  -5   18.30    6.41
   3   5   5   20.69    2.43
   3   5   5   20.40    2.21
   3   5   5   26.13    7.42
   3   5   5   22.41    2.52
   3   5   5   19.68    2.14
   3   5   5   20.12    2.26
   3   5   5   22.08    2.19
   3   5   5   20.47    2.19
   3   5   5   21.20    6.59
   3   5   5   19.70    2.28
   3   5   5   23.04    2.38
   3   5   5   21.35    2.40
   3   5   6  144.16    6.54
   3   5   6  147.63    6.32
   3   5   6  146.35    6.63
   3   5   6  134.11    5.76
   3   5   6  138.14    5.79
   3   5   6  131.79    6.12
   3   5   6  139.19    6.38
   3   5   6  134.01    5.83
  -3  -5  -6  137.83   18.02
   3   5   6  144.56    6.32
   3   5   6  154.39    6.25
   3   5   7  391.49   11.88
   3   5   7  360.96   11.15
   3   5   7  368.93   11.71
   3   5   7  372.92   11.62
  -3  -5  -7  335.12   28.62
   3   5   7  375.70   11.14
   3   5   7  364.47   10.64
   3   5   8  146.35    6.40
   3   5   8  119.85    5.59
   3   5   8  140.74    6.20
   3   5   8  133.88    6.04
   3   5   8  127.71    5.01
   3   5   9   21.46    2.28
   3   5   9   15.67    1.66
   3   5   9   18.87    2.02
   3   5   9   19.60    2.05
   3   5  10   29.26    2.28
   3   5  10   27.33    2.05
   3   5  10   31.13    2.36
   3   6  -7   47.59    2.80
   3   6  -7   47.74    2.58
   3   6  -6    7.17    1.08
   3   6  -6    9.93    1.48
   3   6  -6    7.96    1.19
   3   6  -6    6.38    1.10
   3   6  -5    7.06    1.23
   3   6  -5    6.92    1.03
   3   6  -5    6.97    1.25
   3   6  -5    7.58    1.30
   3   6  -5    7.06    1.25
   3   6  -4   53.39    3.38
   3   6  -4   44.65    3.14
   3   6  -4   50.71    3.08
   3   6  -4   45.51    2.62
   3   6  -4   48.35    3.39
   3   6  -4   52.29    3.00
   3   6  -4   40.28    2.92
   3   6  -4   49.09    3.01
   3   6  -4   50.86    3.42
   3   6  -4   46.82    3.08
   3   6  -3   65.65    3.88
   3   6  -3   61.83    3.87
   3   6  -3   66.48    3.77
   3   6  -3   66.40    3.69
   3   6  -3   57.78    3.75
   3   6  -3   55.69    3.54
   3   6  -3   65.59    3.72
   3   6  -3   66.12    3.97
   3   6  -3   64.53    3.58
   3   6  -3   57.67    3.40
   3   6  -2   87.15    4.60
   3   6  -2   74.05   12.46
   3   6  -2   85.37    4.75
   3   6  -2   84.76    4.58
   3   6  -2   93.21    4.62
   3   6  -2   80.95    4.40
   3   6  -2   92.14   13.21
   3   6  -2   86.52    4.63
   3   6  -2   88.59    4.68
   3   6  -2   85.84    4.39
   3   6  -2   83.22    4.05
   3   6  -1   52.69    3.46
   3   6  -1   50.55    3.47
   3   6  -1   47.64    3.50
   3   6  -1   42.64    9.55
   3   6  -1   50.69    3.64
   3   6  -1   51.16    3.53
   3   6  -1   46.19    3.08
   3   6  -1   49.60    9.99
   3   6  -1   46.35    3.37
   3   6  -1   50.05    3.37
   3   6  -1   48.19    3.33
   3   6  -1   46.74    2.91
   3   6   0   13.18    1.68
   3   6   0   12.31    1.68
   3   6   0   12.46    1.75
   3   6   0   10.33    4.45
   3   6   0   14.19    1.89
   3   6   0   13.97    1.84
   3   6   0   11.72    1.68
   3   6   0    8.10    4.13
   3   6   0   14.21    1.71
   3   6   0   11.71    1.69
   3   6   0   12.89    1.79
   3   6   0   11.14    1.62
   3   6   1    7.46    1.37
   3   6   1    7.48    1.39
   3   6   1    6.68    1.31
   3   6   1    5.26    3.90
   3   6   1    8.51    1.48
   3   6   1    7.03    1.36
   3   6   1    7.38    1.36
   3   6   1    7.01    3.92
   3   6   1    8.82    1.31
   3   6   1    9.23    1.51
   3   6   1    6.84    1.36
  -3  -6  -1   12.85    5.24
   3   6   1    8.25    1.41
   3   6   2    0.77    0.48
   3   6   2    1.47    0.78
   3   6   2    0.67    0.54
   3   6   2    1.98    2.50
   3   6   2    2.27    0.90
   3   6   2    0.81    0.56
   3   6   2    1.64    0.89
   3   6   2    0.83    0.53
   3   6   2    2.03    2.63
   3   6   2    0.99    0.54
   3   6   2    1.41    0.77
   3   6   2    1.85    1.05
   3   6   2    0.99    0.70
  -3  -6  -2    6.57    4.93
  -3  -6  -3   57.63   11.73
   3   6   3   64.50    3.74
   3   6   3   64.68    4.08
   3   6   3   62.04    3.98
   3   6   3   57.31   10.84
   3   6   3   63.70    4.27
   3   6   3   68.63    4.04
   3   6   3   66.12    4.10
   3   6   3   65.73    3.93
   3   6   3   60.69   11.11
   3   6   3   66.87    4.01
   3   6   3   60.91    4.07
   3   6   3   69.04    4.07
  -3  -6  -4   -2.75    2.62
   3   6   4    0.64    0.43
   3   6   4    1.46    0.85
   3   6   4    1.06    0.62
   3   6   4   -1.79    4.10
   3   6   4   -0.09    0.75
   3   6   4    0.98    0.64
   3   6   4    1.15    0.92
   3   6   4    1.31    0.57
   3   6   4    4.67    3.86
   3   6   4    2.21    0.89
   3   6   4    1.15    0.93
   3   6   4    1.48    0.82
   3   6   5   33.52    2.63
   3   6   5   34.09    2.89
  -3  -6  -5   15.86    6.29
   3   6   5   32.70    2.78
   3   6   5   31.74    7.90
   3   6   5   35.07    3.07
   3   6   5   34.37    2.64
   3   6   5   32.71    2.81
   3   6   5   28.06    7.38
   3   6   5   36.35    2.76
   3   6   5   32.33    2.94
   3   6   5   32.75    2.73
   3   6   6    0.59    0.75
   3   6   6    0.40    0.55
   3   6   6    1.03    0.77
   3   6   6    0.60    0.45
   3   6   6    0.31    0.64
   3   6   6    0.80    0.67
   3   6   6    0.96    0.52
   3   6   6    0.81    0.45
   3   6   6    0.25    0.55
   3   6   6    0.47    0.64
   3   6   7  251.38    8.44
   3   6   7  217.48    7.61
   3   6   7  240.36    8.34
   3   6   7  237.35    8.12
   3   6   7  239.94    7.36
   3   6   7  240.17    7.91
   3   6   8    2.21    0.71
   3   6   8    3.59    0.86
   3   6   8    3.04    0.90
   3   6   8    3.74    0.92
   3   6   8    2.95    0.71
   3   6   9   24.47    1.94
   3   6   9   22.54    1.85
   3   7  -5   27.59    1.99
   3   7  -5   24.99    1.83
   3   7  -5   28.41    1.97
   3   7  -4    0.58    0.46
   3   7  -4    0.92    0.39
   3   7  -4    0.67    0.52
   3   7  -4    1.36    0.64
   3   7  -3    6.22    1.11
   3   7  -3    4.51    0.93
   3   7  -3    6.31    1.07
   3   7  -3    5.70    1.03
   3   7  -3    5.22    0.93
   3   7  -3    6.44    1.12
   3   7  -3    5.23    0.88
   3   7  -2   19.32    1.92
   3   7  -2   20.37    1.94
   3   7  -2   20.74    1.94
   3   7  -2   16.62    1.62
   3   7  -2   22.23    2.02
   3   7  -2   18.16    1.84
   3   7  -2   21.46    1.97
   3   7  -1   32.92    2.60
   3   7  -1   31.04    2.50
   3   7  -1   33.87    2.59
   3   7  -1   33.22    2.59
   3   7  -1   34.14    2.58
   3   7  -1   32.13    2.46
   3   7  -1   32.43    2.51
   3   7   0   19.67    2.03
   3   7   0   16.81    1.93
   3   7   0   17.74    1.95
   3   7   0   18.21    1.96
   3   7   0   17.08    1.86
   3   7   0   19.60    2.01
   3   7   0   18.07    1.80
   3   7   0   19.12    1.99
   3   7   1   12.59    1.59
   3   7   1   12.60    1.54
   3   7   1   11.18    1.51
   3   7   1   15.69    1.92
   3   7   1   13.00    1.62
   3   7   1   12.53    1.60
   3   7   1   13.01    1.47
   3   7   1   13.76    1.65
   3   7   1   11.47    1.66
   3   7   1   11.32    1.50
   3   7   2    4.67    1.00
   3   7   2    3.78    0.91
   3   7   2    2.65    0.80
   3   7   2    4.22    1.03
   3   7   2    5.55    1.11
   3   7   2    4.31    0.91
   3   7   2    3.82    0.78
   3   7   2    3.65    1.08
   3   7   2    4.40    1.07
   3   7   3    1.92    0.66
   3   7   3    2.50    0.91
   3   7   3    1.66    0.70
   3   7   3    2.84    0.89
   3   7   3    2.18    0.67
   3   7   3    2.53    0.77
   3   7   3    1.31    0.57
   3   7   3    1.50    0.79
   3   7   3    1.30    0.55
   3   7   4   -0.36    0.58
   3   7   4   -0.13    0.42
   3   7   4    0.83    0.79
   3   7   4    0.13    0.58
   3   7   4    0.79    0.68
   3   7   4    0.58    0.45
   3   7   4    0.48    0.54
   3   7   4    0.15    0.47
   3   7   5   26.90    2.25
   3   7   5   22.34    1.96
   3   7   5   26.18    2.31
   3   7   5   26.06    2.00
   3   7   5   25.44    2.02
   3   7   5   26.58    2.00
   3   7   5   26.52    2.10
   3   7   5   24.47    2.24
   3   7   6   19.89    1.84
   3   7   6   15.20    1.45
   3   7   6   16.15    1.75
   3   7   6   17.82    1.55
   3   7   6   17.33    1.71
   3   7   7   21.69    1.78
   3   7   7   16.87    1.31
   3   7   7   19.72    1.75
   3   7   7   20.83    1.62
   3   8  -1   30.15    1.97
   3   8  -1   29.51    1.95
   3   8  -1   28.40    1.90
   3   8  -1   28.12    1.70
   3   8   0   23.31    1.73
   3   8   0   23.48    1.66
   3   8   0   22.28    1.70
   3   8   0   23.77    1.83
   3   8   0   23.99    1.80
   3   8   1   46.94    2.44
   3   8   1   46.44    2.51
   3   8   1   46.81    2.61
   3   8   1   45.04    2.61
   3   8   1   48.03    2.65
   3   8   2    1.03    0.41
   3   8   2    0.36    0.35
   3   8   2    0.76    0.34
   3   8   2    0.66    0.39
   3   8   2    0.64    0.40
   3   8   3   -0.27    0.28
   3   8   3   -0.58    0.37
   3   8   3    0.07    0.34
   3   8   3   -0.68    0.35
  -4   6   1    4.57    0.72
  -4   6   1    5.62    0.76
  -4   6   1    4.82    0.81
  -4   6   1    4.15    0.66
  -4   6   1    5.73    0.78
  -4   6   0   61.38    2.81
  -4   6   0   65.73    3.13
  -4   6   0   60.16    3.00
  -4   6   0   60.36    2.76
  -4   6   0   55.06    3.02
  -4   6   0   54.41    2.54
  -4   6  -1   41.08    2.33
  -4   6  -1   43.09    2.58
  -4   6  -1   39.86    2.45
  -4   6  -1   42.80    2.33
  -4   6  -1   36.60    2.45
  -4   6  -1   33.42    1.99
  -4   6  -2    2.81    0.67
  -4   6  -2    1.76    0.69
  -4   6  -2    2.91    0.75
  -4   6  -2    2.90    0.79
  -4   6  -2    2.88    0.71
  -4   6  -2    0.56    0.32
  -4   6  -2    2.36    0.66
  -4   6  -3   69.98    3.10
  -4   6  -3   62.93    3.22
  -4   6  -3   68.40    3.27
  -4   6  -3   73.38    3.09
  -4   6  -3   66.26    3.34
  -4   6  -3   67.40    3.50
  -4   6  -4    1.54    0.58
  -4   6  -4    1.43    0.49
  -4   6  -4    0.93    0.38
  -4   6  -4    1.33    0.53
  -4   6  -4    1.46    0.58
  -4   5   4    0.64    0.45
  -4   5   4    1.81    0.66
  -4   5   4    1.13    0.65
  -4   5   4    0.37    0.39
  -4   5   3   18.52    1.88
  -4   5   3   13.51    1.25
  -4   5   3   18.15    1.71
  -4   5   3   19.60    1.82
  -4   5   3   12.68    1.42
  -4   5   2    1.73    0.71
  -4   5   2    0.71    0.48
  -4   5   2    1.09    0.48
  -4   5   2    0.78    0.65
  -4   5   2   -0.94    0.74
  -4   5   2    1.47    0.75
  -4   5   2   -0.01    0.57
  -4   5   1    0.19    0.47
  -4   5   1   -0.36    0.48
  -4   5   1    0.49    0.65
  -4   5   1    0.44    0.63
  -4   5   1    0.36    0.56
  -4   5   1   -1.15    0.91
  -4   5   1    0.31    0.82
  -4   5   0    3.05    0.83
  -4   5   0    2.53    0.89
  -4   5   0    3.12    0.95
  -4   5   0    2.20    0.94
  -4   5   0    4.53    1.21
  -4   5   0    2.50    0.84
  -4   5   0    2.81    0.94
  -4   5   0    3.46    1.19
  -4   5  -1   20.51    2.04
  -4   5  -1   15.27    1.64
  -4   5  -1   18.27    2.04
  -4   5  -1   18.17    2.16
  -4   5  -1   19.00    2.11
  -4   5  -1   16.66    1.80
  -4   5  -1   14.33    1.78
  -4   5  -1   15.00    2.12
  -4   5  -2    7.65    1.08
  -4   5  -2   10.60    1.62
  -4   5  -2   10.65    1.62
  -4   5  -2   12.16    1.79
  -4   5  -2    9.38    1.64
  -4   5  -2   11.53    1.60
  -4   5  -2    8.11    1.40
  -4   5  -2    8.96    1.71
  -4   5  -3   18.51    1.95
  -4   5  -3   17.98    2.09
  -4   5  -3   19.10    2.20
  -4   5  -3   20.85    2.26
  -4   5  -3   18.69    1.83
  -4   5  -3   17.96    1.95
  -4   5  -3   18.31    1.68
  -4   5  -3   18.27    2.23
  -4   5  -4    4.64    1.20
  -4   5  -4    4.98    1.11
  -4   5  -4    5.57    1.19
  -4   5  -4    5.59    1.28
  -4   5  -4    5.74    0.99
  -4   5  -4    3.76    1.03
  -4   5  -4    5.57    0.95
  -4   5  -4    4.68    1.12
  -4   5  -4    4.48    1.14
  -4   5  -5    5.02    1.18
  -4   5  -5    3.90    0.93
  -4   5  -5    4.75    1.04
  -4   5  -5    4.50    1.17
  -4   5  -5    4.45    1.22
  -4   5  -5    4.53    1.00
  -4   5  -5    4.35    0.89
  -4   5  -5    4.12    0.84
  -4   5  -5    5.87    1.25
  -4   5  -6    0.71    0.63
  -4   5  -6    0.36    0.44
  -4   5  -6    0.59    0.43
  -4   5  -6    0.95    0.62
  -4   5  -6    1.34    0.81
  -4   5  -6    0.01    0.55
  -4   5  -6    0.69    0.46
  -4   5  -6    0.77    0.43
  -4   5  -7   43.21    2.77
  -4   5  -7   44.31    2.91
  -4   5  -7   46.19    2.79
  -4   5  -8   47.16    2.74
  -4   5  -8   46.03    2.56
  -4   5  -8   53.69    2.58
  -4   4   6    4.98    0.91
  -4   4   6    6.40    1.08
  -4   4   6    6.70    0.97
  -4   4   6    7.50    1.09
  -4   4   6    3.87    0.93
  -4   4   5   -0.02    0.48
  -4   4   5    0.96    0.63
  -4   4   5   -0.11    0.48
  -4   4   5    1.41    0.66
  -4   4   5    0.34    0.59
  -4   4   5    0.52    0.46
  -4   4   4    7.98    1.51
  -4   4   4   11.32    1.61
  -4   4   4    9.88    1.30
  -4   4   4   10.81    1.59
  -4   4   4    8.25    1.46
  -4   4   3    5.85    1.36
  -4   4   3    5.15    0.95
  -4   4   3    4.00    0.96
  -4   4   3    6.17    1.28
  -4   4   3    6.74    1.14
  -4   4   3    4.83    0.93
  -4   4   3    6.70    1.48
  -4   4   3    3.46    1.09
  -4   4   2  200.74    6.80
  -4   4   2  196.30    6.98
  -4   4   2  200.93    7.53
  -4   4   2  210.60    7.44
  -4   4   2  210.50    7.78
  -4   4   2  210.35    7.82
  -4   4   2  178.57    6.21
  -4   4   2  190.18    6.55
  -4   4   2  201.12    7.61
  -4   4   2  162.44    6.90
  -4   4   1   32.86    2.62
  -4   4   1   33.76    2.77
  -4   4   1   35.33    2.94
  -4   4   1   32.76    2.96
  -4   4   1   16.71    4.72
  -4   4   1   31.66    2.89
  -4   4   1   31.49    2.55
  -4   4   1   23.81    6.82
  -4   4   1   30.02    2.28
  -4   4   1   32.22    2.87
  -4   4   1   23.79    2.28
  -4   4   0   33.44    3.01
  -4   4   0   34.33    2.78
  -4   4   0   35.06    2.75
  -4   4   0   39.78    8.89
  -4   4   0   36.53    3.05
  -4   4   0   33.37    3.09
  -4   4   0   35.67    2.71
  -4   4   0   25.42    7.06
  -4   4   0   29.79    2.25
  -4   4   0   31.77    2.91
  -4   4   0   35.02    2.73
  -4   4   0   30.92    3.29
  -4   4  -1    3.15    0.98
  -4   4  -1    3.67    1.02
  -4   4  -1    2.70    1.04
  -4   4  -1    6.46    3.63
  -4   4  -1    4.36    1.23
  -4   4  -1    4.40    0.74
  -4   4  -1    6.68    4.50
  -4   4  -1    4.04    0.94
  -4   4  -1    4.77    1.23
  -4   4  -1    4.49    0.97
  -4   4  -1    3.97    1.33
  -4   4  -1    4.48    1.27
  -4   4  -2    0.58    0.47
  -4   4  -2    0.48    0.81
  -4   4  -2    1.09    0.59
  -4   4  -2    0.92    0.80
  -4   4  -2   -1.86    2.20
  -4   4  -2    1.93    1.05
  -4   4  -2    2.00    1.14
  -4   4  -2    2.09    1.00
  -4   4  -2   -0.23    1.98
  -4   4  -2    1.54    1.01
  -4   4  -2    1.93    0.77
  -4   4  -2    1.30    0.81
  -4   4  -3    0.23    0.88
  -4   4  -3    0.44    0.58
  -4   4  -3    1.82    0.95
  -4   4  -3   -2.51    4.88
  -4   4  -3    1.96    1.03
  -4   4  -3    0.87    0.82
  -4   4  -3    1.18    0.81
  -4   4  -3    0.96    4.02
  -4   4  -3    1.32    0.72
  -4   4  -3    1.92    0.71
  -4   4  -3    0.75    0.55
  -4   4  -4   23.03    2.30
  -4   4  -4   21.66    2.58
  -4   4  -4   25.20    2.62
  -4   4  -4   22.77    2.77
  -4   4  -4   24.88    7.10
  -4   4  -4   20.34    2.69
  -4   4  -4   25.58    2.34
  -4   4  -4    9.41    4.19
  -4   4  -4   21.40    2.42
  -4   4  -4   22.37    2.27
  -4   4  -4   22.16    2.34
  -4   4  -4   25.09    2.62
  -4   4  -5   -0.04    0.52
  -4   4  -5    0.26    0.81
  -4   4  -5    1.58    0.99
  -4   4  -5    1.19    2.97
  -4   4  -5    0.45    0.88
  -4   4  -5    0.18    0.63
  -4   4  -5    1.37    1.01
  -4   4  -5   -2.46    3.24
  -4   4  -5   -0.50    0.78
  -4   4  -5   -0.51    0.69
  -4   4  -5    0.47    0.73
  -4   4  -6    8.90    1.56
  -4   4  -6    6.27    1.21
  -4   4  -6    7.14    1.30
  -4   4  -6    7.20    1.58
  -4   4  -6   10.25    1.43
  -4   4  -6    6.90    1.66
  -4   4  -6    8.33    1.41
  -4   4  -6    6.96    1.28
  -4   4  -6    9.55    1.59
  -4   4  -7   10.12    1.44
  -4   4  -7    9.93    1.77
  -4   4  -7    9.14    1.76
  -4   4  -7    8.73    1.33
  -4   4  -7    9.85    1.49
  -4   4  -7   12.61    1.71
  -4   4  -8  137.32    6.28
  -4   4  -8  145.50    6.12
  -4   4  -8  129.83    5.38
  -4   4  -8  147.81    5.65
  -4   4  -9   12.61    1.64
  -4   4  -9   11.03    1.55
  -4   4  -9   12.54    1.28
  -4   4  -9   10.65    1.27
  -4   4  -9   11.17    1.25
  -4   3   7   -0.42    0.36
  -4   3   7    0.38    0.48
  -4   3   7   -0.09    0.57
  -4   3   7    1.29    0.82
  -4   3   7    0.92    0.55
  -4   3   7   -0.09    0.49
  -4   3   6    1.59    0.78
  -4   3   6    0.57    0.58
   4  -3  -6    2.13    0.66
  -4   3   6    1.88    0.75
  -4   3   6    2.23    0.93
  -4   3   6    1.12    0.75
  -4   3   5   29.80    2.85
  -4   3   5   37.10    2.92
   4  -3  -5   34.22    2.38
  -4   3   5   37.42    2.74
  -4   3   5   39.20    2.96
  -4   3   4    0.15    0.66
  -4   3   4    0.22    0.63
   4  -3  -4   -0.50    0.50
  -4   3   4    0.34    0.73
  -4   3   4   -0.14    0.78
  -4   3   4    0.46    0.85
  -4   3   3    6.81    1.47
  -4   3   3    5.54    1.24
  -4   3   3    7.48    1.40
   4  -3  -3    7.50    1.17
  -4   3   3    6.25    2.62
  -4   3   3    9.22    1.53
  -4   3   3    8.77    1.49
  -4   3   3    6.25    1.18
  -4   3   3    4.07    2.58
  -4   3   3    7.71    1.31
  -4   3   3    8.80    1.54
  -4   3   2   -0.20    0.62
  -4   3   2   -0.48    0.70
  -4   3   2   -1.31    3.04
   4  -3  -2    0.13    0.55
  -4   3   2   -0.24    0.63
  -4   3   2   -0.01    0.54
  -4   3   2   -0.05    0.60
  -4   3   2    2.09    1.69
  -4   3   2    0.65    0.64
  -4   3   2    0.49    0.73
  -4   3   1    1.94    0.80
  -4   3   1    1.42    0.77
  -4   3   1    5.75    3.92
  -4   3   1    3.53    1.10
  -4   3   1    2.70    0.85
  -4   3   1   -0.32    1.67
  -4   3   1    3.62    1.05
  -4   3   1    3.12    0.98
  -4   3   1    3.91    1.14
  -4   3   1    3.15    1.06
  -4   3   1    3.06    1.07
  -4   3   0   11.53    1.84
  -4   3   0   13.39    2.04
  -4   3   0   15.94    2.11
  -4   3   0   12.61    6.30
  -4   3   0   16.14    2.02
  -4   3   0   13.15    1.68
  -4   3   0   14.16    5.17
  -4   3   0   12.23    1.75
  -4   3   0   15.08    1.90
  -4   3   0   14.87    2.02
  -4   3  -1    4.21    1.23
  -4   3  -1    2.14    2.46
  -4   3  -1    5.22    1.30
  -4   3  -1    5.15    1.35
  -4   3  -1    5.00    1.19
  -4   3  -1    5.33    3.46
  -4   3  -1    5.80    1.36
  -4   3  -1    6.41    1.35
  -4   3  -1    4.80    1.27
  -4   3  -1    6.59    1.59
  -4   3  -2    0.64    0.72
  -4   3  -2    1.34    0.70
  -4   3  -2    1.28    0.93
  -4   3  -2   -0.28    2.78
  -4   3  -2    0.58    0.62
  -4   3  -2    1.43    0.85
  -4   3  -2    1.03    0.74
  -4   3  -2   -2.34    2.68
  -4   3  -2    0.62    0.79
  -4   3  -2    1.32    0.83
  -4   3  -2    1.24    0.81
  -4   3  -3   17.49    1.93
  -4   3  -3   18.69    2.25
  -4   3  -3   22.08    2.54
  -4   3  -3   20.54    2.36
  -4   3  -3   20.75    2.46
  -4   3  -3   18.95    2.47
  -4   3  -3   22.00    2.08
  -4   3  -3   17.49    5.94
  -4   3  -3   15.80    6.50
  -4   3  -3   19.41    2.14
  -4   3  -3   22.39    2.45
  -4   3  -4    1.86    0.90
  -4   3  -4    3.00    1.02
  -4   3  -4    3.40    1.20
  -4   3  -4    1.32    2.25
  -4   3  -4    3.64    1.24
  -4   3  -4    3.42    0.99
  -4   3  -4    2.02    0.90
  -4   3  -4    1.20    0.65
  -4   3  -5    9.54    1.60
  -4   3  -5    9.28    1.63
  -4   3  -5   13.52    2.05
  -4   3  -5    8.78    1.85
  -4   3  -5   14.50    1.67
  -4   3  -5    8.69    4.02
  -4   3  -5   10.49    1.66
  -4   3  -5    8.70    1.61
  -4   3  -6    3.43    0.94
  -4   3  -6    3.02    0.89
  -4   3  -6    1.20    0.82
  -4   3  -6    2.79    1.03
  -4   3  -6    1.48    0.77
  -4   3  -6    0.89    2.03
  -4   3  -6    2.53    0.98
  -4   3  -6    3.72    1.06
  -4   3  -7    3.86    0.94
  -4   3  -7    3.20    1.30
  -4   3  -7    3.82    1.17
  -4   3  -7    3.88    1.08
  -4   3  -8    2.28    1.22
  -4   3  -8   -0.15    0.79
  -4   3  -8    1.94    0.82
  -4   3  -9    6.16    1.38
  -4   3  -9    4.47    1.04
  -4   3  -9    5.80    0.99
  -4   3 -10   -0.96    0.66
  -4   3 -10    0.26    0.57
  -4   3 -11    1.28    0.60
  -4   3 -11    1.27    0.43
   4  -2  -8    1.03    0.65
  -4   2   8    1.08    0.82
  -4   2   8    0.03    0.50
  -4   2   8    0.08    0.38
  -4   2   8    0.90    0.59
  -4   2   7    1.62    0.56
  -4   2   7    0.69    0.68
  -4   2   7    3.30    0.94
   4  -2  -7    1.91    0.84
  -4   2   7    1.41    0.79
  -4   2   7    2.30    0.89
  -4   2   6   10.33    1.63
  -4   2   6   12.31    1.64
  -4   2   6    5.55    1.12
  -4   2   6    9.75    1.26
   4  -2  -6    8.48    1.53
  -4   2   6   10.14    1.50
  -4   2   5    6.73    1.40
  -4   2   5   10.50    1.36
   4  -2  -5    8.91    1.43
  -4   2   5   12.46    1.71
  -4   2   5   10.32    1.61
  -4   2   5   10.48    1.64
  -4   2   5    9.36    1.50
  -4   2   4   32.09    2.40
  -4   2   4   39.55    3.00
   4  -2  -4   31.40    2.63
  -4   2   4   37.18    2.99
  -4   2   4   37.18    3.01
  -4   2   3   27.75    2.40
  -4   2   3   34.10    2.43
  -4   2   3   31.61    2.79
  -4   2   3   43.21    3.18
  -4   2   3   31.42    7.58
  -4   2   3   31.58    2.51
   4  -2  -3   35.88    2.75
  -4   2   3   38.80    2.92
  -4   2   3   21.26    5.45
  -4   2   3   36.04    2.98
  -4   2   2   70.01   11.62
  -4   2   2   63.46    3.56
  -4   2   2   62.51   10.13
  -4   2   2   66.75    3.99
  -4   2   2   69.76    4.08
  -4   2   2   63.61   10.85
  -4   2   2   75.69    4.05
  -4   2   2   64.80    3.46
  -4   2   2   63.33    3.83
  -4   2   2   68.84    4.08
  -4   2   1    4.64    3.20
  -4   2   1    8.54    1.39
  -4   2   1   10.39    1.60
  -4   2   1   13.42    5.16
  -4   2   1    9.75    1.44
  -4   2   1    9.23    1.50
  -4   2   1    7.46    1.21
  -4   2   1    7.95    3.76
  -4   2   1    8.86    1.45
  -4   2   1    8.56    1.43
  -4   2   0    7.28    1.32
  -4   2   0   10.67    1.65
  -4   2   0    8.27    3.84
  -4   2   0    9.85    1.39
  -4   2   0    5.00    3.25
  -4   2   0    9.37    1.52
  -4   2   0    9.17    1.31
  -4   2   0    5.79    3.67
  -4   2   0    7.46    1.40
  -4   2   0    9.97    1.55
  -4   2   0    7.11    1.45
  -4   2  -1   30.49    7.45
  -4   2  -1   27.62    2.57
  -4   2  -1   24.61    2.54
  -4   2  -1   23.38    6.83
  -4   2  -1   23.84    2.31
  -4   2  -1   24.77    2.10
  -4   2  -1   27.50    6.73
  -4   2  -1   27.28    2.33
  -4   2  -1   25.11    2.44
  -4   2  -2   -0.52    2.72
  -4   2  -2   -0.83    0.99
  -4   2  -2   -0.90    0.67
  -4   2  -2   -0.44    0.68
  -4   2  -2   -2.22    3.33
  -4   2  -2   -0.47    0.69
  -4   2  -2    0.09    0.55
  -4   2  -2   -0.06    2.11
  -4   2  -2    0.37    0.51
  -4   2  -2   -0.12    0.52
  -4   2  -3    2.54    0.98
  -4   2  -3    2.94    0.91
  -4   2  -3    2.05    0.99
  -4   2  -3    6.68    4.65
  -4   2  -3    3.75    3.52
  -4   2  -3    2.35    0.93
  -4   2  -3    2.87    0.93
  -4   2  -3    3.42    2.90
  -4   2  -3    4.45    1.00
  -4   2  -4   11.15    1.59
  -4   2  -4    8.65    1.50
  -4   2  -4   10.64    1.81
  -4   2  -4    9.42    5.13
  -4   2  -4   10.77    1.71
  -4   2  -4   12.72    1.58
  -4   2  -4    6.31    3.56
  -4   2  -4   12.92    1.66
  -4   2  -4    7.52    4.70
  -4   2  -5   14.65    5.42
  -4   2  -5   13.96    1.88
  -4   2  -5   17.04    1.87
  -4   2  -5   15.32    1.98
  -4   2  -5   23.53    6.82
  -4   2  -5   15.39    2.27
  -4   2  -5   17.64    1.83
  -4   2  -5   11.63    4.36
  -4   2  -5   18.80    2.02
  -4   2  -6    2.67    0.91
  -4   2  -6    2.06    0.78
  -4   2  -6    3.48    4.23
  -4   2  -6    1.92    1.00
  -4   2  -6    3.00    0.89
  -4   2  -6    1.03    1.67
  -4   2  -6    0.36    2.19
  -4   2  -6    5.18    1.07
  -4   2  -7    0.95    0.77
  -4   2  -7    0.29    0.53
  -4   2  -8    0.69    0.79
   4  -2   9   28.40    2.22
  -4   2  -9   25.85    2.54
   4  -2  10    1.69    0.75
  -4   2 -10    1.50    0.77
  -4   2 -11    4.88    1.12
   4  -2  11    4.64    0.84
  -4   2 -11    5.60    1.02
  -4   2 -12   -0.10    0.38
  -4   2 -12    0.41    0.41
  -4   1   9    6.68    1.04
   4  -1  -9    6.97    1.09
  -4   1   9    5.66    0.90
  -4   1   8    8.94    1.28
   4  -1  -8    7.87    1.33
  -4   1   8    8.71    1.35
  -4   1   8    8.88    1.08
  -4   1   7    3.59    1.14
   4  -1  -7    1.53    0.70
  -4   1   7    3.54    1.23
  -4   1   7    4.96    1.11
  -4   1   6  281.06    8.88
   4  -1  -6  258.53    8.99
  -4   1   6  276.79    9.02
  -4   1   6  290.05    8.92
  -4   1   5   39.68    2.92
  -4   1   5   42.26    2.89
   4  -1  -5   37.82    3.07
  -4   1   5   37.33    3.03
  -4   1   5   38.94    2.87
  -4   1   4    8.45    1.47
   4  -1  -4    8.16    1.52
  -4   1   4    9.10    1.29
  -4   1   4    6.75    1.43
  -4   1   4    7.04    1.37
  -4   1   3    5.13    3.70
  -4   1   3   10.52    1.52
  -4   1   3    5.84    1.27
  -4   1   3    7.20    3.83
  -4   1   3   10.27    1.36
  -4   1   3    8.71    1.47
  -4   1   3    5.04    3.20
  -4   1   3   10.83    1.60
  -4   1   2    1.58    0.57
  -4   1   2    1.44    0.80
  -4   1   2    2.54    2.21
  -4   1   2    1.59    0.63
  -4   1   2    0.13    0.53
  -4   1   2    1.39    0.46
  -4   1   2   -0.21    2.57
  -4   1   1  552.64   13.54
  -4   1   1  587.71   14.57
  -4   1   1  613.54   14.42
  -4   1   1  623.15   32.35
  -4   1   1  551.60   13.46
  -4   1   1  589.30   14.44
  -4   1   1  564.39   14.23
  -4   1   1  602.37   31.07
  -4   1   0   23.68    5.61
  -4   1   0   21.52    1.73
  -4   1   0   21.24    2.12
  -4   1   0   26.07    2.17
  -4   1   0   16.86    4.89
  -4   1   0   22.35    1.80
  -4   1   0   22.63    2.08
  -4   1   0   23.29    2.00
  -4   1   0   20.22    2.02
  -4   1  -1   35.15    7.35
  -4   1  -1   29.14    2.51
  -4   1  -1   35.78    2.69
  -4   1  -1   29.00    6.86
  -4   1  -1   26.32    2.12
  -4   1  -1   29.70    2.28
  -4   1  -2    0.42    2.11
  -4   1  -2    1.52    2.56
  -4   1  -2    0.73    0.62
  -4   1  -2    0.97    0.61
  -4   1  -3   77.39    4.13
  -4   1  -3   74.39   11.35
  -4   1  -3   77.30    3.64
  -4   1  -3   79.28   11.06
  -4   1  -4    7.39    1.26
  -4   1  -4    8.81    3.70
  -4   1  -4    7.66    3.42
  -4   1  -4    7.75    1.45
  -4   1  -4    7.48    1.13
  -4   1  -5    0.31    0.72
  -4   1  -5    2.85    2.59
  -4   1  -5    0.68    0.61
  -4   1  -5    2.32    3.44
  -4   1  -6    5.03    3.64
  -4   1  -6    3.09    0.94
  -4   1  -6   -1.60    1.66
  -4   1  -6    2.45    0.78
   4  -1   6    3.82    1.06
  -4   1  -7   33.87    7.61
   4  -1   7   49.56    3.22
   4  -1   8   62.59    3.97
  -4   1  -8  102.95    4.97
   4  -1   9   80.29    4.38
  -4   1  -9   76.03    4.35
   4  -1  10   -0.38    0.77
   4  -1  10    1.83    0.72
  -4   1 -10    0.20    0.57
   4  -1  11    1.41    0.62
   4  -1  11    0.13    0.71
  -4   1 -11   -0.45    0.66
   4  -1  12    0.30    0.43
   4  -1  12    0.94    0.53
  -4   1 -12    1.11    0.53
  -4   0   9   34.89    2.36
   4   0  -9   29.61    2.21
  -4   0   8    3.14    0.93
   4   0  -8    2.22    0.94
  -4   0   8    2.87    1.05
  -4   0   7   98.36    4.85
   4   0  -7   85.24   14.06
   4   0  -7   89.01    4.79
  -4   0   7   92.61    4.58
   4   0  -6   65.36    3.38
  -4   0   6   62.39    3.90
   4   0  -6   58.32   11.59
   4   0  -6   61.13    3.91
  -4   0   6   62.25    3.77
   4   0  -5  165.83   19.23
  -4   0   5  183.85    6.88
   4   0  -5  171.45    6.93
  -4   0   5  175.52    6.75
   4   0  -4  135.83    5.90
  -4   0   4  150.01    5.91
  -4   0   4  145.18    5.88
  -4   0   4  146.31    5.55
  -4   0   3    0.08    1.86
  -4   0   3    1.76    0.68
  -4   0   3    0.45    0.62
  -4   0   3   -0.70    2.62
  -4   0   3    0.89    0.85
  -4   0   3    0.39    0.55
  -4   0   2  106.40    4.61
  -4   0   2  106.61    4.77
  -4   0   2  103.81   12.24
  -4   0   2  118.14   12.64
  -4   0   2  119.20    4.63
  -4   0   1   42.37    2.65
  -4   0   1   50.50    8.23
  -4   0   1   41.48    2.66
  -4   0   0    3.05    2.20
  -4   0   0    2.98    0.77
  -4   0  -1   66.82    9.31
  -4   0  -2   46.16    7.98
  -4   0  -3   89.36   10.75
  -4   0  -4 1949.11   59.62
   4   0   4 1800.15   36.29
  -4   0  -4 1853.81   51.18
  -4   0  -5   -0.26    1.80
  -4   0  -5    0.72    0.64
  -4   0  -5   -1.63    2.00
   4   0   5    0.17    0.50
  -4   0  -5    0.21    1.77
  -4   0  -6   58.29    3.49
  -4   0  -6   56.78    8.84
  -4   0  -6   61.86    3.13
   4   0   6   62.82    3.64
  -4   0  -6   63.27    9.38
  -4   0  -6   57.78    8.99
  -4   0  -7    2.73    3.18
   4   0   7    0.38    0.68
  -4   0  -8   18.92    5.74
   4   0   8   22.51    2.21
   4   0   8   25.78    2.45
   4   0   9    1.63    0.88
   4   0   9    1.66    0.69
  -4   0  -9    1.28    0.59
   4   0   9    3.44    3.36
  -4   0 -10    0.55    2.05
   4   0  10    0.85    0.73
   4   0  10    2.49    1.01
  -4   0 -10    0.75    0.57
   4   0  10    3.25    3.35
   4   0  11   26.28    2.40
   4   0  11   29.33    2.56
  -4   0 -11   26.72    2.36
   4   0  12    2.11    0.87
   4   0  12    3.18    1.00
   4   0  12    1.05    0.68
  -4  -1   9    9.61    1.39
   4   1  -9    7.90    1.26
   4   1  -8    0.81    0.57
  -4  -1   8   -1.06    1.08
   4   1  -8    0.43    0.70
  -4  -1   8    1.03    0.65
   4   1  -7   89.00    4.24
  -4  -1   7   79.33    4.41
   4   1  -7   89.68   14.39
   4   1  -7   84.67    4.66
  -4  -1   7   84.05    4.18
   4   1  -6  449.89   11.93
  -4  -1   6  417.18   12.20
   4   1  -6  437.02   12.65
  -4  -1   6  440.88   11.83
   4   1  -5  155.64   18.16
  -4  -1   5  150.05    6.20
   4   1  -5  153.56    6.43
  -4  -1   5  155.43    6.02
   4   1  -5  164.03    5.89
   4   1  -4    3.69    3.82
  -4  -1   4    3.74    1.12
   4   1  -4    3.76    0.96
  -4  -1   4    6.01    1.21
   4   1  -3    8.38    3.53
   4   1  -3    4.81    3.03
  -4  -1   3    6.64    1.32
  -4  -1   3    2.49    1.81
  -4  -1   3    6.38    1.06
   4   1  -2   37.34    2.47
   4   1  -2   35.33    6.99
  -4  -1   2   34.07    6.71
  -4  -1   2   39.31    2.67
   4   1  -2   46.01    8.27
   4   1  -1   33.13    2.25
   4   1  -1   31.71    6.65
  -4  -1   1   35.43    2.41
   4   1  -1   35.58    6.67
   4   1   0  118.22   10.84
   4   1   1  251.46   15.01
  -4  -1  -1  295.03   15.18
  -4  -1  -2   43.68    6.04
   4   1   3  859.79   30.63
  -4  -1  -3  954.09   33.27
   4   1   4 1074.45   41.01
   4   1   4 1035.12   38.31
   4   1   4 1029.09   22.53
  -4  -1  -4 1089.76   38.76
  -4  -1  -5    1.13    2.23
  -4  -1  -5    0.10    2.36
   4   1   5    1.57    1.44
   4   1   5    1.80    0.80
   4   1   5    0.34    2.20
  -4  -1  -6   14.03    4.56
   4   1   6   12.00    4.44
   4   1   6    8.98    1.35
  -4  -1  -6   10.08    3.57
   4   1   6   11.63    1.64
   4   1   6   15.31    5.55
  -4  -1  -7    2.24    2.48
   4   1   7    4.83    1.12
   4   1   7    5.02    1.20
   4   1   7    1.73    3.15
  -4  -1  -8   37.92    8.88
   4   1   8   31.98    2.99
   4   1   8   35.88    2.95
   4   1   8   39.29    9.46
   4   1   9   31.54    8.51
  -4  -1  -9   25.78    7.87
   4   1   9   26.55    2.61
   4   1   9   29.08    2.68
  -4  -1  -9   24.04    2.38
   4   1  10    0.44    2.78
  -4  -1 -10    5.09    3.99
   4   1  10    0.36    0.90
   4   1  10    1.18    0.99
  -4  -1 -10   -0.23    0.50
   4   1  11   13.05    2.25
   4   1  11   11.57    1.68
   4   1  11   10.79    1.73
  -4  -1 -11    7.90    1.33
   4   1  12    5.87    1.38
   4   1  12    6.16    1.17
   4   1  12    5.39    1.17
  -4  -1 -12    4.56    0.90
   4   2  -9   -0.09    0.46
  -4  -2   9   -0.21    0.59
   4   2  -9   -0.05    0.49
   4   2  -8   49.17    3.00
  -4  -2   8   48.52    3.18
   4   2  -8   51.96    3.22
   4   2  -8   49.70    2.82
   4   2  -7   99.47    4.75
  -4  -2   7   95.12    4.81
   4   2  -7  102.19    4.96
   4   2  -7  106.20    4.66
  -4  -2   6  157.47    6.49
   4   2  -6  156.14   18.92
   4   2  -6  166.71    6.61
   4   2  -6  169.96    6.42
   4   2  -5    2.76    0.88
  -4  -2   5    2.17    0.86
   4   2  -5   -0.44    2.27
   4   2  -5    1.22    0.88
  -4  -2   4    1.98    0.91
   4   2  -4    4.74    3.33
   4   2  -4    1.00    0.66
   4   2  -3    1.99    3.85
   4   2  -3    1.60    0.75
   4   2  -3    1.14    1.61
   4   2  -3    1.44    2.03
  -4  -2   3    3.75    1.00
   4   2  -3    0.65    0.53
   4   2  -2    9.93    1.51
   4   2  -2   10.64    1.37
   4   2  -2    8.37    3.68
   4   2  -2   12.01    4.23
  -4  -2   2   11.31    1.45
   4   2  -2    8.94    1.46
   4   2  -2   10.68    4.12
   4   2  -1  102.65   11.47
   4   2  -1   94.33    4.57
   4   2  -1   98.36    4.23
   4   2  -1  107.62   12.09
  -4  -2   1   92.14    4.15
   4   2   0    0.72    0.51
   4   2   0   -0.11    0.38
   4   2   0    1.04    1.91
   4   2   0   -1.80    2.52
   4   2   1   23.27    5.44
   4   2   1   17.01    4.39
  -4  -2  -1   19.08    5.03
   4   2   2   22.95    5.76
   4   2   2   24.39    2.04
  -4  -2  -2   29.48    5.89
   4   2   3  282.04   19.36
   4   2   3  258.60    7.96
   4   2   3  267.09   16.08
  -4  -2  -3  278.26   18.81
  -4  -2  -4   21.45    5.49
   4   2   4   12.95    3.90
   4   2   4   17.00    4.95
   4   2   4   12.79    1.59
  -4  -2  -5   14.87    4.52
   4   2   5    8.54    3.60
   4   2   5   20.76    5.40
   4   2   5   10.49    4.39
   4   2   5   12.01    1.50
   4   2   5   10.68    1.55
   4   2   6   -0.77    0.46
  -4  -2  -6   -1.67    3.02
   4   2   6    2.93    2.35
   4   2   6   -0.31    0.69
   4   2   6   -0.57    0.57
   4   2   6    2.28    2.19
   4   2   6    1.73    2.91
   4   2   6    0.00    0.63
  -4  -2  -7    2.48    2.77
   4   2   7    3.07    2.11
   4   2   7    1.10    0.80
   4   2   7    2.85    0.96
   4   2   8   62.31   11.87
   4   2   8   61.28    4.14
   4   2   8   66.28    4.04
  -4  -2  -8   58.97   11.44
   4   2   8   48.06    3.88
   4   2   9  128.34    6.76
   4   2   9  116.45    5.68
   4   2   9  127.76    5.77
   4   2   9  106.95   16.06
  -4  -2  -9  111.90   16.63
   4   2   9   89.58    4.84
   4   2  10   33.96    3.39
   4   2  10   32.49    3.14
   4   2  10   33.11    2.84
   4   2  11   10.55    1.95
   4   2  11    8.79    1.51
   4   2  11   10.93    1.65
  -4  -2 -11    9.15    1.36
   4   2  12   -0.27    0.67
   4   2  12    0.54    0.53
  -4  -2 -12   -0.62    0.40
   4   3  -9    2.36    0.65
  -4  -3   9    2.05    0.76
   4   3  -8    8.49    1.36
  -4  -3   8    9.10    1.31
   4   3  -8    8.49    1.08
   4   3  -8    7.51    1.13
   4   3  -7   10.71    1.53
  -4  -3   7   10.77    1.65
   4   3  -7   10.85    1.46
   4   3  -7    7.12    1.10
   4   3  -7   10.95    1.55
   4   3  -6    5.17    1.04
  -4  -3   6    4.92    1.17
   4   3  -6    5.94    4.46
   4   3  -6    5.12    1.04
   4   3  -6    4.11    1.03
  -4  -3   5    9.87    1.54
   4   3  -5   14.62    6.00
   4   3  -5    8.91    1.38
   4   3  -5   10.20    1.51
   4   3  -4    0.36    1.84
   4   3  -4    0.46    0.53
  -4  -3   4    0.63    0.85
   4   3  -3    9.32    1.34
   4   3  -3    9.03    1.63
   4   3  -3    8.69    4.06
   4   3  -3    7.47    1.31
  -4  -3   3   10.99    1.67
   4   3  -3    5.98    1.33
   4   3  -3   12.67    4.53
   4   3  -3   11.39    5.58
   4   3  -3    7.44    3.71
   4   3  -3   11.36    1.41
   4   3  -3    8.02    1.36
   4   3  -2    4.60    1.15
   4   3  -2    5.69    1.11
   4   3  -2    4.54    1.04
  -4  -3   2    6.38    1.27
   4   3  -2    7.62    2.43
   4   3  -2    4.14    1.15
   4   3  -2    3.19    2.68
   4   3  -2    8.34    3.94
   4   3  -1  307.71   21.13
   4   3  -1  293.32    9.32
   4   3  -1  299.32    8.66
   4   3  -1  273.43    8.84
  -4  -3   1  270.22    8.29
   4   3  -1  303.84   21.51
   4   3  -1  262.83    9.16
   4   3  -1  279.97   22.12
   4   3  -1  263.90    8.35
   4   3   0    3.14    0.90
   4   3   0    3.08    0.91
   4   3   0    2.09    0.63
   4   3   0    2.61    0.93
   4   3   0    1.56    2.73
   4   3   0    2.86    0.93
   4   3   0    4.07    2.95
   4   3   1   33.86    2.58
   4   3   1   28.41    2.41
   4   3   1   32.25    2.36
   4   3   1   30.10    6.25
   4   3   1   29.37    2.73
   4   3   1   30.32    7.39
  -4  -3  -1   24.93    6.76
   4   3   1   27.60    2.48
   4   3   2   32.77    2.57
   4   3   2   30.69    2.50
   4   3   2   34.41    6.96
   4   3   2   28.52    2.51
   4   3   2   30.83    2.74
   4   3   2   24.97    6.49
   4   3   2   32.07    2.68
  -4  -3  -2   26.67    6.27
  -4  -3  -3   -0.84    1.78
   4   3   3   -0.30    0.50
   4   3   3   -0.34    0.51
   4   3   3   -0.50    0.63
   4   3   3    1.26    0.85
   4   3   3    0.28    0.42
   4   3   3   -1.76    1.88
   4   3   3   -0.25    0.49
   4   3   3    1.35    2.60
   4   3   3    1.03    0.81
  -4  -3  -4   43.68    8.58
   4   3   4   47.81    3.46
   4   3   4   55.18    8.95
   4   3   4   47.96    3.22
   4   3   4   46.73    3.25
   4   3   4   43.05    3.24
   4   3   4   43.61    3.29
   4   3   4   40.56    8.57
   4   3   4   44.31    3.07
   4   3   4   46.03    8.16
   4   3   4   44.89    3.31
   4   3   5    4.84    1.29
  -4  -3  -5    1.25    1.51
   4   3   5    4.85    1.18
   4   3   5    4.62    0.98
   4   3   5    3.00    1.08
   4   3   5    2.49    0.98
   4   3   5    6.40    3.14
   4   3   5    2.95    0.92
   4   3   5    8.17    3.81
   4   3   5    6.09    3.65
   4   3   5    4.40    1.03
   4   3   6    7.88    1.49
  -4  -3  -6    3.42    2.89
   4   3   6   10.68    1.86
   4   3   6    9.45    4.25
   4   3   6    9.19    1.69
   4   3   6    5.42    1.29
   4   3   6    6.26    1.29
   4   3   6    7.61    4.09
   4   3   6    4.23    3.62
   4   3   6   11.68    4.62
   4   3   6    9.46    1.52
   4   3   6    5.32    1.32
   4   3   7    0.70    0.64
  -4  -3  -7    4.25    3.50
   4   3   7    0.29    0.73
   4   3   7   -0.88    2.94
   4   3   7   -0.34    0.76
   4   3   7    0.34    0.70
   4   3   8   30.72    3.21
  -4  -3  -8   33.17    8.76
   4   3   8   27.82    8.15
   4   3   8   33.47    2.94
   4   3   8   29.86    2.63
   4   3   8   22.96    2.56
   4   3   9   35.80    3.37
  -4  -3  -9   25.24    7.27
   4   3   9   35.26    8.99
   4   3   9   34.95    2.95
   4   3   9   32.57    2.75
   4   3   9   28.32    2.40
   4   3  10   13.71    2.19
   4   3  10   12.25    1.95
   4   3  10   13.32    1.75
   4   3  11    1.49    0.95
   4   3  11    2.27    0.88
   4   3  11    1.53    0.59
  -4  -3 -11    2.49    0.78
   4   3  12    9.26    1.20
   4   3  12    8.19    1.28
   4   3  12    8.16    1.00
   4   4  -8    2.88    0.75
   4   4  -8    2.19    0.75
   4   4  -8    2.43    0.72
   4   4  -7   16.44    1.78
  -4  -4   7   14.60    1.51
   4   4  -7   11.26    1.37
   4   4  -7   16.01    1.76
   4   4  -6    2.10    0.93
  -4  -4   6    0.88    0.65
   4   4  -6    1.10    0.69
   4   4  -6    2.20    0.80
  -4  -4   5    3.78    0.91
   4   4  -5    2.69    1.06
   4   4  -5    4.35    1.05
   4   4  -4    6.16    1.25
   4   4  -4    5.84    1.17
  -4  -4   4    5.26    1.11
   4   4  -3   90.68    4.68
   4   4  -3   66.07   10.72
   4   4  -3   91.92    5.15
   4   4  -3   86.87    4.53
  -4  -4   3   87.90    4.18
   4   4  -3   86.81    4.42
   4   4  -3   83.21   12.00
   4   4  -3   85.80    4.53
   4   4  -2   58.73    3.68
   4   4  -2   49.31    9.61
   4   4  -2   59.07    4.02
   4   4  -2   58.46    3.65
   4   4  -2   63.67    9.83
   4   4  -2   55.95    3.44
  -4  -4   2   54.12    3.17
   4   4  -2   55.21    3.64
   4   4  -2   49.16    9.48
   4   4  -2   56.17    3.61
   4   4  -1   40.86    3.26
   4   4  -1   41.90    8.78
   4   4  -1   44.71    3.14
   4   4  -1   41.54    2.87
  -4  -4   1   41.30    2.79
   4   4  -1   41.95    3.17
   4   4  -1   36.70    8.18
   4   4  -1   53.86    9.38
   4   4  -1   42.26    3.13
   4   4  -1   40.18    2.92
   4   4   0    4.59    1.22
   4   4   0    9.18    4.73
   4   4   0    5.53    1.06
   4   4   0    6.09    1.23
   4   4   0    6.35    1.39
  -4  -4   0    5.60    1.20
   4   4   0    3.06    3.16
   4   4   0    3.79    2.13
   4   4   0    4.43    1.12
   4   4   0    3.76    1.00
   4   4   1   10.74    1.64
   4   4   1    8.19    4.23
   4   4   1    7.83    1.26
   4   4   1    9.18    1.46
   4   4   1    7.18    3.80
   4   4   1    8.88    4.60
   4   4   1    9.79    1.57
  -4  -4  -1   10.48    4.15
   4   4   1    7.99    1.41
   4   4   1    7.67    1.34
   4   4   2    0.35    0.44
   4   4   2    0.19    0.51
   4   4   2    0.31    0.52
   4   4   2    0.97    2.67
   4   4   2    0.64    0.50
   4   4   2   -0.26    0.75
   4   4   2   -3.20    2.58
   4   4   2   -0.27    1.98
   4   4   2    0.09    0.57
  -4  -4  -2   -0.71    1.77
   4   4   2   -0.20    0.65
   4   4   3   10.47    1.64
   4   4   3   11.01    1.56
   4   4   3   12.04    4.83
   4   4   3   12.26    1.68
   4   4   3   12.44    1.68
   4   4   3   10.53    1.71
   4   4   3   12.09    1.77
   4   4   3   18.15    5.46
   4   4   3   13.97    5.94
   4   4   3   11.92    1.70
   4   4   3    9.96    1.54
  -4  -4  -3    6.13    3.65
   4   4   4    0.60    0.48
  -4  -4  -4   -3.39    4.27
   4   4   4    1.04    0.62
   4   4   4   -0.98    2.17
   4   4   4    1.54    0.77
   4   4   4    0.93    0.65
   4   4   4    1.22    0.97
   4   4   4    1.96    0.87
   4   4   4    1.42    2.81
   4   4   4   -2.91    2.83
   4   4   4    0.76    0.76
   4   4   4    1.00    0.71
   4   4   4    0.87    0.54
  -4  -4  -5   55.67   10.74
   4   4   5   44.73    3.62
   4   4   5   48.27    3.46
   4   4   5   38.23    8.62
   4   4   5   53.74    3.41
   4   4   5   44.67    3.48
   4   4   5   48.28    3.40
   4   4   5   47.79    9.75
   4   4   5   53.10    9.29
   4   4   5   46.90    3.13
   4   4   5   44.84    3.38
   4   4   5   47.97    3.25
   4   4   5   52.47    3.63
   4   4   6    7.56    1.59
  -4  -4  -6    7.90    4.37
   4   4   6    7.72    1.72
   4   4   6    7.13    1.40
   4   4   6    6.56    1.29
   4   4   6    9.41    1.70
   4   4   6    6.17    1.37
   4   4   6    3.97    1.62
   4   4   6    8.26    1.33
   4   4   6    5.90    1.23
   4   4   7   -0.17    0.68
   4   4   7   -0.28    0.47
   4   4   7    0.34    0.70
   4   4   7    0.10    0.70
   4   4   7    0.31    0.56
   4   4   8   34.94    3.22
  -4  -4  -8   26.75    7.42
   4   4   8   32.12    2.63
   4   4   8   33.56    2.97
   4   4   8   32.50    2.64
   4   4   8   29.04    2.56
   4   4   9   28.22    2.89
   4   4   9   27.79    2.74
   4   4   9   28.62    2.36
   4   4   9   22.25    2.02
   4   4  10    6.62    1.33
   4   4  10    6.41    1.35
   4   4  10    5.31    0.93
   4   4  11    3.78    0.86
   4   4  11    5.44    1.05
   4   4  11    4.65    0.81
   4   5  -7   27.16    1.97
   4   5  -7   24.36    2.09
   4   5  -7   23.28    1.81
   4   5  -7   26.40    2.07
   4   5  -6   49.09    2.89
   4   5  -6   40.95    3.13
   4   5  -6   44.21    2.93
   4   5  -6   46.29    2.98
   4   5  -5    9.55    1.26
   4   5  -5    9.18    1.30
   4   5  -5    7.87    1.45
   4   5  -5   10.03    1.60
   4   5  -5    9.84    1.51
   4   5  -4   26.98    2.33
   4   5  -4   25.73    2.67
   4   5  -4   21.97    2.01
   4   5  -4   27.17    2.22
   4   5  -4   23.68    2.53
   4   5  -4   28.49    2.44
   4   5  -3   77.27    4.29
   4   5  -3   75.95    4.61
   4   5  -3   49.89    9.73
   4   5  -3   68.94    3.98
   4   5  -3   71.88    4.02
   4   5  -3   57.99   10.21
   4   5  -3   69.10    4.02
   4   5  -3   77.51    4.42
   4   5  -3   75.62    4.24
   4   5  -2  262.15    8.85
   4   5  -2  220.20   21.19
   4   5  -2  254.13    9.26
   4   5  -2  253.82    8.67
   4   5  -2  252.13    8.77
   4   5  -2  252.05   22.44
   4   5  -2  270.22    9.20
   4   5  -2  258.26    8.77
   4   5  -2  266.70    8.33
   4   5  -1    6.24    1.33
   4   5  -1    3.57    3.20
   4   5  -1    5.21    1.20
   4   5  -1    5.98    1.07
   4   5  -1    5.50    1.26
   4   5  -1    5.03    1.00
   4   5  -1    5.53    3.01
   4   5  -1    6.23    1.28
   4   5  -1    5.84    1.30
   4   5  -1    5.09    1.18
   4   5   0    4.21    1.09
   4   5   0   -0.64    2.36
   4   5   0    3.63    1.15
   4   5   0    4.18    1.00
   4   5   0    4.68    1.00
   4   5   0    5.06    1.15
   4   5   0    8.06    4.68
   4   5   0    6.70    1.33
   4   5   0    4.67    1.15
   4   5   1   48.06    3.34
   4   5   1   49.46    3.21
   4   5   1   48.15    3.60
   4   5   1   42.08    9.66
   4   5   1   45.72    3.31
   4   5   1   43.08    2.98
   4   5   1   41.85    9.56
   4   5   1   47.55    3.44
   4   5   1   46.04    3.34
  -4  -5  -1   39.97    9.82
   4   5   1   51.00    3.57
   4   5   2   25.70    2.44
   4   5   2   29.34    2.81
   4   5   2   23.10    6.92
   4   5   2   29.58    2.69
   4   5   2   25.33    2.22
   4   5   2   27.44    2.60
   4   5   2   26.00    7.53
   4   5   2   27.47    2.44
   4   5   2   25.11    2.55
   4   5   2   26.04    2.61
   4   5   2   29.88    2.68
  -4  -5  -2   28.00    7.91
   4   5   3    2.58    0.87
   4   5   3    0.61    1.58
   4   5   3    1.17    0.63
   4   5   3    1.86    0.79
   4   5   3    1.69    0.69
   4   5   3    1.06    0.70
   4   5   3   -0.31    2.28
   4   5   3    1.38    0.80
   4   5   3    2.54    1.10
   4   5   3    1.78    0.84
  -4  -5  -3   -2.59    4.11
   4   5   4    0.67    0.62
   4   5   4   -1.23    2.63
   4   5   4    0.49    0.77
   4   5   4    0.48    0.59
   4   5   4    0.48    0.93
   4   5   4    0.74    0.67
   4   5   4    0.66    1.80
   4   5   4    0.93    0.68
   4   5   4    0.83    0.72
   4   5   4    0.10    0.59
  -4  -5  -5   22.83    7.87
   4   5   5   35.80    3.10
   4   5   5   24.92    7.22
   4   5   5   33.56    3.04
   4   5   5   32.83    2.77
   4   5   5   35.66    3.02
   4   5   5   31.46    2.74
   4   5   5   26.49    7.10
   4   5   5   27.93    2.74
   4   5   5   29.96    2.74
   4   5   5   36.51    3.06
   4   5   6    4.60    0.95
  -4  -5  -6    8.73    3.48
   4   5   6    6.17    1.38
   4   5   6    6.40    1.37
   4   5   6    5.13    1.14
   4   5   6    7.82    1.45
   4   5   6    5.66    1.28
   4   5   6    1.94    2.45
   4   5   6    4.80    1.20
   4   5   6    6.11    1.22
   4   5   6    5.77    1.24
   4   5   7   19.79    2.34
   4   5   7   18.54    2.27
  -4  -5  -7   12.16    5.51
   4   5   7   20.49    2.18
   4   5   7   21.66    2.17
   4   5   8   60.95    4.00
   4   5   8   61.78    3.69
   4   5   8   60.63    3.94
   4   5   8   59.23    3.40
   4   5   9   32.14    2.70
   4   5   9   29.74    2.21
   4   5   9   30.52    2.53
   4   5  10   20.96    1.89
   4   5  10   21.93    1.93
   4   6  -6   20.76    1.73
   4   6  -6   21.85    1.68
   4   6  -6   20.82    1.70
   4   6  -5   31.85    2.12
   4   6  -5   28.60    1.89
   4   6  -5   29.31    2.26
   4   6  -5   33.20    2.36
   4   6  -5   29.59    2.22
   4   6  -4    2.87    0.70
   4   6  -4    3.62    0.77
   4   6  -4    3.06    0.80
   4   6  -4    3.15    0.93
   4   6  -4    3.50    0.98
   4   6  -3   50.38    3.23
   4   6  -3   48.27    3.40
   4   6  -3   48.07    2.98
   4   6  -3   48.03    2.69
   4   6  -3   43.31    2.96
   4   6  -3   53.28    3.14
   4   6  -3   47.71    3.02
   4   6  -3   51.30    3.33
   4   6  -3   51.59    3.13
   4   6  -2   34.06    2.67
   4   6  -2   34.68    2.95
   4   6  -2   33.84    2.68
   4   6  -2   34.28    2.22
   4   6  -2   28.15    2.36
   4   6  -2   37.16    2.80
   4   6  -2   34.45    2.74
   4   6  -2   36.05    2.86
   4   6  -2   39.28    2.67
   4   6  -2   35.67    2.60
   4   6  -1  139.43    6.05
   4   6  -1  111.49   15.17
   4   6  -1  145.88    6.47
   4   6  -1  145.50    6.13
   4   6  -1  150.53    6.17
   4   6  -1  145.30   17.05
   4   6  -1  147.75    6.14
   4   6  -1  147.54    6.08
   4   6  -1  145.77    5.95
   4   6  -1  135.95    5.50
   4   6   0  308.89    9.17
   4   6   0  298.86    9.60
   4   6   0  277.35   24.95
   4   6   0  291.47   10.02
   4   6   0  289.02    9.58
   4   6   0  285.62   24.52
  -4  -6   0  266.90   25.85
   4   6   0  297.55    9.73
   4   6   0  311.68    9.50
   4   6   0  301.25    9.61
   4   6   0  304.96    9.83
   4   6   1   15.90    1.89
   4   6   1   13.94    1.71
   4   6   1   12.82    5.65
   4   6   1   16.04    2.03
   4   6   1   13.60    1.48
   4   6   1   14.41    1.86
   4   6   1   11.18    4.96
   4   6   1   15.24    1.92
   4   6   1   13.19    1.62
   4   6   1   15.03    1.89
  -4  -6  -1   10.27    5.13
   4   6   1   13.23    1.82
   4   6   2   43.47    3.11
   4   6   2   43.35    3.11
   4   6   2   40.46    9.33
   4   6   2   42.64    3.34
   4   6   2   43.11    3.22
   4   6   2   39.75    2.56
   4   6   2   41.05    3.17
   4   6   2   39.95    9.10
   4   6   2   41.64    2.83
   4   6   2   44.45    3.34
   4   6   2   44.78    3.41
   4   6   2   43.96    3.23
  -4  -6  -2   35.11    9.13
  -4  -6  -3   32.46    8.31
   4   6   3   44.06    3.12
   4   6   3   44.38    3.23
   4   6   3   49.64   10.25
   4   6   3   43.49    3.32
   4   6   3   45.87    3.28
   4   6   3   39.08    2.54
   4   6   3   44.04    3.26
   4   6   3   44.43    9.73
   4   6   3   44.86    3.32
   4   6   3   43.66    3.36
   4   6   3   42.04    3.22
  -4  -6  -4   12.35    6.53
   4   6   4   11.02    1.51
   4   6   4   11.98    1.72
   4   6   4   12.29    1.85
   4   6   4    9.40    1.26
   4   6   4   11.46    1.62
   4   6   4   12.42    1.67
   4   6   4   12.17    1.67
   4   6   4   11.76    1.67
   4   6   4   12.29    1.73
   4   6   5    0.22    0.42
   4   6   5    0.20    0.56
   4   6   5    0.29    0.67
   4   6   5    0.13    0.33
   4   6   5    0.33    0.44
   4   6   5   -0.16    0.47
   4   6   5    0.61    0.42
   4   6   5   -0.20    0.56
   4   6   5    0.43    0.53
   4   6   6   15.79    1.92
   4   6   6   18.50    2.06
   4   6   6   17.41    1.76
   4   6   6   13.64    1.39
   4   6   6   13.34    1.55
   4   6   6   14.88    1.66
   4   6   6   17.15    1.87
   4   6   6   19.21    1.99
   4   6   7  128.03    5.50
   4   6   7  130.73    5.53
   4   6   7  126.41    4.83
   4   6   7  126.65    5.02
   4   6   8    0.60    0.55
   4   6   8    0.36    0.49
   4   6   9   72.92    3.35
   4   6   9   67.46    2.88
   4   7  -4    0.14    0.29
   4   7  -4    1.24    0.52
   4   7  -4    0.59    0.32
   4   7  -3    3.74    0.78
   4   7  -3    3.37    0.67
   4   7  -3    3.69    0.81
   4   7  -3    3.18    0.65
   4   7  -2   25.76    2.10
   4   7  -2   24.10    2.08
   4   7  -2   26.16    2.00
   4   7  -2   25.83    2.01
   4   7  -2   26.13    2.00
   4   7  -2   26.23    2.06
   4   7  -1   44.76    2.87
   4   7  -1   41.71    2.88
   4   7  -1   43.47    2.79
   4   7  -1   43.74    2.81
   4   7  -1   46.70    2.92
   4   7  -1   46.19    2.78
   4   7  -1   44.74    2.72
   4   7   0   -0.38    0.45
   4   7   0    0.21    0.61
   4   7   0    0.78    0.58
   4   7   0    0.43    0.40
   4   7   0    0.33    0.52
   4   7   0    0.24    0.48
   4   7   0    0.31    0.42
   4   7   1    0.47    0.63
   4   7   1   -0.53    0.69
   4   7   1   -0.83    0.67
   4   7   1   -0.19    0.40
   4   7   1    0.53    0.47
   4   7   1    0.26    0.51
   4   7   1    0.56    0.66
   4   7   2   10.63    1.32
   4   7   2   12.36    1.47
   4   7   2   11.48    1.60
   4   7   2   10.64    1.44
   4   7   2   10.43    1.44
   4   7   2   10.13    1.37
   4   7   2   10.44    1.37
   4   7   3   52.80    3.01
   4   7   3   53.65    3.17
   4   7   3   52.76    3.30
   4   7   3   56.41    3.27
   4   7   3   53.20    3.23
   4   7   3   51.42    3.20
   4   7   3   53.76    3.22
   4   7   4    1.09    0.47
   4   7   4    1.40    0.61
   4   7   4    1.71    0.78
   4   7   4    0.97    0.53
   4   7   4    2.35    0.69
   4   7   4    1.66    0.57
   4   7   4    1.66    0.63
   4   7   5   90.84    4.14
   4   7   5   91.22    4.31
   4   7   5   92.32    3.84
   4   7   5   84.89    3.81
   4   7   5   93.42    3.95
   4   7   5   95.86    4.08
   4   7   6   -0.54    0.55
   4   7   6    0.30    0.51
   4   7   6    0.44    0.39
   4   7   7    2.12    0.60
   4   7   7    2.93    0.64
  -5   5   1    7.08    0.90
  -5   5   1    6.61    0.85
  -5   5   1    8.38    1.10
  -5   5   1    7.23    0.90
  -5   5   1    8.13    1.04
  -5   5   0   -0.50    0.40
  -5   5   0    0.32    0.42
  -5   5   0    0.90    0.61
  -5   5   0   -0.05    0.40
  -5   5   0   -0.27    0.43
  -5   5   0   -0.14    0.42
  -5   5  -1  172.92    5.51
  -5   5  -1  174.41    5.87
  -5   5  -1  158.86    5.67
  -5   5  -1  155.69    5.46
  -5   5  -1  172.76    5.42
  -5   5  -1  158.79    5.44
  -5   5  -2   87.43    3.66
  -5   5  -2   84.01    3.85
  -5   5  -2   81.93    3.83
  -5   5  -2   79.40    3.65
  -5   5  -2   86.36    3.55
  -5   5  -2   76.57    3.55
  -5   5  -3    0.40    0.43
  -5   5  -3   -0.18    0.40
  -5   5  -3    1.12    0.55
  -5   5  -3    0.60    0.49
  -5   5  -3    1.04    0.59
  -5   5  -3    0.21    0.41
  -5   5  -4   41.81    2.32
  -5   5  -4   38.67    2.43
  -5   5  -4   40.62    2.58
  -5   5  -4   43.51    2.34
  -5   5  -4   38.26    2.40
  -5   5  -4   33.67    2.14
  -5   5  -4   37.80    2.45
  -5   5  -5    0.05    0.33
  -5   5  -5   -0.86    0.52
  -5   5  -5    0.55    0.47
  -5   5  -5    0.19    0.41
  -5   5  -5   -0.12    0.38
  -5   5  -5    0.32    0.30
  -5   4   4    0.75    0.50
  -5   4   4    1.17    0.60
  -5   4   4    0.58    0.44
  -5   4   3   12.42    1.47
  -5   4   3   15.07    1.53
  -5   4   3    9.45    1.03
  -5   4   3   14.76    1.51
  -5   4   2   39.66    2.42
  -5   4   2   45.14    2.95
  -5   4   2   43.57    2.70
  -5   4   2   48.59    3.02
  -5   4   2   46.09    2.52
  -5   4   2   49.48    3.01
  -5   4   1   59.52    3.24
  -5   4   1   56.47    3.42
  -5   4   1   61.50    3.54
  -5   4   1   59.38    3.51
  -5   4   1   57.53    3.27
  -5   4   1   56.85    3.04
  -5   4   1   53.20    2.85
  -5   4   1   58.21    3.49
  -5   4   0  158.67    6.20
  -5   4   0  162.93    6.07
  -5   4   0  169.19    6.56
  -5   4   0  172.90    6.66
  -5   4   0  174.22    6.33
  -5   4   0  171.36    5.99
  -5   4   0  148.46    5.29
  -5   4   0  166.98    6.46
  -5   4  -1   14.57    1.79
  -5   4  -1   14.49    1.57
  -5   4  -1   16.73    2.01
  -5   4  -1   15.82    1.79
  -5   4  -1   15.45    1.91
  -5   4  -1   14.08    1.66
  -5   4  -1   13.61    1.41
  -5   4  -1   15.45    1.83
  -5   4  -2   19.34    2.16
  -5   4  -2   13.95    1.59
  -5   4  -2   19.71    2.18
  -5   4  -2   19.20    2.19
  -5   4  -2   20.59    2.17
  -5   4  -2   20.81    2.08
  -5   4  -2   19.60    1.64
  -5   4  -2   20.07    2.12
  -5   4  -2   18.65    1.88
  -5   4  -2   18.57    2.32
  -5   4  -3    1.15    0.62
  -5   4  -3   -1.28    0.85
  -5   4  -3    0.56    0.65
  -5   4  -3   -0.03    0.70
  -5   4  -3   -0.66    0.99
  -5   4  -3    0.37    0.67
  -5   4  -3   -0.18    0.67
  -5   4  -3    0.18    0.56
  -5   4  -4    1.78    0.78
  -5   4  -4    0.85    0.71
  -5   4  -4    1.53    0.73
  -5   4  -4    1.75    0.92
  -5   4  -4    2.18    0.93
  -5   4  -4    2.08    1.02
  -5   4  -4    0.43    0.65
  -5   4  -4    0.67    0.55
  -5   4  -5   -0.36    0.63
  -5   4  -5    0.70    0.73
  -5   4  -5   -0.38    0.66
  -5   4  -5   -0.05    0.75
  -5   4  -5   -0.22    0.51
  -5   4  -5    1.11    0.54
  -5   4  -5   -0.26    0.63
  -5   4  -5    0.14    0.56
  -5   4  -6   17.94    1.66
  -5   4  -6   15.39    1.67
  -5   4  -6   21.38    2.21
  -5   4  -6   18.35    1.95
  -5   4  -6   18.95    1.65
  -5   4  -6   19.23    1.84
  -5   4  -6   19.78    1.80
  -5   4  -6   24.87    2.00
  -5   4  -7   12.60    1.50
  -5   4  -7   12.30    1.58
  -5   4  -7   10.24    1.36
  -5   4  -7   13.21    1.37
  -5   4  -8    0.47    0.42
  -5   4  -8    1.86    0.72
  -5   4  -8    0.13    0.45
  -5   4  -8    2.35    0.63
  -5   3   5    2.97    1.06
  -5   3   5   -0.80    0.64
  -5   3   5    1.49    0.99
  -5   3   5   -0.52    0.67
  -5   3   5    1.67    0.81
  -5   3   4   22.30    2.12
  -5   3   4   25.52    2.05
  -5   3   4   24.88    2.03
  -5   3   4   25.85    2.16
  -5   3   3   12.45    1.88
  -5   3   3   11.60    1.29
  -5   3   3   17.31    1.80
   5  -3  -3   14.43    1.46
  -5   3   3   17.30    1.79
  -5   3   3   15.48    1.73
  -5   3   3   16.16    1.90
  -5   3   3   13.20    1.72
  -5   3   2    7.52    1.25
  -5   3   2    6.80    1.36
  -5   3   2    7.51    1.32
   5  -3  -2    8.11    1.11
  -5   3   2    8.02    1.37
  -5   3   2    9.21    1.29
  -5   3   2    6.22    1.18
  -5   3   2    8.55    1.48
  -5   3   2    5.20    1.17
  -5   3   1  143.26    5.74
  -5   3   1  140.16    5.93
  -5   3   1  146.33    6.18
  -5   3   1  144.47    6.12
   5  -3  -1  124.48    5.06
  -5   3   1  141.45    5.71
  -5   3   1  142.33    5.48
  -5   3   1  137.43    5.65
  -5   3   1  140.85    6.06
  -5   3   0  342.84   10.18
  -5   3   0  358.93   10.37
  -5   3   0  337.74   10.75
  -5   3   0  346.00   10.73
  -5   3   0  351.50   10.32
  -5   3   0  329.42    9.74
  -5   3   0  325.14    9.80
  -5   3   0  321.23   10.53
  -5   3   0  312.40   10.20
  -5   3  -1   -0.18    0.60
  -5   3  -1    1.89    1.06
  -5   3  -1   -0.47    1.00
  -5   3  -1    0.36    0.61
  -5   3  -1    0.31    0.69
  -5   3  -1    1.32    0.81
  -5   3  -1    3.37    3.41
  -5   3  -1    2.05    1.03
  -5   3  -1    1.32    0.90
  -5   3  -2   -0.38    0.46
  -5   3  -2   -0.48    0.79
  -5   3  -2    0.08    0.82
  -5   3  -2   -0.44    3.50
  -5   3  -2   -0.07    0.49
  -5   3  -2   -0.75    1.01
  -5   3  -2   -1.02    0.89
  -5   3  -2    0.76    3.15
  -5   3  -2   -0.01    0.76
  -5   3  -2   -0.22    0.81
  -5   3  -2    0.71    0.64
  -5   3  -3    0.44    0.68
  -5   3  -3   -0.50    0.64
  -5   3  -3    1.42    0.96
  -5   3  -3   -4.00    5.85
  -5   3  -3   -0.54    0.65
  -5   3  -3    0.02    0.67
  -5   3  -3   -0.01    0.77
  -5   3  -3   -2.55    3.97
  -5   3  -3   -0.09    0.71
  -5   3  -3   -0.06    0.85
  -5   3  -3    0.49    0.56
  -5   3  -4    1.10    0.85
  -5   3  -4    0.36    0.83
  -5   3  -4   -2.76    3.82
  -5   3  -4   -0.82    0.74
  -5   3  -4   -1.15    0.89
  -5   3  -4   -0.28    0.83
  -5   3  -4   -2.28    3.40
  -5   3  -4   -0.48    0.99
  -5   3  -4   -0.07    0.56
  -5   3  -5    7.72    1.45
  -5   3  -5    9.79    1.65
  -5   3  -5    9.17    1.57
  -5   3  -5   10.52    1.53
  -5   3  -5    8.63    1.74
  -5   3  -5    8.05    2.72
  -5   3  -5   10.38    1.68
  -5   3  -5    9.88    1.52
  -5   3  -6    9.38    1.49
  -5   3  -6   12.57    1.79
  -5   3  -6   11.79    1.86
  -5   3  -6   11.27    1.40
  -5   3  -6   11.28    1.91
  -5   3  -6   11.96    1.78
  -5   3  -7   44.42    3.64
  -5   3  -7   48.88    3.46
  -5   3  -7   52.32    2.76
  -5   3  -7   52.71    3.37
  -5   3  -8   51.45    3.55
  -5   3  -8   43.69    3.12
  -5   3  -8   51.51    3.18
  -5   3  -9   34.68    2.67
  -5   3  -9   39.14    2.52
  -5   3 -10   26.43    2.04
  -5   3 -10   30.17    1.90
   5  -2  -7    0.07    0.33
  -5   2   7   -0.04    0.47
  -5   2   7    0.61    0.44
  -5   2   7    0.31    0.39
  -5   2   7   -0.18    0.39
  -5   2   6    5.58    1.11
   5  -2  -6    6.41    0.98
  -5   2   6    6.60    1.18
  -5   2   6    7.05    1.16
   5  -2  -5   50.19    3.03
  -5   2   5   59.76    3.41
  -5   2   5   55.64    3.21
  -5   2   4    7.56    1.49
   5  -2  -4   10.98    1.62
  -5   2   4   11.81    1.45
  -5   2   4   11.41    1.66
  -5   2   4   11.53    1.62
  -5   2   3   52.17    3.32
  -5   2   3   40.36    2.70
   5  -2  -3   49.20    3.25
  -5   2   3   42.88    3.11
  -5   2   3   49.53    2.90
  -5   2   3   54.79    3.57
  -5   2   3   53.44    3.58
  -5   2   2    8.32    1.38
  -5   2   2    8.27    1.56
  -5   2   2   11.06    4.95
  -5   2   2   10.87    1.52
  -5   2   2    9.28    1.46
  -5   2   2   11.26    1.65
  -5   2   2   10.69    1.64
  -5   2   1   -0.89    1.97
  -5   2   1    6.32    1.45
  -5   2   1    5.77    1.64
  -5   2   1    8.14    5.33
  -5   2   1    5.33    1.27
  -5   2   1    4.87    1.21
  -5   2   1    6.03    1.37
  -5   2   1    5.83    3.58
  -5   2   1    4.01    1.17
  -5   2   0   -0.18    0.58
  -5   2   0    1.10    1.09
  -5   2   0   -0.29    2.11
  -5   2   0    0.93    0.76
  -5   2   0    0.93    2.75
  -5   2   0    0.31    0.81
  -5   2   0   -0.75    2.80
  -5   2   0   -0.60    0.78
  -5   2   0   -0.01    0.73
  -5   2  -1    6.74    3.52
  -5   2  -1    5.28    1.28
  -5   2  -1    5.44    1.39
  -5   2  -1    2.91    2.74
  -5   2  -1    6.00    1.33
  -5   2  -1    3.49    0.84
  -5   2  -1    2.48    2.22
  -5   2  -1    6.04    1.44
  -5   2  -1    4.79    1.23
  -5   2  -2    9.66    4.93
  -5   2  -2   10.46    1.76
  -5   2  -2   12.81    1.96
  -5   2  -2   13.54    6.51
  -5   2  -2   12.29    1.83
  -5   2  -2   11.34    1.71
  -5   2  -2   15.51    5.73
  -5   2  -2   10.32    1.88
  -5   2  -2    9.77    1.62
  -5   2  -2   13.46    1.90
  -5   2  -3    2.68    1.87
  -5   2  -3    2.09    0.79
  -5   2  -3    1.58    0.83
  -5   2  -3    3.36    3.47
  -5   2  -3    2.46    0.85
  -5   2  -3    3.11    1.10
  -5   2  -3    1.85    0.67
  -5   2  -3   -1.32    3.24
  -5   2  -3    2.33    0.90
  -5   2  -4  161.72   18.52
  -5   2  -4  188.43    7.08
  -5   2  -4  180.07    7.46
  -5   2  -4  186.07    7.85
  -5   2  -4  151.46   18.57
  -5   2  -4  146.74   17.12
  -5   2  -4  170.41    7.00
  -5   2  -4  191.21    6.69
  -5   2  -4  169.65    7.00
  -5   2  -5   99.46   14.63
  -5   2  -5  120.89    5.37
  -5   2  -5  114.50    5.60
  -5   2  -5  101.28   14.77
  -5   2  -5  117.01    6.03
  -5   2  -5   83.46   12.35
  -5   2  -5   99.62    5.37
  -5   2  -5  124.59    5.08
  -5   2  -6    0.73    0.65
  -5   2  -6    0.66    0.75
  -5   2  -6    0.25    0.57
  -5   2  -6    0.66    0.69
  -5   2  -7    3.44    0.96
  -5   2  -7    3.94    1.07
  -5   2  -7    4.38    1.18
  -5   2  -7    5.09    1.00
  -5   2  -8   -0.14    0.66
  -5   2  -9    0.71    0.68
  -5   2 -10   34.33    2.62
  -5   2 -11   -0.16    0.46
  -5   1   7   19.67    1.64
   5  -1  -7   18.62    1.74
  -5   1   7   20.09    1.76
  -5   1   6    0.20    0.60
  -5   1   6    0.23    0.65
   5  -1  -6    1.60    0.76
  -5   1   6    0.20    0.72
  -5   1   6   -0.54    0.49
  -5   1   5  163.31    6.00
   5  -1  -5  151.39    6.28
  -5   1   5  157.80    6.37
  -5   1   5  171.16    5.99
  -5   1   4    3.10    1.07
   5  -1  -4    2.61    1.07
  -5   1   4    1.34    0.94
  -5   1   4    2.55    0.81
  -5   1   3    2.10    0.68
  -5   1   3    0.17    0.51
  -5   1   3    2.37    0.80
   5  -1  -3    2.22    1.00
  -5   1   3    2.45    1.05
  -5   1   3    1.21    0.86
  -5   1   2    4.62    3.94
  -5   1   2   16.54    1.84
  -5   1   2   12.57    1.99
  -5   1   2    8.75    4.93
  -5   1   2   13.95    1.75
  -5   1   2   12.47    1.91
  -5   1   2    9.68    3.88
  -5   1   2   12.83    1.80
  -5   1   1   48.98    3.11
  -5   1   1   38.43    3.45
  -5   1   1   28.96    8.53
  -5   1   1   41.88    3.04
  -5   1   1   43.84    3.35
  -5   1   1   47.02    3.33
  -5   1   1   34.68    8.07
  -5   1   0    1.45    1.11
  -5   1   0    2.09    2.63
  -5   1   0    1.04    0.69
  -5   1   0    1.14    0.70
  -5   1   0    2.17    2.52
  -5   1   0    1.36    0.62
  -5   1   0    2.64    0.90
  -5   1   0    1.40    0.61
  -5   1  -1  148.20    5.51
  -5   1  -1  146.64    6.53
  -5   1  -1  146.37    6.21
  -5   1  -1  139.65   16.86
  -5   1  -1  136.56    5.73
  -5   1  -1  144.39    6.33
  -5   1  -1  146.13    6.12
  -5   1  -1  151.21   17.16
  -5   1  -2    0.13    0.78
  -5   1  -2    1.32    3.21
  -5   1  -2   -0.38    3.51
  -5   1  -2    1.99    0.68
  -5   1  -2    0.73    0.69
  -5   1  -2   -0.20    0.57
  -5   1  -2    0.49    0.56
  -5   1  -3    6.45    1.53
  -5   1  -3    7.30    4.49
  -5   1  -3    5.68    3.84
  -5   1  -3    5.51    1.17
  -5   1  -3    5.61    1.26
  -5   1  -3    5.72    1.22
  -5   1  -4   27.24    2.70
  -5   1  -4   24.45    6.69
  -5   1  -4   27.56    2.33
  -5   1  -4   27.06    7.39
  -5   1  -5   85.65    4.67
  -5   1  -5   72.22   11.95
  -5   1  -5   87.14    4.12
  -5   1  -5   79.80   12.32
  -5   1  -6   17.24    1.97
  -5   1  -6   11.47    4.04
  -5   1  -6   15.62    1.72
  -5   1  -6   11.50    1.67
  -5   1  -6   12.20    4.69
  -5   1  -6    6.63    4.79
  -5   1  -7   15.50    1.88
  -5   1  -7   19.34    2.09
  -5   1  -7   19.76    2.29
  -5   1  -7   25.75    2.08
   5  -1   7   23.33    2.12
  -5   1  -8   47.75    3.65
   5  -1   8   62.00    3.46
  -5   1  -9   -0.16    0.52
   5  -1   9    3.07    0.78
  -5   1 -10   19.88    2.12
   5  -1  10   26.54    2.09
  -5   1 -11    6.85    1.10
   5  -1  11    8.38    1.01
  -5   0   8   40.10    2.29
   5   0  -8   36.84    2.26
  -5   0   8   38.39    2.09
  -5   0   7    1.86    0.79
   5   0  -7    0.87    0.59
  -5   0   7    1.44    0.80
  -5   0   6   11.09    1.51
   5   0  -6    9.50    1.62
  -5   0   6   10.78    1.55
  -5   0   5   65.63    3.82
   5   0  -5   59.74    3.91
  -5   0   5   64.46    3.84
  -5   0   4   22.49    2.31
   5   0  -4   17.85    7.43
   5   0  -4   20.94    2.38
  -5   0   4   22.76    2.30
   5   0  -3    3.39    3.46
  -5   0   3    0.51    0.73
  -5   0   3   -1.00    0.85
  -5   0   3    1.55    2.54
  -5   0   3    0.54    0.78
  -5   0   2   13.31    4.21
   5   0  -2    5.03    2.30
  -5   0   2   17.96    1.92
  -5   0   2    9.71    1.83
  -5   0   2   15.30    6.52
  -5   0   2   12.81    1.65
  -5   0   2   15.15    1.78
  -5   0   2   15.45    1.74
  -5   0   1   57.44    3.47
   5   0  -1   38.02    8.15
  -5   0   1   46.64    3.74
  -5   0   1   40.75    9.46
  -5   0   1   48.80    3.24
  -5   0   1   51.03    3.35
  -5   0   1   47.85    9.25
  -5   0   0    0.52    0.65
  -5   0   0    1.04    1.00
  -5   0   0   -2.15    2.25
  -5   0   0    0.13    0.57
  -5   0   0    0.20    0.50
  -5   0   0    1.41    3.26
  -5   0  -1    8.10    1.46
  -5   0  -1    6.49    1.43
  -5   0  -1   10.63    5.80
  -5   0  -1    8.78    4.68
  -5   0  -1    7.25    1.22
  -5   0  -1    6.41    1.16
  -5   0  -2    5.48    1.37
  -5   0  -2    5.70    1.14
  -5   0  -3   31.82    2.95
  -5   0  -3   32.76    8.23
  -5   0  -3   45.27    9.39
  -5   0  -3   32.72    2.56
  -5   0  -4    0.19    0.82
  -5   0  -4   -1.80    3.04
   5   0   4    0.31    0.54
  -5   0  -4   -0.12    2.10
  -5   0  -5    2.06    2.33
  -5   0  -5   -0.52    0.76
  -5   0  -5    1.87    3.42
  -5   0  -5   -0.32    0.62
   5   0   5    0.84    0.71
   5   0   6   33.76    7.67
  -5   0  -6   39.87    8.21
  -5   0  -6   35.12    2.91
  -5   0  -6   31.85    7.78
  -5   0  -6   38.91    2.71
   5   0   6   40.03    3.02
  -5   0  -7    0.70    0.56
  -5   0  -7    1.30    0.64
   5   0   7    1.25    0.90
   5   0   7   -0.05    1.76
   5   0   8    3.14    1.10
   5   0   8   -0.39    2.14
   5   0   9    1.59    0.87
   5   0  10    1.74    0.78
   5   0  11   10.85    1.39
   5   0  12    1.29    0.63
  -5   0 -12    1.10    0.38
   5   0  12   -0.09    0.44
  -5  -1   8    3.12    0.79
   5   1  -8    5.00    1.00
   5   1  -7    0.61    0.52
  -5  -1   7    0.69    0.75
   5   1  -7    1.69    0.84
  -5  -1   7    0.03    0.49
   5   1  -6    1.97    0.85
  -5  -1   6    1.12    0.96
   5   1  -6    2.50    1.10
  -5  -1   6    0.49    0.78
   5   1  -5    1.89    3.94
  -5  -1   5    1.62    1.21
   5   1  -5    1.89    1.08
  -5  -1   4   40.56    3.08
   5   1  -4   40.89    9.83
   5   1  -4   39.62    3.13
  -5  -1   4   40.85    2.87
   5   1  -3    0.81    1.94
   5   1  -3    1.96    3.76
  -5  -1   3    2.34    0.87
  -5  -1   3    3.20    3.65
  -5  -1   3    4.75    1.16
  -5  -1   3    5.82    1.29
   5   1  -2   57.84   10.05
  -5  -1   2   67.83    3.90
   5   1  -2   57.45   10.25
  -5  -1   2   44.38    8.73
  -5  -1   2   64.68    3.62
   5   1  -1    0.00    0.36
   5   1  -1    1.93    2.95
   5   1  -1    1.36    1.86
  -5  -1   1    0.15    0.99
  -5  -1   1    2.31    2.57
   5   1   0   79.42   12.20
   5   1   0   82.59    3.97
  -5  -1   0   80.15    4.19
  -5  -1   0   78.93   12.42
  -5  -1   0   83.36    3.90
   5   1   1   42.59    9.42
   5   1   1   45.78    2.89
  -5  -1  -1   53.67    9.95
  -5  -1  -1   48.50    2.86
   5   1   2   35.08    8.17
   5   1   2   44.41    2.88
  -5  -1  -2   39.35    8.78
  -5  -1  -2   42.50    2.68
   5   1   3    0.87    2.23
   5   1   3    2.02    0.94
  -5  -1  -3    2.11    0.67
   5   1   4    8.91    4.40
  -5  -1  -4    6.68    4.55
   5   1   4   17.18    1.95
   5   1   5    4.64    4.21
  -5  -1  -5    7.90    3.75
   5   1   5    3.61    0.90
   5   1   6   25.65    5.83
   5   1   6   35.09    7.68
  -5  -1  -6   34.50    7.43
   5   1   6   34.89    2.83
   5   1   7    3.29    3.73
  -5  -1  -7    1.36    2.91
  -5  -1  -7    2.63    0.77
   5   1   7   -2.69    3.39
   5   1   7    5.01    1.30
   5   1   8   41.28    9.20
  -5  -1  -8   45.63    9.61
   5   1   8   65.61    4.03
   5   1   9    9.10    1.44
   5   1   9   13.24    1.82
   5   1  10   -0.38    0.43
   5   1  10   -0.26    0.62
   5   1  10   -0.88    0.81
   5   1  11    0.86    0.82
   5   1  11    0.33    0.57
   5   1  11    0.68    0.57
   5   1  12    1.10    0.69
   5   1  12    0.01    0.40
   5   1  12    0.75    0.59
   5   2  -8   16.99    1.35
  -5  -2   8   17.77    1.60
   5   2  -8   19.01    1.60
   5   2  -7    5.12    0.97
  -5  -2   7    5.19    1.23
   5   2  -7    6.22    1.17
   5   2  -6   37.39    2.67
  -5  -2   6   34.24    2.72
   5   2  -6   37.12    2.79
  -5  -2   6   34.34    2.21
   5   2  -6   40.29    2.53
  -5  -2   5  116.54    5.54
   5   2  -5  124.59    5.58
   5   2  -5  127.22    5.21
  -5  -2   4   43.52    3.22
   5   2  -4   40.46    9.42
   5   2  -4   49.64    3.42
  -5  -2   4   48.46    2.89
   5   2  -3    0.29    0.44
   5   2  -3   -0.23    3.45
  -5  -2   3    1.76    1.00
   5   2  -3    0.78    0.46
   5   2  -3    5.24    4.64
   5   2  -3    2.04    0.93
  -5  -2   3    2.86    0.85
   5   2  -2   13.51    1.94
  -5  -2   2   14.76    5.85
   5   2  -2   15.72    5.90
   5   2  -2   12.17    1.90
  -5  -2   2   17.31    2.03
   5   2  -2   17.96    5.28
   5   2  -2    7.83    4.33
  -5  -2   2   21.46    1.85
   5   2  -1   12.99    1.66
   5   2  -1    9.66    4.39
  -5  -2   1   12.97    1.71
   5   2  -1   11.94    3.87
   5   2  -1   13.59    5.55
   5   2   0    5.21    1.15
   5   2   0    6.15    1.25
   5   2   0    8.77    1.33
   5   2   0    3.42    3.59
  -5  -2   0    7.46    1.39
   5   2   1    0.25    0.46
   5   2   1    1.16    0.51
   5   2   1    0.16    2.49
   5   2   2   16.28    1.83
   5   2   2    8.64    4.18
  -5  -2  -3    7.56    3.38
   5   2   3    3.81    2.20
   5   2   3    7.70    1.47
  -5  -2  -4   23.25    5.84
   5   2   4   25.38    6.58
   5   2   4   24.75    2.33
   5   2   5  122.31   14.35
   5   2   5  110.22    5.55
   5   2   5   83.73   13.54
  -5  -2  -5  107.78   14.24
   5   2   5  107.85    5.22
  -5  -2  -5  104.49   13.01
  -5  -2  -6   -0.88    2.22
   5   2   6    3.75    1.32
  -5  -2  -6   -0.13    2.63
   5   2   6    2.03    0.87
   5   2   6    7.02    3.63
   5   2   6    5.55    1.29
   5   2   6    2.00    1.10
   5   2   6    2.01    1.76
   5   2   6    4.04    1.30
   5   2   7   15.84    2.43
  -5  -2  -7    8.88    5.09
   5   2   7   13.49    4.93
   5   2   7    7.91    1.47
   5   2   7   14.69    1.87
   5   2   7    6.66    1.34
   5   2   7   14.14    1.87
   5   2   8    2.84    1.13
   5   2   8    4.10    1.44
   5   2   8    4.43    1.20
   5   2   8    4.32    1.31
   5   2   9    2.85    1.04
   5   2   9    4.64    1.45
   5   2   9    3.99    1.21
   5   2   9    5.30    1.21
   5   2  10    0.12    0.39
   5   2  10   -0.03    0.74
   5   2  10   -1.16    0.82
   5   2  10   -0.68    0.86
   5   2  11   12.41    1.78
   5   2  11   12.08    1.50
   5   2  11   10.55    1.49
   5   2  12   -0.24    0.48
   5   2  12   -0.26    0.41
   5   2  12    0.27    0.45
   5   3  -8    0.57    0.34
  -5  -3   8    0.23    0.41
   5   3  -7    7.24    1.15
  -5  -3   7    7.07    1.07
   5   3  -7    7.29    1.01
   5   3  -6   24.46    2.11
  -5  -3   6   22.92    2.15
   5   3  -6   23.11    1.96
   5   3  -6   24.60    2.09
  -5  -3   5    3.85    1.11
   5   3  -5    4.42    1.03
   5   3  -5    4.52    1.06
  -5  -3   4    1.96    0.80
   5   3  -4    1.24    0.67
   5   3  -3    0.67    0.53
  -5  -3   3    1.70    0.88
   5   3  -3    1.01    0.60
   5   3  -3    3.25    0.82
   5   3  -3    1.18    0.59
   5   3  -2   13.26    1.92
  -5  -3   2   21.75    2.19
   5   3  -2   12.88    1.94
   5   3  -2   19.19    6.28
   5   3  -2    8.66    4.44
   5   3  -2    9.56    4.52
   5   3  -1  100.60   13.03
   5   3  -1  106.43    5.42
   5   3  -1  105.16    4.98
   5   3  -1   94.61    5.09
  -5  -3   1  100.69    4.83
   5   3  -1   94.92   12.45
   5   3  -1   92.94    5.19
   5   3  -1   80.20   12.66
   5   3   0   31.69    2.74
   5   3   0   30.28    2.53
   5   3   0   25.14    2.62
  -5  -3   0   28.21    2.47
   5   3   0   29.24    7.28
   5   3   0   27.22    2.81
   5   3   0   26.19    7.71
   5   3   0   29.25    2.58
  -5  -3   0   22.01    6.43
   5   3   1  124.01   14.98
   5   3   1  127.81    5.63
   5   3   1  114.77    5.20
   5   3   1  112.63    5.61
   5   3   1  110.21    6.06
   5   3   1  103.71   15.22
  -5  -3  -1  129.86   14.85
   5   3   1  109.77    5.38
   5   3   2   62.32   10.45
   5   3   2   60.27    3.77
   5   3   2   57.31    3.58
   5   3   2   57.63    3.81
   5   3   2   57.23    4.12
   5   3   2   44.77   10.04
  -5  -3  -2   57.56    9.80
   5   3   2   57.62    3.88
  -5  -3  -3   32.33    7.21
   5   3   3   32.77    2.70
   5   3   3   30.96    2.87
   5   3   3   36.99    8.50
   5   3   3   29.12    3.09
   5   3   3   20.83    7.51
   5   3   3   28.04    2.72
  -5  -3  -4   41.93    8.97
   5   3   4   41.60    3.14
   5   3   4   46.06    3.06
   5   3   4   45.24    3.31
   5   3   4   40.49    3.18
   5   3   4   45.87    9.17
   5   3   4   42.36    3.46
   5   3   4   37.22    9.05
   5   3   4   40.29    3.02
   5   3   4   43.19    3.39
   5   3   5   76.10    4.52
   5   3   5   83.55   12.01
   5   3   5   79.22    4.39
   5   3   5   68.29    4.23
   5   3   5   65.39    4.44
   5   3   5   76.64    4.39
  -5  -3  -5   83.18   12.63
   5   3   5   80.35    4.75
   5   3   6   10.38    1.81
  -5  -3  -6    5.71    4.27
   5   3   6   10.17    1.86
   5   3   6    6.73    1.40
   5   3   6   10.45    1.73
   5   3   6    6.90    1.45
   5   3   6    5.09    3.79
   5   3   6    4.88    2.23
   5   3   6   12.03    1.89
   5   3   7    4.44    1.36
  -5  -3  -7    3.21    1.82
   5   3   7    6.92    1.66
   5   3   7    3.12    1.00
   5   3   7    6.94    1.46
   5   3   7    2.73    0.95
   5   3   7    6.12    1.25
   5   3   7    3.80    1.03
   5   3   8    4.77    1.32
   5   3   8    4.66    1.46
  -5  -3  -8    6.55    2.26
   5   3   8    5.54    1.28
   5   3   8    4.78    1.20
   5   3   9   72.22    4.75
   5   3   9   72.03    4.31
   5   3   9   68.14    4.13
   5   3  10   13.00    1.99
   5   3  10   14.63    1.82
   5   3  10   14.97    1.82
   5   3  10    8.84    1.16
   5   3  11   13.82    1.65
   5   3  11   14.46    1.62
   5   3  11   13.95    1.46
   5   4  -7    0.92    0.58
  -5  -4   7   -0.09    0.53
   5   4  -7    0.33    0.35
   5   4  -7   -0.64    0.41
   5   4  -6    2.61    0.83
  -5  -4   6    1.72    0.70
   5   4  -6    0.52    0.44
   5   4  -6    1.99    0.66
   5   4  -5  177.76    6.33
  -5  -4   5  174.44    5.99
   5   4  -5  182.99    6.56
  -5  -4   4   46.64    3.02
   5   4  -4   49.00    3.29
   5   4  -3    3.11    0.78
   5   4  -3    1.58    0.73
  -5  -4   3    2.97    1.16
   5   4  -3    1.44    0.62
   5   4  -3    1.76    0.70
   5   4  -2   13.77    1.76
   5   4  -2   15.71    2.18
   5   4  -2   12.30    1.73
  -5  -4   2   17.15    1.88
   5   4  -2   10.24    1.72
   5   4  -2    7.23    4.29
   5   4  -2   11.05    4.15
   5   4  -2   12.78    1.79
   5   4  -1   98.42   14.25
   5   4  -1  141.11    6.49
   5   4  -1  142.99   16.10
   5   4  -1  133.47    6.03
   5   4  -1  138.01    5.91
  -5  -4   1  134.55    5.53
   5   4  -1  101.78   14.71
   5   4  -1  122.47    6.02
  -5  -4   1  143.54   17.27
   5   4  -1  142.53    6.25
   5   4  -1  128.52    5.45
   5   4   0    9.46    1.71
   5   4   0   -0.28    1.58
   5   4   0    6.71    1.22
   5   4   0    5.30    1.30
   5   4   0    7.92    1.63
  -5  -4   0    5.87    1.11
   5   4   0   12.01    4.88
   5   4   0    6.13    4.73
  -5  -4   0    4.63    2.80
   5   4   0    5.97    1.16
   5   4   0    6.90    1.43
   5   4   1   17.07    2.16
   5   4   1    8.51    4.18
   5   4   1   15.39    1.92
   5   4   1   16.91    1.93
   5   4   1   17.09    2.18
  -5  -4  -1   15.90    1.86
   5   4   1   15.57    5.26
   5   4   1    7.32    4.88
   5   4   1   16.68    2.15
   5   4   1   13.49    2.04
  -5  -4  -1   15.07    5.93
   5   4   2    2.35    0.94
   5   4   2    2.66    1.04
   5   4   2    2.79    1.06
   5   4   2    3.10    2.57
   5   4   2    3.28    1.07
   5   4   2    1.87    0.81
   5   4   2    2.05    1.07
   5   4   2    2.43    3.40
   5   4   2    8.83    5.18
  -5  -4  -2    2.73    2.85
  -5  -4  -3   26.71    7.29
   5   4   3   27.87    2.61
   5   4   3   16.58    6.39
   5   4   3   25.74    2.61
   5   4   3   22.78    2.70
   5   4   3   24.27    6.76
   5   4   3   26.10    7.82
   5   4   3   23.02    2.55
   5   4   3   25.72    2.71
   5   4   4   88.16    4.62
   5   4   4   64.61   11.95
   5   4   4  103.46    5.11
   5   4   4   96.40   13.64
   5   4   4   96.82    4.96
   5   4   4   78.14    4.71
   5   4   4   90.96    5.04
   5   4   4   76.32   13.61
  -5  -4  -4   86.35   13.49
   5   4   4   92.42    5.01
   5   4   4   64.76    4.39
   5   4   5  149.86    6.63
   5   4   5  108.49   15.08
   5   4   5  166.75    6.65
   5   4   5  146.96   16.52
   5   4   5  166.07    6.54
   5   4   5  154.53    6.62
   5   4   5  152.16    6.62
   5   4   5  114.10   16.08
  -5  -4  -5  145.10   18.66
   5   4   5  154.74    6.55
   5   4   5  169.24    7.25
   5   4   6    9.09    1.79
  -5  -4  -6   17.66    6.73
   5   4   6    7.52    1.57
   5   4   6   -0.24    1.77
   5   4   6   10.75    1.49
   5   4   6    7.12    1.41
   5   4   6    6.55    1.37
   5   4   6   -0.08    3.87
   5   4   6    9.94    1.56
   5   4   6    7.51    1.31
   5   4   6    9.78    1.79
   5   4   7    0.18    0.60
   5   4   7    0.12    0.77
   5   4   7    0.71    0.86
   5   4   7   -0.15    0.37
   5   4   7    0.27    0.61
   5   4   7    0.85    1.11
   5   4   7   -0.01    0.42
   5   4   8    1.46    0.97
   5   4   8    1.13    0.78
   5   4   8    0.67    0.75
   5   4   8    1.72    0.95
   5   4   9   -0.17    0.74
   5   4   9    2.54    1.22
   5   4   9    0.64    0.85
   5   4   9    1.19    0.73
   5   4  10    3.18    0.96
   5   4  10    3.58    0.90
   5   4  10    2.58    0.69
   5   4  11   10.88    1.28
   5   4  11   10.79    1.23
   5   5  -6   17.97    1.47
   5   5  -6   14.33    1.43
   5   5  -6   14.80    1.37
   5   5  -6   16.75    1.50
   5   5  -5    9.75    1.26
   5   5  -5    8.63    1.27
   5   5  -5    8.69    1.27
   5   5  -5   11.78    1.43
   5   5  -4    1.83    0.57
   5   5  -4    3.35    0.79
   5   5  -4    2.60    0.93
   5   5  -4    3.09    0.92
   5   5  -3   45.32    2.89
   5   5  -3   38.19    2.67
   5   5  -3   35.50    2.54
   5   5  -3   35.95    2.68
   5   5  -3   41.32    3.21
   5   5  -3   47.20    3.14
   5   5  -2   16.72    1.88
   5   5  -2   15.08    2.10
   5   5  -2   13.02    1.73
  -5  -5   2   14.94    1.54
   5   5  -2   13.37    1.71
   5   5  -2   13.84    1.79
   5   5  -1    0.37    0.58
   5   5  -1   -3.00    2.73
   5   5  -1    0.01    0.63
   5   5  -1    0.12    0.46
  -5  -5   1    1.05    0.83
   5   5  -1    0.18    0.62
   5   5  -1    0.49    2.25
  -5  -5   1   -3.16    2.97
   5   5  -1    1.02    0.76
   5   5  -1   -0.57    0.47
   5   5   0  184.89    7.14
   5   5   0  157.76   18.55
   5   5   0  179.86    7.53
   5   5   0  184.38    7.24
   5   5   0  177.09    6.79
  -5  -5   0  173.07    6.09
   5   5   0  181.45    7.39
   5   5   0  167.80   19.13
  -5  -5   0  158.81   19.44
   5   5   0  191.27    7.41
   5   5   0  185.14    6.92
   5   5   1   30.72    2.78
   5   5   1   33.03    2.99
   5   5   1   27.25    8.20
   5   5   1   26.22    2.63
   5   5   1   30.27    2.56
  -5  -5  -1   27.72    2.22
   5   5   1   31.23    2.94
   5   5   1   24.13    7.46
   5   5   1   32.05    2.91
   5   5   1   29.97    2.78
  -5  -5  -1   22.77    7.71
   5   5   2   26.35    2.62
   5   5   2   21.21    6.62
   5   5   2   23.35    2.54
   5   5   2   20.25    2.07
  -5  -5  -2   21.21    2.00
   5   5   2   20.98    2.54
   5   5   2   19.43    6.12
   5   5   2   22.71    2.52
   5   5   2   21.26    2.45
  -5  -5  -2   18.13    7.26
  -5  -5  -3   -0.05    3.61
   5   5   3    1.86    0.81
   5   5   3   -1.00    1.66
   5   5   3    1.02    0.82
   5   5   3    1.77    0.67
   5   5   3    1.13    0.97
   5   5   3    0.32    0.55
   5   5   3   -0.12    2.40
   5   5   3    2.05    0.86
   5   5   3    1.19    0.60
   5   5   4   80.05    4.39
   5   5   4   66.53   12.18
   5   5   4   84.90    4.84
   5   5   4   83.82    4.65
   5   5   4   73.80    4.22
   5   5   4   85.47    4.77
   5   5   4   58.97   11.64
  -5  -5  -4   72.24   12.95
   5   5   4   85.06    4.71
   5   5   4   82.10    4.79
  -5  -5  -5    6.64    4.07
   5   5   5    4.54    1.29
   5   5   5   -0.14    3.27
   5   5   5    3.68    1.13
   5   5   5    4.77    1.11
   5   5   5    3.91    1.14
   5   5   5    3.91    2.93
   5   5   5    3.35    1.13
   5   5   5    4.48    1.28
   5   5   6    5.48    1.37
   5   5   6    5.34    1.13
   5   5   6    5.38    1.14
   5   5   6    6.24    1.59
   5   5   6    5.12    1.09
   5   5   6    4.00    1.06
   5   5   6    3.50    1.19
   5   5   7   14.80    1.66
   5   5   7   23.75    2.31
   5   5   7   24.46    2.17
   5   5   7   17.53    1.64
   5   5   7   21.05    2.36
   5   5   7   16.83    1.76
   5   5   7   23.04    2.37
   5   5   8   54.89    3.42
   5   5   8   50.90    3.43
   5   5   8   46.95    2.99
   5   5   9  174.89    6.24
   5   5   9  182.84    6.32
   5   5  10   62.17    3.06
   5   5  10   67.53    3.16
   5   6  -4   11.62    1.19
   5   6  -4   10.72    1.05
   5   6  -4   10.31    1.25
   5   6  -4   12.28    1.31
   5   6  -3    5.07    0.91
   5   6  -3    3.64    0.71
   5   6  -3    5.73    0.89
   5   6  -3    6.04    1.07
   5   6  -3    4.45    0.79
   5   6  -3    6.23    1.06
   5   6  -2   31.04    2.37
   5   6  -2   28.92    2.56
   5   6  -2   28.08    2.24
   5   6  -2   29.46    1.92
   5   6  -2   26.93    2.13
   5   6  -2   28.31    2.24
   5   6  -2   31.00    2.47
   5   6  -2   30.01    2.27
   5   6  -1   79.59    4.18
   5   6  -1   79.03    4.07
   5   6  -1   82.51    4.48
   5   6  -1   83.59    4.14
   5   6  -1   79.36    4.05
   5   6  -1   79.59    4.16
   5   6  -1   81.83    3.73
   5   6  -1   78.26    3.87
   5   6   0  119.71    5.31
   5   6   0  117.53    5.58
   5   6   0  125.87    5.39
   5   6   0  114.77    5.27
   5   6   0  126.72    5.42
   5   6   0  116.49    5.11
   5   6   0  118.86    5.03
   5   6   1   19.18    2.05
   5   6   1   18.47    2.18
   5   6   1   18.96    2.09
   5   6   1   16.68    1.69
   5   6   1   18.59    2.07
   5   6   1   19.51    1.87
   5   6   1   20.80    2.18
   5   6   1   20.66    2.13
   5   6   2    9.53    1.46
   5   6   2    9.46    1.51
   5   6   2    8.58    1.20
   5   6   2   10.10    1.55
   5   6   2    9.35    1.43
   5   6   2    7.03    1.12
   5   6   2    8.33    1.43
   5   6   2    9.42    1.47
   5   6   3    1.33    0.75
   5   6   3    0.34    0.51
   5   6   3    0.86    0.72
   5   6   3    0.81    0.43
   5   6   3    0.88    0.77
   5   6   3    0.34    0.44
   5   6   3   -0.35    0.64
   5   6   3   -0.09    0.50
   5   6   4    0.90    0.66
   5   6   4    0.62    0.52
   5   6   4    0.83    0.71
   5   6   4    1.21    0.51
   5   6   4    0.93    0.74
   5   6   4    0.90    0.69
   5   6   4    0.37    0.59
   5   6   4    0.98    0.57
   5   6   5   18.50    1.75
   5   6   5   20.18    1.95
   5   6   5   19.31    1.97
   5   6   5   18.54    1.94
   5   6   5   17.27    1.61
   5   6   5   16.32    1.89
   5   6   5   20.00    2.04
   5   6   5   19.51    2.06
   5   6   6    1.96    0.63
   5   6   6    2.61    0.72
   5   6   6    3.40    0.82
   5   6   6    1.63    0.53
   5   6   6    2.23    0.63
   5   6   6    2.58    0.67
   5   6   6    3.00    0.72
   5   6   6    3.33    0.95
   5   6   7   16.70    1.67
   5   6   7   15.57    1.51
   5   6   7   13.29    1.33
   5   6   7   19.02    1.74
   5   6   8    0.50    0.44
   5   6   8   -0.43    0.31
   5   6   8    0.13    0.25
   5   7  -2    0.05    0.40
   5   7  -2    0.94    0.36
   5   7  -2    0.02    0.36
   5   7  -2    0.00    0.32
   5   7  -1    5.36    0.90
   5   7  -1    6.41    0.98
   5   7  -1    4.54    0.82
   5   7  -1    5.13    0.89
   5   7  -1    4.61    0.78
   5   7  -1    4.45    0.81
   5   7   0   14.24    1.44
   5   7   0   12.11    1.46
   5   7   0   11.71    1.35
   5   7   0   13.68    1.43
   5   7   0   11.83    1.37
   5   7   0   11.06    1.20
   5   7   0   12.08    1.22
   5   7   1   30.92    2.19
   5   7   1   30.20    2.32
   5   7   1   30.37    2.18
   5   7   1   30.56    2.21
   5   7   1   29.34    2.15
   5   7   1   30.09    2.10
   5   7   2   18.99    1.71
   5   7   2   17.99    1.77
   5   7   2   20.53    1.82
   5   7   2   16.16    1.61
   5   7   2   20.02    1.81
   5   7   2   17.83    1.66
   5   7   3    5.12    0.91
   5   7   3    6.95    1.13
   5   7   3    7.12    1.06
   5   7   3    5.07    0.93
   5   7   3    6.19    0.99
   5   7   3    5.65    0.95
   5   7   4   10.79    1.17
   5   7   4   11.04    1.18
   5   7   4   11.33    1.22
   5   7   4   11.78    1.35
   5   7   4   10.71    1.25
   5   7   4   10.40    1.23
   5   7   4   12.04    1.31
   5   7   5    0.39    0.36
   5   7   5    1.08    0.48
   5   7   5    0.59    0.31
   5   7   5   -0.52    0.43
   5   7   5    0.26    0.41
  -6   4   0   61.33    2.71
  -6   4   0   63.92    2.82
  -6   4   0   70.11    2.82
  -6   4   0   66.99    3.04
  -6   4  -1   12.05    1.22
  -6   4  -1    9.56    1.16
  -6   4  -1   11.98    1.23
  -6   4  -1   14.62    1.32
  -6   4  -1   11.72    1.27
  -6   4  -2   14.25    1.39
  -6   4  -2   14.17    1.50
  -6   4  -2   13.60    1.36
  -6   4  -2   15.24    1.41
  -6   4  -2   12.65    1.38
  -6   4  -3   -0.70    0.51
  -6   4  -3   -0.09    0.48
  -6   4  -3   -0.20    0.46
  -6   4  -3    1.24    0.53
  -6   4  -3    0.58    0.56
  -6   4  -4   -0.09    0.41
  -6   4  -4    0.12    0.47
  -6   4  -4    0.00    0.43
  -6   4  -4    0.10    0.40
  -6   4  -4    0.16    0.49
  -6   4  -5    2.61    0.60
  -6   4  -5    2.26    0.68
  -6   4  -5    2.82    0.69
  -6   4  -5    2.11    0.68
  -6   4  -5    1.91    0.57
  -6   3   3   14.31    1.41
  -6   3   3   18.26    1.35
  -6   3   3   16.49    1.42
  -6   3   2    1.13    0.55
  -6   3   2    0.66    0.39
  -6   3   2    1.56    0.51
  -6   3   2    1.69    0.59
  -6   3   2    3.22    0.86
  -6   3   2    2.18    0.73
  -6   3   1   17.05    1.53
  -6   3   1   20.17    1.79
  -6   3   1   17.22    1.78
  -6   3   1   20.27    1.70
  -6   3   1   19.29    1.63
  -6   3   1   19.73    1.77
  -6   3   1   18.48    1.79
  -6   3   0   15.62    1.64
  -6   3   0   15.28    1.60
  -6   3   0   15.58    1.76
  -6   3   0   16.03    1.66
  -6   3   0   15.43    1.69
  -6   3   0   16.60    1.64
  -6   3   0   14.69    1.70
  -6   3  -1    6.01    1.09
  -6   3  -1    6.06    1.19
  -6   3  -1    5.65    1.14
  -6   3  -1    7.96    1.34
  -6   3  -1    6.94    1.22
  -6   3  -1    6.40    1.06
  -6   3  -1    5.56    1.16
  -6   3  -2    6.49    1.06
  -6   3  -2    8.13    1.37
  -6   3  -2    7.90    1.49
  -6   3  -2    8.62    1.35
  -6   3  -2    8.59    1.28
  -6   3  -2    8.75    1.19
  -6   3  -2    9.78    1.53
  -6   3  -2   10.25    1.49
  -6   3  -3    4.06    1.02
  -6   3  -3    4.29    1.13
  -6   3  -3    1.71    0.80
  -6   3  -3    2.35    0.80
  -6   3  -3    1.54    0.86
  -6   3  -3    2.47    0.82
  -6   3  -4    1.87    0.81
  -6   3  -4    0.37    0.57
  -6   3  -4    0.09    0.48
  -6   3  -4   -0.31    0.59
  -6   3  -4    0.76    0.73
  -6   3  -4    0.06    0.57
  -6   3  -5    2.12    0.83
  -6   3  -5    0.13    0.61
  -6   3  -5    0.69    0.53
  -6   3  -5    1.43    0.72
  -6   3  -5    0.79    0.62
  -6   3  -5    0.76    0.67
  -6   3  -6   -0.01    0.37
  -6   3  -6    0.10    0.50
  -6   3  -6   -0.16    0.52
  -6   3  -6    0.47    0.51
  -6   3  -6   -0.10    0.57
  -6   3  -6    0.39    0.54
  -6   3  -7    4.66    0.94
  -6   3  -7    3.52    0.85
  -6   3  -7    4.33    0.85
  -6   3  -8    1.48    0.55
  -6   3  -8    1.91    0.57
  -6   3  -8    3.23    0.71
  -6   2   4    6.33    1.04
   6  -2  -4    9.51    1.13
  -6   2   4   10.06    1.25
  -6   2   4    8.16    1.03
  -6   2   4    5.47    0.93
  -6   2   3    2.06    0.87
   6  -2  -3    3.06    0.78
  -6   2   3    4.20    1.18
  -6   2   3    3.03    0.72
  -6   2   3    1.26    0.59
  -6   2   2   17.62    1.65
  -6   2   2   15.01    1.70
   6  -2  -2   22.99    2.01
  -6   2   2   21.42    1.77
  -6   2   2   26.48    2.29
  -6   2   2   26.18    2.18
  -6   2   1   15.71    1.72
  -6   2   1   18.24    2.01
   6  -2  -1   16.29    1.81
  -6   2   1   16.83    1.72
  -6   2   1   16.69    1.90
  -6   2   1   15.23    1.85
  -6   2   0   23.91    2.34
  -6   2   0   25.46    2.50
  -6   2   0   22.67    2.15
  -6   2   0   23.56    2.16
  -6   2   0   24.98    2.32
  -6   2   0   26.71    2.41
  -6   2  -1    0.29    0.65
  -6   2  -1    0.28    0.65
  -6   2  -1   -0.32    0.46
  -6   2  -1    0.18    0.74
  -6   2  -1    0.32    0.64
  -6   2  -1    0.12    0.63
  -6   2  -2    1.30    0.76
  -6   2  -2    1.98    1.12
  -6   2  -2    1.55    0.77
  -6   2  -2    1.88    0.88
  -6   2  -2    2.35    1.02
  -6   2  -2    2.45    0.94
  -6   2  -3    2.48    0.94
  -6   2  -3    2.64    1.08
  -6   2  -3    1.61    0.78
  -6   2  -3    2.72    1.07
  -6   2  -3    2.17    0.95
  -6   2  -3    2.67    1.04
  -6   2  -4    1.53    0.80
  -6   2  -4    1.46    1.02
  -6   2  -4    2.33    0.98
  -6   2  -4    2.78    0.98
  -6   2  -4    1.12    0.67
  -6   2  -4    2.27    1.01
  -6   2  -5   -0.19    0.53
  -6   2  -5    0.83    0.64
  -6   2  -5   -0.44    0.73
  -6   2  -5    0.05    0.67
  -6   2  -5    0.78    0.83
  -6   2  -6    2.67    0.79
  -6   2  -6    4.51    1.19
  -6   2  -6    2.20    0.82
  -6   2  -6    3.01    0.95
  -6   2  -6    2.76    0.90
  -6   2  -7    2.21    0.60
  -6   2  -7    4.41    0.87
  -6   2  -7    3.06    1.03
  -6   2  -7    3.47    0.86
  -6   2  -8    1.21    0.73
  -6   2  -8    2.15    0.75
  -6   2  -9    0.22    0.51
  -6   2  -9    0.63    0.49
   6  -1  -5    9.14    1.22
  -6   1   5   10.36    1.17
  -6   1   4  142.51    4.89
   6  -1  -4  134.05    5.36
  -6   1   4  147.48    5.52
  -6   1   3   10.49    1.31
   6  -1  -3    8.79    1.48
  -6   1   3    9.50    1.44
  -6   1   3   10.72    1.20
  -6   1   2    1.44    0.76
  -6   1   2    0.24    0.50
  -6   1   2    3.45    1.17
   6  -1  -2    2.17    0.83
  -6   1   2    2.88    0.87
  -6   1   2    2.04    0.99
  -6   1   2    1.67    0.73
  -6   1   1   -0.08    0.57
  -6   1   1    0.20    0.65
  -6   1   1    0.91    0.66
  -6   1   1    0.82    0.61
  -6   1   1    0.64    0.80
  -6   1   1    1.68    0.76
  -6   1   0    2.80    0.91
  -6   1   0    3.37    1.07
  -6   1   0    1.98    1.06
  -6   1   0    3.54    3.30
  -6   1   0    1.20    0.82
  -6   1   0   -0.60    3.21
  -6   1   0    1.41    0.57
  -6   1  -1  137.22    5.25
  -6   1  -1  146.31    6.62
  -6   1  -1  118.60   16.98
  -6   1  -1  136.31    5.63
  -6   1  -1  117.23    5.83
  -6   1  -1  136.79    6.04
  -6   1  -1  125.85   16.81
  -6   1  -2    5.36    1.03
  -6   1  -2    4.61    1.32
  -6   1  -2    4.79    1.14
  -6   1  -2    4.08    1.10
  -6   1  -2    4.82    1.10
  -6   1  -3   21.75    2.64
  -6   1  -3   14.27    1.98
  -6   1  -3   18.66    7.19
  -6   1  -3   21.42    2.20
  -6   1  -3   18.02    2.27
  -6   1  -3   21.58    2.27
  -6   1  -4    2.98    3.10
  -6   1  -4   -0.24    0.85
  -6   1  -4   -1.14    2.25
  -6   1  -4   -0.62    0.66
  -6   1  -4    0.10    0.71
  -6   1  -4   -1.59    2.57
  -6   1  -4    0.14    0.76
  -6   1  -5   24.73    2.50
  -6   1  -5   25.03    2.57
  -6   1  -5   20.82    2.49
  -6   1  -5   23.19    7.94
  -6   1  -5   29.89    2.51
  -6   1  -5   18.49    7.67
  -6   1  -5   20.39    7.01
  -6   1  -5   27.37    2.54
  -6   1  -6    4.10    1.08
  -6   1  -6    5.09    1.25
  -6   1  -6    4.67    1.24
  -6   1  -6    7.05    1.30
  -6   1  -6    6.37    1.31
  -6   1  -7    0.95    0.53
  -6   1  -7   -0.47    0.59
  -6   1  -7   -0.51    0.49
  -6   1  -7    0.52    0.63
  -6   1  -7   -0.41    0.69
  -6   1 -10   23.00    1.97
  -6   0   6    0.30    0.49
   6   0  -6    1.18    0.55
  -6   0   6   -0.17    0.43
  -6   0   5  106.34    4.31
   6   0  -5   99.82    4.48
  -6   0   5  107.03    4.38
  -6   0   4    0.63    0.81
   6   0  -4    0.17    0.75
  -6   0   4   -0.25    0.69
  -6   0   3   70.87    3.84
   6   0  -3   69.02    4.10
  -6   0   3   72.03    3.94
  -6   0   2   59.82    3.55
  -6   0   2   51.99    3.59
  -6   0   2   51.81    3.10
  -6   0   2   61.50    3.73
   6   0  -1    8.55    5.29
  -6   0   1   -1.35    1.00
  -6   0   1    0.01    0.85
  -6   0   1  -11.22    5.06
  -6   0   1    0.23    0.55
  -6   0   1   10.42    5.37
  -6   0   1   -0.95    0.79
   6   0   0   84.21   13.32
  -6   0   0  100.50    4.77
  -6   0   0   99.72    5.37
  -6   0   0   70.07   12.65
  -6   0   0   77.92   13.70
  -6   0   0   97.60    4.61
  -6   0   0   86.68    4.41
  -6   0  -1   60.78   11.46
  -6   0  -1   64.07    3.70
  -6   0  -1   69.84    4.51
  -6   0  -1   47.24   10.93
  -6   0  -1   61.63    3.62
  -6   0  -1   53.21    3.54
  -6   0  -1   63.35    3.82
  -6   0  -2    0.88    0.75
  -6   0  -2    2.31    1.18
  -6   0  -2    0.24    2.31
  -6   0  -2    1.88    0.90
  -6   0  -2    1.47    0.83
  -6   0  -2    1.59    0.84
  -6   0  -3    9.70    5.14
  -6   0  -3    7.81    1.47
  -6   0  -3    6.94    1.64
  -6   0  -3    0.14    3.08
  -6   0  -3    6.86    1.32
  -6   0  -3    8.92    1.52
  -6   0  -4    6.82    4.81
  -6   0  -4   12.27    1.90
  -6   0  -4   13.63    5.82
  -6   0  -4   12.13    1.63
  -6   0  -4   10.71    1.64
  -6   0  -5   91.46    5.05
  -6   0  -5   98.17    4.52
  -6   0  -5   88.61    4.65
  -6   0  -5   84.17   13.21
   6   0   6  210.19   20.67
  -6   0  -6  335.71   10.38
  -6   0  -6  236.13   22.76
  -6   0  -6  349.87    9.56
  -6   0  -6  311.84    9.92
  -6   0  -6  269.87   23.65
  -6   0  -7    0.73    0.60
  -6   0  -7   -0.11    0.48
   6   0   7    1.02    0.62
   6   0   8   23.41    2.11
   6   0   9    2.06    0.81
   6   0  10   32.72    2.60
   6   0  10   32.61    2.10
   6   0  11    1.64    0.64
   6   0  11    1.11    0.45
  -6  -1   6    0.32    0.60
   6   1  -6   -0.73    0.53
  -6  -1   6    0.57    0.44
   6   1  -5   28.32    1.89
  -6  -1   5   31.48    2.34
   6   1  -5   27.37    2.28
  -6  -1   5   27.67    2.08
  -6  -1   4  226.07    7.59
   6   1  -4  222.29    7.76
  -6  -1   4  222.43    7.18
  -6  -1   3   53.30    3.46
   6   1  -3   53.63    3.56
  -6  -1   3   56.72    3.32
   6   1  -2    3.94    2.58
  -6  -1   2   11.57    1.86
  -6  -1   2    8.15    1.54
  -6  -1   2    2.47    2.42
  -6  -1   2    7.98    1.28
  -6  -1   2   10.36    1.55
   6   1  -1    6.03    4.46
  -6  -1   1    4.55    1.31
  -6  -1   1    2.53    1.18
  -6  -1   1    2.04    2.59
  -6  -1   1    2.16    0.89
   6   1   0   -1.33    1.93
  -6  -1   0    2.02    1.13
  -6  -1   0    1.14    0.94
  -6  -1   0    5.71    4.67
  -6  -1   0    1.24    2.45
   6   1   1    6.12    1.15
   6   1   1   10.87    4.79
  -6  -1  -1    7.25    1.43
  -6  -1  -1    5.43    4.39
  -6  -1  -1    7.78    1.31
   6   1   2   38.63    2.79
   6   1   2   47.44   10.17
  -6  -1  -2   52.88    3.59
  -6  -1  -2   53.85   11.37
  -6  -1  -2   54.84    3.20
   6   1   3   40.26    2.85
   6   1   3   38.94    9.27
  -6  -1  -3   46.79   10.01
  -6  -1  -3   42.26    2.85
   6   1   4   16.56    1.82
   6   1   4   19.98    6.51
  -6  -1  -4   14.25    5.37
  -6  -1  -4   16.55    1.74
   6   1   5  249.00   22.81
  -6  -1  -5  301.88    9.97
  -6  -1  -5  239.06   23.52
  -6  -1  -5  257.69   24.13
  -6  -1  -5  283.16    8.73
   6   1   6  269.12   23.34
   6   1   6  325.12   11.02
  -6  -1  -6  373.25   11.43
  -6  -1  -6  320.21   26.42
  -6  -1  -6  413.22   10.76
   6   1   6  405.63   11.46
  -6  -1  -6  302.62   25.24
  -6  -1  -6  389.56   10.68
   6   1   7    0.42    0.53
  -6  -1  -7   -0.72    0.56
  -6  -1  -7    0.39    0.54
   6   1   7   -0.76    0.62
   6   1   8    0.18    0.59
   6   1   8   -0.68    0.77
   6   1   9    3.06    1.04
   6   1   9    4.37    1.01
   6   1  10    8.70    1.29
   6   1  10   11.85    1.58
   6   1  10   12.46    1.51
   6   1  11    4.00    0.80
   6   1  11    6.16    0.97
   6   2  -6   10.92    1.12
  -6  -2   6   10.66    1.29
   6   2  -6   10.30    1.26
   6   2  -5  129.07    4.76
  -6  -2   5  122.65    4.97
   6   2  -5  122.90    4.93
  -6  -2   5  110.26    4.05
  -6  -2   4  221.45    7.69
   6   2  -4  235.36    7.84
   6   2  -4  246.58    7.27
  -6  -2   3   12.45    1.78
   6   2  -3   11.88    1.63
  -6  -2   3   11.15    1.38
   6   2  -2    1.18    0.65
   6   2  -2    2.11    2.40
  -6  -2   2    1.70    0.93
   6   2  -2    0.97    0.83
  -6  -2   2   -0.01    0.70
   6   2  -1   -1.12    0.47
  -6  -2   1    0.18    0.98
   6   2  -1    0.03    0.63
   6   2  -1   -2.67    4.64
  -6  -2   1   -1.23    2.09
  -6  -2   1   -0.53    0.78
   6   2   0   -0.49    0.62
  -6  -2   0    3.06    3.82
  -6  -2   0   -0.74    0.86
   6   2   0    1.52    3.40
   6   2   1    7.64    1.39
   6   2   1   12.17    1.64
   6   2   1    4.30    2.50
  -6  -2  -1   10.21    4.62
  -6  -2  -1   11.21    1.81
   6   2   1    7.51    4.59
   6   2   2    4.48    1.28
   6   2   2    5.04    1.07
   6   2   2   10.02    4.43
  -6  -2  -2    3.84    3.39
  -6  -2  -2    5.02    1.33
   6   2   3    5.20    1.15
   6   2   3    0.98    2.65
  -6  -2  -3    6.21    4.25
   6   2   4    3.11    3.68
  -6  -2  -4    1.14    2.77
   6   2   4    4.92    3.18
   6   2   5  212.99   20.50
   6   2   5  247.32    8.42
   6   2   5  179.62    7.98
  -6  -2  -5  226.47   21.76
   6   2   6   42.85    3.18
   6   2   6   44.48    3.24
   6   2   6   23.39    6.37
   6   2   6   33.94    3.09
   6   2   6   29.58    8.10
  -6  -2  -6   59.47   11.76
   6   2   6   48.46    3.50
   6   2   7    0.13    0.67
   6   2   7    1.00    0.99
   6   2   7   -0.79    0.61
   6   2   7    0.08    0.45
  -6  -2  -7    0.27    0.60
   6   2   7    0.44    0.80
   6   2   8   -0.71    0.80
   6   2   8   -0.38    0.74
   6   2   8    0.90    0.92
   6   2   9   -0.10    0.61
   6   2   9   -0.44    0.82
   6   2   9    0.11    0.64
   6   2  10    6.92    1.12
   6   2  10    8.71    1.35
   6   2  10   10.49    1.35
   6   2  11   31.69    2.18
   6   2  11   35.77    2.18
   6   3  -6    7.00    0.94
  -6  -3   6    5.50    0.96
   6   3  -6    6.80    0.78
   6   3  -5   27.80    2.06
  -6  -3   5   25.52    2.07
   6   3  -5   27.10    1.89
  -6  -3   4    0.81    0.88
   6   3  -4    1.00    0.63
   6   3  -4    1.40    0.66
   6   3  -3    4.65    0.94
  -6  -3   3    8.55    1.48
   6   3  -3    7.68    1.13
   6   3  -3    5.20    1.02
   6   3  -2    0.29    0.60
  -6  -3   2    0.36    0.79
   6   3  -2   -0.28    0.45
   6   3  -2   -0.80    0.77
   6   3  -2    1.29    0.51
  -6  -3   1    0.33    1.51
   6   3  -1   -0.16    0.54
  -6  -3   1    0.20    0.88
   6   3  -1   -0.15    0.57
   6   3  -1    1.73    1.53
  -6  -3   0    3.34    2.87
   6   3   0    3.56    1.01
   6   3   0    4.11    1.17
   6   3   0    3.47    2.62
  -6  -3   0    4.30    1.18
   6   3   0    3.40    1.12
   6   3   0    2.86    3.26
   6   3   1  137.04   16.57
   6   3   1  116.57    5.76
   6   3   1  130.13    5.68
   6   3   1  120.78    6.07
  -6  -3  -1  129.84    5.70
   6   3   1  120.18    6.36
   6   3   1  107.33    5.51
   6   3   2    1.84    0.99
   6   3   2    1.85    0.76
   6   3   2    2.49    0.90
   6   3   2    1.19    0.60
   6   3   2   -0.01    2.78
   6   3   2    1.71    0.99
  -6  -3  -2    2.41    1.11
   6   3   2   -1.15    2.40
   6   3   3   14.71    2.27
   6   3   3   23.04    2.31
   6   3   3   18.69    5.68
   6   3   3   14.56    2.50
   6   3   3    8.40    5.11
   6   3   3   18.34    2.44
   6   3   4    6.83    1.69
   6   3   4    7.65    1.42
   6   3   4    8.00    1.60
   6   3   4    5.94    4.43
   6   3   4    6.58    1.49
   6   3   4    1.58    1.55
   6   3   5    7.98    1.69
  -6  -3  -5    5.02    3.66
   6   3   5    9.15    1.49
   6   3   5    6.42    4.05
   6   3   5    8.99    1.67
   6   3   5    8.77    5.23
   6   3   6   16.14    1.94
   6   3   6   13.70    1.82
  -6  -3  -6    6.99    4.28
   6   3   6   11.53    1.71
   6   3   6   16.71    7.19
   6   3   6    7.00    4.48
   6   3   6   16.78    2.32
   6   3   7    5.82    1.41
   6   3   7    6.26    1.34
   6   3   7    3.83    1.00
   6   3   7    2.92    0.96
   6   3   7    6.74    1.42
   6   3   7    2.67    0.87
   6   3   8    0.00    0.61
   6   3   8    0.74    0.67
   6   3   8    0.15    0.58
   6   3   8    0.87    0.93
   6   3   9    0.81    0.52
   6   3   9    0.69    0.50
   6   3   9   -0.30    0.54
   6   3   9    1.36    0.80
   6   3  10   19.68    1.86
   6   3  10   13.93    1.41
   6   4  -5   10.69    1.18
  -6  -4   5    9.08    1.14
   6   4  -5   11.20    1.21
  -6  -4   4   -1.12    0.75
   6   4  -4    0.38    0.47
   6   4  -3   -0.17    0.60
   6   4  -3    0.20    0.37
  -6  -4   3    0.89    0.69
   6   4  -2    1.52    0.65
   6   4  -2    0.74    0.49
  -6  -4   2    1.84    0.75
   6   4  -2    0.47    0.45
   6   4  -2    1.83    0.83
   6   4  -1   48.07    3.21
   6   4  -1   40.12    3.14
  -6  -4   1   50.29    3.19
   6   4  -1   39.21    3.19
   6   4  -1   43.03    3.22
   6   4   0   45.84    3.56
   6   4   0   24.27    6.37
   6   4   0   45.06    3.21
   6   4   0   46.48    3.46
  -6  -4   0   48.33    3.23
   6   4   0   37.79    3.25
   6   4   0   55.57   10.39
   6   4   0   20.54    6.33
   6   4   0   44.65    3.43
   6   4   0   40.30    2.75
   6   4   1    4.32    1.18
   6   4   1    1.42    2.81
   6   4   1    3.74    1.02
   6   4   1    4.77    1.20
  -6  -4  -1    6.11    1.31
   6   4   1    2.60    1.18
   6   4   1   -1.39    3.15
   6   4   1    7.16    4.79
   6   4   1    3.67    1.01
   6   4   1    3.77    1.22
   6   4   2    1.08    0.80
   6   4   2    0.66    0.66
   6   4   2    0.65    1.76
   6   4   2    1.02    0.69
   6   4   2   -0.06    0.62
   6   4   2    0.29    0.81
  -6  -4  -2    0.73    0.75
   6   4   2   -0.17    0.45
   6   4   3    4.22    1.25
   6   4   3    4.50    1.06
   6   4   3    2.35    3.31
   6   4   3    4.69    1.13
   6   4   3    4.21    1.33
   6   4   3    4.23    1.25
   6   4   3    1.01    2.15
   6   4   3    3.92    1.29
   6   4   4    0.41    0.60
   6   4   4    0.70    0.62
   6   4   4   -2.67    2.67
   6   4   4    3.16    1.69
   6   4   4   -0.20    0.67
   6   4   4    2.43    0.97
   6   4   4    1.12    2.56
   6   4   4    0.69    2.12
   6   4   4    0.49    0.63
   6   4   5    3.09    1.09
   6   4   5    2.23    0.78
   6   4   5    2.15    0.77
   6   4   5    2.77    0.92
   6   4   5    1.59    0.76
   6   4   6    1.34    0.72
   6   4   6    0.74    0.55
   6   4   6    1.47    0.71
   6   4   6    2.34    0.98
   6   4   6    1.16    0.78
   6   4   7    7.85    1.56
   6   4   7    7.37    1.24
   6   4   7    4.25    0.92
   6   4   7    4.51    0.94
   6   4   7    3.60    0.88
   6   4   8    3.27    0.86
   6   4   8    3.60    0.92
   6   4   8    4.50    0.96
   6   4   9   -0.67    0.53
   6   4   9    0.43    0.43
   6   4  10   21.58    1.64
   6   5  -4   42.47    2.27
   6   5  -4   39.76    2.30
  -6  -5   3    8.87    1.00
   6   5  -3    9.08    1.29
   6   5  -3    9.66    1.23
   6   5  -2   18.83    1.68
   6   5  -2   16.66    1.61
  -6  -5   2   16.86    1.49
   6   5  -2   13.92    1.41
   6   5  -2   18.65    1.98
   6   5  -2   14.47    1.50
   6   5  -1   70.24    3.64
   6   5  -1   68.20    3.69
  -6  -5   1   71.95    3.35
   6   5  -1   63.47    3.61
   6   5  -1   68.37    3.71
   6   5   0  105.63    4.89
   6   5   0  104.62    5.33
   6   5   0  100.24    4.87
  -6  -5   0   99.15    4.25
   6   5   0   98.94    4.89
   6   5   0  105.91    4.99
   6   5   0   96.82    4.19
   6   5   1    0.20    0.57
   6   5   1    0.14    0.51
   6   5   1    0.09    0.52
   6   5   1    0.86    0.67
  -6  -5  -1    1.34    0.92
   6   5   1    0.22    0.53
   6   5   1   -0.13    0.55
   6   5   1    0.02    0.44
   6   5   2    1.65    0.77
   6   5   2    1.60    0.86
   6   5   2    2.47    0.81
   6   5   2    2.80    1.02
  -6  -5  -2    2.61    0.87
   6   5   2    1.12    0.76
   6   5   2    2.29    0.98
   6   5   2    2.69    0.89
   6   5   3   11.11    1.69
   6   5   3   15.21    1.86
   6   5   3   12.06    1.55
  -6  -5  -3   13.48    1.59
   6   5   3   10.86    1.71
   6   5   3   13.13    1.87
   6   5   3   14.47    1.86
   6   5   4    5.03    1.13
   6   5   4    5.43    1.04
   6   5   4    5.03    1.29
   6   5   4    5.35    1.19
  -6  -5  -4    5.14    0.96
   6   5   4    4.73    1.16
   6   5   4    5.71    1.24
   6   5   5    0.78    0.53
   6   5   5   -0.64    0.58
   6   5   5   -0.02    0.40
   6   5   5    0.56    0.49
   6   5   5   -0.20    0.48
   6   5   5   -0.76    0.62
   6   5   6    1.48    0.65
   6   5   6    1.71    0.53
   6   5   6    0.81    0.53
   6   5   6    1.46    0.62
   6   5   6    2.09    0.69
   6   5   6    2.90    0.83
   6   5   7   22.61    1.87
   6   5   7   23.32    1.95
   6   5   7   24.16    2.13
   6   5   8    2.88    0.73
   6   5   8    2.65    0.64
   6   5   8    2.84    0.66
   6   6  -2    3.99    0.71
   6   6  -2    2.67    0.51
   6   6  -2    4.40    0.64
   6   6  -2    4.07    0.81
   6   6  -2    2.55    0.56
   6   6  -2    5.52    0.84
   6   6  -1   46.73    2.58
   6   6  -1   41.95    2.49
   6   6  -1   34.06    2.24
   6   6  -1   36.61    2.35
   6   6  -1   41.97    2.56
   6   6  -1   48.15    2.57
   6   6   0   42.57    2.61
   6   6   0   40.43    2.79
   6   6   0   38.46    2.52
   6   6   0   32.88    2.37
   6   6   0   38.29    2.56
   6   6   0   37.79    2.44
   6   6   0   35.24    2.02
   6   6   1   58.11    3.16
   6   6   1   56.66    3.37
   6   6   1   56.29    3.19
   6   6   1   55.85    3.21
   6   6   1   45.86    2.69
   6   6   1   56.56    3.18
   6   6   1   52.39    2.86
   6   6   2  149.21    5.52
   6   6   2  141.92    5.61
   6   6   2  150.45    5.56
   6   6   2  141.22    5.03
   6   6   2  139.60    5.55
   6   6   2  146.49    5.58
   6   6   2  138.72    5.27
   6   6   3   11.67    1.44
   6   6   3   10.31    1.41
   6   6   3    8.74    1.09
   6   6   3   10.07    1.33
   6   6   3    7.84    1.28
   6   6   3   10.42    1.42
   6   6   3    8.40    1.19
   6   6   4   47.20    2.82
   6   6   4   46.50    2.81
   6   6   4   46.20    2.87
   6   6   4   44.14    2.49
   6   6   4   40.86    2.74
   6   6   4   44.05    2.89
   6   6   4   48.57    2.86
   6   6   5   14.46    1.46
   6   6   5   15.73    1.52
   6   6   5   16.38    1.55
   6   6   5   15.27    1.39
   6   6   5   11.00    1.30
   6   6   5   15.19    1.52
   6   6   5   18.33    1.71
   6   6   6    1.47    0.52
   6   6   6    1.07    0.47
   6   6   6    1.34    0.42
   6   6   6    1.36    0.36
   6   6   6    1.47    0.55
   6   6   6    1.56    0.46
   6   6   6    1.66    0.55
  -7   2   1   16.18    1.19
  -7   2   1   21.92    1.66
   7  -2  -1   21.67    1.42
  -7   2   1   18.92    1.24
  -7   2   1   18.39    1.28
  -7   2   0   17.97    1.47
  -7   2   0   15.83    1.48
   7  -2   0   17.57    1.39
  -7   2   0   20.57    1.51
  -7   2   0   20.41    1.67
  -7   2   0   15.66    1.32
  -7   2  -1   44.20    2.52
  -7   2  -1   34.77    2.24
  -7   2  -1   40.63    2.67
  -7   2  -1   45.91    2.45
  -7   2  -1   48.69    2.62
  -7   2  -1   37.22    2.25
  -7   2  -2   25.80    1.99
  -7   2  -2   19.58    1.57
  -7   2  -2   26.02    2.20
  -7   2  -2   26.23    1.94
  -7   2  -2   25.75    2.08
  -7   2  -2   22.28    1.83
  -7   2  -3    2.49    0.75
  -7   2  -3    2.33    0.76
  -7   2  -3    2.15    0.77
  -7   2  -3    2.92    0.86
  -7   2  -3    1.17    0.54
  -7   2  -4    4.96    0.90
  -7   2  -4    4.73    0.96
  -7   2  -4    6.48    0.98
  -7   2  -4    3.60    0.81
  -7   2  -4    4.80    0.99
  -7   2  -5    1.50    0.60
  -7   2  -5    0.28    0.55
  -7   2  -5   -0.56    0.49
  -7   2  -5    1.29    0.54
  -7   2  -5    0.38    0.54
  -7   2  -5    0.43    0.44
  -7   2  -6   28.14    1.76
  -7   2  -6   20.62    1.44
  -7   2  -6   38.89    2.02
  -7   2  -6   29.58    1.97
  -7   2  -6   35.34    2.18
   7  -1  -2   -0.45    0.55
  -7   1   2    1.36    0.56
  -7   1   1    0.62    0.52
   7  -1  -1    0.98    0.54
  -7   1   1    2.02    0.64
  -7   1   1    1.20    0.61
  -7   1   0    3.80    0.87
  -7   1   0    3.77    0.97
  -7   1   0    4.31    0.92
  -7   1   0    4.03    0.91
  -7   1   0    3.34    0.68
  -7   1  -1   12.97    1.55
  -7   1  -1   11.59    1.59
  -7   1  -1   11.82    1.48
  -7   1  -1   13.97    1.67
  -7   1  -1    9.04    1.17
  -7   1  -2    0.21    0.52
  -7   1  -2    0.77    0.66
  -7   1  -2    1.27    0.80
  -7   1  -2    0.76    0.50
  -7   1  -3   44.15    3.14
  -7   1  -3   43.90    3.19
  -7   1  -3   49.93    3.02
  -7   1  -3   38.85    2.61
  -7   1  -3   44.14    2.95
  -7   1  -4    5.63    1.21
  -7   1  -4    2.55    1.05
  -7   1  -4    5.50    1.30
  -7   1  -4    3.02    0.84
  -7   1  -4    5.27    1.42
  -7   1  -5   13.97    1.59
  -7   1  -5   12.62    1.65
  -7   1  -5   16.16    1.64
  -7   1  -5   12.44    1.44
  -7   1  -5   15.24    1.68
  -7   1  -6   28.75    2.06
  -7   1  -6   21.80    1.98
  -7   1  -6   33.21    2.17
  -7   1  -6   23.47    1.94
  -7   1  -6   30.76    2.24
  -7   1  -7   42.40    2.53
  -7   1  -7   48.35    2.71
  -7   1  -8    7.53    0.95
  -7   1  -8    7.68    0.96
  -7   0   3   76.94    3.10
   7   0  -3   73.36    3.42
  -7   0   2    8.43    1.07
  -7   0   2    4.55    0.79
   7   0  -2    8.18    1.23
  -7   0   2    7.64    1.16
  -7   0   1    1.40    0.65
  -7   0   1   -0.43    0.44
  -7   0   1    0.28    0.61
   7   0  -1    0.75    0.70
  -7   0   1    0.70    0.47
  -7   0   1    0.74    0.66
  -7   0   0    3.62    0.90
  -7   0   0    5.75    1.23
  -7   0   0    3.58    0.93
  -7   0   0    3.85    1.03
  -7   0  -1   38.26    2.56
  -7   0  -1   34.81    2.97
  -7   0  -1   32.77    2.57
  -7   0  -2    6.06    1.08
  -7   0  -2    8.34    1.71
  -7   0  -2    5.07    1.20
  -7   0  -3    0.82    0.72
  -7   0  -3    0.62    0.97
  -7   0  -3    0.20    0.74
  -7   0  -3   -0.23    0.48
  -7   0  -3   -0.08    0.84
  -7   0  -4    2.88    1.02
  -7   0  -4    1.80    1.14
  -7   0  -4    2.90    1.12
  -7   0  -4    1.98    0.70
  -7   0  -4    3.03    0.94
  -7   0  -5    8.78    1.57
  -7   0  -5    6.75    1.33
  -7   0  -5    6.67    1.21
  -7   0  -5    3.75    0.90
  -7   0  -5    6.16    1.09
  -7   0  -6    3.75    0.91
  -7   0  -6    3.82    0.91
  -7   0  -6    3.62    0.97
  -7   0  -6    1.86    0.73
  -7   0  -6    3.75    0.90
  -7   0  -7    2.48    0.72
  -7   0  -7    1.89    0.62
  -7   0  -7    2.27    0.63
  -7   0  -8   15.01    1.34
   7   0   9    0.23    0.40
  -7   0  -9   -0.07    0.36
  -7  -1   4    1.78    0.64
   7   1  -4    1.20    0.60
  -7  -1   4    2.19    0.55
  -7  -1   3    2.61    0.86
   7   1  -3    2.48    0.87
   7   1  -2    2.93    0.62
  -7  -1   2    7.00    1.09
  -7  -1   2    4.74    0.84
   7   1  -2    5.78    1.11
  -7  -1   2    7.05    1.10
   7   1  -1    2.29    0.76
  -7  -1   1    6.30    1.20
   7   1  -1    2.70    0.86
  -7  -1   1    5.69    1.20
  -7  -1   1    5.70    1.09
  -7  -1   1    5.47    1.06
  -7  -1   0   20.42    2.33
  -7  -1   0   21.19    2.04
  -7  -1   0   24.81    2.16
  -7  -1  -1    2.00    1.10
  -7  -1  -1    2.62    1.04
  -7  -1  -1    0.84    0.62
  -7  -1  -2   51.97    3.32
  -7  -1  -2   51.57    3.68
  -7  -1  -2   49.89    3.23
   7   1   3   11.78    1.29
  -7  -1  -3   12.10    1.77
  -7  -1  -3    8.00    1.68
  -7  -1  -3    9.95    1.67
   7   1   4    3.33    0.70
  -7  -1  -4    2.48    1.23
  -7  -1  -4    2.05    1.08
  -7  -1  -4    1.78    0.76
  -7  -1  -4    2.09    0.75
   7   1   5    2.35    0.59
  -7  -1  -5    3.79    1.08
  -7  -1  -5    3.25    1.18
  -7  -1  -5    4.21    1.14
  -7  -1  -5    1.44    0.51
   7   1   6    5.14    0.88
   7   1   6    2.29    0.82
   7   1   6    1.74    0.99
  -7  -1  -6    5.56    1.22
  -7  -1  -6    7.36    1.14
  -7  -1  -6    3.70    0.76
   7   1   7    8.94    1.04
   7   1   7    6.64    1.15
   7   1   7    4.22    0.98
  -7  -1  -7    7.28    1.23
  -7  -1  -7   10.94    1.25
   7   1   8    4.21    1.07
   7   1   9    0.66    0.44
   7   2  -4   16.30    1.24
  -7  -2   4   17.23    1.55
   7   2  -4   16.40    1.40
  -7  -2   3   66.69    3.28
   7   2  -3   62.56    3.16
  -7  -2   2   35.59    2.56
   7   2  -2   34.84    2.45
  -7  -2   2   29.71    1.82
  -7  -2   2   28.51    1.80
   7   2  -1    2.45    0.79
  -7  -2   1    4.24    1.12
   7   2  -1    1.04    0.65
  -7  -2   1    2.87    0.95
   7   2  -1    4.09    0.93
  -7  -2   1    3.76    0.86
  -7  -2   1    2.61    0.76
   7   2   0    0.71    0.68
  -7  -2   0    0.98    0.96
   7   2   0    1.02    0.71
  -7  -2   0    1.47    0.96
  -7  -2   0    0.85    0.73
  -7  -2   0    0.43    0.53
   7   2   1    1.51    0.94
  -7  -2  -1    2.84    0.96
   7   2   1    1.83    0.78
  -7  -2  -1    3.70    1.23
   7   2   2    1.81    0.66
   7   2   2    5.03    0.95
   7   2   2    2.37    0.97
   7   2   2    1.67    1.04
  -7  -2  -2    3.65    1.22
  -7  -2  -2    2.78    0.92
   7   2   3    1.22    0.72
   7   2   3    4.47    1.07
   7   2   3    1.77    0.97
   7   2   3    0.59    0.71
  -7  -2  -3    4.39    1.35
  -7  -2  -3    3.43    1.25
   7   2   4    6.90    1.51
   7   2   4   10.28    1.36
   7   2   4    5.66    1.50
   7   2   4    5.38    1.47
  -7  -2  -4    9.56    1.54
  -7  -2  -4   10.68    1.76
   7   2   5   -0.37    0.76
   7   2   5    0.41    0.43
   7   2   5    1.05    0.55
   7   2   5    0.26    0.60
  -7  -2  -5    0.91    0.67
   7   2   6   10.01    1.62
   7   2   6   11.91    1.43
   7   2   6    7.25    1.38
   7   2   6    5.26    1.36
  -7  -2  -6    9.15    1.45
  -7  -2  -6   13.74    1.52
   7   2   7   46.05    2.73
  -7  -2  -7   42.02    2.73
  -7  -2  -7   54.14    2.69
   7   2   7   46.32    3.35
   7   2   8    0.32    0.48
   7   2   8    1.16    0.48
   7   2   9    0.90    0.56
   7   2   9    1.07    0.43
  -7  -3   3    6.70    1.10
   7   3  -3    7.06    0.87
   7   3  -2    7.11    0.98
  -7  -3   2   12.23    1.47
   7   3  -2   12.03    1.26
   7   3  -2    5.51    0.88
   7   3  -1    0.19    0.39
  -7  -3   1    0.20    0.66
   7   3  -1    0.42    0.52
  -7  -3   1   -0.85    0.68
   7   3  -1   -0.66    0.62
   7   3  -1    0.01    0.47
   7   3   0    2.33    0.82
  -7  -3   0    2.10    0.92
   7   3   0    0.91    0.65
   7   3   1   32.78    2.53
   7   3   1   28.59    2.64
  -7  -3  -1   28.39    2.49
   7   3   1   23.33    2.51
   7   3   2    2.88    0.89
   7   3   2    2.70    0.78
   7   3   2    2.55    1.04
  -7  -3  -2    2.70    1.04
   7   3   2    1.84    0.86
   7   3   3   37.86    2.71
   7   3   3   32.60    2.84
  -7  -3  -3   35.71    2.89
   7   3   3   23.93    2.65
   7   3   3   28.47    2.64
   7   3   4   15.60    2.03
   7   3   4   22.15    2.07
  -7  -3  -4   21.26    2.23
   7   3   4   12.19    1.96
   7   3   4   15.92    2.11
   7   3   5   10.27    1.70
   7   3   5    8.16    1.53
   7   3   5    7.18    1.48
   7   3   6    0.18    0.59
   7   3   6    0.43    0.47
   7   3   6    0.86    0.50
   7   3   6   -0.61    0.53
  -7  -3  -6    1.67    0.77
   7   3   6   -0.35    0.39
   7   3   7    3.31    0.93
   7   3   7    2.92    0.76
   7   3   7    2.17    0.60
   7   3   7    1.68    0.69
  -7  -3  -7    3.03    0.71
   7   3   7    1.02    0.40
   7   3   8    0.04    0.45
   7   3   8    0.02    0.36
   7   3   9    3.91    0.70
   7   3   9    3.13    0.64
  -7  -4   3   67.39    2.78
   7   4  -3   69.69    2.80
  -7  -4   2   23.51    1.74
   7   4  -2   26.39    1.89
   7   4  -1    4.97    0.82
   7   4  -1    3.60    0.77
  -7  -4   1    5.40    0.98
   7   4  -1    3.57    0.87
   7   4   0    0.30    0.39
   7   4   0    0.99    0.54
  -7  -4   0    1.13    0.68
   7   4   0    0.36    0.38
   7   4   0    0.69    0.52
   7   4   1  103.45    4.71
  -7  -4  -1  114.36    4.61
   7   4   1   97.92    4.65
   7   4   2   13.49    1.69
   7   4   2   15.16    1.65
  -7  -4  -2   15.52    1.81
   7   4   2   10.92    1.64
   7   4   2   13.04    1.78
   7   4   2    9.44    1.33
   7   4   3   17.54    1.91
   7   4   3   20.47    1.93
  -7  -4  -3   18.79    1.91
   7   4   3   10.96    1.64
   7   4   3   16.01    1.96
   7   4   3   14.20    1.74
   7   4   4    4.05    0.92
   7   4   4    1.68    0.71
   7   4   4    1.77    0.89
  -7  -4  -4    3.68    1.11
   7   4   4    2.66    0.82
   7   4   4    2.61    0.85
   7   4   5    3.39    0.85
   7   4   5    1.74    0.78
   7   4   5    1.48    0.69
  -7  -4  -5    2.67    0.89
   7   4   5    2.02    0.80
   7   4   5    2.30    0.81
   7   4   6   29.88    2.23
   7   4   6   43.52    2.64
   7   4   6   21.94    2.04
   7   4   6   31.06    2.31
   7   4   6   40.40    2.72
   7   4   7   66.53    3.26
   7   4   7   70.56    3.50
   7   4   8    3.57    0.71
   7   4   8    2.68    0.67
   7   5  -1   18.79    1.30
   7   5  -1   17.42    1.38
  -7  -5   1   24.66    1.46
   7   5  -1   15.12    1.31
   7   5  -1   21.19    1.73
   7   5  -1   26.09    1.78
   7   5   0    7.21    0.96
   7   5   0    6.45    0.95
  -7  -5   0    8.89    1.01
   7   5   0    5.35    0.90
   7   5   0    6.80    1.03
   7   5   0    5.31    0.99
   7   5   1    8.01    1.08
   7   5   1    8.23    1.13
  -7  -5  -1    9.01    1.07
   7   5   1    6.50    1.06
   7   5   1    7.04    1.17
   7   5   2   34.02    2.34
   7   5   2   33.35    2.37
   7   5   2   38.37    2.42
  -7  -5  -2   33.13    2.04
   7   5   2   29.03    2.28
   7   5   2   24.18    1.90
   7   5   2   35.41    2.42
   7   5   2   26.76    1.88
   7   5   3    4.89    0.98
   7   5   3    5.98    1.03
   7   5   3    4.62    0.92
  -7  -5  -3    4.42    0.96
   7   5   3    2.44    0.74
   7   5   3    3.99    0.92
   7   5   3    2.42    0.71
   7   5   4    7.89    1.21
   7   5   4   10.52    1.28
   7   5   4    9.47    1.23
  -7  -5  -4   12.16    1.29
   7   5   4    6.07    1.00
   7   5   4    8.43    1.24
   7   5   4    8.36    1.13
   7   5   5   -0.35    0.40
   7   5   5   -0.37    0.39
   7   5   5   -0.07    0.33
  -7  -5  -5    0.85    0.55
   7   5   5   -1.28    0.52
   7   5   5    0.19    0.38
   7   5   5    0.33    0.43
   7   5   6   40.86    2.49
   7   5   6   41.94    2.22
   7   5   6   56.15    2.68
  -7  -5  -6   55.84    2.52
   7   5   6   39.94    2.23
   7   5   6   57.11    2.82
  -8   0  -2   45.05    2.31
  -8   0  -2   51.58    2.38
  -8   0  -2   47.81    2.40
  -8   0  -3   35.04    2.06
  -8   0  -3   38.40    2.08
  -8   0  -3   34.38    2.07
   8   0   4    1.22    0.47
   8   0   4    0.24    0.34
  -8   0  -4    0.85    0.40
  -8   0  -4    0.94    0.45
   8   1   1    2.84    0.70
  -8  -1  -1    4.92    0.71
  -8  -1  -1    4.00    0.74
  -8  -1  -1    4.89    0.75
  -8  -1  -1    3.39    0.68
   8   1   2    3.53    0.76
  -8  -1  -2    4.25    0.74
   8   1   2    2.04    0.72
  -8  -1  -2    3.03    0.77
  -8  -1  -2    3.89    0.84
  -8  -1  -2    5.19    0.89
   8   1   3    0.44    0.46
  -8  -1  -3    0.87    0.84
   8   1   3   -0.37    0.42
  -8  -1  -3    1.43    0.64
  -8  -1  -3   -0.43    0.46
   8   1   4   18.17    1.68
  -8  -1  -4   28.85    1.74
  -8  -1  -4   22.64    1.91
  -8  -1  -4   29.23    1.90
   8   1   5    2.90    0.68
   8   1   5    4.23    0.80
  -8  -1  -5    7.43    0.91
   8   1   5    2.33    0.65
  -8  -1  -5    5.47    0.86
  -8  -1  -5    8.04    0.99
   8   1   6    1.55    0.47
   8   1   6    1.27    0.42
  -8  -1  -6    1.25    0.48
  -8  -1  -6    2.34    0.55
   8   2   0   -0.12    0.31
  -8  -2   0   -0.06    0.46
   8   2   0   -0.46    0.44
  -8  -2   0   -0.08    0.33
   8   2   0    0.33    0.29
   8   2   1   -0.14    0.41
  -8  -2  -1    0.21    0.54
   8   2   1   -0.57    0.40
  -8  -2  -1   -0.14    0.38
  -8  -2  -1   -0.25    0.39
   8   2   2    0.61    0.36
  -8  -2  -2    0.78    0.60
   8   2   2    0.30    0.39
  -8  -2  -2   -0.52    0.40
  -8  -2  -2   -0.28    0.52
  -8  -2  -2    1.15    0.48
   8   2   3    1.38    0.63
  -8  -2  -3    2.84    0.79
   8   2   3    1.17    0.60
  -8  -2  -3    3.42    0.89
  -8  -2  -3    2.57    0.73
  -8  -2  -3    2.69    0.61
   8   2   3    0.09    0.34
   8   2   4    1.50    0.54
   8   2   4    2.79    0.73
  -8  -2  -4    4.61    0.88
   8   2   4    2.25    0.62
  -8  -2  -4    5.48    1.03
  -8  -2  -4    4.19    0.83
   8   2   5   -0.69    0.46
   8   2   5    0.26    0.39
  -8  -2  -5    0.66    0.60
   8   2   5   -0.29    0.46
  -8  -2  -5   -0.31    0.50
  -8  -2  -5    0.49    0.42
   8   2   6    7.34    1.01
   8   2   6    4.72    0.77
  -8  -2  -6   11.10    1.12
  -8  -2  -6   10.56    1.01
   8   2   6    3.67    0.75
   8   3   1    0.07    0.32
  -8  -3  -1    0.42    0.46
  -8  -3  -1    0.66    0.49
   8   3   1    0.88    0.48
   8   3   2   -0.08    0.41
  -8  -3  -2    1.31    0.69
   8   3   2   -0.06    0.35
  -8  -3  -2   -0.90    0.54
  -8  -3  -2    0.94    0.63
   8   3   2   -0.23    0.34
   8   3   3   29.31    2.06
  -8  -3  -3   39.63    2.32
   8   3   3   20.12    1.87
  -8  -3  -3   29.82    2.25
  -8  -3  -3   37.99    2.07
   8   3   3   29.62    2.08
   8   3   4    1.56    0.57
  -8  -3  -4    3.33    0.92
   8   3   4    1.21    0.55
  -8  -3  -4    1.47    0.47
  -8  -3  -4    1.63    0.56
   8   3   4    1.86    0.61
   8   3   4    0.96    0.48
   8   3   5    7.48    0.84
   8   3   5    4.60    0.80
  -8  -3  -5    7.40    1.01
  -8  -3  -5    8.50    0.99
   8   3   5    3.38    0.70
   8   3   5    4.66    0.79
   0   0   0    0.00    0.00


TITL exp_1414 in P-1
REM P-1 (#2 in standard setting)
CELL 1.54184   6.901726   6.949581  11.237194  88.2178  76.4889  77.5746
ZERR    2.00   0.000442   0.000213   0.000734   0.0036   0.0055   0.0038
LATT  1
SFAC C H N O
UNIT 22.00 20.00 2.00 2.00
TREF
HKLF 4
END
_computing_structure_solution     'SHELXT 2014/5 (Sheldrick, 2014)'
;
loop_
_space_group_symop_operation_xyz
'x, y, z'
'-x, -y, -z'
loop_
_atom_site_label
_atom_site_type_symbol
_atom_site_fract_x
_atom_site_fract_y
_atom_site_fract_z
_atom_site_U_iso_or_equiv
_atom_site_adp_type
_atom_site_occupancy
_atom_site_site_symmetry_order
_atom_site_calc_flag
_atom_site_refinement_flags_posn
_atom_site_refinement_flags_adp
_atom_site_refinement_flags_occupancy
_atom_site_disorder_assembly
_atom_site_disorder_group
O1 O 0.72280(17) 0.19693(13) 0.59053(10) 0.0211(3) Uani 1 1 d D . . . .
H1O H 0.646(3) 0.263(3) 0.6526(13) 0.032 Uiso 1 1 d D U . . .
O2 O 1.09585(16) 0.25151(14) 0.18078(9) 0.0201(3) Uani 1 1 d D . . . .
H2O H 1.105(3) 0.1304(15) 0.1785(19) 0.030 Uiso 1 1 d D U . . .
N1 N 0.53641(18) 0.54728(15) 0.71649(11) 0.0161(3) Uani 1 1 d . . . . .
N2 N 0.3002(2) 0.41733(16) 0.94232(11) 0.0211(3) Uani 1 1 d D . . . .
H1N H 0.358(3) 0.334(2) 0.8804(13) 0.025 Uiso 1 1 d D U . . .
H2N H 0.234(3) 0.390(3) 1.0171(11) 0.025 Uiso 1 1 d D U . . .
N3 N 0.4234(2) 1.04589(17) 0.80062(12) 0.0254(3) Uani 1 1 d . . . . .
N4 N 0.1541(2) 0.85921(17) 1.09948(12) 0.0260(3) Uani 1 1 d . . . . .
C1 C 0.4271(2) 0.67326(18) 0.81602(13) 0.0161(3) Uani 1 1 d . . . . .
C2 C 0.3220(2) 0.6042(2) 0.92146(13) 0.0168(3) Uani 1 1 d . . . . .
C3 C 0.4230(2) 0.8807(2) 0.80957(13) 0.0191(3) Uani 1 1 d . . . . .
C4 C 0.2266(2) 0.74616(19) 1.02039(14) 0.0191(3) Uani 1 1 d . . . . .
C5 C 0.6141(2) 0.62745(19) 0.61626(14) 0.0158(3) Uani 1 1 d . . . . .
H5 H 0.589850 0.767242 0.614718 0.019 Uiso 1 1 calc R U . . .
C6 C 0.7347(2) 0.51992(19) 0.50686(13) 0.0152(3) Uani 1 1 d . . . . .
C7 C 0.7869(2) 0.31172(19) 0.49633(13) 0.0159(3) Uani 1 1 d . . . . .
C8 C 0.9082(2) 0.21909(18) 0.38826(13) 0.0168(3) Uani 1 1 d . . . . .
H8 H 0.944870 0.079337 0.381885 0.020 Uiso 1 1 calc R U . . .
C9 C 0.9756(2) 0.3331(2) 0.28932(13) 0.0167(3) Uani 1 1 d . . . . .
C10 C 0.9243(2) 0.53861(19) 0.29702(13) 0.0176(3) Uani 1 1 d . . . . .
H10 H 0.970579 0.615217 0.229059 0.021 Uiso 1 1 calc R U . . .
C11 C 0.8057(2) 0.62796(19) 0.40481(14) 0.0166(3) Uani 1 1 d . . . . .
H11 H 0.770611 0.767811 0.410302 0.020 Uiso 1 1 calc R U . . .
loop_
_atom_site_aniso_label
_atom_site_aniso_U_11
_atom_site_aniso_U_22
_atom_site_aniso_U_33
_atom_site_aniso_U_23
_atom_site_aniso_U_13
_atom_site_aniso_U_12
O1 0.0279(6) 0.0116(5) 0.0183(6) 0.0011(4) 0.0036(4) -0.0027(4)
O2 0.0258(6) 0.0124(5) 0.0177(5) -0.0042(4) 0.0033(4) -0.0035(4)
N1 0.0182(6) 0.0119(6) 0.0164(6) -0.0024(4) -0.0009(5) -0.0023(4)
N2 0.0323(7) 0.0117(6) 0.0159(6) -0.0007(5) 0.0018(6) -0.0055(5)
N3 0.0355(8) 0.0134(6) 0.0228(7) -0.0036(5) 0.0031(6) -0.0058(5)
N4 0.0358(8) 0.0164(6) 0.0214(7) -0.0036(5) 0.0040(6) -0.0071(5)
C1 0.0193(7) 0.0107(6) 0.0170(7) -0.0026(5) -0.0029(6) -0.0014(5)
C2 0.0209(7) 0.0108(6) 0.0174(7) -0.0037(5) -0.0031(6) -0.0016(5)
C3 0.0221(8) 0.0159(7) 0.0168(7) -0.0022(5) -0.0001(6) -0.0031(5)
C4 0.0243(7) 0.0121(6) 0.0201(7) 0.0005(6) -0.0018(6) -0.0055(5)
C5 0.0167(7) 0.0117(6) 0.0185(7) -0.0019(5) -0.0032(6) -0.0026(5)
C6 0.0157(7) 0.0128(6) 0.0168(7) -0.0019(5) -0.0028(6) -0.0030(5)
C7 0.0168(7) 0.0134(6) 0.0174(7) 0.0005(5) -0.0034(6) -0.0038(5)
C8 0.0189(7) 0.0097(6) 0.0204(8) -0.0012(5) -0.0028(6) -0.0020(5)
C9 0.0164(7) 0.0154(6) 0.0176(7) -0.0036(5) -0.0018(6) -0.0032(5)
C10 0.0207(7) 0.0147(7) 0.0173(7) 0.0015(5) -0.0022(6) -0.0061(5)
C11 0.0194(7) 0.0104(6) 0.0195(7) -0.0019(5) -0.0027(6) -0.0036(5)
loop_
_atom_type_symbol
_atom_type_description
_atom_type_scat_dispersion_real
_atom_type_scat_dispersion_imag
_atom_type_scat_source
C C 0.0181 0.0091 'International Tables Vol C Tables 4.2.6.8 and 6.1.1.4'
H H 0.0000 0.0000 'International Tables Vol C Tables 4.2.6.8 and 6.1.1.4'
N N 0.0311 0.0180 'International Tables Vol C Tables 4.2.6.8 and 6.1.1.4'
O O 0.0492 0.0322 'International Tables Vol C Tables 4.2.6.8 and 6.1.1.4'
loop_
_geom_angle_atom_site_label_1
_geom_angle_atom_site_label_2
_geom_angle_atom_site_label_3
_geom_angle
_geom_angle_site_symmetry_1
_geom_angle_site_symmetry_3
C7 O1 H1O 112.9(14) . .
C9 O2 H2O 111.2(14) . .
C5 N1 C1 117.51(11) . .
C2 N2 H1N 115.2(13) . .
C2 N2 H2N 117.5(12) . .
H1N N2 H2N 127.2(18) . .
C2 C1 N1 121.74(12) . .
C2 C1 C3 117.96(12) . .
N1 C1 C3 120.30(12) . .
N2 C2 C1 126.49(13) . .
N2 C2 C4 116.97(13) . .
C1 C2 C4 116.53(12) . .
N3 C3 C1 177.81(16) . .
N4 C4 C2 178.78(16) . .
N1 C5 C6 124.68(12) . .
N1 C5 H5 117.7 . .
C6 C5 H5 117.7 . .
C11 C6 C7 117.97(13) . .
C11 C6 C5 117.99(12) . .
C7 C6 C5 124.04(13) . .
O1 C7 C8 118.00(11) . .
O1 C7 C6 121.52(13) . .
C8 C7 C6 120.48(13) . .
C7 C8 C9 119.39(12) . .
C7 C8 H8 120.3 . .
C9 C8 H8 120.3 . .
O2 C9 C8 122.35(11) . .
O2 C9 C10 116.46(13) . .
C8 C9 C10 121.19(13) . .
C11 C10 C9 118.71(13) . .
C11 C10 H10 120.6 . .
C9 C10 H10 120.6 . .
C10 C11 C6 122.25(12) . .
C10 C11 H11 118.9 . .
C6 C11 H11 118.9 . .
loop_
_geom_bond_atom_site_label_1
_geom_bond_atom_site_label_2
_geom_bond_distance
_geom_bond_site_symmetry_2
O1 C7 1.3539(17) .
O1 H1O 0.850(10) .
O2 C9 1.3658(17) .
O2 H2O 0.832(9) .
N1 C5 1.294(2) .
N1 C1 1.4033(18) .
N2 C2 1.3460(18) .
N2 H1N 0.880(9) .
N2 H2N 0.893(9) .
N3 C3 1.1500(19) .
N4 C4 1.1506(19) .
C1 C2 1.369(2) .
C1 C3 1.4355(18) .
C2 C4 1.4456(19) .
C5 C6 1.4401(19) .
C5 H5 0.9500 .
C6 C11 1.400(2) .
C6 C7 1.4155(19) .
C7 C8 1.390(2) .
C8 C9 1.394(2) .
C8 H8 0.9500 .
C9 C10 1.3956(19) .
C10 C11 1.374(2) .
C10 H10 0.9500 .
C11 H11 0.9500 .
loop_
_geom_torsion_atom_site_label_1
_geom_torsion_atom_site_label_2
_geom_torsion_atom_site_label_3
_geom_torsion_atom_site_label_4
_geom_torsion
_geom_torsion_site_symmetry_1
_geom_torsion_site_symmetry_2
_geom_torsion_site_symmetry_3
_geom_torsion_site_symmetry_4
C5 N1 C1 C2 173.23(13) . . . .
C5 N1 C1 C3 -6.9(2) . . . .
N1 C1 C2 N2 -3.4(2) . . . .
C3 C1 C2 N2 176.68(14) . . . .
N1 C1 C2 C4 176.02(12) . . . .
C3 C1 C2 C4 -3.9(2) . . . .
C1 N1 C5 C6 178.34(12) . . . .
N1 C5 C6 C11 179.02(13) . . . .
N1 C5 C6 C7 -1.4(2) . . . .
C11 C6 C7 O1 -179.46(12) . . . .
C5 C6 C7 O1 0.9(2) . . . .
C11 C6 C7 C8 1.2(2) . . . .
C5 C6 C7 C8 -178.44(13) . . . .
O1 C7 C8 C9 179.59(12) . . . .
C6 C7 C8 C9 -1.0(2) . . . .
C7 C8 C9 O2 179.71(12) . . . .
C7 C8 C9 C10 0.3(2) . . . .
O2 C9 C10 C11 -179.22(12) . . . .
C8 C9 C10 C11 0.2(2) . . . .
C9 C10 C11 C6 0.0(2) . . . .
C7 C6 C11 C10 -0.6(2) . . . .
C5 C6 C11 C10 178.99(12) . . . .
