#------------------------------------------------------------------------------
#$Date: 2022-07-01 11:06:31 +0300 (Fri, 01 Jul 2022) $
#$Revision: 276480 $
#$URL: file:///home/coder/svn-repositories/cod/cif/8/10/56/8105609.cif $
#------------------------------------------------------------------------------
#
# This file is available in the Crystallography Open Database (COD),
# http://www.crystallography.net/
#
# All data on this site have been placed in the public domain by the
# contributors.
#
data_8105609
loop_
_publ_author_name
'Liu, Yang'
'Zheng, Xiao-Yuan'
'Qin, Liu-Lei'
'Zhu, Chun-Li'
'Liu, Zunqi'
_publ_section_title
;
 Crystal structure of citric acid--acetonitrile (1/1), C8H11NO7
;
_journal_issue                   2
_journal_name_full
'Zeitschrift f\"ur Kristallographie - New Crystal Structures'
_journal_page_first              255
_journal_page_last               256
_journal_paper_doi               10.1515/ncrs-2018-0290
_journal_volume                  234
_journal_year                    2019
_chemical_formula_moiety         'C6 H8 O7, C2 H3 N'
_chemical_formula_sum            'C8 H11 N O7'
_chemical_formula_weight         233.18
_space_group_crystal_system      triclinic
_space_group_IT_number           2
_space_group_name_Hall           '-P 1'
_space_group_name_H-M_alt        'P -1'
_atom_sites_solution_hydrogens   geom
_atom_sites_solution_primary     direct
_cell_angle_alpha                110.297(2)
_cell_angle_beta                 101.342(3)
_cell_angle_gamma                104.701(2)
_cell_formula_units_Z            2
_cell_length_a                   5.5944(13)
_cell_length_b                   10.402(3)
_cell_length_c                   10.666(3)
_cell_measurement_reflns_used    3926
_cell_measurement_temperature    293(2)
_cell_measurement_theta_max      27.454
_cell_measurement_theta_min      2.228
_cell_volume                     534.6(2)
_computing_cell_refinement       'SAINT v8.27A (Bruker, 2012) [4]'
_computing_data_reduction        'SAINT v8.27A (Bruker, 2012) [4]'
_computing_molecular_graphics    'Olex2 (Dolomanov et al., 2009) [1]'
_computing_publication_material  'Olex2 (Dolomanov et al., 2009) [1]'
_computing_structure_refinement  'ShelXL (Sheldrick, 2015) [3]'
_computing_structure_solution    'ShelXS (Sheldrick, 2008) [2]'
_diffrn_ambient_temperature      293(2)
_diffrn_measured_fraction_theta_full 0.994
_diffrn_measured_fraction_theta_max 0.994
_diffrn_measurement_device_type  'CCD area detector'
_diffrn_measurement_method       'phi and omega scans'
_diffrn_radiation_monochromator  graphite
_diffrn_radiation_type           MoK\a
_diffrn_radiation_wavelength     0.71073
_diffrn_reflns_av_R_equivalents  0.0143
_diffrn_reflns_av_unetI/netI     0.0150
_diffrn_reflns_Laue_measured_fraction_full 0.994
_diffrn_reflns_Laue_measured_fraction_max 0.994
_diffrn_reflns_limit_h_max       6
_diffrn_reflns_limit_h_min       -6
_diffrn_reflns_limit_k_max       12
_diffrn_reflns_limit_k_min       -12
_diffrn_reflns_limit_l_max       12
_diffrn_reflns_limit_l_min       -12
_diffrn_reflns_number            4273
_diffrn_reflns_point_group_measured_fraction_full 0.994
_diffrn_reflns_point_group_measured_fraction_max 0.994
_diffrn_reflns_theta_full        25.098
_diffrn_reflns_theta_max         25.098
_diffrn_reflns_theta_min         3.684
_exptl_absorpt_coefficient_mu    0.129
_exptl_absorpt_correction_T_max  0.9746
_exptl_absorpt_correction_T_min  0.9721
_exptl_absorpt_correction_type   multi-scan
_exptl_absorpt_process_details   sadabs
_exptl_crystal_colour            yellow
_exptl_crystal_colour_primary    yellow
_exptl_crystal_density_diffrn    1.448
_exptl_crystal_density_method    'not measured'
_exptl_crystal_description       block
_exptl_crystal_F_000             244
_exptl_crystal_size_max          0.22
_exptl_crystal_size_mid          0.21
_exptl_crystal_size_min          0.2
_refine_diff_density_max         0.245
_refine_diff_density_min         -0.171
_refine_diff_density_rms         0.034
_refine_ls_extinction_coef       0.132(8)
_refine_ls_extinction_expression Fc^*^=kFc[1+0.001xFc^2^\l^3^/sin(2\q)]^-1/4^
_refine_ls_extinction_method     'SHELXL-2018/3 (Sheldrick 2018)'
_refine_ls_goodness_of_fit_ref   1.068
_refine_ls_hydrogen_treatment    constr
_refine_ls_matrix_type           full
_refine_ls_number_parameters     151
_refine_ls_number_reflns         1900
_refine_ls_number_restraints     0
_refine_ls_restrained_S_all      1.068
_refine_ls_R_factor_all          0.0337
_refine_ls_R_factor_gt           0.0318
_refine_ls_shift/su_max          0.000
_refine_ls_shift/su_mean         0.000
_refine_ls_structure_factor_coef Fsqd
_refine_ls_weighting_details
'w=1/[\s^2^(Fo^2^)+(0.0343P)^2^+0.1932P] where P=(Fo^2^+2Fc^2^)/3'
_refine_ls_weighting_scheme      calc
_refine_ls_wR_factor_gt          0.0816
_refine_ls_wR_factor_ref         0.0833
_reflns_Friedel_coverage         0.000
_reflns_Friedel_fraction_full    .
_reflns_Friedel_fraction_max     .
_reflns_number_gt                1791
_reflns_number_total             1900
_reflns_threshold_expression     'I > 2\s(I)'
_iucr_refine_instructions_details
;
TITL qq in P1 New: P-1
    qq.res
    created by SHELXL-2018/3 at 16:51:45 on 27-Jul-2018
CELL 0.71073 5.5944 10.402 10.666 110.297 101.342 104.701
ZERR 2 0.0013 0.003 0.003 0.002 0.003 0.002
LATT 1
SFAC C H N O
UNIT 16 22 2 14

L.S. 20
PLAN  20
SIZE 0.22 0.21 0.2
BOND $H
CONF
fmap 2
acta
OMIT -3 50.2
REM <olex2.extras>
REM <HklSrc "%.\\qq.hkl">
REM </olex2.extras>

WGHT    0.034300    0.193200
EXTI    0.132002
FVAR       0.51096
O1    4    0.634437   -0.170070    0.111601    11.00000    0.08367    0.06238 =
         0.05019    0.03618    0.04306    0.05015
C1    1    0.539311   -0.181984    0.200765    11.00000    0.03913    0.02472 =
         0.03007    0.01024    0.01110    0.01349
N1    3   -0.122760    0.557831    0.176653    11.00000    0.07944    0.06734 =
         0.10204    0.04440    0.04704    0.04885
O2    4    0.585910   -0.264593    0.265144    11.00000    0.07198    0.05466 =
         0.06619    0.04242    0.04315    0.04580
AFIX 147
H2    2    0.681723   -0.305487    0.233037    11.00000   -1.50000
AFIX   0
C2    1    0.357708   -0.106455    0.252119    11.00000    0.03130    0.02645 =
         0.03791    0.01280    0.01234    0.01167
AFIX  23
H2A   2    0.309794   -0.133701    0.324403    11.00000   -1.20000
H2B   2    0.200046   -0.139718    0.174617    11.00000   -1.20000
AFIX   0
O3    4    0.716567    0.101592    0.418184    11.00000    0.02546    0.03326 =
         0.03433    0.01452    0.00600    0.00972
AFIX 147
H3    2    0.815639    0.180677    0.429412    11.00000   -1.50000
AFIX   0
C3    1    0.480080    0.060863    0.312196    11.00000    0.02402    0.02510 =
         0.02778    0.01107    0.00965    0.01114
O4    4    0.313794    0.081429    0.101768    11.00000    0.04989    0.07474 =
         0.03808    0.03418    0.01891    0.03410
AFIX 147
H4    2    0.346675    0.102617    0.038311    11.00000   -1.50000
AFIX   0
C4    1    0.533543    0.108486    0.196484    11.00000    0.03787    0.02840 =
         0.03193    0.01335    0.01739    0.01932
O5    4    0.746891    0.161619    0.192890    11.00000    0.04519    0.05817 =
         0.05480    0.03278    0.02823    0.01597
C5    1    0.290231    0.126143    0.373887    11.00000    0.02655    0.02733 =
         0.03022    0.01094    0.01243    0.01124
AFIX  23
H5A   2    0.124444    0.087547    0.300564    11.00000   -1.20000
H5B   2    0.261514    0.095227    0.447330    11.00000   -1.20000
AFIX   0
O6    4    0.590573    0.364067    0.433204    11.00000    0.04244    0.02737 =
         0.07745    0.01413    0.03362    0.01333
C6    1    0.384523    0.289662    0.433874    11.00000    0.02911    0.03010 =
         0.03003    0.01124    0.01196    0.01411
O7    4    0.221382    0.345997    0.485844    11.00000    0.03680    0.02837 =
         0.05207    0.01127    0.02220    0.01682
AFIX 147
H7    2    0.278316    0.435099    0.512809    11.00000   -1.50000
AFIX   0

C7    1   -0.000284    0.485976    0.163155    11.00000    0.05435    0.04366 =
         0.05815    0.02699    0.02530    0.02305
C8    1    0.158701    0.394771    0.145000    11.00000    0.05589    0.04607 =
         0.07354    0.03341    0.02956    0.02750
AFIX 137
H8A   2    0.211889    0.387703    0.063319    11.00000   -1.50000
H8B   2    0.059802    0.298853    0.133036    11.00000   -1.50000
H8C   2    0.309802    0.437297    0.226611    11.00000   -1.50000
AFIX   0
HKLF 4




REM  qq in P1 New: P-1
REM wR2 = 0.0833, GooF = S = 1.068, Restrained GooF = 1.068 for all data
REM R1 = 0.0318 for 1791 Fo > 4sig(Fo) and 0.0337 for all 1900 data
REM 151 parameters refined using 0 restraints

END  
     
WGHT      0.0316      0.2002 

REM Highest difference peak  0.245,  deepest hole -0.171,  1-sigma level  0.034
Q1    1   0.3835  0.0955  0.3443  11.00000  0.05    0.25
Q2    1   0.5023  0.0851  0.2578  11.00000  0.05    0.20
Q3    1   0.4147 -0.0215  0.2843  11.00000  0.05    0.19
Q4    1   0.4888 -0.2248  0.0977  11.00000  0.05    0.17
Q5    1   0.4740 -0.3107  0.1725  11.00000  0.05    0.16
Q6    1   0.3531  0.2024  0.4139  11.00000  0.05    0.16
Q7    1   0.4328 -0.1436  0.2242  11.00000  0.05    0.15
Q8    1   0.5839  0.3685  0.4942  11.00000  0.05    0.14
Q9    1   0.3228  0.4415  0.1373  11.00000  0.05    0.13
Q10   1   0.1364  0.3446  0.2196  11.00000  0.05    0.13
Q11   1   0.4661  0.3323  0.3866  11.00000  0.05    0.13
Q12   1   0.6430  0.4659  0.4762  11.00000  0.05    0.12
Q13   1   0.6617  0.2142  0.1964  11.00000  0.05    0.12
Q14   1   0.0257  0.2891  0.0507  11.00000  0.05    0.11
Q15   1   0.6674  0.3317  0.4099  11.00000  0.05    0.11
Q16   1   0.0345  0.2589  0.4355  11.00000  0.05    0.11
Q17   1  -0.1537  0.6343  0.1954  11.00000  0.05    0.10
Q18   1  -0.1717  0.4564  0.1491  11.00000  0.05    0.10
Q19   1  -0.0019  0.5550  0.1416  11.00000  0.05    0.10
Q20   1   0.2388 -0.1453  0.2575  11.00000  0.05    0.10

  REM The information below was added by Olex2.
  REM
  REM R1 = 0.0318 for 1791 Fo > 4sig(Fo) and 0.0337 for all 5110 data
  REM n/a parameters refined using n/a restraints
  REM Highest difference peak 0.25, deepest hole -0.17
  REM Mean Shift 0, Max Shift 0.000.

  REM +++ Tabular Listing of Refinement Information +++
  REM R1_all = 0.0337
  REM R1_gt = 0.0318
  REM wR_ref = 0.0833
  REM GOOF = 1.068
  REM Shift_max = 0.000
  REM Shift_mean = 0
  REM Reflections_all = 5110
  REM Reflections_gt = 1791
  REM Parameters = n/a
  REM Hole = -0.17
  REM Peak = 0.25
  REM Flack = n/a

  
;
_cod_data_source_file            suppl_ncrs-2018-0290_suppl.cif
_cod_data_source_block           exp_1115
_cod_database_code               8105609
_shelx_space_group_comment
;
The symmetry employed for this shelxl refinement is uniquely defined
by the following loop, which should always be used as a source of
symmetry information in preference to the above space-group names.
They are only intended as comments.
;
_shelx_estimated_absorpt_t_max   0.975
_shelx_estimated_absorpt_t_min   0.972
_olex2_refinement_description
;
1. Fixed Uiso
 At 1.2 times of:
  All C(H,H) groups
 At 1.5 times of:
  All C(H,H,H) groups, All O(H) groups
2.a Secondary CH2 refined with riding coordinates:
 C2(H2A,H2B), C5(H5A,H5B)
2.b Idealised Me refined as rotating group:
 C8(H8A,H8B,H8C)
2.c Idealised tetrahedral OH refined as rotating group:
 O2(H2), O3(H3), O4(H4), O7(H7)
;
loop_
_space_group_symop_operation_xyz
'x, y, z'
'-x, -y, -z'
loop_
_atom_site_label
_atom_site_type_symbol
_atom_site_fract_x
_atom_site_fract_y
_atom_site_fract_z
_atom_site_U_iso_or_equiv
_atom_site_adp_type
_atom_site_occupancy
_atom_site_site_symmetry_order
_atom_site_calc_flag
_atom_site_refinement_flags_posn
_atom_site_refinement_flags_adp
_atom_site_refinement_flags_occupancy
_atom_site_disorder_assembly
_atom_site_disorder_group
O1 O 0.6344(3) -0.17007(13) 0.11160(12) 0.0530(3) Uani 1 1 d . . . . .
C1 C 0.5393(3) -0.18198(14) 0.20076(13) 0.0311(3) Uani 1 1 d . . . . .
N1 N -0.1228(4) 0.55783(19) 0.1767(2) 0.0725(5) Uani 1 1 d . . . . .
O2 O 0.5859(2) -0.26459(13) 0.26514(13) 0.0508(3) Uani 1 1 d . . . . .
H2 H 0.681723 -0.305487 0.233037 0.076 Uiso 1 1 calc GR . . . .
C2 C 0.3577(3) -0.10645(13) 0.25212(14) 0.0315(3) Uani 1 1 d . . . . .
H2A H 0.309794 -0.133701 0.324403 0.038 Uiso 1 1 calc R . . . .
H2B H 0.200046 -0.139718 0.174617 0.038 Uiso 1 1 calc R . . . .
O3 O 0.71657(17) 0.10159(10) 0.41818(9) 0.0316(2) Uani 1 1 d . . . . .
H3 H 0.815639 0.180677 0.429412 0.047 Uiso 1 1 calc GR . . . .
C3 C 0.4801(2) 0.06086(13) 0.31220(13) 0.0249(3) Uani 1 1 d . . . . .
O4 O 0.3138(2) 0.08143(14) 0.10177(11) 0.0477(3) Uani 1 1 d . . . . .
H4 H 0.346675 0.102617 0.038311 0.072 Uiso 1 1 calc GR . . . .
C4 C 0.5335(3) 0.10849(14) 0.19648(13) 0.0299(3) Uani 1 1 d . . . . .
O5 O 0.7469(2) 0.16162(12) 0.19289(12) 0.0485(3) Uani 1 1 d . . . . .
C5 C 0.2902(2) 0.12614(13) 0.37389(13) 0.0274(3) Uani 1 1 d . . . . .
H5A H 0.124444 0.087547 0.300564 0.033 Uiso 1 1 calc R . . . .
H5B H 0.261514 0.095227 0.447330 0.033 Uiso 1 1 calc R . . . .
O6 O 0.5906(2) 0.36407(10) 0.43320(13) 0.0488(3) Uani 1 1 d . . . . .
C6 C 0.3845(2) 0.28966(14) 0.43387(13) 0.0289(3) Uani 1 1 d . . . . .
O7 O 0.22138(18) 0.34600(10) 0.48584(11) 0.0383(3) Uani 1 1 d . . . . .
H7 H 0.278316 0.435099 0.512809 0.057 Uiso 1 1 calc GR . . . .
C7 C -0.0003(3) 0.48598(18) 0.16316(18) 0.0479(4) Uani 1 1 d . . . . .
C8 C 0.1587(3) 0.39477(18) 0.1450(2) 0.0525(4) Uani 1 1 d . . . . .
H8A H 0.211889 0.387703 0.063319 0.079 Uiso 1 1 calc GR . . . .
H8B H 0.059802 0.298853 0.133036 0.079 Uiso 1 1 calc GR . . . .
H8C H 0.309802 0.437297 0.226611 0.079 Uiso 1 1 calc GR . . . .
loop_
_atom_site_aniso_label
_atom_site_aniso_U_11
_atom_site_aniso_U_22
_atom_site_aniso_U_33
_atom_site_aniso_U_23
_atom_site_aniso_U_13
_atom_site_aniso_U_12
O1 0.0837(9) 0.0624(7) 0.0502(7) 0.0362(6) 0.0431(6) 0.0502(7)
C1 0.0391(7) 0.0247(6) 0.0301(7) 0.0102(5) 0.0111(6) 0.0135(5)
N1 0.0794(12) 0.0673(11) 0.1020(14) 0.0444(10) 0.0470(11) 0.0488(10)
O2 0.0720(8) 0.0547(7) 0.0662(7) 0.0424(6) 0.0431(6) 0.0458(6)
C2 0.0313(7) 0.0264(7) 0.0379(7) 0.0128(6) 0.0123(6) 0.0117(5)
O3 0.0255(5) 0.0333(5) 0.0343(5) 0.0145(4) 0.0060(4) 0.0097(4)
C3 0.0240(6) 0.0251(6) 0.0278(6) 0.0111(5) 0.0097(5) 0.0111(5)
O4 0.0499(6) 0.0747(8) 0.0381(6) 0.0342(6) 0.0189(5) 0.0341(6)
C4 0.0379(7) 0.0284(6) 0.0319(7) 0.0133(5) 0.0174(6) 0.0193(6)
O5 0.0452(6) 0.0582(7) 0.0548(7) 0.0328(6) 0.0282(5) 0.0160(5)
C5 0.0266(6) 0.0273(6) 0.0302(6) 0.0109(5) 0.0124(5) 0.0112(5)
O6 0.0424(6) 0.0274(5) 0.0775(8) 0.0141(5) 0.0336(6) 0.0133(5)
C6 0.0291(7) 0.0301(7) 0.0300(6) 0.0112(5) 0.0120(5) 0.0141(5)
O7 0.0368(5) 0.0284(5) 0.0521(6) 0.0113(5) 0.0222(5) 0.0168(4)
C7 0.0543(9) 0.0437(9) 0.0582(10) 0.0270(8) 0.0253(8) 0.0231(8)
C8 0.0559(10) 0.0461(9) 0.0735(12) 0.0334(9) 0.0296(9) 0.0275(8)
loop_
_atom_type_symbol
_atom_type_description
_atom_type_scat_dispersion_real
_atom_type_scat_dispersion_imag
_atom_type_scat_source
C C 0.0033 0.0016 'International Tables Vol C Tables 4.2.6.8 and 6.1.1.4'
H H 0.0000 0.0000 'International Tables Vol C Tables 4.2.6.8 and 6.1.1.4'
N N 0.0061 0.0033 'International Tables Vol C Tables 4.2.6.8 and 6.1.1.4'
O O 0.0106 0.0060 'International Tables Vol C Tables 4.2.6.8 and 6.1.1.4'
loop_
_geom_angle_atom_site_label_1
_geom_angle_atom_site_label_2
_geom_angle_atom_site_label_3
_geom_angle
_geom_angle_site_symmetry_1
_geom_angle_site_symmetry_3
O1 C1 O2 122.41(12) . .
O1 C1 C2 125.32(12) . .
O2 C1 C2 112.28(11) . .
C1 O2 H2 109.5 . .
C1 C2 H2A 109.1 . .
C1 C2 H2B 109.1 . .
C1 C2 C3 112.44(10) . .
H2A C2 H2B 107.8 . .
C3 C2 H2A 109.1 . .
C3 C2 H2B 109.1 . .
C3 O3 H3 109.5 . .
O3 C3 C2 106.41(10) . .
O3 C3 C4 110.11(10) . .
O3 C3 C5 111.21(10) . .
C4 C3 C2 110.42(10) . .
C4 C3 C5 110.67(10) . .
C5 C3 C2 107.92(10) . .
C4 O4 H4 109.5 . .
O4 C4 C3 111.08(11) . .
O5 C4 C3 123.85(12) . .
O5 C4 O4 125.07(12) . .
C3 C5 H5A 108.9 . .
C3 C5 H5B 108.9 . .
H5A C5 H5B 107.7 . .
C6 C5 C3 113.36(10) . .
C6 C5 H5A 108.9 . .
C6 C5 H5B 108.9 . .
O6 C6 C5 123.57(11) . .
O6 C6 O7 122.88(12) . .
O7 C6 C5 113.55(11) . .
C6 O7 H7 109.5 . .
N1 C7 C8 179.27(19) . .
C7 C8 H8A 109.5 . .
C7 C8 H8B 109.5 . .
C7 C8 H8C 109.5 . .
H8A C8 H8B 109.5 . .
H8A C8 H8C 109.5 . .
H8B C8 H8C 109.5 . .
loop_
_geom_bond_atom_site_label_1
_geom_bond_atom_site_label_2
_geom_bond_distance
_geom_bond_site_symmetry_2
O1 C1 1.2043(17) .
C1 O2 1.3155(17) .
C1 C2 1.5083(18) .
N1 C7 1.128(2) .
O2 H2 0.8200 .
C2 H2A 0.9700 .
C2 H2B 0.9700 .
C2 C3 1.5354(17) .
O3 H3 0.8200 .
O3 C3 1.4152(15) .
C3 C4 1.5337(17) .
C3 C5 1.5340(16) .
O4 H4 0.8200 .
O4 C4 1.3228(17) .
C4 O5 1.1956(17) .
C5 H5A 0.9700 .
C5 H5B 0.9700 .
C5 C6 1.4959(18) .
O6 C6 1.2174(16) .
C6 O7 1.3148(15) .
O7 H7 0.8200 .
C7 C8 1.448(2) .
C8 H8A 0.9600 .
C8 H8B 0.9600 .
C8 H8C 0.9600 .
loop_
_geom_torsion_atom_site_label_1
_geom_torsion_atom_site_label_2
_geom_torsion_atom_site_label_3
_geom_torsion_atom_site_label_4
_geom_torsion
_geom_torsion_site_symmetry_1
_geom_torsion_site_symmetry_2
_geom_torsion_site_symmetry_3
_geom_torsion_site_symmetry_4
O1 C1 C2 C3 -58.45(18) . . . .
C1 C2 C3 O3 -55.13(13) . . . .
C1 C2 C3 C4 64.35(14) . . . .
C1 C2 C3 C5 -174.58(10) . . . .
O2 C1 C2 C3 121.38(13) . . . .
C2 C3 C4 O4 67.55(13) . . . .
C2 C3 C4 O5 -111.76(14) . . . .
C2 C3 C5 C6 -178.89(10) . . . .
O3 C3 C4 O4 -175.24(10) . . . .
O3 C3 C4 O5 5.46(17) . . . .
O3 C3 C5 C6 64.75(13) . . . .
C3 C5 C6 O6 0.48(19) . . . .
C3 C5 C6 O7 179.48(10) . . . .
C4 C3 C5 C6 -57.98(14) . . . .
C5 C3 C4 O4 -51.87(14) . . . .
C5 C3 C4 O5 128.82(13) . . . .
loop_
_refln_index_h
_refln_index_k
_refln_index_l
_refln_F_squared_meas
_refln_F_squared_sigma
-1 0 0 547.41 9.72
1 0 0 599.11 10.08
1 0 0 607.56 10.19
-2 0 0 89.35 1.47
2 0 0 89.61 1.53
2 0 0 89.88 1.51
-3 0 0 21.27 0.35
3 0 0 20.88 0.36
3 0 0 21.04 0.37
-4 0 0 4.4 0.11
4 0 0 4.35 0.11
4 0 0 4.44 0.11
-5 0 0 0.41 0.05
5 0 0 0.31 0.04
-6 0 0 -0.01 0.04
6 0 0 -0.01 0.03
6 -1 0 1.77 0.1
-6 1 0 1.74 0.09
5 -1 0 49.48 0.86
-5 1 0 50.85 0.83
4 -1 0 5.82 0.13
4 -1 0 5.85 0.14
-4 1 0 5.93 0.13
3 -1 0 118.88 2.02
3 -1 0 121.3 1.97
-3 1 0 117.24 1.91
2 -1 0 140.12 2.35
2 -1 0 142.57 2.33
-2 1 0 137.7 2.24
1 -1 0 128.81 2.08
1 -1 0 127.88 2.09
-1 1 0 131.66 2.09
-1 1 0 118.95 1.98
-1 -1 0 763.24 12.94
1 1 0 799.02 13.31
1 1 0 759.03 13.32
-2 -1 0 14.08 0.24
2 1 0 13.95 0.24
2 1 0 13.81 0.24
-3 -1 0 0.04 0.02
3 1 0 0.08 0.02
3 1 0 0.05 0.02
-4 -1 0 24.98 0.43
4 1 0 24.73 0.44
-5 -1 0 18.07 0.34
5 1 0 17.83 0.35
-6 -1 0 0.53 0.06
6 -2 0 1.21 0.08
-6 2 0 1.24 0.08
5 -2 0 19.21 0.37
-5 2 0 19.36 0.36
4 -2 0 21.42 0.39
4 -2 0 21.65 0.38
-4 2 0 21.14 0.37
-4 2 0 21.73 0.38
3 -2 0 74.08 1.23
3 -2 0 75.04 1.22
-3 2 0 73.87 1.25
-3 2 0 73.76 1.16
2 -2 0 162.76 2.76
-2 2 0 165.52 2.76
-2 2 0 167.89 2.62
1 -2 0 -0.12 0.02
-1 2 0 -0.1 0.01
-1 2 0 -0.1 0.02
0 -2 0 7.53 0.14
0 -2 0 7.62 0.14
0 2 0 7.71 0.15
-1 -2 0 455.54 8.46
1 2 0 486.93 8.82
1 2 0 438.17 8.43
-2 -2 0 104.46 1.62
2 2 0 101.72 1.73
2 2 0 100.43 1.71
-3 -2 0 28.86 0.47
3 2 0 28.28 0.48
3 2 0 28.52 0.49
-4 -2 0 1.24 0.07
4 2 0 1.23 0.06
-5 -2 0 3.78 0.12
-6 -2 0 7.11 0.2
7 -3 0 0.01 0.04
6 -3 0 7.63 0.2
-6 3 0 7.66 0.19
5 -3 0 3.48 0.12
-5 3 0 3.38 0.11
4 -3 0 0.01 0.02
-4 3 0 0.04 0.02
-4 3 0 0.02 0.02
3 -3 0 182.1 3
-3 3 0 177.81 3.04
-3 3 0 182.13 2.91
2 -3 0 341.35 5.59
-2 3 0 347.93 5.36
-2 3 0 340.16 5.62
1 -3 0 0.16 0.02
-1 3 0 0.17 0.01
-1 3 0 0.12 0.02
0 -3 0 135.76 2.21
0 -3 0 133.82 2.13
0 3 0 133.74 2.26
-1 -3 0 0.3 0.02
-1 -3 0 0.28 0.02
1 3 0 0.24 0.03
-2 -3 0 68.68 1.11
2 3 0 67.89 1.14
2 3 0 75.87 1.16
-3 -3 0 -0.02 0.02
3 3 0 0.03 0.02
3 3 0 0.06 0.02
-4 -3 0 11.82 0.24
-5 -3 0 7.62 0.19
7 -4 0 0.68 0.08
6 -4 0 3.02 0.13
5 -4 0 22.39 0.43
-5 4 0 23.33 0.41
4 -4 0 6.5 0.16
-4 4 0 6.77 0.15
-4 4 0 7.08 0.15
3 -4 0 51.73 0.87
-3 4 0 52.51 0.83
-3 4 0 52.4 0.87
2 -4 0 230.63 3.76
-2 4 0 225.19 3.78
-2 4 0 221.09 3.55
1 -4 0 116.51 1.84
1 -4 0 114.49 1.89
-1 4 0 113.53 1.94
0 -4 0 459.74 7.52
0 -4 0 465.9 8.71
0 4 0 476.2 7.65
-1 -4 0 26.01 0.42
-1 -4 0 26.24 0.44
1 4 0 26.22 0.45
-2 -4 0 74.41 1.14
-2 -4 0 73.34 1.18
2 4 0 72.04 1.2
2 4 0 71.63 1.17
-3 -4 0 4.42 0.12
3 4 0 4.44 0.12
-4 -4 0 0.64 0.06
-5 -4 0 0.66 0.08
7 -5 0 1.23 0.11
6 -5 0 4.46 0.16
5 -5 0 8.8 0.22
4 -5 0 19.84 0.38
-4 5 0 19.49 0.35
-4 5 0 19.67 0.36
3 -5 0 3.8 0.11
-3 5 0 3.8 0.1
-3 5 0 3.94 0.09
2 -5 0 6.86 0.15
-2 5 0 6.94 0.13
-2 5 0 6.78 0.15
1 -5 0 93.55 1.49
1 -5 0 91.4 1.47
-1 5 0 92.59 1.53
0 -5 0 121.88 1.99
0 -5 0 119.16 1.95
0 5 0 120.81 1.96
-1 -5 0 0.37 0.03
-1 -5 0 0.46 0.03
-2 -5 0 17.34 0.31
-2 -5 0 17.53 0.31
2 5 0 17.41 0.33
2 5 0 17.69 0.31
-3 -5 0 49.37 0.8
3 5 0 48.31 0.84
-4 -5 0 0.09 0.04
-5 -5 0 0.46 0.06
7 -6 0 1.8 0.12
6 -6 0 7.41 0.21
5 -6 0 36.58 0.66
4 -6 0 4.86 0.14
-4 6 0 4.86 0.13
3 -6 0 22.25 0.42
-3 6 0 23.17 0.41
2 -6 0 3.02 0.07
2 -6 0 2.94 0.09
-2 6 0 3.05 0.07
-2 6 0 3.05 0.09
1 -6 0 12.05 0.21
1 -6 0 12.02 0.23
-1 6 0 12.03 0.24
0 -6 0 0.54 0.03
0 -6 0 0.57 0.04
0 6 0 0.7 0.05
-1 -6 0 3.17 0.08
-1 -6 0 2.82 0.08
1 6 0 2.88 0.1
-2 -6 0 3.81 0.11
2 6 0 4.1 0.12
-3 -6 0 1.39 0.08
-4 -6 0 1.68 0.09
6 -7 0 3.33 0.14
5 -7 0 0.27 0.05
-5 7 0 0.27 0.04
4 -7 0 21.29 0.41
-4 7 0 21.34 0.4
3 -7 0 17.21 0.33
-3 7 0 16.93 0.33
2 -7 0 38.78 0.67
-2 7 0 39.52 0.68
1 -7 0 12.71 0.25
1 -7 0 12.3 0.22
-1 7 0 12.41 0.26
0 -7 0 3.79 0.09
0 -7 0 3.71 0.1
0 7 0 3.6 0.11
-1 -7 0 1.86 0.07
1 7 0 1.9 0.08
-2 -7 0 1.7 0.08
2 7 0 1.65 0.09
-3 -7 0 0.08 0.04
-4 -7 0 0.41 0.06
6 -8 0 2.14 0.12
5 -8 0 1.1 0.09
-5 8 0 1.11 0.08
4 -8 0 0.82 0.08
-4 8 0 0.9 0.07
3 -8 0 93.14 1.54
-3 8 0 93.81 1.56
2 -8 0 58.27 0.97
-2 8 0 56.56 0.98
1 -8 0 3.37 0.11
-1 8 0 3.25 0.11
0 -8 0 3.21 0.09
0 8 0 3.33 0.12
-1 -8 0 1.16 0.06
1 8 0 1.23 0.08
-2 -8 0 2.77 0.1
2 8 0 2.86 0.12
-3 -8 0 0.24 0.05
6 -9 0 -0.01 0.04
5 -9 0 5.22 0.17
-5 9 0 5.24 0.16
4 -9 0 4.96 0.16
-4 9 0 4.96 0.15
3 -9 0 9.63 0.23
-3 9 0 9.69 0.23
2 -9 0 5.18 0.15
-2 9 0 5.04 0.15
1 -9 0 1.89 0.1
-1 9 0 1.92 0.1
0 9 0 0.25 0.05
-1 -9 0 0.42 0.04
1 9 0 0.38 0.06
-2 -9 0 11.16 0.24
2 9 0 11.21 0.27
6 -10 0 3.89 0.17
5 -10 0 0.37 0.06
-5 10 0 0.34 0.06
4 -10 0 1.22 0.09
-4 10 0 1.29 0.09
3 -10 0 0.72 0.08
-3 10 0 0.87 0.08
2 -10 0 10.1 0.24
-2 10 0 10.14 0.25
-1 10 0 0.63 0.08
0 10 0 1 0.09
1 10 0 0.27 0.05
-2 -10 0 0.42 0.06
2 10 0 0.42 0.06
5 -11 0 0.17 0.05
-5 11 0 0.27 0.06
4 -11 0 1.95 0.11
-4 11 0 1.93 0.12
3 -11 0 0.21 0.05
-3 11 0 0.17 0.05
-2 11 0 2.95 0.13
-1 11 0 20.11 0.42
0 11 0 9.68 0.26
1 11 0 1.46 0.11
4 -12 0 0.03 0.05
-4 12 0 0.09 0.05
-3 12 0 0.23 0.06
-2 12 0 1.03 0.1
-1 12 0 0.11 0.06
0 12 -1 0.23 0.06
-1 12 -1 0.36 0.07
-2 12 -1 13.84 0.33
-3 12 -1 10.33 0.27
-4 12 -1 0.27 0.06
1 11 -1 0.47 0.07
0 11 -1 -0.01 0.05
-1 11 -1 9.85 0.25
-2 11 -1 2.29 0.11
-3 11 -1 0.16 0.05
3 -11 1 0.02 0.04
-4 11 -1 14.86 0.33
4 -11 1 14.57 0.33
-5 11 -1 2.99 0.14
5 -11 1 3.17 0.14
2 10 -1 0.2 0.06
-2 -10 1 0.15 0.05
1 10 -1 2.26 0.12
-1 -10 1 2.25 0.09
0 10 -1 0.87 0.08
-1 10 -1 34 0.63
-2 10 -1 12.22 0.28
-3 10 -1 18.09 0.37
3 -10 1 17.86 0.37
-4 10 -1 0.79 0.08
4 -10 1 0.65 0.07
-5 10 -1 15.89 0.35
5 -10 1 16.09 0.36
6 -10 1 3.74 0.16
-3 -9 1 5.69 0.16
2 9 -1 5.12 0.17
-2 -9 1 5.08 0.14
1 9 -1 2.98 0.12
-1 -9 1 2.99 0.1
0 9 -1 5.12 0.15
0 -9 1 5.07 0.12
-1 9 -1 19.39 0.39
-2 9 -1 60.74 1.05
2 -9 1 61.05 1.03
-3 9 -1 8.49 0.21
3 -9 1 8.66 0.21
-4 9 -1 12.17 0.27
4 -9 1 11.8 0.27
5 -9 1 0.07 0.04
6 -9 1 0.53 0.07
3 8 -1 0.49 0.06
-3 -8 1 0.53 0.06
2 8 -1 3.35 0.12
-2 -8 1 3.28 0.11
1 8 -1 25.03 0.47
-1 -8 1 24.36 0.42
0 8 -1 28.87 0.53
0 -8 1 28.7 0.48
-1 8 -1 4.14 0.12
1 -8 1 4.22 0.11
1 -8 1 4.12 0.1
-2 8 -1 0.5 0.06
2 -8 1 0.55 0.05
-3 8 -1 7.54 0.18
3 -8 1 7.37 0.18
-4 8 -1 19.9 0.39
4 -8 1 19.94 0.4
5 -8 1 9.04 0.23
6 -8 1 6.41 0.2
-4 -7 1 0.04 0.04
3 7 -1 1.49 0.09
-3 -7 1 1.6 0.08
2 7 -1 1.39 0.08
-2 -7 1 1.33 0.07
1 7 -1 3.97 0.12
-1 -7 1 3.78 0.1
0 7 -1 0.14 0.03
0 -7 1 0.22 0.03
-1 7 -1 0.3 0.04
1 -7 1 0.3 0.03
1 -7 1 0.29 0.03
-2 7 -1 1.17 0.05
-2 7 -1 1.09 0.06
2 -7 1 1.07 0.06
2 -7 1 1.08 0.05
-3 7 -1 9.44 0.2
-3 7 -1 9.43 0.2
3 -7 1 9.22 0.21
-4 7 -1 0.06 0.03
4 -7 1 -0.03 0.03
5 -7 1 15.46 0.33
6 -7 1 5.71 0.18
-4 -6 1 0.07 0.04
3 6 -1 3.57 0.12
-3 -6 1 3.44 0.11
2 6 -1 35.7 0.63
-2 -6 1 35.54 0.59
1 6 -1 36.08 0.63
-1 -6 1 36.81 0.59
-1 -6 1 36.78 0.6
0 6 -1 1.27 0.06
0 -6 1 1.29 0.05
0 -6 1 1.32 0.05
-1 6 -1 26.71 0.47
1 -6 1 26.34 0.44
1 -6 1 27.49 0.46
-2 6 -1 24.27 0.43
-2 6 -1 23.96 0.4
2 -6 1 23.86 0.42
-3 6 -1 11.79 0.23
-3 6 -1 11.87 0.23
3 -6 1 11.64 0.24
-4 6 -1 16.03 0.31
-4 6 -1 15.82 0.3
4 -6 1 16.15 0.32
5 -6 1 1.53 0.09
6 -6 1 1.42 0.1
-5 -5 1 1.09 0.08
-4 -5 1 1.33 0.08
3 5 -1 14.11 0.29
-3 -5 1 14 0.27
2 5 -1 0.56 0.05
-2 -5 1 0.57 0.04
1 5 -1 88 1.43
-1 -5 1 84.11 1.39
-1 -5 1 88.54 1.35
0 5 -1 7.2 0.15
0 -5 1 7.04 0.14
0 -5 1 7.09 0.14
-1 5 -1 21.68 0.39
-1 5 -1 21.97 0.36
1 -5 1 22.13 0.38
1 -5 1 21.61 0.36
-2 5 -1 0 0.02
-2 5 -1 0.03 0.02
2 -5 1 -0.01 0.02
-3 5 -1 28.96 0.5
-3 5 -1 29.38 0.49
3 -5 1 29.42 0.51
-4 5 -1 21.09 0.38
-4 5 -1 20.93 0.38
4 -5 1 20.56 0.39
-5 5 -1 2.63 0.1
5 -5 1 2.59 0.11
6 -5 1 5.14 0.17
-5 -4 1 0.01 0.04
-4 -4 1 0.42 0.05
3 4 -1 0.68 0.05
-3 -4 1 0.79 0.05
2 4 -1 6.42 0.15
2 4 -1 6.81 0.13
-2 -4 1 6.57 0.13
1 4 -1 47.31 0.79
-1 -4 1 48.86 0.77
-1 -4 1 46.7 0.75
0 4 -1 293.74 4.85
0 -4 1 292.65 4.73
0 -4 1 294.1 4.63
-1 4 -1 25.59 0.44
-1 4 -1 26.16 0.42
1 -4 1 26.25 0.43
-2 4 -1 0.05 0.02
-2 4 -1 0.11 0.02
-3 4 -1 14.6 0.27
-3 4 -1 14.67 0.27
3 -4 1 14.62 0.27
-4 4 -1 70.31 1.14
-4 4 -1 69.13 1.11
4 -4 1 67.73 1.14
-5 4 -1 23.52 0.43
5 -4 1 23.48 0.45
-6 4 -1 1.91 0.1
6 -4 1 1.84 0.11
-6 -3 1 0.05 0.04
-5 -3 1 3.47 0.12
4 3 -1 1.62 0.07
-4 -3 1 1.5 0.07
3 3 -1 9.79 0.18
3 3 -1 9.65 0.2
-3 -3 1 9.55 0.19
2 3 -1 26.84 0.45
2 3 -1 27.66 0.47
-2 -3 1 27.47 0.45
1 3 -1 51.33 0.84
1 3 -1 49.82 0.83
-1 -3 1 52.21 0.84
-1 -3 1 51.03 0.8
0 -3 1 1.32 0.03
0 -3 1 1.24 0.04
-1 3 -1 9.08 0.17
-1 3 -1 9.05 0.16
-2 3 -1 44.2 0.72
-2 3 -1 43.72 0.69
2 -3 1 43.31 0.72
-3 3 -1 0.03 0.02
-3 3 -1 0.05 0.01
3 -3 1 0.01 0.02
-4 3 -1 80.95 1.27
4 -3 1 79.29 1.31
-5 3 -1 82.8 1.33
5 -3 1 82.03 1.37
-6 3 -1 3.74 0.14
6 -3 1 3.65 0.14
-6 -2 1 2.95 0.12
-5 -2 1 0.61 0.06
4 2 -1 0.25 0.03
4 2 -1 0.21 0.03
-4 -2 1 0.26 0.03
3 2 -1 43.13 0.72
3 2 -1 42.56 0.7
-3 -2 1 42.62 0.68
2 2 -1 82.68 1.87
2 2 -1 82.57 1.39
-2 -2 1 84.47 1.48
1 2 -1 11.64 0.21
1 2 -1 11.76 0.19
0 2 -1 194.26 3.12
0 2 -1 201.75 3.25
0 -2 1 197.99 3.12
-1 2 -1 8.6 0.15
-1 2 -1 8.52 0.15
-2 2 -1 0.43 0.03
2 -2 1 0.52 0.03
-3 2 -1 64.93 1.01
-3 2 -1 65 1.08
3 -2 1 63.77 1.06
3 -2 1 62.8 1.05
-4 2 -1 82.94 1.32
4 -2 1 83.58 1.36
-5 2 -1 15.01 0.3
5 -2 1 14.61 0.3
-6 2 -1 0.42 0.06
6 -2 1 0.48 0.06
-6 -1 1 0 0.04
5 1 -1 0.06 0.03
-5 -1 1 0.1 0.04
4 1 -1 6.14 0.14
4 1 -1 6.21 0.14
-4 -1 1 6.27 0.14
3 1 -1 0.22 0.02
3 1 -1 0.25 0.03
-3 -1 1 0.26 0.03
2 1 -1 43.86 0.73
2 1 -1 43.68 0.72
-2 -1 1 44.03 0.69
1 1 -1 22.9 0.37
1 1 -1 22.63 0.38
-1 -1 1 22.42 0.36
-1 1 -1 40.75 0.65
-2 1 -1 133.28 2.17
-2 1 -1 133.42 2.15
2 -1 1 132.47 2.17
2 -1 1 128.81 2.22
-3 1 -1 1.83 0.06
3 -1 1 1.85 0.05
3 -1 1 1.77 0.06
-4 1 -1 2.94 0.09
4 -1 1 3.04 0.09
-5 1 -1 1.61 0.08
5 -1 1 1.45 0.08
-6 1 -1 4.88 0.16
6 -1 1 4.92 0.16
-6 0 1 11.47 0.25
5 0 -1 28.58 0.51
-5 0 1 28.55 0.49
4 0 -1 3.71 0.1
4 0 -1 3.72 0.1
-4 0 1 3.73 0.09
3 0 -1 12.63 0.24
3 0 -1 13.64 0.24
-3 0 1 12.97 0.23
2 0 -1 104.63 1.73
2 0 -1 102.63 1.72
-2 0 1 101.15 1.66
1 0 -1 19.95 0.33
1 0 -1 20.33 0.33
-1 0 1 19.29 0.31
-1 0 -1 168.8 2.63
1 0 1 163.75 3.65
-2 0 -1 6.57 0.13
2 0 1 6.74 0.12
2 0 1 6.63 0.13
-3 0 -1 6.87 0.14
3 0 1 6.76 0.13
3 0 1 6.65 0.14
-4 0 -1 18.63 0.34
4 0 1 18.46 0.34
-5 0 -1 4.96 0.14
5 0 1 5.08 0.14
-6 0 -1 0.64 0.07
6 0 1 0.64 0.07
6 -1 -1 2.76 0.11
-6 1 1 2.98 0.11
5 -1 -1 1.05 0.07
-5 1 1 1.27 0.07
4 -1 -1 10.58 0.21
4 -1 -1 10.89 0.22
-4 1 1 10.44 0.2
3 -1 -1 113.66 1.88
3 -1 -1 116.06 1.89
-3 1 1 114.87 1.86
2 -1 -1 2.33 0.06
-2 1 1 2.36 0.05
1 -1 -1 175.3 3.05
-1 1 1 164.4 2.8
0 -1 -1 3.3 0.05
0 -1 -1 2.97 0.06
0 1 1 2.65 0.06
-1 -1 -1 277.46 4.49
-1 -1 -1 271.9 5.54
1 1 1 279.61 4.49
1 1 1 281.24 5.28
-2 -1 -1 123.56 1.99
2 1 1 118.7 1.99
2 1 1 119.62 2.03
-3 -1 -1 20.99 0.36
3 1 1 20.89 0.37
3 1 1 21.18 0.36
-4 -1 -1 43.82 0.72
4 1 1 43.28 0.74
-5 -1 -1 21.28 0.4
5 1 1 21.1 0.4
-6 -1 -1 0.4 0.06
7 -2 -1 0.26 0.05
6 -2 -1 1.39 0.09
-6 2 1 1.44 0.08
5 -2 -1 64.06 1.1
-5 2 1 66.72 1.05
4 -2 -1 55.42 0.92
4 -2 -1 54.62 0.92
-4 2 1 55.45 0.88
-4 2 1 55.4 0.92
3 -2 -1 2.21 0.07
3 -2 -1 2.23 0.07
-3 2 1 2.19 0.06
-3 2 1 2 0.05
2 -2 -1 122.63 2.09
2 -2 -1 121.78 2.09
-2 2 1 125.2 1.95
-2 2 1 124.06 2.08
1 -2 -1 314.53 5.82
-1 2 1 301.88 5.02
0 -2 -1 0.21 0.01
0 2 1 0.19 0.02
-1 -2 -1 96.16 1.55
-1 -2 -1 96.25 1.6
1 2 1 94.98 1.6
-2 -2 -1 133.25 2.15
2 2 1 129.36 2.18
2 2 1 132.04 2.21
-3 -2 -1 18.44 0.32
3 2 1 18.13 0.33
3 2 1 18.54 0.33
-4 -2 -1 34.22 0.57
4 2 1 32.43 0.58
-5 -2 -1 11.2 0.25
7 -3 -1 0.29 0.06
6 -3 -1 0.18 0.05
5 -3 -1 6.32 0.17
5 -3 -1 6.24 0.15
-5 3 1 6.24 0.15
4 -3 -1 14.28 0.27
4 -3 -1 14.61 0.29
-4 3 1 14.85 0.26
-4 3 1 14.48 0.27
3 -3 -1 13.94 0.27
-3 3 1 14.13 0.24
-3 3 1 14.07 0.26
2 -3 -1 68.39 1.11
-2 3 1 67.88 1.07
-2 3 1 68.24 1.13
1 -3 -1 1000 15.34
-1 3 1 933.19 17.56
0 -3 -1 751.12 14.57
0 -3 -1 787.16 13.27
0 3 1 826.85 14.45
-1 -3 -1 1.2 0.04
-1 -3 -1 1.14 0.05
1 3 1 1.11 0.04
-2 -3 -1 0 0.02
-2 -3 -1 0.04 0.02
2 3 1 0.03 0.02
2 3 1 0.03 0.02
-3 -3 -1 2.86 0.09
3 3 1 2.82 0.09
-4 -3 -1 5.77 0.15
4 3 1 5.58 0.15
-5 -3 -1 0.8 0.08
7 -4 -1 1.88 0.12
6 -4 -1 25.57 0.5
5 -4 -1 49.6 0.86
-5 4 1 49.28 0.84
4 -4 -1 67.83 1.14
-4 4 1 68.1 1.13
-4 4 1 68.97 1.08
3 -4 -1 2.68 0.08
-3 4 1 2.8 0.07
-3 4 1 2.77 0.08
2 -4 -1 104.92 1.71
-2 4 1 103.92 1.77
-2 4 1 105.52 1.64
1 -4 -1 1.19 0.05
1 -4 -1 1.22 0.03
-1 4 1 1.24 0.05
0 -4 -1 4.64 0.09
0 -4 -1 4.67 0.11
0 4 1 4.75 0.11
-1 -4 -1 73.8 1.17
-1 -4 -1 71.83 1.18
1 4 1 72.88 1.2
-2 -4 -1 22.92 0.38
-2 -4 -1 22.51 0.39
2 4 1 22.06 0.39
2 4 1 22.13 0.4
-3 -4 -1 21.14 0.38
3 4 1 21.09 0.38
-4 -4 -1 -0.01 0.03
-5 -4 -1 0.15 0.05
7 -5 -1 5.9 0.2
6 -5 -1 26.67 0.52
5 -5 -1 9.4 0.23
-5 5 1 9.58 0.21
4 -5 -1 6.36 0.16
-4 5 1 6.51 0.15
3 -5 -1 113.02 1.87
-3 5 1 117.53 1.95
2 -5 -1 8.87 0.19
2 -5 -1 8.94 0.15
-2 5 1 9.06 0.18
1 -5 -1 1.59 0.06
-1 5 1 1.59 0.06
0 -5 -1 63.61 1.03
0 -5 -1 65.24 1.06
0 5 1 65.75 1.08
-1 -5 -1 0.25 0.03
-1 -5 -1 0.21 0.03
1 5 1 0.17 0.03
-2 -5 -1 115.26 1.78
-2 -5 -1 115.37 1.84
2 5 1 112.31 1.84
2 5 1 113.86 1.87
-3 -5 -1 21.64 0.39
-4 -5 -1 0.02 0.04
7 -6 -1 0.11 0.05
6 -6 -1 0.18 0.05
5 -6 -1 2.31 0.11
-5 6 1 2.28 0.09
4 -6 -1 3.3 0.11
-4 6 1 3.35 0.1
3 -6 -1 121.86 1.99
-3 6 1 123.75 2.01
2 -6 -1 0.39 0.04
-2 6 1 0.36 0.04
1 -6 -1 10.6 0.22
1 -6 -1 10.46 0.18
-1 6 1 10.37 0.22
0 -6 -1 0.97 0.05
0 -6 -1 1.01 0.04
0 6 1 0.87 0.06
-1 -6 -1 0.39 0.04
-1 -6 -1 0.45 0.04
1 6 1 0.44 0.05
-2 -6 -1 2.54 0.09
2 6 1 2.49 0.1
-3 -6 -1 0.04 0.03
-4 -6 -1 3.65 0.13
6 -7 -1 0.01 0.04
5 -7 -1 5.92 0.18
-5 7 1 5.87 0.16
4 -7 -1 2.13 0.1
-4 7 1 2.18 0.09
3 -7 -1 17.13 0.34
-3 7 1 16.71 0.33
2 -7 -1 5.76 0.15
-2 7 1 5.79 0.15
1 -7 -1 33.54 0.59
-1 7 1 33.69 0.6
0 -7 -1 20.13 0.34
0 -7 -1 20.07 0.38
0 7 1 20.94 0.39
-1 -7 -1 1.07 0.06
1 7 1 1 0.07
-2 -7 -1 0.34 0.04
2 7 1 0.26 0.04
-3 -7 -1 10.94 0.24
6 -8 -1 4.16 0.17
5 -8 -1 1.77 0.1
-5 8 1 1.86 0.1
4 -8 -1 3.2 0.12
-4 8 1 3.31 0.12
3 -8 -1 13.37 0.29
-3 8 1 13 0.28
2 -8 -1 89.68 1.47
-2 8 1 87.19 1.48
1 -8 -1 0.59 0.06
-1 8 1 0.58 0.06
0 -8 -1 0.72 0.06
0 8 1 0.79 0.07
-1 -8 -1 0.21 0.03
1 8 1 0.24 0.05
-2 -8 -1 0.07 0.04
2 8 1 0.05 0.04
-3 -8 -1 0 0.04
6 -9 -1 10.03 0.28
5 -9 -1 1.05 0.09
-5 9 1 0.94 0.08
4 -9 -1 11.97 0.28
-4 9 1 12.12 0.28
3 -9 -1 2.32 0.11
-3 9 1 2.23 0.1
2 -9 -1 2.93 0.11
-2 9 1 2.12 0.1
1 -9 -1 2.99 0.11
-1 9 1 2.87 0.12
0 9 1 7.71 0.2
1 9 1 0.52 0.06
-2 -9 -1 12.86 0.27
5 -10 -1 2.26 0.13
-5 10 1 2.28 0.11
4 -10 -1 2.55 0.12
-4 10 1 2.4 0.12
3 -10 -1 0.33 0.05
-3 10 1 0.19 0.05
2 -10 -1 2 0.1
-2 10 1 1.94 0.11
-1 10 1 1.51 0.1
0 10 1 1.43 0.1
1 10 1 0.37 0.06
5 -11 -1 7.48 0.23
-5 11 1 7.57 0.22
4 -11 -1 2.89 0.14
-4 11 1 2.91 0.13
3 -11 -1 13.07 0.31
-3 11 1 13.68 0.32
-2 11 1 6.2 0.2
-1 11 1 2.24 0.13
0 11 1 2.24 0.13
-3 12 1 5.93 0.2
-2 12 1 1.65 0.12
-2 13 -2 6.09 0.21
-3 13 -2 0.27 0.06
0 12 -2 5.24 0.18
-1 12 -2 0.18 0.06
-2 12 -2 0.58 0.07
-3 12 -2 3.11 0.13
-4 12 -2 0.26 0.05
1 11 -2 3.4 0.15
-1 -11 2 3.55 0.12
0 11 -2 0.35 0.06
-1 11 -2 0.04 0.04
-2 11 -2 0.48 0.06
-3 11 -2 13.46 0.3
-4 11 -2 2.59 0.12
4 -11 2 2.58 0.12
5 -11 2 1.15 0.1
2 10 -2 14.86 0.34
-2 -10 2 14.72 0.3
1 10 -2 1.85 0.11
-1 -10 2 1.79 0.08
0 10 -2 1.07 0.08
0 -10 2 1.1 0.07
-1 10 -2 20 0.41
-2 10 -2 1.44 0.09
-3 10 -2 15.99 0.34
3 -10 2 15.85 0.33
-4 10 -2 38.92 0.71
4 -10 2 39.16 0.71
5 -10 2 4.95 0.17
6 -10 2 0.09 0.05
3 9 -2 0.08 0.05
-3 -9 2 -0.02 0.04
2 9 -2 7.5 0.2
-2 -9 2 7.3 0.17
1 9 -2 0.58 0.07
-1 -9 2 0.67 0.06
0 9 -2 3.91 0.13
0 -9 2 3.86 0.11
-1 9 -2 -0.01 0.03
1 -9 2 0.03 0.02
-2 9 -2 57.95 1.02
2 -9 2 61.88 1.01
-3 9 -2 25.2 0.47
3 -9 2 24.56 0.46
-4 9 -2 14.06 0.3
4 -9 2 13.77 0.3
5 -9 2 3.01 0.13
6 -9 2 7.37 0.22
-4 -8 2 0.23 0.05
3 8 -2 0.2 0.05
-3 -8 2 -0.02 0.03
2 8 -2 4.31 0.14
-2 -8 2 4.27 0.12
1 8 -2 6.05 0.16
-1 -8 2 6.15 0.14
0 8 -2 1.62 0.08
0 -8 2 1.65 0.07
-1 8 -2 2.33 0.09
1 -8 2 2.78 0.08
1 -8 2 2.3 0.08
-2 8 -2 4.62 0.12
-2 8 -2 4.74 0.13
2 -8 2 4.76 0.12
2 -8 2 4.63 0.12
-3 8 -2 114.05 1.88
-3 8 -2 112.56 1.81
3 -8 2 116.38 1.86
-4 8 -2 62.41 1.07
4 -8 2 63.36 1.07
5 -8 2 4.51 0.15
6 -8 2 5.86 0.19
-4 -7 2 0.07 0.04
3 7 -2 19.39 0.39
-3 -7 2 19.88 0.36
2 7 -2 4.48 0.13
-2 -7 2 4.4 0.12
1 7 -2 18.03 0.35
-1 -7 2 18.24 0.32
0 7 -2 58.04 1
0 -7 2 58.73 0.94
0 -7 2 60.47 0.96
-1 7 -2 178.66 2.91
1 -7 2 176.22 2.91
1 -7 2 172.84 2.8
-2 7 -2 13.76 0.26
-2 7 -2 13.83 0.27
2 -7 2 13.59 0.26
-3 7 -2 5.95 0.14
-3 7 -2 5.94 0.14
3 -7 2 5.73 0.15
-4 7 -2 32.79 0.58
-4 7 -2 32.56 0.57
4 -7 2 33.33 0.59
5 -7 2 3.61 0.13
6 -7 2 0.45 0.06
-5 -6 2 0.15 0.05
-4 -6 2 14.67 0.29
3 6 -2 27.76 0.51
-3 -6 2 27.73 0.48
2 6 -2 26.93 0.5
-2 -6 2 28.04 0.47
1 6 -2 28.79 0.51
-1 -6 2 28.48 0.48
0 6 -2 27.88 0.49
0 -6 2 28.21 0.47
0 -6 2 27.76 0.47
-1 6 -2 92.98 1.52
-1 6 -2 92.45 1.45
1 -6 2 91.42 1.44
1 -6 2 92.81 1.49
-2 6 -2 32.34 0.54
-2 6 -2 32.96 0.56
2 -6 2 32.23 0.55
-3 6 -2 72.65 1.16
-3 6 -2 73.02 1.19
3 -6 2 71.03 1.19
-4 6 -2 0.36 0.04
4 -6 2 0.23 0.04
-5 6 -2 0.02 0.03
5 -6 2 -0.01 0.03
6 -6 2 0.89 0.08
-5 -5 2 1.73 0.09
4 5 -2 14.38 0.3
-4 -5 2 14.65 0.28
3 5 -2 10.47 0.23
-3 -5 2 10.35 0.21
2 5 -2 37.08 0.65
-2 -5 2 38.05 0.61
1 5 -2 1.53 0.06
-1 -5 2 1.51 0.04
-1 -5 2 1.51 0.05
0 5 -2 44.26 0.74
0 -5 2 44.52 0.71
0 -5 2 43.62 0.71
-1 5 -2 190.05 2.98
-1 5 -2 185.11 3.16
1 -5 2 191.96 3.11
-2 5 -2 0.13 0.02
-2 5 -2 0.16 0.02
2 -5 2 0.11 0.02
-3 5 -2 24.36 0.42
-3 5 -2 24.52 0.43
3 -5 2 24.55 0.43
-4 5 -2 13.37 0.27
4 -5 2 13.33 0.27
-5 5 -2 0.92 0.07
5 -5 2 1.02 0.08
6 -5 2 0.06 0.04
-5 -4 2 0.07 0.04
-4 -4 2 0.77 0.06
3 4 -2 7.42 0.17
-3 -4 2 7.33 0.15
2 4 -2 1.49 0.04
2 4 -2 1.19 0.06
-2 -4 2 1.15 0.05
1 4 -2 21.59 0.35
1 4 -2 21.44 0.38
-1 -4 2 22.02 0.35
-1 -4 2 20.86 0.36
0 4 -2 32.6 0.53
0 4 -2 32.6 0.55
0 -4 2 32.25 0.53
0 -4 2 32.91 0.53
-1 4 -2 21.7 0.37
-1 4 -2 21.52 0.36
1 -4 2 21.46 0.36
-2 4 -2 19.31 0.34
-2 4 -2 19.68 0.34
2 -4 2 19.98 0.34
-3 4 -2 15.05 0.27
-3 4 -2 14.84 0.28
3 -4 2 15.01 0.28
-4 4 -2 26.51 0.47
4 -4 2 27.26 0.48
-5 4 -2 25.09 0.47
5 -4 2 24.99 0.47
-6 4 -2 9.13 0.23
6 -4 2 9.17 0.23
-6 -3 2 2.04 0.1
-5 -3 2 15.95 0.31
4 3 -2 0.25 0.04
-4 -3 2 0.44 0.05
3 3 -2 0.51 0.03
3 3 -2 0.51 0.04
-3 -3 2 0.48 0.04
2 3 -2 1.43 0.04
2 3 -2 1.48 0.06
-2 -3 2 1.4 0.05
1 3 -2 36.47 0.61
-1 -3 2 36.11 0.58
0 3 -2 294.09 4.65
0 3 -2 284.92 4.49
0 -3 2 275.56 4.47
0 -3 2 275.76 5.05
-1 3 -2 123.45 2.06
-1 3 -2 126.32 2.02
1 -3 2 121.42 2.05
-2 3 -2 14.3 0.26
-2 3 -2 13.98 0.24
2 -3 2 14.17 0.25
-3 3 -2 1.76 0.07
-3 3 -2 1.85 0.05
3 -3 2 1.77 0.06
-4 3 -2 0.67 0.06
4 -3 2 0.78 0.06
-5 3 -2 10.55 0.24
5 -3 2 10.21 0.23
-6 3 -2 3.63 0.14
6 -3 2 3.66 0.14
-6 -2 2 3.43 0.12
-5 -2 2 7.36 0.17
4 2 -2 0.06 0.02
4 2 -2 0.1 0.03
-4 -2 2 0.09 0.03
3 2 -2 34.97 0.6
3 2 -2 34.63 0.58
-3 -2 2 34.7 0.56
2 2 -2 0.13 0.02
2 2 -2 0.12 0.02
1 2 -2 27.69 0.47
-1 -2 2 27.77 0.44
0 2 -2 36.02 0.61
0 2 -2 36.31 0.58
0 -2 2 37.06 0.61
-1 2 -2 100.6 1.67
-1 2 -2 106.37 1.72
1 -2 2 105.97 1.74
-2 2 -2 3.27 0.08
-2 2 -2 3.15 0.06
2 -2 2 3.32 0.08
-3 2 -2 53.1 0.85
3 -2 2 52.14 0.87
-4 2 -2 3.78 0.11
4 -2 2 3.68 0.11
-5 2 -2 0.03 0.03
5 -2 2 0.05 0.04
-6 2 -2 2.34 0.12
6 -2 2 2.26 0.11
-6 -1 2 0.61 0.07
5 1 -2 2.92 0.1
-5 -1 2 2.77 0.09
4 1 -2 5.87 0.14
4 1 -2 5.97 0.14
-4 -1 2 5.94 0.13
3 1 -2 24.63 0.44
3 1 -2 24.66 0.42
-3 -1 2 25.2 0.41
2 1 -2 5.13 0.1
2 1 -2 5.31 0.11
-2 -1 2 5.25 0.1
1 1 -2 254.32 4.16
1 1 -2 253.76 4.52
-1 -1 2 249.08 3.94
0 1 -2 456.79 6.93
0 1 -2 466.07 7.87
0 1 -2 418.43 7.98
1 -1 2 624.61 11.35
-2 1 -2 14.54 0.25
2 -1 2 14.11 0.26
-3 1 -2 1.23 0.05
3 -1 2 1.24 0.05
-4 1 -2 4.02 0.12
4 -1 2 3.97 0.11
-5 1 -2 0.14 0.04
5 -1 2 0.19 0.04
-6 1 -2 3.32 0.14
6 -1 2 3.3 0.13
-6 0 2 2.14 0.09
5 0 -2 0.43 0.05
5 0 -2 0.3 0.04
-5 0 2 0.31 0.04
4 0 -2 0.19 0.03
4 0 -2 0.17 0.03
-4 0 2 0.19 0.02
3 0 -2 4.59 0.11
3 0 -2 4.55 0.11
-3 0 2 4.68 0.09
2 0 -2 127.33 2.09
2 0 -2 123.34 2.12
-2 0 2 126.77 1.99
1 0 -2 13.29 0.23
1 0 -2 13.34 0.23
-1 0 2 13.39 0.21
0 0 -2 171.28 2.8
0 0 -2 172.83 2.7
0 0 -2 170.6 2.78
0 0 2 167.4 2.78
1 0 2 50.89 0.82
-2 0 -2 131.54 2.14
2 0 2 125.66 2.09
2 0 2 130.12 2.11
-3 0 -2 27.71 0.47
3 0 2 27.08 0.47
-4 0 -2 4.45 0.13
4 0 2 4.49 0.12
-5 0 -2 6.84 0.18
5 0 2 6.81 0.18
-6 0 -2 2.12 0.12
6 0 2 1.96 0.11
6 -1 -2 3.84 0.13
-6 1 2 3.98 0.12
5 -1 -2 7.5 0.18
5 -1 -2 7.8 0.18
-5 1 2 7.73 0.16
4 -1 -2 6.36 0.15
4 -1 -2 6.4 0.15
-4 1 2 6.14 0.13
3 -1 -2 31.05 0.52
3 -1 -2 30.91 0.53
-3 1 2 30.76 0.49
2 -1 -2 29.22 0.49
2 -1 -2 28.5 0.48
-2 1 2 28.77 0.45
1 -1 -2 67.84 1.13
1 -1 -2 67.99 1.17
-1 1 2 68.38 1.16
0 -1 -2 9.67 0.18
0 -1 -2 10.14 0.16
0 1 2 9.73 0.17
-1 -1 -2 9.12 0.16
-1 -1 -2 8.81 0.17
1 1 2 8.63 0.15
1 1 2 8.72 0.17
-2 -1 -2 17.51 0.3
2 1 2 17.62 0.31
2 1 2 17.45 0.3
-3 -1 -2 111.58 1.84
3 1 2 111.52 1.8
-4 -1 -2 18.61 0.35
4 1 2 18.11 0.35
-5 -1 -2 0.37 0.06
5 1 2 0.35 0.05
-6 -1 -2 5.18 0.18
7 -2 -2 2.21 0.12
6 -2 -2 0.98 0.08
5 -2 -2 27.15 0.49
5 -2 -2 26.91 0.5
-5 2 2 26.63 0.48
-5 2 2 27.21 0.46
4 -2 -2 25.34 0.44
4 -2 -2 24.26 0.44
-4 2 2 24.13 0.44
-4 2 2 24.56 0.4
3 -2 -2 23.69 0.42
3 -2 -2 24.21 0.42
-3 2 2 24.03 0.42
-3 2 2 23.88 0.38
2 -2 -2 345.99 5.6
2 -2 -2 344.5 5.55
-2 2 2 333.87 5.58
-2 2 2 332.88 5.65
1 -2 -2 72.59 1.16
-1 2 2 71.71 1.21
0 -2 -2 3.66 0.09
0 -2 -2 3.69 0.07
0 2 2 3.78 0.08
-1 -2 -2 97.93 1.61
-1 -2 -2 101.65 1.62
1 2 2 99.74 1.67
-2 -2 -2 19.48 0.33
-2 -2 -2 19.29 0.35
2 2 2 19.78 0.35
2 2 2 19.21 0.33
-3 -2 -2 1.55 0.07
3 2 2 1.52 0.07
-4 -2 -2 0.22 0.04
4 2 2 0.22 0.04
-5 -2 -2 1.12 0.09
7 -3 -2 0.84 0.09
6 -3 -2 11.19 0.27
5 -3 -2 2.98 0.11
5 -3 -2 2.95 0.1
-5 3 2 3.1 0.1
4 -3 -2 6.37 0.15
4 -3 -2 6.41 0.16
-4 3 2 6.67 0.13
-4 3 2 6.35 0.15
3 -3 -2 2.03 0.07
3 -3 -2 2.16 0.07
-3 3 2 2.14 0.05
-3 3 2 2.11 0.07
2 -3 -2 227.84 3.96
-2 3 2 222.59 3.78
1 -3 -2 98.38 1.51
1 -3 -2 96.64 1.56
-1 3 2 95.86 1.6
0 -3 -2 228.32 3.64
0 -3 -2 230.89 3.86
0 3 2 237.65 3.83
-1 -3 -2 84.38 1.35
-1 -3 -2 85.37 1.37
1 3 2 83.64 1.37
-2 -3 -2 4.91 0.11
-2 -3 -2 4.81 0.12
2 3 2 4.76 0.12
2 3 2 4.88 0.11
-3 -3 -2 1.33 0.07
3 3 2 1.41 0.07
-4 -3 -2 4.86 0.14
4 3 2 4.78 0.14
-5 -3 -2 0.03 0.04
7 -4 -2 0.16 0.05
6 -4 -2 1.76 0.1
5 -4 -2 0.52 0.06
-5 4 2 0.55 0.06
4 -4 -2 9.36 0.21
-4 4 2 9.69 0.2
3 -4 -2 12.74 0.25
-3 4 2 11.42 0.23
2 -4 -2 0.88 0.05
-2 4 2 0.86 0.05
1 -4 -2 3.99 0.1
1 -4 -2 4.07 0.07
-1 4 2 4.06 0.1
0 -4 -2 15.84 0.27
0 -4 -2 16.41 0.3
0 4 2 16.15 0.29
-1 -4 -2 0.05 0.02
1 4 2 0.07 0.02
-2 -4 -2 0.08 0.03
2 4 2 0.06 0.03
-3 -4 -2 1.24 0.08
-4 -4 -2 0.25 0.05
7 -5 -2 2.8 0.14
6 -5 -2 1.97 0.11
5 -5 -2 6.6 0.18
-5 5 2 6.55 0.17
4 -5 -2 2.79 0.1
-4 5 2 2.93 0.1
3 -5 -2 0.87 0.06
-3 5 2 0.94 0.05
2 -5 -2 45.64 0.79
-2 5 2 47.52 0.79
1 -5 -2 38.47 0.61
1 -5 -2 39.31 0.67
-1 5 2 39.37 0.67
0 -5 -2 8.71 0.16
0 -5 -2 8.39 0.18
0 5 2 8.49 0.18
-1 -5 -2 23.71 0.43
-1 -5 -2 23.96 0.4
1 5 2 23.82 0.43
-2 -5 -2 12.12 0.24
-2 -5 -2 11.93 0.23
2 5 2 11.92 0.24
2 5 2 11.74 0.24
-3 -5 -2 19.46 0.37
-4 -5 -2 0.25 0.05
7 -6 -2 13.25 0.33
6 -6 -2 -0.04 0.04
5 -6 -2 25.6 0.49
-5 6 2 24.95 0.47
4 -6 -2 4.16 0.13
-4 6 2 4.29 0.12
3 -6 -2 25.46 0.47
-3 6 2 25.15 0.46
2 -6 -2 244.71 4.03
-2 6 2 242.31 4.07
1 -6 -2 140.26 2.27
-1 6 2 140.68 2.3
0 -6 -2 6.02 0.15
0 -6 -2 5.97 0.12
0 6 2 6.14 0.15
-1 -6 -2 1.43 0.07
-1 -6 -2 1.53 0.06
1 6 2 1.48 0.07
-2 -6 -2 0.44 0.05
-3 -6 -2 2.64 0.11
-4 -6 -2 0 0.04
6 -7 -2 32.24 0.63
-6 7 2 32.01 0.6
5 -7 -2 1.28 0.09
-5 7 2 1.34 0.08
4 -7 -2 32.98 0.61
-4 7 2 33.93 0.61
3 -7 -2 33.58 0.61
-3 7 2 33.23 0.6
2 -7 -2 114.5 1.88
-2 7 2 115.21 1.89
1 -7 -2 24.52 0.46
-1 7 2 24.74 0.46
0 -7 -2 2.32 0.09
0 7 2 2.14 0.09
-1 -7 -2 0 0.03
-1 -7 -2 0.02 0.03
1 7 2 0.03 0.03
-2 -7 -2 1.4 0.08
-3 -7 -2 0.04 0.04
6 -8 -2 1.54 0.11
-6 8 2 1.5 0.1
5 -8 -2 5.22 0.18
-5 8 2 5.14 0.16
4 -8 -2 0.26 0.05
-4 8 2 0.24 0.05
3 -8 -2 10.1 0.24
-3 8 2 10.05 0.23
2 -8 -2 5.3 0.16
-2 8 2 5.37 0.16
1 -8 -2 1.82 0.09
-1 8 2 1.94 0.09
0 -8 -2 0.08 0.03
0 8 2 0.12 0.04
1 8 2 1.75 0.1
-2 -8 -2 6.59 0.17
6 -9 -2 0.53 0.08
-6 9 2 0.49 0.06
5 -9 -2 1.88 0.11
-5 9 2 2.04 0.11
4 -9 -2 14.51 0.33
-4 9 2 14.83 0.32
3 -9 -2 17.19 0.37
-3 9 2 17.34 0.36
2 -9 -2 6.63 0.19
-2 9 2 6.38 0.18
1 -9 -2 0.35 0.05
-1 9 2 0.28 0.05
0 9 2 1.21 0.09
1 9 2 0.06 0.04
5 -10 -2 3.13 0.15
-5 10 2 3.21 0.14
4 -10 -2 0.02 0.04
-4 10 2 0.01 0.04
3 -10 -2 2.29 0.12
-3 10 2 2.17 0.11
2 -10 -2 6.6 0.19
-2 10 2 4.78 0.18
-1 10 2 19.36 0.41
0 10 2 1.92 0.11
1 10 2 0.18 0.06
4 -11 -2 1.58 0.11
-4 11 2 1.55 0.11
3 -11 -2 20.78 0.44
-3 11 2 20.54 0.44
-2 11 2 34.21 0.66
-1 11 2 0.5 0.07
-1 13 -3 0.62 0.08
-2 13 -3 2.3 0.13
-3 13 -3 1.11 0.1
1 12 -3 3.04 0.14
-1 -12 3 2.86 0.12
0 12 -3 2.81 0.14
-1 12 -3 7.62 0.22
-2 12 -3 0.44 0.06
-3 12 -3 0.32 0.06
-4 12 -3 0.97 0.09
2 11 -3 0.12 0.05
-2 -11 3 0.06 0.04
1 11 -3 0.56 0.07
-1 -11 3 0.82 0.07
0 11 -3 0.07 0.04
0 -11 3 0.04 0.03
-1 11 -3 10.88 0.26
-2 11 -3 4.3 0.15
-3 11 -3 1.75 0.1
-4 11 -3 0.2 0.05
4 -11 3 0.24 0.05
5 -11 3 0.45 0.06
3 10 -3 6.53 0.21
2 10 -3 12.7 0.3
-2 -10 3 12.86 0.27
1 10 -3 2.08 0.11
-1 -10 3 2.16 0.09
0 10 -3 3.79 0.14
0 -10 3 5.1 0.13
-1 10 -3 25.98 0.5
1 -10 3 25.69 0.46
-2 10 -3 55.27 0.96
-3 10 -3 0.08 0.04
3 -10 3 0.05 0.04
-4 10 -3 3.84 0.13
4 -10 3 3.7 0.14
5 -10 3 0.24 0.05
3 9 -3 0.11 0.05
-3 -9 3 0.11 0.04
2 9 -3 4.4 0.15
-2 -9 3 4.17 0.13
1 9 -3 6.04 0.17
-1 -9 3 6.2 0.15
0 9 -3 0.39 0.05
0 -9 3 0.31 0.04
-1 9 -3 16.6 0.33
1 -9 3 16.21 0.31
-2 9 -3 12.63 0.26
-2 9 -3 12.22 0.27
2 -9 3 12.32 0.25
2 -9 3 12.48 0.25
-3 9 -3 15.66 0.32
3 -9 3 16.01 0.32
4 -9 3 0.77 0.08
5 -9 3 6.03 0.18
6 -9 3 2.11 0.13
4 8 -3 1.05 0.1
-4 -8 3 0.93 0.08
3 8 -3 0.34 0.05
-3 -8 3 0.34 0.05
2 8 -3 2.35 0.11
-2 -8 3 2.59 0.09
1 8 -3 6.47 0.17
-1 -8 3 6.26 0.15
0 8 -3 8.17 0.19
0 -8 3 8.23 0.18
-1 8 -3 10.94 0.23
-1 8 -3 11.1 0.23
1 -8 3 10.7 0.22
1 -8 3 11.21 0.22
-2 8 -3 6.51 0.16
-2 8 -3 6.3 0.16
2 -8 3 6.45 0.15
2 -8 3 6.41 0.16
-3 8 -3 41.96 0.71
-3 8 -3 41.71 0.73
3 -8 3 41.83 0.72
-4 8 -3 2.57 0.11
4 -8 3 2.7 0.11
5 -8 3 2.84 0.12
6 -8 3 0.53 0.07
4 7 -3 0.17 0.05
-4 -7 3 0.13 0.04
3 7 -3 1.74 0.1
-3 -7 3 1.82 0.08
2 7 -3 3.92 0.12
-2 -7 3 3.66 0.11
1 7 -3 54.52 0.93
-1 -7 3 54.03 0.88
0 7 -3 68.01 1.14
0 -7 3 67.62 1.08
-1 7 -3 0.44 0.04
-1 7 -3 0.64 0.05
1 -7 3 0.56 0.04
1 -7 3 0.53 0.05
-2 7 -3 95.67 1.53
-2 7 -3 96.81 1.58
2 -7 3 96.98 1.56
-3 7 -3 87.02 1.39
-3 7 -3 85.51 1.43
3 -7 3 88.48 1.42
-4 7 -3 41.03 0.71
4 -7 3 41.55 0.72
5 -7 3 0.01 0.04
6 -7 3 0.18 0.05
-5 -6 3 2.37 0.11
4 6 -3 2.47 0.11
-4 -6 3 2.51 0.1
3 6 -3 54.96 0.95
-3 -6 3 54.45 0.89
2 6 -3 22.02 0.41
-2 -6 3 22.05 0.38
1 6 -3 26.28 0.47
-1 -6 3 26.52 0.45
0 6 -3 164.06 2.69
0 -6 3 164.88 2.64
0 -6 3 159.46 2.59
-1 6 -3 13.39 0.26
-1 6 -3 13.46 0.26
1 -6 3 13.74 0.24
1 -6 3 13.17 0.25
-2 6 -3 1.83 0.07
-2 6 -3 2.25 0.07
2 -6 3 1.85 0.06
-3 6 -3 6.36 0.14
-3 6 -3 6.31 0.16
3 -6 3 6.41 0.15
-4 6 -3 5.48 0.15
4 -6 3 5.38 0.15
-5 6 -3 14.19 0.31
5 -6 3 14.04 0.3
6 -6 3 2.49 0.12
-5 -5 3 0.26 0.05
4 5 -3 7.65 0.2
-4 -5 3 7.62 0.17
3 5 -3 0.02 0.03
-3 -5 3 0.03 0.03
2 5 -3 25.36 0.46
-2 -5 3 26.24 0.44
1 5 -3 5.17 0.13
-1 -5 3 5.58 0.12
0 5 -3 1.94 0.06
0 5 -3 1.87 0.07
0 -5 3 1.84 0.04
0 -5 3 1.79 0.06
-1 5 -3 0.89 0.05
-1 5 -3 0.93 0.04
-2 5 -3 33.42 0.56
-2 5 -3 32.37 0.56
2 -5 3 33.58 0.56
-3 5 -3 102.19 1.61
-3 5 -3 101.58 1.66
3 -5 3 102.11 1.65
-4 5 -3 15.28 0.31
4 -5 3 15.65 0.31
-5 5 -3 1.85 0.1
5 -5 3 1.91 0.1
-6 5 -3 2.25 0.12
6 -5 3 2.25 0.12
-6 -4 3 1.61 0.09
-5 -4 3 0.55 0.06
4 4 -3 0.22 0.04
-4 -4 3 0.24 0.04
3 4 -3 2 0.08
-3 -4 3 1.73 0.07
2 4 -3 287.06 4.77
-2 -4 3 282.33 4.5
1 4 -3 27.08 0.47
-1 -4 3 26.86 0.45
0 4 -3 529.56 8.18
0 4 -3 539.68 10.43
0 -4 3 507.05 8.95
0 -4 3 508.48 8.16
-1 4 -3 336.55 5.3
-1 4 -3 340.21 5.45
1 -4 3 319.29 5.35
-2 4 -3 4.28 0.09
-2 4 -3 3.95 0.11
2 -4 3 3.98 0.1
-3 4 -3 23.05 0.41
3 -4 3 22.72 0.41
-4 4 -3 8.7 0.2
4 -4 3 8.43 0.19
-5 4 -3 3.92 0.14
5 -4 3 4.22 0.14
-6 4 -3 16.44 0.36
6 -4 3 15.62 0.35
-6 -3 3 8.96 0.21
5 3 -3 42.28 0.76
-5 -3 3 42.49 0.71
4 3 -3 16.11 0.32
-4 -3 3 15.88 0.29
3 3 -3 23.39 0.43
-3 -3 3 23.64 0.4
2 3 -3 0.86 0.05
-2 -3 3 1.11 0.05
1 3 -3 57.33 0.94
-1 -3 3 56.66 0.9
0 3 -3 309.15 4.91
0 3 -3 314.76 5.05
0 -3 3 298.3 5.41
-1 3 -3 62.72 0.99
-1 3 -3 63.37 1.06
1 -3 3 61.55 1.05
-2 3 -3 65.34 1.05
-2 3 -3 67.63 1.1
2 -3 3 65.83 1.09
-3 3 -3 49.86 0.82
3 -3 3 50.1 0.83
-4 3 -3 0.03 0.03
4 -3 3 0.03 0.03
-5 3 -3 0.56 0.06
5 -3 3 0.59 0.07
-6 3 -3 1.7 0.11
6 -3 3 1.59 0.1
-6 -2 3 1.49 0.08
5 2 -3 50.19 0.88
-5 -2 3 50.66 0.82
4 2 -3 44.4 0.77
-4 -2 3 44.48 0.72
3 2 -3 41.79 0.69
3 2 -3 41.59 0.71
-3 -2 3 41.98 0.67
2 2 -3 204.81 3.22
2 2 -3 201.44 3.34
-2 -2 3 188.24 4.26
1 2 -3 517.58 7.97
1 2 -3 509.01 8.87
-1 -2 3 507.48 7.96
0 2 -3 2.74 0.06
0 2 -3 2.57 0.07
0 2 -3 2.66 0.06
0 -2 3 2.66 0.06
-1 2 -3 97.79 1.59
-1 2 -3 96.65 1.57
1 -2 3 95.36 1.63
-2 2 -3 57.57 0.92
2 -2 3 57.38 0.94
-3 2 -3 3.24 0.1
3 -2 3 3.14 0.09
-4 2 -3 -0.02 0.03
4 -2 3 0.07 0.03
-5 2 -3 1.46 0.09
5 -2 3 1.67 0.09
-6 2 -3 0.03 0.04
6 -2 3 0.04 0.04
-6 -1 3 0.21 0.04
5 1 -3 2.14 0.09
-5 -1 3 2.25 0.08
4 1 -3 15.35 0.3
4 1 -3 15.31 0.29
-4 -1 3 15.37 0.27
3 1 -3 9.19 0.19
3 1 -3 9.19 0.18
-3 -1 3 9.11 0.17
2 1 -3 0.95 0.03
2 1 -3 0.85 0.04
-2 -1 3 1.16 0.04
1 1 -3 0.09 0.02
1 1 -3 0.15 0.02
-1 -1 3 0.13 0.02
0 1 -3 982.27 16.75
0 1 -3 975.52 16.87
0 1 -3 896.43 16.44
-1 1 -3 8.65 0.16
1 -1 3 8.54 0.16
-2 1 -3 1.01 0.05
2 -1 3 1.14 0.05
-3 1 -3 1.01 0.06
3 -1 3 1.14 0.06
-4 1 -3 0.04 0.03
4 -1 3 0.11 0.03
-5 1 -3 1.01 0.09
5 -1 3 1.14 0.08
-6 1 -3 0.09 0.05
6 -1 3 0.07 0.05
-6 0 3 0.09 0.03
5 0 -3 2.02 0.08
5 0 -3 1.7 0.08
-5 0 3 1.93 0.07
4 0 -3 7.95 0.17
4 0 -3 7.92 0.18
-4 0 3 7.77 0.15
3 0 -3 0.24 0.03
3 0 -3 0.25 0.03
-3 0 3 0.25 0.02
2 0 -3 62 1
2 0 -3 61.16 1.01
-2 0 3 61.42 0.95
1 0 -3 0.09 0.01
0 0 -3 716.42 12.62
0 0 -3 729.93 12.96
0 0 -3 698.76 12.82
0 0 3 710.37 12.61
-1 0 -3 41.22 0.68
-1 0 -3 41.21 0.66
1 0 3 40.47 0.68
1 0 3 41.67 0.67
2 0 3 4.46 0.11
3 0 3 1.52 0.07
-4 0 -3 0.06 0.04
4 0 3 0.12 0.03
-5 0 -3 5.58 0.17
5 0 3 5.67 0.16
6 -1 -3 0.08 0.04
5 -1 -3 7.98 0.19
5 -1 -3 8.22 0.19
-5 1 3 7.91 0.16
4 -1 -3 10.11 0.21
4 -1 -3 10.32 0.21
-4 1 3 9.99 0.18
3 -1 -3 49.73 0.84
3 -1 -3 50.06 0.83
-3 1 3 50.36 0.78
2 -1 -3 4.44 0.1
2 -1 -3 4.54 0.1
-2 1 3 4.56 0.08
1 -1 -3 168.26 2.85
1 -1 -3 171.11 2.84
1 -1 -3 174.04 2.66
-1 1 3 166.04 2.82
0 -1 -3 70.71 1.16
0 -1 -3 73.13 1.13
0 1 3 72 1.18
-1 -1 -3 242.95 4
-1 -1 -3 243.36 3.89
1 1 3 247.83 3.95
1 1 3 235.17 3.97
-2 -1 -3 24.73 0.42
-2 -1 -3 24.26 0.43
2 1 3 24.52 0.43
2 1 3 23.98 0.4
-3 -1 -3 8.31 0.19
3 1 3 8.57 0.19
-4 -1 -3 1.52 0.09
4 1 3 1.62 0.08
-5 -1 -3 2.16 0.11
5 1 3 2.01 0.1
7 -2 -3 2.22 0.12
6 -2 -3 13.13 0.29
5 -2 -3 30.34 0.55
5 -2 -3 30.09 0.55
-5 2 3 30.42 0.54
4 -2 -3 0.47 0.04
-4 2 3 0.48 0.03
-4 2 3 0.5 0.04
3 -2 -3 310.05 5.17
3 -2 -3 311.92 5.11
-3 2 3 306.36 4.77
-3 2 3 307.07 5.18
2 -2 -3 348.16 5.6
2 -2 -3 340.49 5.64
-2 2 3 331.3 5.61
1 -2 -3 4.08 0.08
1 -2 -3 3.87 0.1
-1 2 3 4.18 0.09
0 -2 -3 5.87 0.11
0 2 3 5.96 0.12
-1 -2 -3 143.24 3.33
-1 -2 -3 143.12 2.37
1 2 3 146 2.37
-2 -2 -3 1.38 0.06
-2 -2 -3 1.37 0.06
2 2 3 1.42 0.06
-3 -2 -3 2.55 0.1
3 2 3 2.6 0.09
-4 -2 -3 0.36 0.05
-5 -2 -3 1.15 0.1
5 2 3 1.1 0.09
7 -3 -3 0.16 0.05
6 -3 -3 1.54 0.09
6 -3 -3 1.66 0.1
-6 3 3 1.67 0.09
5 -3 -3 1.41 0.08
5 -3 -3 1.35 0.08
-5 3 3 1.36 0.08
4 -3 -3 5.88 0.15
4 -3 -3 5.74 0.14
-4 3 3 5.98 0.14
3 -3 -3 23.68 0.42
3 -3 -3 23.85 0.43
-3 3 3 23.76 0.42
2 -3 -3 108.24 1.73
-2 3 3 105.29 1.74
1 -3 -3 10.61 0.17
1 -3 -3 10.28 0.21
-1 3 3 10.26 0.2
0 -3 -3 3.08 0.09
0 -3 -3 3 0.07
0 3 3 3.04 0.08
-1 -3 -3 6.97 0.14
-1 -3 -3 7.06 0.16
1 3 3 7.1 0.15
-2 -3 -3 140.43 2.33
-2 -3 -3 140.54 2.26
2 3 3 141.1 2.26
-3 -3 -3 14.95 0.29
3 3 3 14.64 0.29
-4 -3 -3 0.45 0.05
4 3 3 0.43 0.05
-5 -3 -3 0.24 0.06
7 -4 -3 1.99 0.12
6 -4 -3 0.35 0.05
-6 4 3 0.45 0.05
5 -4 -3 3.7 0.13
-5 4 3 3.76 0.12
4 -4 -3 0 0.03
-4 4 3 0.01 0.02
3 -4 -3 0.95 0.06
-3 4 3 0.98 0.05
2 -4 -3 28.99 0.51
-2 4 3 28.36 0.5
1 -4 -3 10.95 0.18
1 -4 -3 10.61 0.22
-1 4 3 10.59 0.21
0 -4 -3 8.09 0.15
0 -4 -3 8.23 0.18
0 4 3 8.34 0.17
-1 -4 -3 2.67 0.08
-1 -4 -3 2.82 0.09
1 4 3 2.38 0.08
-2 -4 -3 40.21 0.69
-2 -4 -3 40.14 0.67
2 4 3 40.13 0.69
-3 -4 -3 83.54 1.33
3 4 3 81.83 1.37
-4 -4 -3 3.05 0.13
7 -5 -3 1.79 0.12
6 -5 -3 1.21 0.09
-6 5 3 1.36 0.08
5 -5 -3 2.1 0.1
-5 5 3 2.12 0.09
4 -5 -3 5.07 0.15
-4 5 3 4.94 0.14
-3 5 3 16.63 0.32
2 -5 -3 39.64 0.68
-2 5 3 38.97 0.68
1 -5 -3 -0.02 0.02
-1 5 3 0.01 0.02
0 -5 -3 2.3 0.09
0 5 3 2.39 0.08
-1 -5 -3 0.47 0.05
-1 -5 -3 0.4 0.04
1 5 3 0.42 0.05
-2 -5 -3 0.01 0.03
-2 -5 -3 0.02 0.03
2 5 3 -0.03 0.04
-3 -5 -3 1.08 0.08
-4 -5 -3 0.54 0.07
7 -6 -3 0.04 0.05
6 -6 -3 1.12 0.1
-6 6 3 0.96 0.08
5 -6 -3 11.97 0.28
-5 6 3 11.96 0.26
4 -6 -3 5.12 0.15
-4 6 3 5.11 0.14
3 -6 -3 2.26 0.09
-3 6 3 1.94 0.08
2 -6 -3 0.48 0.06
-2 6 3 0.57 0.06
1 -6 -3 2.6 0.1
-1 6 3 2.68 0.1
0 -6 -3 4.19 0.12
0 -6 -3 3.92 0.1
0 6 3 4.13 0.12
-1 -6 -3 1.19 0.07
-1 -6 -3 1.28 0.06
1 6 3 1.18 0.07
-2 -6 -3 2.37 0.09
-2 -6 -3 2.35 0.1
2 6 3 2.29 0.12
-3 -6 -3 4.2 0.14
6 -7 -3 -0.08 0.04
-6 7 3 0.03 0.04
5 -7 -3 4.04 0.15
-5 7 3 4.05 0.14
4 -7 -3 1.91 0.1
-4 7 3 1.98 0.09
3 -7 -3 59.14 1.02
-3 7 3 59.59 1.02
2 -7 -3 34.48 0.62
-2 7 3 34.18 0.62
1 -7 -3 0.11 0.04
-1 7 3 0.14 0.04
0 -7 -3 21.48 0.41
0 7 3 21.38 0.41
-1 -7 -3 0.2 0.04
-1 -7 -3 0.32 0.04
1 7 3 0.3 0.05
-2 -7 -3 5.6 0.15
-3 -7 -3 2.99 0.13
6 -8 -3 0.14 0.05
-6 8 3 0.25 0.05
5 -8 -3 0.25 0.06
-5 8 3 0.22 0.05
4 -8 -3 1.93 0.11
-4 8 3 1.92 0.1
3 -8 -3 0.18 0.04
-3 8 3 0.13 0.04
2 -8 -3 9.19 0.23
-2 8 3 8.98 0.22
1 -8 -3 0.01 0.03
-1 8 3 -0.02 0.04
0 -8 -3 3.64 0.13
0 8 3 3.47 0.13
6 -9 -3 -0.02 0.04
-6 9 3 0.04 0.05
5 -9 -3 0.03 0.04
-5 9 3 0.08 0.04
4 -9 -3 0.22 0.05
-4 9 3 0.23 0.05
3 -9 -3 18.02 0.39
-3 9 3 18.28 0.38
2 -9 -3 3.37 0.14
-2 9 3 3.51 0.14
1 -9 -3 0.25 0.05
-1 9 3 0.18 0.05
0 9 3 0 0.04
5 -10 -3 5.24 0.19
-5 10 3 5.25 0.18
4 -10 -3 5.47 0.19
-4 10 3 5.24 0.18
3 -10 -3 3.15 0.14
-3 10 3 3.09 0.14
2 -10 -3 5.53 0.18
-2 10 3 5.61 0.19
-1 10 3 -0.03 0.05
0 10 3 0.06 0.05
4 -11 -3 0.29 0.06
-4 11 3 0.22 0.06
3 -11 -3 1.72 0.12
-3 11 3 1.81 0.12
-2 11 3 1.98 0.13
-1 13 -4 -0.01 0.05
-2 13 -4 -0.04 0.04
-3 13 -4 2.12 0.12
1 12 -4 2.74 0.14
-1 -12 4 2.75 0.12
0 12 -4 1.04 0.1
0 -12 4 0.99 0.08
-1 12 -4 12.44 0.3
-2 12 -4 0.06 0.04
-3 12 -4 0.5 0.06
2 11 -4 6.84 0.21
-2 -11 4 6.72 0.18
1 11 -4 15.23 0.34
-1 -11 4 15.12 0.31
0 11 -4 1.44 0.1
0 -11 4 1.33 0.08
-1 11 -4 6.63 0.19
1 -11 4 6.57 0.17
-2 11 -4 2.42 0.11
-3 11 -4 0.29 0.05
4 -11 4 2.7 0.12
5 -11 4 1.51 0.1
3 10 -4 1.38 0.11
-3 -10 4 1.28 0.09
2 10 -4 0.23 0.06
-2 -10 4 0.31 0.05
1 10 -4 0.06 0.04
-1 -10 4 0.02 0.04
0 10 -4 0.73 0.07
0 -10 4 0.76 0.06
-1 10 -4 0.19 0.05
1 -10 4 0.19 0.04
-2 10 -4 4.71 0.14
-2 10 -4 4.7 0.14
2 -10 4 4.66 0.14
-3 10 -4 14.59 0.31
3 -10 4 14.56 0.3
4 -10 4 13.55 0.3
5 -10 4 0.66 0.08
3 9 -4 0.52 0.07
-3 -9 4 0.52 0.06
2 9 -4 4.36 0.15
-2 -9 4 4.36 0.13
1 9 -4 2.92 0.11
-1 -9 4 2.47 0.1
0 9 -4 1.41 0.08
0 -9 4 1.24 0.07
-1 9 -4 5.27 0.15
-1 9 -4 5.57 0.15
1 -9 4 5.49 0.15
-2 9 -4 8.55 0.2
-2 9 -4 8.78 0.21
2 -9 4 9.05 0.19
2 -9 4 8.87 0.2
-3 9 -4 -0.02 0.03
-3 9 -4 0.02 0.03
3 -9 4 0.02 0.03
4 -9 4 15.64 0.33
5 -9 4 5.08 0.16
6 -9 4 5.96 0.2
4 8 -4 0.09 0.05
-4 -8 4 0.07 0.04
3 8 -4 2.31 0.12
-3 -8 4 2.26 0.1
2 8 -4 3.91 0.13
-2 -8 4 4.07 0.12
0 8 -4 2.06 0.09
0 -8 4 2.14 0.08
-1 8 -4 24.94 0.46
-1 8 -4 24.8 0.45
1 -8 4 24.88 0.45
-2 8 -4 8.69 0.2
-2 8 -4 8.7 0.19
2 -8 4 8.88 0.19
-3 8 -4 7.55 0.19
-3 8 -4 7.68 0.18
3 -8 4 7.91 0.18
-4 8 -4 0.09 0.04
4 -8 4 0.1 0.04
5 -8 4 0.13 0.04
6 -8 4 2.17 0.12
4 7 -4 0.99 0.08
-4 -7 4 0.96 0.08
3 7 -4 14.42 0.31
-3 -7 4 14.82 0.29
2 7 -4 66.63 1.14
-2 -7 4 66.94 1.07
1 7 -4 58.18 0.99
-1 -7 4 58.53 0.94
0 7 -4 19.77 0.36
0 7 -4 19.88 0.37
0 -7 4 20.08 0.36
-1 7 -4 11.79 0.23
-1 7 -4 11.16 0.23
1 -7 4 11.47 0.21
1 -7 4 11.07 0.23
-2 7 -4 3.67 0.12
-2 7 -4 3.63 0.1
2 -7 4 3.65 0.1
-3 7 -4 -0.02 0.03
3 -7 4 0.09 0.03
-4 7 -4 -0.01 0.03
4 -7 4 0.02 0.03
-5 7 -4 8.64 0.23
5 -7 4 8.76 0.22
6 -7 4 0.01 0.04
-5 -6 4 2.43 0.11
4 6 -4 3.39 0.13
-4 -6 4 3.65 0.11
3 6 -4 0.26 0.04
-3 -6 4 0.2 0.04
2 6 -4 3.28 0.11
-2 -6 4 3.28 0.1
1 6 -4 13.45 0.27
-1 -6 4 13.77 0.26
0 6 -4 18.59 0.35
0 6 -4 19.07 0.35
0 -6 4 18.93 0.35
0 -6 4 19.8 0.32
-1 6 -4 2.83 0.09
-1 6 -4 2.87 0.08
1 -6 4 3.05 0.07
-2 6 -4 19.79 0.36
-2 6 -4 20.02 0.37
2 -6 4 19.89 0.35
-3 6 -4 12.39 0.26
3 -6 4 12.57 0.25
-4 6 -4 74.23 1.23
4 -6 4 75.81 1.25
-5 6 -4 8.5 0.22
5 -6 4 8.19 0.21
-6 6 -4 0.44 0.07
6 -6 4 0.42 0.06
5 5 -4 2.39 0.12
-5 -5 4 2.51 0.1
4 5 -4 1.68 0.09
-4 -5 4 1.61 0.08
3 5 -4 0.71 0.06
-3 -5 4 0.73 0.06
2 5 -4 0.48 0.05
-2 -5 4 0.56 0.05
1 5 -4 6.38 0.15
-1 -5 4 6.49 0.14
0 5 -4 102.64 1.58
0 5 -4 99.41 1.7
0 -5 4 99.62 1.76
0 -5 4 99.51 1.57
-1 5 -4 10.48 0.21
-1 5 -4 10.43 0.2
1 -5 4 10.54 0.19
-2 5 -4 105.89 1.75
-2 5 -4 107.5 1.67
2 -5 4 103.37 1.76
-3 5 -4 1.2 0.07
3 -5 4 1.52 0.07
-4 5 -4 54.13 0.92
4 -5 4 55.07 0.93
-5 5 -4 12.12 0.28
5 -5 4 12.09 0.27
-6 5 -4 6.62 0.21
6 -5 4 6.62 0.2
-6 -4 4 1.03 0.08
5 4 -4 24.21 0.47
-5 -4 4 23.25 0.42
4 4 -4 8.82 0.21
-4 -4 4 8.97 0.19
3 4 -4 0.55 0.05
-3 -4 4 0.6 0.05
2 4 -4 9.24 0.19
-2 -4 4 8.77 0.18
1 4 -4 248.81 4.18
1 4 -4 252 3.97
-1 -4 4 243.57 3.96
0 4 -4 16.6 0.3
0 -4 4 17.09 0.28
-1 4 -4 82.55 1.4
-1 4 -4 83.88 1.3
1 -4 4 79.63 1.38
-2 4 -4 125.59 1.94
-2 4 -4 122.96 2.04
2 -4 4 121.91 2.07
-3 4 -4 14.49 0.29
3 -4 4 14.12 0.27
-4 4 -4 0.11 0.04
4 -4 4 0.1 0.03
-5 4 -4 0.78 0.08
5 -4 4 0.69 0.08
-6 4 -4 0.19 0.06
6 -4 4 0.23 0.05
-6 -3 4 0.26 0.05
5 3 -4 7.24 0.19
-5 -3 4 7.06 0.17
4 3 -4 0.16 0.04
-4 -3 4 0.19 0.03
3 3 -4 74.22 1.24
-3 -3 4 74.3 1.17
2 3 -4 75.5 1.25
2 3 -4 77.74 1.27
-2 -3 4 77.9 1.21
0 3 -4 122.18 1.96
0 3 -4 120.78 2.06
0 -3 4 124.5 2.01
-1 3 -4 0.37 0.02
-2 3 -4 16.39 0.27
-2 3 -4 15.77 0.3
2 -3 4 16.08 0.29
-3 3 -4 7.27 0.17
3 -3 4 7.02 0.16
-4 3 -4 4.31 0.14
4 -3 4 4.34 0.13
-5 3 -4 8.04 0.22
5 -3 4 8.05 0.2
-6 3 -4 0.18 0.06
6 -3 4 0.16 0.05
-6 -2 4 2.82 0.1
5 2 -4 1.58 0.09
-5 -2 4 1.57 0.07
4 2 -4 6.61 0.17
-4 -2 4 6.91 0.14
3 2 -4 0.43 0.03
3 2 -4 0.32 0.04
2 2 -4 26.66 0.47
2 2 -4 26.33 0.44
-2 -2 4 26.89 0.44
1 2 -4 148.36 2.44
1 2 -4 149.23 2.36
1 2 -4 150.54 2.54
-1 -2 4 148.39 2.36
0 2 -4 66.99 1.14
0 2 -4 67.93 1.09
0 2 -4 66.59 1.06
0 -2 4 67.49 1.12
-1 2 -4 376.85 5.98
-1 2 -4 375.99 6.87
1 -2 4 374.99 6.11
-2 2 -4 261.4 4.16
2 -2 4 252.38 4.22
-3 2 -4 4.47 0.13
3 -2 4 4.59 0.12
-4 2 -4 21.74 0.42
4 -2 4 21.89 0.41
-5 2 -4 4.43 0.16
5 -2 4 4.48 0.14
-6 2 -4 0.04 0.05
6 -2 4 0.05 0.05
-6 -1 4 1.36 0.07
5 1 -4 1.81 0.09
-5 -1 4 1.9 0.07
4 1 -4 9.4 0.21
4 1 -4 9.15 0.19
-4 -1 4 9.46 0.18
3 1 -4 125.15 2.06
3 1 -4 126.92 2.12
-3 -1 4 126.16 2.02
2 1 -4 65.17 1.08
2 1 -4 64.13 1.05
-2 -1 4 66.14 1.02
1 1 -4 433.95 6.77
1 1 -4 421.16 7.07
1 1 -4 441.65 8.61
0 1 -4 363.21 5.73
0 1 -4 361.92 5.89
0 1 -4 359.31 5.95
-1 1 -4 1.09 0.05
-1 1 -4 1.05 0.05
1 -1 4 1.07 0.05
1 -1 4 1.03 0.03
-2 1 -4 246.42 3.94
2 -1 4 232.25 5.32
-3 1 -4 6.92 0.17
3 -1 4 7.08 0.16
-4 1 -4 10.07 0.24
4 -1 4 10.67 0.23
-5 1 -4 0 0.04
5 -1 4 0.05 0.04
6 0 -4 37.46 0.68
5 0 -4 66.47 1.13
5 0 -4 66.2 1.12
-5 0 4 66.81 1.05
4 0 -4 1.17 0.06
4 0 -4 1.16 0.06
-4 0 4 1.17 0.05
3 0 -4 51.72 0.85
3 0 -4 50.93 0.87
-3 0 4 51.32 0.8
2 0 -4 0.15 0.02
2 0 -4 0.22 0.03
-2 0 4 0.25 0.02
1 0 -4 62.75 1.03
1 0 -4 62.99 1.03
1 0 -4 63.73 0.99
0 0 -4 25.85 0.43
0 0 -4 25.85 0.45
0 0 -4 26.58 0.44
0 0 4 27.06 0.44
-1 0 -4 147.5 2.4
-1 0 -4 149.03 2.43
1 0 4 146.41 2.41
1 0 4 146.43 2.4
-2 0 -4 32.26 0.55
-2 0 -4 32.27 0.54
2 0 4 31.96 0.55
-3 0 -4 7.57 0.18
3 0 4 8.12 0.18
-4 0 -4 0.27 0.05
4 0 4 0.13 0.04
-5 0 -4 0.51 0.07
5 0 4 0.43 0.06
6 -1 -4 8.28 0.22
6 -1 -4 8.28 0.21
-6 1 4 8.5 0.21
5 -1 -4 121.42 2
5 -1 -4 121.6 1.98
4 -1 -4 41.36 0.72
4 -1 -4 41.54 0.71
-4 1 4 40.85 0.65
3 -1 -4 37.29 0.64
3 -1 -4 37.46 0.64
-3 1 4 37.38 0.58
2 -1 -4 4.39 0.11
-2 1 4 4.59 0.08
-2 1 4 4.35 0.11
1 -1 -4 11.57 0.21
1 -1 -4 10.13 0.18
1 -1 -4 10.21 0.2
-1 1 4 10.18 0.2
0 -1 -4 63.38 1.05
0 -1 -4 64.76 1
0 1 4 63.6 1.04
-1 -1 -4 28.19 0.47
-1 -1 -4 28.11 0.49
1 1 4 27.91 0.47
-2 -1 -4 4.91 0.13
-2 -1 -4 4.79 0.13
2 1 4 5.06 0.13
-3 -1 -4 4.9 0.14
3 1 4 5.16 0.14
-4 -1 -4 -0.01 0.03
4 1 4 0.01 0.03
-5 -1 -4 0.12 0.05
5 1 4 0.13 0.05
6 -2 -4 1.67 0.1
6 -2 -4 1.76 0.1
-6 2 4 1.91 0.09
5 -2 -4 26.72 0.5
5 -2 -4 26.72 0.5
-5 2 4 26.94 0.49
3 -2 -4 53.07 0.88
3 -2 -4 52.78 0.89
-3 2 4 52.47 0.83
-3 2 4 52.62 0.89
2 -2 -4 0.18 0.02
2 -2 -4 0.18 0.03
-2 2 4 0.2 0.03
1 -2 -4 1.73 0.07
1 -2 -4 1.8 0.05
-1 2 4 1.73 0.06
0 -2 -4 44.4 0.75
0 -2 -4 44.37 0.7
0 2 4 44.1 0.73
-1 -2 -4 38.44 0.63
-1 -2 -4 37.43 0.65
1 2 4 38.98 0.64
-2 -2 -4 30.88 0.55
-2 -2 -4 31.93 0.53
2 2 4 30.68 0.55
-3 -2 -4 0.47 0.05
3 2 4 0.68 0.07
-4 -2 -4 1.72 0.1
4 2 4 1.8 0.1
-5 -2 -4 1.34 0.11
5 2 4 1.06 0.1
7 -3 -4 0.54 0.07
6 -3 -4 0.2 0.04
6 -3 -4 0.2 0.05
-6 3 4 0.18 0.04
5 -3 -4 1.37 0.08
5 -3 -4 1.44 0.08
-5 3 4 1.43 0.08
4 -3 -4 23.99 0.45
4 -3 -4 24.28 0.44
-4 3 4 23.73 0.44
3 -3 -4 9.42 0.2
-3 3 4 9.3 0.2
2 -3 -4 8.14 0.18
-2 3 4 8.19 0.17
1 -3 -4 114.35 1.87
1 -3 -4 118.02 1.84
-1 3 4 114.52 1.9
0 -3 -4 37.33 0.66
0 -3 -4 38.94 0.62
0 3 4 38.59 0.65
-1 -3 -4 51.86 0.88
-1 -3 -4 52.05 0.84
1 3 4 52.4 0.87
-2 -3 -4 24.61 0.44
-2 -3 -4 25.02 0.45
2 3 4 24.8 0.45
-3 -3 -4 0.73 0.07
3 3 4 0.89 0.08
-4 -3 -4 3.83 0.15
4 3 4 3.87 0.14
7 -4 -4 9.98 0.27
6 -4 -4 0.04 0.04
-6 4 4 -0.03 0.03
5 -4 -4 9.4 0.23
-5 4 4 9.47 0.22
4 -4 -4 33.66 0.61
-4 4 4 33.82 0.6
3 -4 -4 5.66 0.15
-3 4 4 5.9 0.14
2 -4 -4 59.33 1
-2 4 4 59.12 0.99
1 -4 -4 38.98 0.68
-1 4 4 39.34 0.67
0 -4 -4 14.06 0.25
0 -4 -4 14.13 0.28
0 4 4 13.97 0.27
-1 -4 -4 0.19 0.04
-1 -4 -4 0.18 0.03
1 4 4 0.2 0.03
-2 -4 -4 21.41 0.4
-2 -4 -4 21.52 0.39
2 4 4 21.07 0.41
-3 -4 -4 4.55 0.15
3 4 4 4.93 0.15
-4 -4 -4 0.09 0.05
7 -5 -4 0.03 0.05
6 -5 -4 3.77 0.15
-6 5 4 3.43 0.13
5 -5 -4 5.86 0.18
-5 5 4 5.86 0.16
4 -5 -4 3.77 0.13
-4 5 4 3.71 0.12
3 -5 -4 92.4 1.54
-3 5 4 93.51 1.54
2 -5 -4 19.11 0.37
-2 5 4 18.59 0.36
1 -5 -4 5.87 0.16
-1 5 4 5.9 0.15
0 -5 -4 22.75 0.39
0 -5 -4 23.39 0.44
0 5 4 23.34 0.42
-1 -5 -4 6.14 0.16
-1 -5 -4 6.07 0.14
1 5 4 6.15 0.15
-2 -5 -4 1.8 0.08
-2 -5 -4 1.69 0.09
2 5 4 1.66 0.09
-3 -5 -4 0.11 0.05
6 -6 -4 -0.02 0.04
-6 6 4 -0.04 0.03
5 -6 -4 0.77 0.08
-5 6 4 0.87 0.07
4 -6 -4 1.12 0.08
-4 6 4 1.27 0.08
3 -6 -4 11.2 0.26
-3 6 4 11.28 0.25
2 -6 -4 46.24 0.81
-2 6 4 46.74 0.81
1 -6 -4 28.6 0.53
-1 6 4 28.75 0.52
0 -6 -4 5.11 0.15
0 6 4 5.15 0.14
-1 -6 -4 4.11 0.12
-1 -6 -4 4.39 0.14
-2 -6 -4 1.91 0.09
-2 -6 -4 1.94 0.1
2 6 4 1.96 0.1
-3 -6 -4 0.48 0.06
6 -7 -4 0.47 0.07
-6 7 4 0.47 0.06
5 -7 -4 2.91 0.13
-5 7 4 2.93 0.12
4 -7 -4 0.04 0.04
-4 7 4 -0.03 0.03
3 -7 -4 1.11 0.08
-3 7 4 0.96 0.08
2 -7 -4 22.72 0.45
-2 7 4 23.14 0.44
1 -7 -4 8.73 0.22
-1 7 4 8.66 0.21
0 -7 -4 12.19 0.28
0 7 4 12.35 0.27
-1 -7 -4 2.65 0.11
6 -8 -4 0.09 0.05
-6 8 4 0.07 0.05
5 -8 -4 1.72 0.11
-5 8 4 1.73 0.1
4 -8 -4 14.23 0.33
-4 8 4 14.69 0.32
3 -8 -4 11.99 0.29
-3 8 4 11.93 0.28
2 -8 -4 13.12 0.3
-2 8 4 13.24 0.29
1 -8 -4 2.18 0.11
-1 8 4 2.05 0.11
0 -8 -4 1.39 0.09
0 8 4 1.33 0.09
5 -9 -4 0.29 0.06
-5 9 4 0.2 0.05
4 -9 -4 1.08 0.1
-4 9 4 1.11 0.1
3 -9 -4 1.89 0.11
-3 9 4 2.02 0.11
2 -9 -4 0.15 0.05
-2 9 4 0.15 0.05
1 -9 -4 0.34 0.06
-1 9 4 0.41 0.06
0 9 4 4.58 0.16
4 -10 -4 1.56 0.12
-4 10 4 1.55 0.11
3 -10 -4 7.02 0.22
-3 10 4 7.08 0.21
2 -10 -4 7.85 0.23
-2 10 4 8.21 0.23
-1 10 4 4.29 0.17
0 13 -5 6.67 0.22
-1 13 -5 0.07 0.05
-2 13 -5 0.53 0.07
-3 13 -5 -0.02 0.04
1 12 -5 8.76 0.25
-1 -12 5 8.64 0.22
0 12 -5 -0.03 0.04
0 -12 5 0.25 0.05
-1 12 -5 1.04 0.09
1 -12 5 0.87 0.08
-2 12 -5 1.25 0.09
-3 12 -5 0.06 0.04
2 11 -5 8.56 0.25
-2 -11 5 8.69 0.21
1 11 -5 14.36 0.33
-1 -11 5 14.88 0.3
0 11 -5 0.03 0.04
0 -11 5 0.06 0.04
-1 11 -5 1.93 0.1
1 -11 5 1.91 0.1
-2 11 -5 0.04 0.04
-2 11 -5 0.05 0.04
2 -11 5 0.12 0.04
-3 11 -5 6.65 0.19
4 -11 5 0.12 0.05
5 -11 5 0.08 0.05
3 10 -5 0.36 0.07
-3 -10 5 0.25 0.05
2 10 -5 0.02 0.05
-2 -10 5 0.03 0.04
1 10 -5 8.71 0.22
-1 -10 5 8.41 0.2
0 10 -5 9.76 0.24
0 -10 5 9.78 0.22
-1 10 -5 3.81 0.13
-1 10 -5 3.52 0.13
1 -10 5 3.7 0.13
-2 10 -5 22.39 0.44
-2 10 -5 22.6 0.43
2 -10 5 22.22 0.43
-3 10 -5 27.21 0.52
-3 10 -5 27.54 0.52
3 -10 5 27.59 0.52
4 -10 5 28.05 0.53
5 -10 5 0.26 0.05
3 9 -5 1.19 0.1
-3 -9 5 1.06 0.08
2 9 -5 4 0.14
-2 -9 5 3.82 0.12
1 9 -5 3.46 0.13
-1 -9 5 3.48 0.12
0 9 -5 2.57 0.1
0 -9 5 2.66 0.1
-1 9 -5 11.62 0.25
-1 9 -5 11.85 0.26
1 -9 5 11.91 0.26
-2 9 -5 0.05 0.03
-2 9 -5 0.05 0.03
-3 9 -5 30.9 0.57
3 -9 5 30.76 0.55
-4 9 -5 15.99 0.34
4 -9 5 15.63 0.33
5 -9 5 5.46 0.17
4 8 -5 0.25 0.06
-4 -8 5 0.26 0.05
3 8 -5 3.9 0.14
-3 -8 5 3.99 0.12
2 8 -5 12.66 0.28
-2 -8 5 12.33 0.26
1 8 -5 44.63 0.78
-1 -8 5 44.53 0.75
0 8 -5 0.99 0.07
0 8 -5 0.9 0.06
0 -8 5 0.87 0.06
-1 8 -5 10.97 0.23
-1 8 -5 10.69 0.24
1 -8 5 11.07 0.24
-2 8 -5 0.55 0.06
-2 8 -5 0.52 0.05
2 -8 5 0.57 0.05
-3 8 -5 22.25 0.44
3 -8 5 22.87 0.42
-4 8 -5 0.15 0.04
4 -8 5 0.23 0.04
-5 8 -5 0.03 0.04
5 -8 5 0.07 0.04
5 7 -5 1.53 0.11
-5 -7 5 1.31 0.09
4 7 -5 0.08 0.05
-4 -7 5 0 0.04
3 7 -5 1.25 0.08
-3 -7 5 1.23 0.08
2 7 -5 17.2 0.35
-2 -7 5 16.98 0.32
1 7 -5 1.81 0.08
-1 -7 5 1.94 0.08
0 7 -5 86.58 1.4
0 7 -5 88.61 1.45
0 -7 5 87.89 1.4
-1 7 -5 7.58 0.17
-1 7 -5 7.73 0.19
1 -7 5 7.82 0.15
-2 7 -5 15.46 0.31
-2 7 -5 15.04 0.29
2 -7 5 15.53 0.29
-3 7 -5 1.83 0.09
3 -7 5 1.87 0.08
-4 7 -5 3.3 0.13
4 -7 5 3.36 0.12
-5 7 -5 0.77 0.09
5 -7 5 0.76 0.08
-6 7 -5 1.84 0.12
6 -7 5 1.96 0.12
5 6 -5 0.13 0.05
-5 -6 5 0.2 0.05
-4 -6 5 0.3 0.05
3 6 -5 1.1 0.07
-3 -6 5 1 0.07
2 6 -5 5.46 0.15
-2 -6 5 5.55 0.14
1 6 -5 0.38 0.04
-1 -6 5 0.37 0.04
0 6 -5 23.96 0.43
0 6 -5 23.84 0.43
0 -6 5 24.13 0.39
0 -6 5 23.95 0.43
-1 6 -5 94.27 1.5
-1 6 -5 94.62 1.54
1 -6 5 93.22 1.54
-2 6 -5 9.16 0.21
-2 6 -5 8.71 0.18
2 -6 5 8.8 0.18
-3 6 -5 6.87 0.18
3 -6 5 6.79 0.16
-4 6 -5 4.5 0.15
4 -6 5 4.37 0.13
-5 6 -5 0 0.04
5 -6 5 0.04 0.04
-6 6 -5 0.04 0.05
6 -6 5 0.13 0.05
5 5 -5 0.08 0.04
-5 -5 5 0.07 0.04
4 5 -5 3.96 0.14
-4 -5 5 4.1 0.12
3 5 -5 6.07 0.16
-3 -5 5 5.95 0.14
2 5 -5 10.27 0.22
-2 -5 5 10.35 0.21
1 5 -5 3.51 0.1
1 5 -5 3.56 0.1
-1 -5 5 3.51 0.1
0 5 -5 37.25 0.64
0 5 -5 38.05 0.64
0 -5 5 38.05 0.61
-1 5 -5 91.56 1.51
-1 5 -5 91.16 1.46
1 -5 5 91.77 1.48
-2 5 -5 0.01 0.03
2 -5 5 0.01 0.02
-3 5 -5 0.04 0.03
3 -5 5 0.03 0.03
-4 5 -5 9.24 0.23
4 -5 5 9.16 0.21
-5 5 -5 10.29 0.26
5 -5 5 10.22 0.24
-6 5 -5 13.47 0.34
6 -5 5 13.94 0.32
-6 -4 5 6.46 0.17
5 4 -5 19.07 0.39
-5 -4 5 18.51 0.35
4 4 -5 3.17 0.12
-4 -4 5 3.32 0.1
3 4 -5 3.77 0.12
-3 -4 5 3.92 0.1
2 4 -5 1.26 0.06
-2 -4 5 1.32 0.06
1 4 -5 137.07 2.13
1 4 -5 133.54 2.28
-1 -4 5 137.36 2.13
-1 -4 5 140.03 2.21
0 4 -5 17.64 0.32
0 4 -5 17.72 0.32
0 -4 5 17.6 0.3
-1 4 -5 1.39 0.07
-1 4 -5 1.4 0.05
1 -4 5 1.41 0.05
-2 4 -5 11.24 0.24
2 -4 5 10.97 0.22
-3 4 -5 4.04 0.13
3 -4 5 4.06 0.11
-4 4 -5 1.96 0.1
4 -4 5 2.13 0.09
-5 4 -5 0.31 0.06
5 -4 5 0.34 0.05
-6 4 -5 10.03 0.28
6 -4 5 10.21 0.26
6 3 -5 6.85 0.22
-6 -3 5 6.44 0.17
5 3 -5 13.99 0.31
-5 -3 5 14.49 0.27
4 3 -5 24.44 0.47
-4 -3 5 24.64 0.42
3 3 -5 4.29 0.12
-3 -3 5 4.32 0.11
2 3 -5 1.85 0.05
-2 -3 5 1.9 0.06
1 3 -5 10.55 0.21
1 3 -5 10.7 0.19
1 3 -5 10.62 0.21
-1 -3 5 11.12 0.21
0 3 -5 103.1 1.6
0 3 -5 100.16 1.68
0 3 -5 102.99 2.17
0 -3 5 102.43 1.71
-1 3 -5 59.24 0.95
-1 3 -5 58.36 0.95
1 -3 5 57.37 0.95
-2 3 -5 26.73 0.47
2 -3 5 26.16 0.46
-3 3 -5 34.85 0.61
3 -3 5 34.78 0.6
-4 3 -5 19.95 0.4
4 -3 5 19.55 0.38
-5 3 -5 0.56 0.07
5 -3 5 0.68 0.08
6 2 -5 1.58 0.1
-6 -2 5 1.61 0.08
5 2 -5 0.25 0.05
-5 -2 5 0.39 0.04
4 2 -5 3.38 0.11
-4 -2 5 3.45 0.09
3 2 -5 2 0.06
3 2 -5 2.03 0.08
-3 -2 5 1.97 0.06
2 2 -5 24.24 0.42
2 2 -5 25.06 0.44
-2 -2 5 24.87 0.41
1 2 -5 284.38 4.97
1 2 -5 289.98 4.7
1 2 -5 291.83 4.58
0 2 -5 35.93 0.6
0 2 -5 36.23 0.6
0 2 -5 36.08 0.6
-1 2 -5 1.16 0.06
-1 2 -5 1.27 0.05
-1 2 -5 1.26 0.04
1 -2 5 1.27 0.05
-2 2 -5 5.6 0.15
2 -2 5 5.59 0.13
-3 2 -5 0.23 0.04
3 -2 5 0.27 0.04
-4 2 -5 1.97 0.1
4 -2 5 2.05 0.1
-5 2 -5 -0.04 0.04
5 -2 5 0.05 0.04
6 1 -5 0.84 0.08
5 1 -5 2.11 0.1
-5 -1 5 2.07 0.08
4 1 -5 2.23 0.08
4 1 -5 2.39 0.09
-4 -1 5 2.28 0.07
3 1 -5 1.17 0.05
3 1 -5 1.26 0.06
-3 -1 5 1.21 0.05
2 1 -5 217.19 3.67
2 1 -5 222.04 3.75
-2 -1 5 227.34 3.53
1 1 -5 153.63 2.45
1 1 -5 151.12 2.56
1 1 -5 152.96 2.52
0 1 -5 0.09 0.02
0 1 -5 0.07 0.01
-1 1 -5 65.77 1.06
-1 1 -5 66.7 1.08
1 -1 5 65.61 1.08
1 -1 5 66.3 1.07
-2 1 -5 0.83 0.06
2 -1 5 0.81 0.05
-3 1 -5 0.3 0.04
3 -1 5 0.44 0.05
-4 1 -5 4.96 0.16
4 -1 5 5.19 0.15
-5 1 -5 0.67 0.08
5 -1 5 0.91 0.09
6 0 -5 0.79 0.08
5 0 -5 13.76 0.29
5 0 -5 14.23 0.3
4 0 -5 25.32 0.45
4 0 -5 25.19 0.47
-4 0 5 24.89 0.41
3 0 -5 7.64 0.17
3 0 -5 7.59 0.17
-3 0 5 7.73 0.14
2 0 -5 10.44 0.19
2 0 -5 10.34 0.21
2 0 -5 10.03 0.2
-2 0 5 10.78 0.19
1 0 -5 0.45 0.03
1 0 -5 0.47 0.03
1 0 -5 0.36 0.03
0 0 -5 12.34 0.22
0 0 -5 12.23 0.23
0 0 -5 12.42 0.24
0 0 5 12.21 0.22
-1 0 -5 0.94 0.05
-1 0 -5 0.94 0.05
1 0 5 0.87 0.03
-2 0 -5 0.09 0.03
2 0 5 0.08 0.03
-3 0 -5 0.24 0.04
3 0 5 0.22 0.04
-4 0 -5 1.5 0.1
4 0 5 1.34 0.09
-5 0 -5 0.39 0.07
5 0 5 0.39 0.06
6 -1 -5 0.01 0.04
-6 1 5 0.08 0.04
5 -1 -5 24.42 0.47
5 -1 -5 24.76 0.47
4 -1 -5 24.88 0.46
4 -1 -5 24.78 0.45
3 -1 -5 8.76 0.19
3 -1 -5 8.57 0.19
-3 1 5 8.74 0.15
2 -1 -5 6.11 0.12
2 -1 -5 6.02 0.14
2 -1 -5 6.2 0.14
-2 1 5 6.15 0.12
-2 1 5 6.21 0.14
1 -1 -5 109.58 1.69
1 -1 -5 108.26 1.77
1 -1 -5 110 1.78
-1 1 5 109.88 1.77
0 -1 -5 0.28 0.03
0 -1 -5 0.31 0.03
0 1 5 0.34 0.03
-1 -1 -5 56.65 0.95
-1 -1 -5 57.64 0.92
1 1 5 56.2 0.94
1 1 5 56.07 0.92
-2 -1 -5 6.88 0.17
-2 -1 -5 6.78 0.17
2 1 5 6.92 0.17
-3 -1 -5 15.39 0.32
3 1 5 15.8 0.32
-4 -1 -5 4.61 0.16
4 1 5 4.91 0.15
-5 -1 -5 0.37 0.07
5 1 5 0.28 0.06
6 -2 -5 -0.01 0.04
6 -2 -5 0.1 0.04
-6 2 5 0.08 0.04
5 -2 -5 12.19 0.27
5 -2 -5 12.19 0.27
-5 2 5 12.2 0.27
4 -2 -5 53.93 0.91
4 -2 -5 52.81 0.91
-4 2 5 52.21 0.91
3 -2 -5 21.47 0.4
3 -2 -5 21.74 0.4
-3 2 5 21.52 0.4
2 -2 -5 15.91 0.3
2 -2 -5 15.7 0.3
-2 2 5 15.67 0.3
-2 2 5 15.66 0.26
1 -2 -5 42.83 0.68
-1 2 5 42.11 0.71
0 -2 -5 11.93 0.25
0 -2 -5 12.2 0.23
0 2 5 11.97 0.23
-1 -2 -5 9.76 0.21
-1 -2 -5 10.07 0.21
-2 -2 -5 5.88 0.15
-2 -2 -5 5.29 0.15
2 2 5 5.81 0.15
-3 -2 -5 0.52 0.06
-4 -2 -5 -0.02 0.04
4 2 5 0.05 0.04
7 -3 -5 7.97 0.24
7 -3 -5 7.27 0.23
6 -3 -5 21.15 0.44
6 -3 -5 21.4 0.43
-6 3 5 21.45 0.43
5 -3 -5 0.08 0.04
5 -3 -5 0.07 0.04
-5 3 5 0.06 0.04
4 -3 -5 43.16 0.75
4 -3 -5 42.15 0.75
-4 3 5 42.32 0.74
3 -3 -5 6.09 0.15
3 -3 -5 5.94 0.16
-3 3 5 6.09 0.15
2 -3 -5 66.07 1.1
-2 3 5 65.54 1.1
1 -3 -5 23.49 0.43
-1 3 5 23.61 0.42
0 -3 -5 30.73 0.5
0 -3 -5 29.5 0.54
0 3 5 30.43 0.52
-1 -3 -5 8.8 0.2
-1 -3 -5 8.81 0.19
-2 -3 -5 1.2 0.08
-2 -3 -5 1.02 0.07
2 3 5 1.14 0.08
-3 -3 -5 7.48 0.2
3 3 5 7.36 0.2
-4 -3 -5 10.54 0.27
4 3 5 10.56 0.26
7 -4 -5 21.75 0.48
-7 4 5 22.47 0.45
6 -4 -5 15.16 0.35
-6 4 5 15.1 0.33
5 -4 -5 2.88 0.12
-5 4 5 2.95 0.11
4 -4 -5 2.68 0.11
-4 4 5 2.58 0.1
3 -4 -5 0.59 0.06
-3 4 5 0.76 0.06
2 -4 -5 0.61 0.06
-2 4 5 0.63 0.05
1 -4 -5 3.51 0.11
-1 4 5 3.49 0.1
0 -4 -5 11.52 0.22
0 -4 -5 11.85 0.25
0 4 5 11.66 0.24
-1 -4 -5 5 0.15
-1 -4 -5 5.03 0.13
-2 -4 -5 0.28 0.05
-2 -4 -5 0.33 0.05
2 4 5 0.28 0.05
-3 -4 -5 0.02 0.04
3 4 5 0.02 0.05
6 -5 -5 0.38 0.06
-6 5 5 0.26 0.05
5 -5 -5 24.33 0.49
-5 5 5 24.85 0.47
4 -5 -5 0.11 0.04
-4 5 5 0.02 0.03
3 -5 -5 28.8 0.54
-3 5 5 29.45 0.53
2 -5 -5 19.57 0.39
-2 5 5 20.03 0.38
1 -5 -5 0.07 0.03
-1 5 5 0.09 0.03
0 -5 -5 0.36 0.05
-1 -5 -5 2.99 0.12
-1 -5 -5 2.76 0.1
-2 -5 -5 0.07 0.04
-2 -5 -5 0.06 0.04
2 5 5 0.03 0.04
-3 -5 -5 0.32 0.06
3 5 5 0.21 0.06
6 -6 -5 0.02 0.04
-6 6 5 0 0.04
5 -6 -5 0.06 0.04
-5 6 5 0.01 0.04
4 -6 -5 0.26 0.05
-4 6 5 0.22 0.04
3 -6 -5 11.08 0.26
-3 6 5 10.71 0.24
2 -6 -5 4.78 0.15
-2 6 5 4.75 0.14
1 -6 -5 0.17 0.04
-1 6 5 0.12 0.04
0 -6 -5 0.17 0.04
0 6 5 0.16 0.04
-1 -6 -5 0.18 0.05
-2 -6 -5 0.79 0.08
2 6 5 0.77 0.09
6 -7 -5 4.76 0.18
-6 7 5 4.66 0.17
5 -7 -5 2.94 0.14
-5 7 5 2.81 0.12
4 -7 -5 7.11 0.21
-4 7 5 7.19 0.2
3 -7 -5 10.86 0.27
-3 7 5 10.99 0.25
2 -7 -5 9.76 0.25
-2 7 5 9.63 0.23
1 -7 -5 0.6 0.07
-1 7 5 0.47 0.06
0 -7 -5 0.65 0.07
0 7 5 0.51 0.06
-1 -7 -5 0.02 0.04
5 -8 -5 0.1 0.05
-5 8 5 0 0.04
4 -8 -5 4.95 0.18
-4 8 5 5.14 0.17
3 -8 -5 6.35 0.2
-3 8 5 6.21 0.19
2 -8 -5 0.74 0.09
-2 8 5 0.63 0.08
1 -8 -5 0.31 0.06
-1 8 5 0.31 0.06
0 -8 -5 1.96 0.12
5 -9 -5 16.37 0.4
-5 9 5 16.59 0.38
4 -9 -5 1.27 0.11
-4 9 5 1.18 0.1
3 -9 -5 0.91 0.1
-3 9 5 0.92 0.09
2 -9 -5 1.67 0.11
-2 9 5 1.52 0.11
1 -9 -5 0.65 0.08
-1 9 5 0.71 0.09
3 -10 -5 3.28 0.16
-3 10 5 3.28 0.15
-2 10 5 7.53 0.23
0 13 -6 1.99 0.12
0 -13 6 1.94 0.11
-1 13 -6 0.75 0.1
-2 13 -6 0.35 0.06
1 12 -6 9.53 0.26
-1 -12 6 9.21 0.23
0 12 -6 2 0.12
0 -12 6 2.03 0.11
-1 12 -6 4.44 0.16
1 -12 6 4.38 0.15
-2 12 -6 1.99 0.11
-2 12 -6 2.09 0.11
2 -12 6 2.09 0.11
2 11 -6 1.55 0.11
-2 -11 6 1.5 0.09
1 11 -6 0.53 0.07
-1 -11 6 0.63 0.08
0 11 -6 8.75 0.23
0 -11 6 8.78 0.22
-1 11 -6 7.95 0.21
1 -11 6 8 0.21
-2 11 -6 0.24 0.05
-2 11 -6 0.24 0.05
2 -11 6 0.24 0.05
-3 11 -6 23.19 0.47
3 10 -6 4.3 0.17
-3 -10 6 4.36 0.15
2 10 -6 27.97 0.55
-2 -10 6 28.03 0.51
1 10 -6 9.75 0.24
-1 -10 6 9.86 0.23
0 10 -6 0.1 0.04
0 -10 6 0.19 0.04
-1 10 -6 4.18 0.14
-1 10 -6 4.07 0.14
1 -10 6 4.17 0.14
-2 10 -6 0.58 0.07
-2 10 -6 0.56 0.06
2 -10 6 0.72 0.08
-3 10 -6 0.81 0.09
-4 10 -6 1.51 0.11
4 -10 6 1.56 0.09
5 -10 6 2.78 0.13
4 9 -6 0.1 0.05
3 9 -6 3.05 0.14
-3 -9 6 3.24 0.12
2 9 -6 1.2 0.09
-2 -9 6 1.32 0.08
1 9 -6 1.56 0.09
-1 -9 6 1.58 0.09
0 9 -6 4.37 0.14
0 -9 6 4.32 0.14
-1 9 -6 6.52 0.18
-1 9 -6 6.56 0.17
1 -9 6 6.4 0.18
-2 9 -6 1.47 0.08
-2 9 -6 1.56 0.09
-3 9 -6 0.88 0.08
3 -9 6 0.75 0.07
-4 9 -6 2.86 0.13
4 -9 6 2.92 0.12
-5 9 -6 0.6 0.08
5 -9 6 0.57 0.07
4 8 -6 0.9 0.09
-4 -8 6 0.86 0.08
3 8 -6 3.39 0.13
-3 -8 6 3.39 0.12
2 8 -6 59.08 1.03
-2 -8 6 59.12 0.97
1 8 -6 93.23 1.55
-1 -8 6 91.34 1.48
0 8 -6 0.06 0.03
0 8 -6 0.05 0.03
0 -8 6 0 0.03
-1 8 -6 25.59 0.47
-1 8 -6 25.15 0.46
-2 8 -6 1.54 0.07
-2 8 -6 1.67 0.09
2 -8 6 1.63 0.07
-3 8 -6 10.86 0.26
3 -8 6 11.16 0.24
-4 8 -6 0.35 0.06
4 -8 6 0.44 0.05
-5 8 -6 0.51 0.07
5 -8 6 0.57 0.06
5 7 -6 0.19 0.06
-5 -7 6 0.27 0.05
4 7 -6 0.02 0.04
-4 -7 6 0.03 0.04
3 7 -6 0.05 0.04
-3 -7 6 0.13 0.04
2 7 -6 49.6 0.86
-2 -7 6 49.02 0.82
1 7 -6 47.93 0.83
-1 -7 6 48.36 0.81
0 7 -6 5.67 0.15
0 7 -6 5.7 0.14
0 -7 6 5.75 0.15
-2 7 -6 16.21 0.34
2 -7 6 16.38 0.3
-3 7 -6 28.64 0.54
3 -7 6 29.43 0.52
-4 7 -6 25.96 0.51
4 -7 6 26.17 0.49
-5 7 -6 0.06 0.05
5 -7 6 0.08 0.04
5 6 -6 1.06 0.1
-5 -6 6 0.85 0.08
4 6 -6 13.11 0.3
-4 -6 6 13.32 0.27
3 6 -6 19.51 0.39
-3 -6 6 19.85 0.36
2 6 -6 12.85 0.27
-2 -6 6 12.89 0.26
1 6 -6 7.27 0.17
1 6 -6 7.26 0.17
-1 -6 6 7.13 0.17
0 6 -6 0.71 0.05
0 6 -6 0.74 0.06
0 -6 6 0.75 0.06
-1 6 -6 7.64 0.16
-1 6 -6 7.4 0.19
1 -6 6 7.58 0.15
-2 6 -6 21.28 0.41
2 -6 6 20.93 0.38
-3 6 -6 37.06 0.66
3 -6 6 36.14 0.63
-4 6 -6 17.37 0.37
4 -6 6 17.47 0.35
-5 6 -6 10.83 0.29
5 -6 6 10.91 0.26
-5 -5 6 0.49 0.05
4 5 -6 20 0.41
-4 -5 6 19.82 0.36
3 5 -6 10.77 0.24
-3 -5 6 10.53 0.22
2 5 -6 80.57 1.34
-2 -5 6 79.74 1.28
1 5 -6 0.34 0.04
1 5 -6 0.29 0.04
-1 -5 6 0.3 0.04
0 5 -6 4.52 0.13
0 5 -6 4.45 0.11
0 -5 6 4.58 0.09
-1 5 -6 29.12 0.52
-1 5 -6 29.44 0.5
1 -5 6 29.22 0.49
-2 5 -6 6.83 0.18
2 -5 6 6.95 0.15
-3 5 -6 0.69 0.07
3 -5 6 0.49 0.05
-4 5 -6 3.76 0.15
4 -5 6 3.85 0.13
-5 5 -6 1.95 0.12
5 -5 6 2.06 0.11
6 4 -6 0.51 0.07
-6 -4 6 0.52 0.06
5 4 -6 1.45 0.1
-5 -4 6 1.51 0.08
4 4 -6 8.29 0.21
-4 -4 6 8.11 0.18
3 4 -6 16.69 0.34
-3 -4 6 16.91 0.31
2 4 -6 74.59 1.23
-2 -4 6 72.93 1.17
1 4 -6 9.82 0.18
1 4 -6 9.6 0.2
1 4 -6 9.69 0.21
-1 -4 6 10.08 0.18
-1 -4 6 10.48 0.21
0 4 -6 23.81 0.43
0 4 -6 23.19 0.42
0 -4 6 24.23 0.4
-1 4 -6 6.11 0.16
-1 4 -6 6.07 0.13
1 -4 6 6.05 0.13
-2 4 -6 1.79 0.09
2 -4 6 1.71 0.07
-3 4 -6 0.38 0.05
3 -4 6 0.36 0.04
-4 4 -6 2.46 0.12
4 -4 6 2.53 0.11
-5 4 -6 0.23 0.06
5 -4 6 0.23 0.05
6 3 -6 0.12 0.05
-6 -3 6 0.16 0.04
5 3 -6 0.65 0.07
-5 -3 6 0.62 0.06
4 3 -6 1.08 0.07
-4 -3 6 1.06 0.06
3 3 -6 10.12 0.23
-3 -3 6 10.37 0.2
2 3 -6 -0.01 0.02
-2 -3 6 0.03 0.02
1 3 -6 94.34 1.48
1 3 -6 93.88 1.53
1 3 -6 92.74 1.55
0 3 -6 34.25 0.59
0 3 -6 34.79 0.59
0 3 -6 34.65 0.58
0 -3 6 34.88 0.58
-1 3 -6 55.14 0.9
-1 3 -6 55.07 0.89
1 -3 6 53.47 0.9
-2 3 -6 29.77 0.53
2 -3 6 29.33 0.52
-3 3 -6 0.15 0.04
3 -3 6 0.22 0.04
-4 3 -6 1.72 0.11
4 -3 6 1.81 0.09
-5 3 -6 2.33 0.13
5 -3 6 2.42 0.12
6 2 -6 0.02 0.04
5 2 -6 18.75 0.39
-5 -2 6 19.46 0.34
4 2 -6 22.91 0.44
-4 -2 6 23.14 0.39
3 2 -6 3.56 0.11
3 2 -6 3.08 0.09
-3 -2 6 3.19 0.09
2 2 -6 42.83 0.73
2 2 -6 42.15 0.69
2 2 -6 41.95 0.7
-2 -2 6 42.57 0.69
1 2 -6 0.66 0.04
1 2 -6 0.69 0.05
1 2 -6 0.8 0.04
0 2 -6 188.63 3.03
0 2 -6 184.92 3.12
0 2 -6 187.92 3.12
-1 2 -6 15.15 0.28
-1 2 -6 14.7 0.29
1 -2 6 14.6 0.28
-2 2 -6 1.28 0.07
2 -2 6 1.32 0.06
-3 2 -6 2.14 0.1
3 -2 6 2.3 0.09
-4 2 -6 0.26 0.05
4 -2 6 0.22 0.05
-5 2 -6 1.1 0.11
5 -2 6 1.01 0.09
6 1 -6 0.17 0.05
5 1 -6 9.85 0.24
4 1 -6 9.79 0.21
4 1 -6 10.06 0.23
-4 -1 6 10.24 0.19
3 1 -6 0.12 0.02
3 1 -6 0.08 0.03
-3 -1 6 0.09 0.02
2 1 -6 2.27 0.07
2 1 -6 2.22 0.07
-2 -1 6 2.36 0.07
1 1 -6 45.64 0.76
1 1 -6 45.65 0.74
1 1 -6 46.3 0.77
0 1 -6 43.63 0.75
0 1 -6 45.43 0.75
0 1 -6 46.16 0.74
-1 1 -6 8.3 0.19
1 -1 6 8.13 0.18
-2 1 -6 7.08 0.18
2 -1 6 6.96 0.17
-3 1 -6 3.07 0.12
3 -1 6 2.97 0.11
-4 1 -6 0.11 0.04
4 -1 6 0.11 0.04
-5 1 -6 0.46 0.07
5 -1 6 0.57 0.07
6 0 -6 5.7 0.17
5 0 -6 9.51 0.23
4 0 -6 82.75 1.36
4 0 -6 82.26 1.38
3 0 -6 54.09 0.92
3 0 -6 54.17 0.93
-3 0 6 56.06 0.86
2 0 -6 3.09 0.09
2 0 -6 3.19 0.09
2 0 -6 2.99 0.08
-2 0 6 3 0.08
1 0 -6 45.56 0.77
1 0 -6 46.46 0.77
1 0 -6 45.44 0.74
-1 0 6 46.62 0.77
0 0 -6 11.62 0.23
0 0 -6 11.43 0.23
0 0 -6 11.46 0.21
0 0 6 11.6 0.21
-1 0 -6 74.99 1.23
-1 0 -6 75.73 1.2
1 0 6 72.66 1.23
-2 0 -6 10.29 0.22
-2 0 -6 10.19 0.23
2 0 6 10 0.22
-3 0 -6 15.38 0.33
3 0 6 15.79 0.32
-4 0 -6 0.37 0.06
4 0 6 0.38 0.05
-7 1 6 1.61 0.11
6 -1 -6 0.04 0.04
-6 1 6 0.04 0.04
5 -1 -6 0.28 0.05
5 -1 -6 0.28 0.05
-5 1 6 0.33 0.05
4 -1 -6 0.33 0.04
4 -1 -6 0.23 0.04
3 -1 -6 120.02 1.97
3 -1 -6 122.15 1.95
-3 1 6 118.05 1.97
2 -1 -6 198.04 3.33
2 -1 -6 200.76 3.28
2 -1 -6 199.29 3.1
-2 1 6 197.38 3.11
-2 1 6 192.75 3.67
1 -1 -6 6.13 0.14
1 -1 -6 6.28 0.14
1 -1 -6 6.65 0.15
-1 1 6 6.15 0.14
0 -1 -6 28.9 0.52
0 -1 -6 29.24 0.5
0 1 6 29.38 0.5
-1 -1 -6 12.94 0.27
-1 -1 -6 13.03 0.26
1 1 6 12.65 0.26
-2 -1 -6 3.78 0.12
-2 -1 -6 3.78 0.13
2 1 6 3.89 0.12
-3 -1 -6 1.61 0.1
3 1 6 1.9 0.1
-4 -1 -6 1.18 0.1
4 1 6 1.37 0.1
7 -2 -6 0.08 0.05
-7 2 6 0.05 0.05
6 -2 -6 2.24 0.11
6 -2 -6 2.42 0.12
-6 2 6 2.4 0.11
5 -2 -6 0.98 0.08
5 -2 -6 1.12 0.08
-5 2 6 1.23 0.08
4 -2 -6 0.29 0.04
4 -2 -6 0.26 0.04
-4 2 6 0.29 0.04
3 -2 -6 9.86 0.22
3 -2 -6 9.84 0.22
-3 2 6 9.9 0.22
2 -2 -6 75.54 1.23
2 -2 -6 72.46 1.23
-2 2 6 73.94 1.23
1 -2 -6 13.17 0.24
1 -2 -6 12.98 0.27
-1 2 6 12.91 0.25
0 -2 -6 5.98 0.14
0 -2 -6 6.21 0.16
0 2 6 6.15 0.14
-1 -2 -6 1.14 0.07
-1 -2 -6 1.03 0.06
-2 -2 -6 32.39 0.58
-2 -2 -6 32.06 0.57
2 2 6 31.73 0.58
-3 -2 -6 0.73 0.08
3 2 6 0.69 0.08
-4 -2 -6 0.9 0.1
4 2 6 0.99 0.09
6 -3 -6 0.11 0.05
6 -3 -6 0.16 0.05
-6 3 6 0.1 0.04
5 -3 -6 3.41 0.13
5 -3 -6 3.34 0.13
-5 3 6 3.34 0.12
4 -3 -6 24.15 0.46
4 -3 -6 23.78 0.46
-4 3 6 23.77 0.45
3 -3 -6 6.45 0.17
-3 3 6 6.62 0.16
2 -3 -6 31.39 0.58
-2 3 6 32.61 0.57
1 -3 -6 13.78 0.29
-1 3 6 14.14 0.27
0 -3 -6 0.01 0.02
0 -3 -6 0.01 0.03
0 3 6 0.08 0.03
-1 -3 -6 1.98 0.09
-1 -3 -6 1.88 0.09
-2 -3 -6 0.06 0.04
-2 -3 -6 0.01 0.04
2 3 6 0.04 0.04
-3 -3 -6 3.54 0.14
3 3 6 3.46 0.14
6 -4 -6 2.51 0.13
-6 4 6 2.67 0.12
5 -4 -6 4.21 0.15
-5 4 6 4.12 0.14
4 -4 -6 8.32 0.21
-4 4 6 8.05 0.2
3 -4 -6 19.71 0.4
-3 4 6 19.83 0.38
2 -4 -6 2.23 0.1
-2 4 6 2.39 0.09
-1 4 6 0.18 0.04
0 -4 -6 10.21 0.24
0 4 6 10.44 0.22
-1 -4 -6 2.09 0.09
-1 -4 -6 1.88 0.1
-2 -4 -6 3.92 0.14
-2 -4 -6 3.79 0.14
2 4 6 3.98 0.14
-3 -4 -6 6.59 0.2
3 4 6 6.84 0.2
6 -5 -6 0.41 0.07
-6 5 6 0.42 0.06
5 -5 -6 28.49 0.56
-5 5 6 28.78 0.55
4 -5 -6 0.38 0.05
-4 5 6 0.38 0.05
3 -5 -6 22.36 0.45
-3 5 6 22.66 0.43
2 -5 -6 19.54 0.4
-2 5 6 19.55 0.38
1 -5 -6 11.97 0.28
-1 5 6 12.27 0.26
0 -5 -6 14.22 0.31
-1 -5 -6 0.03 0.04
-2 -5 -6 3.24 0.13
-2 -5 -6 3.41 0.14
2 5 6 3.36 0.14
6 -6 -6 0 0.05
-6 6 6 -0.02 0.04
5 -6 -6 0.93 0.09
-5 6 6 0.91 0.08
4 -6 -6 3.85 0.15
-4 6 6 3.78 0.14
3 -6 -6 17.28 0.38
-3 6 6 17.78 0.36
2 -6 -6 15.18 0.34
-2 6 6 14.79 0.31
1 -6 -6 1.77 0.1
-1 6 6 1.64 0.09
0 -6 -6 24.8 0.49
-1 -6 -6 1.49 0.1
-2 -6 -6 0.35 0.06
2 6 6 0.4 0.07
6 -7 -6 5.65 0.21
-6 7 6 5.4 0.18
5 -7 -6 0.56 0.07
-5 7 6 0.51 0.07
4 -7 -6 0.04 0.04
-4 7 6 0.02 0.04
3 -7 -6 2.81 0.13
-3 7 6 2.98 0.12
2 -7 -6 4.05 0.15
-2 7 6 3.9 0.14
1 -7 -6 4.64 0.17
-1 7 6 4.55 0.15
0 -7 -6 0.51 0.07
-1 -7 -6 0.13 0.05
1 7 6 0.18 0.06
5 -8 -6 1.03 0.11
-5 8 6 1.21 0.1
4 -8 -6 0.16 0.05
-4 8 6 0.2 0.05
3 -8 -6 0.04 0.05
-3 8 6 0.01 0.05
2 -8 -6 1.77 0.11
-2 8 6 1.8 0.11
1 -8 -6 0.15 0.05
-1 8 6 0.11 0.05
0 -8 -6 0.97 0.1
4 -9 -6 3.07 0.15
-4 9 6 3.13 0.14
3 -9 -6 0.96 0.1
-3 9 6 1.13 0.1
2 -9 -6 0.45 0.07
-2 9 6 0.44 0.07
-1 13 -7 0.62 0.07
1 -13 7 0.68 0.07
-2 13 -7 0.15 0.06
-2 13 -7 0.12 0.05
1 12 -7 3.79 0.16
-1 -12 7 3.88 0.14
0 12 -7 0.39 0.06
0 -12 7 0.38 0.06
-1 12 -7 9.05 0.24
1 -12 7 8.8 0.23
-2 12 -7 0.28 0.06
-2 12 -7 0.18 0.05
2 -12 7 0.26 0.06
-3 12 -7 3.32 0.15
2 11 -7 0.08 0.06
-2 -11 7 0.12 0.05
1 11 -7 0.03 0.04
-1 -11 7 0.03 0.04
0 11 -7 -0.04 0.04
0 -11 7 -0.02 0.04
-1 11 -7 0.02 0.04
-1 11 -7 0.02 0.04
1 -11 7 0.04 0.04
-2 11 -7 1.66 0.11
-2 11 -7 1.54 0.09
2 -11 7 1.63 0.11
-3 11 -7 13.49 0.32
-4 11 -7 11.27 0.3
3 10 -7 2.44 0.14
-3 -10 7 2.38 0.12
2 10 -7 1.69 0.11
-2 -10 7 1.83 0.1
1 10 -7 9.33 0.24
-1 -10 7 9.21 0.23
0 10 -7 0.6 0.07
0 -10 7 0.62 0.07
-1 10 -7 1.86 0.11
-1 10 -7 1.77 0.09
1 -10 7 1.9 0.11
-2 10 -7 30 0.57
-3 10 -7 6.97 0.21
-4 10 -7 1.08 0.1
4 -10 7 1.21 0.09
3 9 -7 1.06 0.1
-3 -9 7 1.14 0.08
2 9 -7 0.25 0.05
-2 -9 7 0.15 0.04
1 9 -7 0.55 0.07
-1 -9 7 0.48 0.06
0 9 -7 0.48 0.06
0 9 -7 0.54 0.06
0 -9 7 0.44 0.06
-1 9 -7 2.4 0.1
-1 9 -7 2.3 0.11
1 -9 7 2.26 0.11
-2 9 -7 19.98 0.41
-3 9 -7 22.91 0.46
3 -9 7 22.67 0.43
-4 9 -7 1.63 0.11
4 -9 7 1.59 0.09
-5 9 -7 1.93 0.13
5 -9 7 2.04 0.11
4 8 -7 0.08 0.05
-4 -8 7 0.06 0.04
3 8 -7 1.38 0.1
-3 -8 7 1.36 0.09
2 8 -7 2.75 0.12
-2 -8 7 2.61 0.11
1 8 -7 38.2 0.69
-1 -8 7 38.86 0.67
0 8 -7 17.77 0.35
0 8 -7 17.82 0.36
0 -8 7 17.45 0.36
-1 8 -7 9.81 0.21
-1 8 -7 9.39 0.23
-2 8 -7 21.82 0.44
2 -8 7 21.71 0.39
-3 8 -7 1.4 0.1
3 -8 7 1.4 0.08
-4 8 -7 0.27 0.06
4 -8 7 0.27 0.05
-5 8 -7 0.14 0.05
5 -8 7 0.12 0.05
5 7 -7 1.32 0.11
-5 -7 7 1.32 0.09
4 7 -7 1.9 0.11
-4 -7 7 2.09 0.1
3 7 -7 24.19 0.48
-3 -7 7 23.83 0.44
2 7 -7 22.47 0.44
-2 -7 7 22.28 0.42
1 7 -7 0.41 0.05
1 7 -7 0.54 0.06
-1 -7 7 0.41 0.05
0 7 -7 1.08 0.06
0 7 -7 1.14 0.08
-1 7 -7 5.37 0.14
-1 7 -7 5.35 0.16
1 -7 7 5.21 0.12
-2 7 -7 4.6 0.15
2 -7 7 4.55 0.12
-3 7 -7 3.61 0.14
3 -7 7 3.79 0.12
-4 7 -7 4.13 0.16
4 -7 7 4.29 0.14
-5 7 -7 1.66 0.13
5 -7 7 1.96 0.11
5 6 -7 4.52 0.17
-5 -6 7 4.28 0.14
4 6 -7 3.19 0.13
-4 -6 7 3.23 0.11
3 6 -7 18.83 0.39
-3 -6 7 19.16 0.36
2 6 -7 5.23 0.15
-2 -6 7 5.14 0.14
1 6 -7 20.45 0.39
1 6 -7 20.77 0.39
-1 -6 7 20.53 0.39
0 6 -7 21.89 0.42
0 6 -7 22.23 0.41
-1 6 -7 0.31 0.04
-1 6 -7 0.24 0.04
1 -6 7 0.29 0.04
-2 6 -7 15.14 0.33
2 -6 7 15.34 0.29
-3 6 -7 6.48 0.19
3 -6 7 6.36 0.16
-4 6 -7 0.16 0.05
4 -6 7 0.16 0.04
-5 6 -7 0.41 0.07
5 -6 7 0.41 0.06
5 5 -7 9.61 0.26
-5 -5 7 9.64 0.22
4 5 -7 8.68 0.23
-4 -5 7 9.14 0.2
3 5 -7 21.78 0.43
-3 -5 7 22.11 0.4
2 5 -7 22.72 0.43
-2 -5 7 23.23 0.42
1 5 -7 4.22 0.13
-1 -5 7 4.04 0.12
0 5 -7 28.27 0.5
0 5 -7 28.69 0.51
0 -5 7 28.78 0.48
-1 5 -7 0.19 0.04
-1 5 -7 0.32 0.03
1 -5 7 0.24 0.03
-2 5 -7 19.63 0.39
2 -5 7 19.76 0.36
-3 5 -7 3.94 0.14
3 -5 7 3.63 0.12
-4 5 -7 3.75 0.15
4 -5 7 3.66 0.13
-5 5 -7 1.22 0.11
5 -5 7 1.3 0.1
6 4 -7 0.02 0.05
-6 -4 7 0.01 0.04
5 4 -7 0.24 0.05
-5 -4 7 0.26 0.04
4 4 -7 11.91 0.28
-4 -4 7 11.86 0.24
3 4 -7 45.26 0.8
-3 -4 7 45.96 0.75
2 4 -7 8.3 0.19
-2 -4 7 8.28 0.18
1 4 -7 14.63 0.29
1 4 -7 14.62 0.26
1 4 -7 14.73 0.29
-1 -4 7 14.47 0.29
-1 -4 7 14.78 0.26
0 4 -7 10.91 0.21
0 4 -7 10.94 0.24
0 4 -7 10.9 0.22
0 -4 7 10.95 0.21
-1 4 -7 54.52 0.9
1 -4 7 53.22 0.89
-2 4 -7 44.16 0.77
2 -4 7 44.61 0.75
-3 4 -7 2.65 0.12
3 -4 7 2.54 0.1
-4 4 -7 0.36 0.06
4 -4 7 0.4 0.05
-5 4 -7 0.64 0.08
5 -4 7 0.81 0.09
6 3 -7 0.02 0.04
5 3 -7 8.05 0.22
-5 -3 7 8.56 0.18
4 3 -7 0.86 0.08
-4 -3 7 1 0.06
3 3 -7 43.89 0.77
-3 -3 7 43.63 0.72
2 3 -7 5.76 0.15
2 3 -7 5.54 0.12
2 3 -7 5.61 0.14
-2 -3 7 5.57 0.14
1 3 -7 3.08 0.1
1 3 -7 3.02 0.09
1 3 -7 3.05 0.08
0 3 -7 1.28 0.05
0 3 -7 1.28 0.07
0 3 -7 1.24 0.05
0 -3 7 1.29 0.06
-1 3 -7 144.33 2.27
-1 3 -7 145.92 2.39
1 -3 7 143.07 2.32
-2 3 -7 75.06 1.22
2 -3 7 73.73 1.23
-3 3 -7 2.54 0.12
3 -3 7 2.49 0.1
-4 3 -7 0.75 0.09
4 -3 7 0.63 0.08
-5 3 -7 0.25 0.07
5 -3 7 0.2 0.05
6 2 -7 1.72 0.11
5 2 -7 1.46 0.09
4 2 -7 25.24 0.48
-4 -2 7 25.46 0.43
3 2 -7 43.4 0.77
3 2 -7 45.1 0.75
-3 -2 7 43.46 0.71
2 2 -7 34.01 0.59
2 2 -7 33.11 0.57
2 2 -7 32.84 0.56
-2 -2 7 33.18 0.56
1 2 -7 3.04 0.09
1 2 -7 3 0.1
1 2 -7 2.96 0.09
0 2 -7 2.57 0.09
0 2 -7 2.64 0.08
0 2 -7 2.52 0.07
-1 2 -7 2.3 0.09
-1 2 -7 2.21 0.08
1 -2 7 2.37 0.08
-3 2 -7 0.88 0.08
3 -2 7 0.88 0.07
-4 2 -7 0.02 0.04
4 -2 7 0.04 0.04
6 1 -7 4.14 0.15
5 1 -7 7.86 0.21
4 1 -7 0.01 0.03
3 1 -7 0.06 0.02
3 1 -7 0.04 0.03
-3 -1 7 0.05 0.02
2 1 -7 0.26 0.03
2 1 -7 0.2 0.03
2 1 -7 0.29 0.03
-2 -1 7 0.28 0.03
1 1 -7 21.71 0.39
1 1 -7 22.32 0.4
1 1 -7 21.64 0.39
0 1 -7 5.94 0.15
0 1 -7 5.95 0.15
0 -1 7 6.67 0.13
-1 1 -7 0.28 0.04
-1 1 -7 0.32 0.04
1 -1 7 0.36 0.04
-2 1 -7 7.82 0.19
-2 1 -7 7.96 0.2
2 -1 7 7.8 0.19
-3 1 -7 0.29 0.05
3 -1 7 0.42 0.05
-4 1 -7 0.14 0.05
4 -1 7 0.05 0.04
6 0 -7 3.34 0.13
5 0 -7 7.7 0.2
4 0 -7 65.34 1.11
4 0 -7 64.8 1.09
3 0 -7 22.72 0.43
3 0 -7 22.62 0.42
2 0 -7 4.41 0.12
2 0 -7 4.45 0.11
2 0 -7 4.55 0.12
-2 0 7 4.58 0.11
1 0 -7 5.99 0.15
1 0 -7 5.9 0.14
1 0 -7 5.78 0.14
-1 0 7 5.9 0.14
0 0 -7 5.89 0.15
0 0 -7 5.32 0.14
0 0 7 5.24 0.12
-1 0 -7 1.38 0.08
-1 0 -7 1.42 0.08
1 0 7 1.4 0.07
-2 0 -7 0 0.03
-2 0 -7 0.01 0.03
2 0 7 0.04 0.04
-3 0 -7 1.24 0.1
3 0 7 1.37 0.09
-4 0 -7 0.16 0.06
4 0 7 0.15 0.05
6 -1 -7 2 0.11
-6 1 7 2.06 0.11
5 -1 -7 37.02 0.68
5 -1 -7 37.06 0.68
-5 1 7 37.47 0.68
4 -1 -7 0.16 0.04
4 -1 -7 0.11 0.04
-4 1 7 0.19 0.04
3 -1 -7 23.33 0.44
3 -1 -7 23.45 0.44
-3 1 7 23.52 0.44
2 -1 -7 2.62 0.09
2 -1 -7 2.4 0.09
-2 1 7 2.31 0.08
1 -1 -7 0.28 0.03
1 -1 -7 0.3 0.04
1 -1 -7 0.29 0.03
-1 1 7 0.32 0.03
0 -1 -7 33.77 0.57
0 -1 -7 33.03 0.6
0 1 7 33.68 0.57
-1 -1 -7 25.38 0.47
-1 -1 -7 25.5 0.48
1 1 7 25.55 0.47
-2 -1 -7 8.09 0.2
-2 -1 -7 7.77 0.21
2 1 7 7.7 0.2
-3 -1 -7 1.97 0.11
3 1 7 2.31 0.11
-4 -1 -7 2.44 0.14
4 1 7 2.55 0.13
6 -2 -7 1.08 0.09
6 -2 -7 1.05 0.09
-6 2 7 1.02 0.09
5 -2 -7 4.81 0.16
5 -2 -7 4.6 0.15
-5 2 7 4.54 0.15
4 -2 -7 4.14 0.14
4 -2 -7 4.06 0.13
-4 2 7 4.26 0.14
3 -2 -7 2.05 0.09
3 -2 -7 2.17 0.1
-3 2 7 2.18 0.09
2 -2 -7 1.18 0.07
2 -2 -7 1.26 0.07
-2 2 7 1.2 0.07
1 -2 -7 0.04 0.03
-1 2 7 0.05 0.03
0 -2 -7 0.05 0.03
0 -2 -7 0.06 0.03
-1 -2 -7 17.91 0.36
-1 -2 -7 17.87 0.35
1 2 7 17.84 0.36
-2 -2 -7 8.8 0.22
-2 -2 -7 8.72 0.22
2 2 7 8.9 0.22
-3 -2 -7 -0.02 0.04
3 2 7 0.06 0.05
6 -3 -7 18.51 0.39
6 -3 -7 18.2 0.4
-6 3 7 18.47 0.39
5 -3 -7 1.44 0.09
5 -3 -7 1.55 0.1
-5 3 7 1.52 0.09
4 -3 -7 33.47 0.62
4 -3 -7 33.38 0.61
-4 3 7 33.16 0.61
3 -3 -7 0.97 0.08
-3 3 7 0.97 0.07
2 -3 -7 9.26 0.23
-2 3 7 9.43 0.21
1 -3 -7 13.06 0.29
-1 3 7 13.44 0.27
0 -3 -7 5.58 0.16
-1 -3 -7 0.53 0.06
-1 -3 -7 0.55 0.06
1 3 7 0.56 0.06
-2 -3 -7 3.81 0.14
-2 -3 -7 3.9 0.14
2 3 7 3.98 0.15
-3 -3 -7 0.17 0.06
3 3 7 0.42 0.07
6 -4 -7 2.68 0.14
-6 4 7 2.75 0.13
5 -4 -7 2.42 0.12
-5 4 7 2.32 0.11
4 -4 -7 0.24 0.05
-4 4 7 -0.03 0.03
3 -4 -7 79.83 1.37
-3 4 7 81.37 1.36
2 -4 -7 43.38 0.78
-2 4 7 43.65 0.76
1 -4 -7 0.5 0.06
-1 4 7 0.65 0.06
0 -4 -7 0.12 0.05
-1 -4 -7 0.48 0.06
1 4 7 0.64 0.07
-2 -4 -7 0.53 0.07
-2 -4 -7 0.55 0.07
2 4 7 0.49 0.07
6 -5 -7 0.79 0.1
-6 5 7 0.71 0.08
5 -5 -7 0.13 0.05
-5 5 7 0.13 0.05
4 -5 -7 5.02 0.17
-4 5 7 4.86 0.15
3 -5 -7 0.91 0.08
-3 5 7 0.77 0.08
2 -5 -7 35.69 0.67
-2 5 7 36.09 0.65
1 -5 -7 17.29 0.37
-1 5 7 17.09 0.35
0 -5 -7 0.76 0.09
-1 -5 -7 0.1 0.05
1 5 7 0.17 0.05
-2 -5 -7 0.08 0.05
2 5 7 0 0.05
6 -6 -7 0.41 0.07
-6 6 7 0.33 0.06
5 -6 -7 2.28 0.13
-5 6 7 2.36 0.12
4 -6 -7 4.09 0.16
-4 6 7 3.88 0.14
3 -6 -7 0.81 0.09
-3 6 7 0.71 0.08
2 -6 -7 14.37 0.33
-2 6 7 14.25 0.31
1 -6 -7 0.46 0.07
-1 6 7 0.5 0.06
0 -6 -7 3.01 0.14
-1 -6 -7 0.01 0.05
1 6 7 0.03 0.05
5 -7 -7 -0.01 0.05
-5 7 7 0.23 0.06
4 -7 -7 0.32 0.06
-4 7 7 0.43 0.06
3 -7 -7 3.52 0.15
-3 7 7 3.25 0.14
2 -7 -7 0.39 0.06
-2 7 7 0.27 0.06
1 -7 -7 0.48 0.07
0 -7 -7 -0.01 0.05
4 -8 -7 0.14 0.06
-4 8 7 0.2 0.06
3 -8 -7 2.12 0.13
-3 8 7 2.13 0.13
2 -8 -7 1.97 0.13
-2 8 7 1.74 0.12
1 -8 -7 1.97 0.13
-1 13 -8 0.5 0.07
1 -13 8 0.53 0.07
1 12 -8 4.32 0.17
-1 -12 8 4.61 0.16
0 12 -8 0.04 0.04
0 -12 8 -0.01 0.04
-1 12 -8 1.73 0.12
-1 12 -8 1.67 0.11
1 -12 8 1.64 0.11
-2 12 -8 0.92 0.1
2 -12 8 1.05 0.1
-3 12 -8 0.23 0.06
3 -12 8 0.29 0.06
2 11 -8 2.33 0.13
-2 -11 8 2.21 0.12
1 11 -8 1.36 0.1
-1 -11 8 1.22 0.1
0 11 -8 1.72 0.1
0 -11 8 1.61 0.11
-1 11 -8 0.94 0.09
-1 11 -8 0.85 0.08
1 -11 8 0.86 0.09
-2 11 -8 0.9 0.1
2 -11 8 0.95 0.09
-3 11 -8 0.09 0.05
-4 11 -8 0.04 0.05
3 10 -8 2.04 0.13
-3 -10 8 2.15 0.12
2 10 -8 0.53 0.07
-2 -10 8 0.43 0.06
1 10 -8 1.29 0.09
-1 -10 8 1.24 0.09
0 10 -8 1.88 0.11
0 10 -8 1.99 0.1
0 -10 8 1.97 0.11
-1 10 -8 0.2 0.05
-1 10 -8 0.23 0.04
1 -10 8 0.2 0.05
-2 10 -8 3.23 0.14
-3 10 -8 2.91 0.14
-4 10 -8 0.55 0.08
4 -10 8 0.53 0.06
3 9 -8 2.24 0.12
-3 -9 8 1.85 0.1
2 9 -8 0.94 0.09
-2 -9 8 0.85 0.08
1 9 -8 19.03 0.39
-1 -9 8 19.15 0.39
0 9 -8 0.39 0.06
0 9 -8 0.54 0.06
0 -9 8 0.43 0.06
-1 9 -8 20.43 0.42
-1 9 -8 20.44 0.4
1 -9 8 20.05 0.41
-2 9 -8 2.11 0.12
-3 9 -8 2.86 0.14
3 -9 8 2.78 0.11
-4 9 -8 0.09 0.05
4 -9 8 0.12 0.05
4 8 -8 0.22 0.06
-4 -8 8 0.25 0.05
3 8 -8 2.86 0.13
-3 -8 8 2.77 0.12
2 8 -8 0.29 0.05
-2 -8 8 0.28 0.05
1 8 -8 7.38 0.2
1 8 -8 7.95 0.21
-1 -8 8 7.73 0.2
0 8 -8 16.22 0.35
0 8 -8 16.28 0.33
0 -8 8 16.05 0.34
-1 8 -8 1.75 0.11
-1 8 -8 1.72 0.08
-2 8 -8 2.04 0.12
2 -8 8 2.03 0.08
-3 8 -8 0.99 0.1
3 -8 8 0.99 0.07
4 -8 8 0.55 0.06
4 7 -8 0.4 0.06
-4 -7 8 0.41 0.05
3 7 -8 1.12 0.09
-3 -7 8 1.12 0.08
2 7 -8 19.89 0.41
-2 -7 8 20.28 0.39
1 7 -8 4.25 0.14
1 7 -8 4.18 0.13
-1 -7 8 4.25 0.14
0 7 -8 4.17 0.15
0 7 -8 4.44 0.13
-1 7 -8 56.27 0.96
-2 7 -8 43.35 0.78
2 -7 8 44.18 0.74
-3 7 -8 0.36 0.06
3 -7 8 0.45 0.05
-4 7 -8 0.14 0.05
4 -7 8 0.18 0.05
5 6 -8 2.58 0.14
-5 -6 8 2.74 0.11
4 6 -8 2.14 0.11
-4 -6 8 1.98 0.1
3 6 -8 20.65 0.42
-3 -6 8 20.87 0.39
2 6 -8 3.34 0.12
-2 -6 8 3.43 0.12
1 6 -8 3.34 0.12
1 6 -8 3.25 0.11
-1 -6 8 3.26 0.12
0 6 -8 -0.03 0.03
0 6 -8 0.01 0.02
-1 6 -8 17.87 0.37
1 -6 8 18.53 0.33
-2 6 -8 27.04 0.52
2 -6 8 27.18 0.48
3 -6 8 2.26 0.1
-4 6 -8 2.32 0.13
4 -6 8 2.23 0.11
5 5 -8 3.68 0.15
-5 -5 8 3.65 0.12
4 5 -8 6.33 0.19
-4 -5 8 6.45 0.16
3 5 -8 17.15 0.36
-3 -5 8 17.23 0.33
2 5 -8 2.92 0.11
2 5 -8 3.1 0.11
-2 -5 8 3.05 0.11
1 5 -8 168.56 2.65
1 5 -8 170.1 2.84
-1 -5 8 169.14 2.65
0 5 -8 5.54 0.14
0 5 -8 5.26 0.16
0 -5 8 5.38 0.12
-1 5 -8 35.13 0.64
1 -5 8 35.66 0.61
-2 5 -8 6.81 0.2
2 -5 8 6.84 0.17
-3 5 -8 0.14 0.05
3 -5 8 0.13 0.04
-4 5 -8 0.16 0.05
4 -5 8 0.22 0.05
5 4 -8 0.27 0.06
-5 -4 8 0.34 0.05
4 4 -8 12.23 0.29
-4 -4 8 12.49 0.25
3 4 -8 30.76 0.57
-3 -4 8 30.51 0.53
2 4 -8 0.26 0.04
2 4 -8 0.22 0.04
-2 -4 8 0.29 0.04
1 4 -8 5.16 0.14
1 4 -8 5.06 0.15
1 4 -8 5.17 0.12
-1 -4 8 5.1 0.12
0 4 -8 17.3 0.35
0 4 -8 17.12 0.31
0 4 -8 17.36 0.32
0 -4 8 17.05 0.31
-1 4 -8 2.28 0.11
1 -4 8 2.29 0.09
-2 4 -8 6.95 0.2
2 -4 8 6.75 0.17
-3 4 -8 0.37 0.06
3 -4 8 0.34 0.05
-4 4 -8 0.06 0.05
4 -4 8 0.03 0.04
6 3 -8 0.62 0.07
5 3 -8 2.38 0.12
4 3 -8 24.49 0.48
-4 -3 8 25 0.43
3 3 -8 4.52 0.14
-3 -3 8 4.5 0.12
2 3 -8 3.24 0.1
2 3 -8 3.4 0.11
-2 -3 8 3.27 0.1
1 3 -8 1.25 0.06
1 3 -8 1.27 0.07
1 3 -8 1.27 0.06
0 3 -8 0.84 0.07
0 3 -8 0.86 0.05
0 3 -8 0.94 0.06
0 -3 8 1.02 0.06
-1 3 -8 46.17 0.77
-1 3 -8 44.57 0.78
1 -3 8 45.68 0.77
-2 3 -8 7.71 0.21
2 -3 8 7.59 0.18
-3 3 -8 8.83 0.24
3 -3 8 8.01 0.2
-4 3 -8 2.92 0.15
4 -3 8 2.82 0.12
6 2 -8 1.18 0.1
5 2 -8 0.06 0.04
4 2 -8 27.48 0.52
-4 -2 8 26.97 0.48
3 2 -8 26.63 0.49
-3 -2 8 25.6 0.45
2 2 -8 0.1 0.03
2 2 -8 0.13 0.03
2 2 -8 0.14 0.03
-2 -2 8 0.12 0.03
1 2 -8 27.38 0.48
1 2 -8 26.39 0.48
1 2 -8 26.88 0.48
0 2 -8 0.24 0.04
0 2 -8 0.29 0.04
0 2 -8 0.28 0.03
0 -2 8 0.15 0.04
-1 2 -8 10.97 0.24
-1 2 -8 11.08 0.25
1 -2 8 10.93 0.23
-2 2 -8 9.19 0.23
2 -2 8 8.79 0.21
-3 2 -8 1.61 0.11
3 -2 8 1.72 0.09
-4 2 -8 2.93 0.15
4 -2 8 3.06 0.13
6 1 -8 4.54 0.17
5 1 -8 0.22 0.05
4 1 -8 60.69 1.05
3 1 -8 102.04 1.65
3 1 -8 99.95 1.68
2 1 -8 7.99 0.18
2 1 -8 7.78 0.17
2 1 -8 7.6 0.18
-2 -1 8 7.58 0.17
1 1 -8 40.52 0.7
1 1 -8 40.88 0.7
1 1 -8 40.54 0.69
0 1 -8 0.47 0.06
0 1 -8 0.42 0.05
-1 1 -8 28.69 0.52
-1 1 -8 28.32 0.52
1 -1 8 28.27 0.52
-2 1 -8 1 0.09
-2 1 -8 0.91 0.08
2 -1 8 0.86 0.08
-3 1 -8 0.12 0.05
3 -1 8 0.13 0.04
-4 1 -8 0.06 0.05
4 -1 8 0.04 0.05
6 0 -8 2.18 0.12
-6 0 8 2.12 0.12
5 0 -8 0.11 0.04
4 0 -8 23.17 0.46
4 0 -8 23.76 0.45
3 0 -8 43.83 0.77
3 0 -8 44.54 0.77
2 0 -8 15.09 0.3
2 0 -8 15.08 0.3
-2 0 8 15.08 0.3
1 0 -8 0.24 0.04
1 0 -8 0.2 0.03
1 0 -8 0.29 0.04
-1 0 8 0.23 0.03
0 0 -8 6.32 0.16
0 0 -8 6.37 0.16
-1 0 -8 18.15 0.36
-1 0 -8 18.34 0.36
1 0 8 17.49 0.36
-2 0 -8 11.79 0.27
-2 0 -8 11.45 0.28
2 0 8 11.62 0.26
-3 0 -8 0.09 0.05
3 0 8 0.13 0.05
6 -1 -8 0.18 0.05
-6 1 8 0.17 0.05
5 -1 -8 19.84 0.41
5 -1 -8 20.1 0.41
-5 1 8 19.85 0.41
4 -1 -8 40.22 0.73
4 -1 -8 40.18 0.72
-4 1 8 40.29 0.72
3 -1 -8 15.01 0.31
3 -1 -8 14.8 0.31
-3 1 8 14.93 0.31
2 -1 -8 6.27 0.17
2 -1 -8 6.46 0.16
-2 1 8 6.48 0.16
1 -1 -8 17.25 0.35
-1 1 8 17.71 0.33
0 -1 -8 0.84 0.07
0 -1 -8 0.75 0.06
-1 -1 -8 0.04 0.03
-1 -1 -8 0.07 0.04
1 1 8 0.13 0.04
-2 -1 -8 3.32 0.13
-2 -1 -8 3.31 0.14
2 1 8 3.27 0.13
-3 -1 -8 7.99 0.24
3 1 8 8.33 0.22
6 -2 -8 0.97 0.1
-6 2 8 1.03 0.09
5 -2 -8 0.87 0.09
5 -2 -8 0.83 0.08
-5 2 8 0.88 0.08
4 -2 -8 0.8 0.08
4 -2 -8 0.64 0.08
-4 2 8 0.67 0.07
3 -2 -8 0.82 0.07
3 -2 -8 0.65 0.07
-3 2 8 0.76 0.07
2 -2 -8 0.36 0.05
-2 2 8 0.34 0.04
1 -2 -8 1 0.07
-1 2 8 0.92 0.06
0 -2 -8 0.73 0.07
-1 -2 -8 0.49 0.06
-1 -2 -8 0.44 0.05
1 2 8 0.54 0.06
-2 -2 -8 0 0.04
-2 -2 -8 -0.01 0.04
2 2 8 -0.01 0.04
-3 -2 -8 2.61 0.14
3 2 8 2.66 0.14
6 -3 -8 2 0.12
6 -3 -8 2.11 0.12
-6 3 8 1.87 0.11
5 -3 -8 1.5 0.1
5 -3 -8 1.45 0.1
-5 3 8 1.42 0.1
4 -3 -8 32.07 0.6
4 -3 -8 31.55 0.6
-4 3 8 31.92 0.59
3 -3 -8 27.86 0.53
-3 3 8 27.03 0.51
2 -3 -8 0.11 0.04
-2 3 8 0.11 0.04
1 -3 -8 3.1 0.13
-1 3 8 3.25 0.11
0 -3 -8 0.06 0.04
-1 -3 -8 0.11 0.05
1 3 8 0.15 0.05
-2 -3 -8 0.29 0.06
-2 -3 -8 0.26 0.06
2 3 8 0.3 0.06
6 -4 -8 6.56 0.22
-6 4 8 6.47 0.2
5 -4 -8 7.34 0.22
-5 4 8 7.36 0.21
4 -4 -8 2.46 0.12
-4 4 8 2.43 0.11
3 -4 -8 18.19 0.39
-3 4 8 18.45 0.37
2 -4 -8 14.88 0.34
-2 4 8 15.13 0.31
1 -4 -8 1.94 0.11
-1 4 8 1.93 0.09
0 -4 -8 0.38 0.06
-1 -4 -8 1.8 0.11
1 4 8 2 0.11
2 4 8 0.57 0.07
5 -5 -8 0.96 0.1
-5 5 8 0.85 0.09
4 -5 -8 0.36 0.06
-4 5 8 0.3 0.05
3 -5 -8 0.08 0.04
-3 5 8 0.12 0.04
2 -5 -8 2.8 0.13
-2 5 8 2.59 0.11
1 -5 -8 3.71 0.15
0 -5 -8 0.17 0.06
-1 -5 -8 0.03 0.05
1 5 8 0.08 0.05
5 -6 -8 11.35 0.31
-5 6 8 11.27 0.28
4 -6 -8 4.17 0.17
-4 6 8 4.27 0.16
3 -6 -8 4.25 0.17
-3 6 8 4.36 0.15
2 -6 -8 8.19 0.24
-2 6 8 8.13 0.22
1 -6 -8 2.2 0.13
0 -6 -8 -0.02 0.05
4 -7 -8 5.07 0.2
-4 7 8 6.45 0.2
3 -7 -8 3.45 0.16
-3 7 8 3.46 0.14
2 -7 -8 0.11 0.06
-2 7 8 0.09 0.05
1 -7 -8 0.2 0.06
1 12 -9 0.79 0.1
0 12 -9 1.48 0.11
0 -12 9 1.53 0.11
-1 12 -9 0.2 0.06
-1 12 -9 0.16 0.05
1 -12 9 0.14 0.05
-2 12 -9 0.19 0.06
2 -12 9 0.17 0.06
2 11 -9 0.68 0.08
-2 -11 9 0.8 0.09
1 11 -9 0.58 0.07
-1 -11 9 0.41 0.06
0 11 -9 1.88 0.11
0 11 -9 1.85 0.12
0 -11 9 1.8 0.12
-1 11 -9 0.18 0.05
-1 11 -9 0.11 0.05
1 -11 9 0.18 0.06
-2 11 -9 0.09 0.05
2 -11 9 0.16 0.05
-3 11 -9 1.12 0.11
3 10 -9 0.85 0.1
-3 -10 9 0.79 0.09
2 10 -9 13.47 0.33
-2 -10 9 13.54 0.31
1 10 -9 1.75 0.11
-1 -10 9 1.65 0.11
0 10 -9 6.29 0.2
0 10 -9 6.13 0.18
0 -10 9 6.2 0.19
-1 10 -9 14.22 0.34
1 -10 9 14.17 0.33
-2 10 -9 0.08 0.05
-3 10 -9 0.06 0.05
3 9 -9 5.17 0.19
-3 -9 9 5.17 0.17
2 9 -9 26.86 0.54
-2 -9 9 26.89 0.51
1 9 -9 34.4 0.64
-1 -9 9 33.59 0.62
0 9 -9 1.31 0.08
0 9 -9 1.15 0.1
0 -9 9 1.11 0.1
-1 9 -9 7.81 0.23
-2 9 -9 14.79 0.35
-3 9 -9 0.08 0.05
-4 9 -9 0.08 0.05
4 -9 9 0.07 0.04
4 8 -9 0.12 0.05
-4 -8 9 0.1 0.05
3 8 -9 1.35 0.1
-3 -8 9 1.26 0.09
2 8 -9 0.09 0.04
-2 -8 9 0.1 0.04
1 8 -9 2.56 0.12
1 8 -9 2.46 0.11
-1 -8 9 2.45 0.12
0 8 -9 6.67 0.18
0 8 -9 6.85 0.2
0 -8 9 6.78 0.2
-1 8 -9 0.1 0.05
-2 8 -9 0.42 0.07
-3 8 -9 -0.03 0.04
3 -8 9 0 0.04
-4 8 -9 2.16 0.14
4 -8 9 2.49 0.12
4 7 -9 1.8 0.11
-4 -7 9 1.77 0.1
3 7 -9 2.61 0.12
-3 -7 9 2.7 0.11
2 7 -9 23.52 0.47
-2 -7 9 23.87 0.45
1 7 -9 7.28 0.2
1 7 -9 7.19 0.19
-1 -7 9 6.96 0.19
0 7 -9 5.06 0.14
0 7 -9 4.99 0.17
-1 7 -9 0.39 0.06
-2 7 -9 0.38 0.06
2 -7 9 0.47 0.06
-3 7 -9 6.14 0.21
3 -7 9 6.33 0.17
-4 7 -9 1.02 0.11
4 -7 9 1.17 0.09
5 6 -9 5.38 0.19
-5 -6 9 4.95 0.15
4 6 -9 22.15 0.46
-4 -6 9 21.69 0.41
3 6 -9 0.19 0.05
-3 -6 9 0.29 0.05
2 6 -9 0.34 0.05
-2 -6 9 0.36 0.05
1 6 -9 4.49 0.14
1 6 -9 4.4 0.15
-1 -6 9 4.52 0.15
0 6 -9 9 0.23
0 6 -9 8.96 0.2
-1 6 -9 14.95 0.33
1 -6 9 14.81 0.29
-2 6 -9 1.74 0.11
2 -6 9 1.68 0.08
-3 6 -9 0.74 0.08
3 -6 9 0.67 0.07
-4 6 -9 0.17 0.06
4 -6 9 0.25 0.05
5 5 -9 0.12 0.05
-5 -5 9 0.07 0.04
4 5 -9 3.06 0.13
-4 -5 9 3.03 0.11
3 5 -9 21.98 0.44
-3 -5 9 21.25 0.4
2 5 -9 1.55 0.09
2 5 -9 1.53 0.08
-2 -5 9 1.6 0.09
1 5 -9 1.51 0.08
1 5 -9 1.37 0.09
-1 -5 9 1.41 0.09
0 5 -9 2.68 0.09
0 5 -9 2.47 0.12
0 -5 9 2.62 0.08
-1 5 -9 13.3 0.3
1 -5 9 12.82 0.26
-2 5 -9 0.2 0.05
2 -5 9 0.21 0.04
-3 5 -9 3.11 0.15
3 -5 9 3.21 0.12
-4 5 -9 1.95 0.14
4 -5 9 2.01 0.11
5 4 -9 0.09 0.04
4 4 -9 2.09 0.11
-4 -4 9 1.88 0.09
3 4 -9 0.57 0.07
-3 -4 9 0.52 0.06
2 4 -9 10.22 0.23
2 4 -9 10.09 0.23
-2 -4 9 10.54 0.23
1 4 -9 1.66 0.09
1 4 -9 1.63 0.08
-1 -4 9 1.64 0.07
0 4 -9 45.88 0.8
0 4 -9 45.49 0.78
0 -4 9 46.51 0.78
-1 4 -9 91.35 1.49
1 -4 9 90.35 1.49
-2 4 -9 29.59 0.57
2 -4 9 29.41 0.54
-3 4 -9 0.39 0.07
3 -4 9 0.45 0.06
-4 4 -9 0.1 0.06
4 -4 9 0.14 0.05
5 3 -9 0.12 0.05
4 3 -9 8.67 0.22
-4 -3 9 8.4 0.19
3 3 -9 1.27 0.08
-3 -3 9 1.14 0.07
2 3 -9 21.55 0.42
2 3 -9 21.98 0.41
-2 -3 9 21.67 0.4
1 3 -9 3.29 0.12
1 3 -9 3.18 0.1
1 3 -9 3.43 0.11
0 3 -9 11.67 0.24
0 3 -9 11.96 0.27
0 -3 9 11.75 0.24
-1 3 -9 36.52 0.66
-1 3 -9 36.05 0.64
1 -3 9 36.16 0.64
-2 3 -9 5.64 0.18
2 -3 9 5.26 0.15
-3 3 -9 0.6 0.08
3 -3 9 0.67 0.08
-4 3 -9 0.66 0.09
4 -3 9 0.92 0.09
6 2 -9 1.44 0.11
5 2 -9 0.41 0.06
4 2 -9 0 0.04
3 2 -9 0.06 0.03
-3 -2 9 0.04 0.03
2 2 -9 7.12 0.17
2 2 -9 6.97 0.17
2 2 -9 7.11 0.18
-2 -2 9 7.19 0.17
1 2 -9 13.69 0.27
1 2 -9 13.35 0.27
1 2 -9 13.63 0.28
0 2 -9 34.66 0.61
0 2 -9 34.32 0.61
0 -2 9 33.89 0.61
-1 2 -9 3.84 0.13
-1 2 -9 3.81 0.14
1 -2 9 3.91 0.13
2 -2 9 0.61 0.08
-3 2 -9 0.09 0.05
3 -2 9 0.1 0.04
6 1 -9 0.9 0.09
5 1 -9 4.31 0.15
4 1 -9 1.11 0.08
3 1 -9 12.95 0.28
3 1 -9 13.06 0.28
2 1 -9 -0.01 0.03
2 1 -9 -0.05 0.02
1 1 -9 18.85 0.37
1 1 -9 18.68 0.36
1 1 -9 18.68 0.36
-1 -1 9 19.07 0.35
-1 1 -9 0.19 0.05
-1 1 -9 0.26 0.05
1 -1 9 0.29 0.05
-2 1 -9 0.92 0.09
-2 1 -9 0.58 0.06
2 -1 9 0.66 0.08
-3 1 -9 0.13 0.05
3 -1 9 0.02 0.04
6 0 -9 1.09 0.1
-6 0 9 0.92 0.1
5 0 -9 3.11 0.13
-5 0 9 2.92 0.13
4 0 -9 7.94 0.2
4 0 -9 7.95 0.21
-4 0 9 7.98 0.21
3 0 -9 0.33 0.05
3 0 -9 0.4 0.05
-3 0 9 0.33 0.05
2 0 -9 0.19 0.04
2 0 -9 0.16 0.04
-2 0 9 0.21 0.04
1 0 -9 0.62 0.06
1 0 -9 0.66 0.07
-1 0 9 0.56 0.06
0 0 -9 1.71 0.09
0 0 -9 1.93 0.1
-1 0 -9 34.8 0.63
-1 0 -9 33.35 0.62
1 0 9 34.61 0.63
-2 0 -9 1.13 0.09
-2 0 -9 1.41 0.1
2 0 9 1.19 0.09
-3 0 -9 1.45 0.12
3 0 9 1.47 0.1
6 -1 -9 0.08 0.05
-6 1 9 0.13 0.05
5 -1 -9 0.19 0.05
5 -1 -9 0.69 0.08
-5 1 9 0.37 0.06
4 -1 -9 8.03 0.21
4 -1 -9 8.25 0.21
-4 1 9 8.09 0.21
3 -1 -9 4.35 0.14
3 -1 -9 4.39 0.14
-3 1 9 4.28 0.14
2 -1 -9 12.94 0.29
2 -1 -9 13.22 0.28
-2 1 9 13.26 0.28
1 -1 -9 0.19 0.04
0 -1 -9 17.8 0.37
-1 -1 -9 6.01 0.18
-1 -1 -9 6.12 0.18
1 1 9 6.44 0.18
-2 -1 -9 4.14 0.16
-2 -1 -9 3.92 0.15
2 1 9 3.94 0.15
6 -2 -9 4.51 0.17
-6 2 9 4.57 0.17
5 -2 -9 14.4 0.34
5 -2 -9 14.94 0.34
-5 2 9 14.74 0.33
4 -2 -9 4.51 0.15
4 -2 -9 4.55 0.16
-4 2 9 4.68 0.15
3 -2 -9 0.01 0.04
3 -2 -9 0.03 0.04
-3 2 9 -0.01 0.03
2 -2 -9 18.7 0.39
-2 2 9 18.76 0.37
1 -2 -9 0.72 0.08
0 -2 -9 6.86 0.2
-1 -2 -9 2.45 0.12
1 2 9 2.63 0.13
-2 -2 -9 0.39 0.07
-2 -2 -9 0.4 0.07
2 2 9 0.52 0.07
6 -3 -9 6.8 0.21
6 -3 -9 6.61 0.22
-6 3 9 6.58 0.21
5 -3 -9 12.74 0.31
5 -3 -9 12.81 0.32
-5 3 9 12.77 0.3
4 -3 -9 4.72 0.17
-4 3 9 4.67 0.16
3 -3 -9 0.06 0.04
-3 3 9 0.08 0.04
2 -3 -9 11.07 0.27
-2 3 9 10.97 0.25
1 -3 -9 15.08 0.34
0 -3 -9 6.17 0.19
-1 -3 -9 0.08 0.05
1 3 9 0.13 0.05
5 -4 -9 16.8 0.39
-5 4 9 17.06 0.38
4 -4 -9 4.96 0.18
-4 4 9 5.12 0.17
3 -4 -9 1.89 0.11
-3 4 9 1.82 0.1
2 -4 -9 6.96 0.21
-2 4 9 6.73 0.19
1 -4 -9 29.15 0.58
0 -4 -9 6.74 0.21
-1 -4 -9 -0.07 0.04
1 4 9 -0.01 0.05
5 -5 -9 0.82 0.1
-5 5 9 0.9 0.1
4 -5 -9 0.06 0.05
-4 5 9 0.04 0.04
3 -5 -9 0.14 0.05
-3 5 9 0.11 0.05
2 -5 -9 1.32 0.11
-2 5 9 1.21 0.09
1 -5 -9 0.33 0.07
0 -5 -9 1.73 0.12
4 -6 -9 3.71 0.17
-4 6 9 3.8 0.15
3 -6 -9 0.11 0.05
-3 6 9 0.1 0.05
2 -6 -9 0.53 0.08
-2 6 9 0.61 0.07
0 12 -10 6.33 0.21
0 -12 10 6.89 0.22
-1 12 -10 0.05 0.06
1 -12 10 -0.01 0.05
1 11 -10 0.52 0.07
-1 -11 10 0.37 0.07
0 11 -10 2.31 0.12
0 11 -10 2.42 0.14
0 -11 10 2.41 0.14
-1 11 -10 1.02 0.11
1 -11 10 1.01 0.11
-2 11 -10 2.15 0.14
2 10 -10 0.11 0.05
-2 -10 10 0.01 0.05
1 10 -10 0.3 0.06
-1 -10 10 0.33 0.06
0 10 -10 6.19 0.21
0 10 -10 5.8 0.18
0 -10 10 5.8 0.2
-1 10 -10 0.56 0.08
1 -10 10 0.6 0.08
-2 10 -10 2.89 0.15
-3 10 -10 0.41 0.08
3 9 -10 0.02 0.05
-3 -9 10 -0.05 0.04
2 9 -10 3.14 0.14
-2 -9 10 3.13 0.14
1 9 -10 0.85 0.09
1 9 -10 0.85 0.09
-1 -9 10 0.76 0.09
0 9 -10 3.18 0.12
0 9 -10 3.4 0.15
0 -9 10 3.23 0.15
-1 9 -10 3.09 0.15
-2 9 -10 2.21 0.14
-3 9 -10 4.28 0.18
4 8 -10 0.63 0.08
-4 -8 10 0.48 0.06
3 8 -10 1.31 0.11
-3 -8 10 1.44 0.1
2 8 -10 0.53 0.07
-2 -8 10 0.57 0.07
1 8 -10 8.12 0.23
1 8 -10 8.07 0.22
-1 -8 10 8.12 0.22
0 8 -10 13.72 0.3
0 8 -10 13.82 0.32
0 -8 10 13.46 0.32
-1 8 -10 0.38 0.06
-2 8 -10 1.17 0.1
-3 8 -10 1.55 0.12
3 -8 10 1.58 0.1
4 7 -10 0.83 0.1
-4 -7 10 0.69 0.07
3 7 -10 2.04 0.12
-3 -7 10 1.95 0.11
2 7 -10 0.87 0.08
-2 -7 10 0.88 0.09
1 7 -10 7.93 0.22
1 7 -10 7.97 0.21
-1 -7 10 8.25 0.22
0 7 -10 18.21 0.39
-1 7 -10 2.68 0.13
-2 7 -10 1.34 0.11
2 -7 10 1.37 0.08
-3 7 -10 0.21 0.06
3 -7 10 0.14 0.05
4 6 -10 10.48 0.28
-4 -6 10 10.35 0.24
3 6 -10 14.16 0.33
-3 -6 10 14.31 0.3
2 6 -10 5.73 0.17
2 6 -10 6.03 0.18
-2 -6 10 6.05 0.18
1 6 -10 10.78 0.26
1 6 -10 10.75 0.25
-1 -6 10 10.74 0.26
0 6 -10 1.46 0.1
-1 6 -10 1.84 0.11
1 -6 10 1.71 0.08
-2 6 -10 2.64 0.13
2 -6 10 2.58 0.1
-3 6 -10 0.52 0.08
3 -6 10 0.33 0.05
5 5 -10 0.2 0.06
4 5 -10 0.3 0.06
-4 -5 10 0.31 0.05
3 5 -10 0.21 0.05
-3 -5 10 0.21 0.04
2 5 -10 0.01 0.03
2 5 -10 0.05 0.04
-2 -5 10 0.05 0.04
1 5 -10 3.03 0.12
1 5 -10 3.1 0.11
0 5 -10 19.53 0.41
0 -5 10 19.72 0.37
-1 5 -10 7.5 0.22
1 -5 10 7.37 0.18
-2 5 -10 -0.01 0.04
2 -5 10 0.03 0.03
-3 5 -10 2.13 0.14
3 -5 10 2.31 0.11
5 4 -10 0.31 0.06
4 4 -10 8.61 0.23
-4 -4 10 8.32 0.2
3 4 -10 18.23 0.38
-3 -4 10 18.36 0.36
2 4 -10 13.39 0.29
2 4 -10 13.36 0.29
-2 -4 10 13.27 0.29
1 4 -10 0.41 0.05
1 4 -10 0.44 0.06
0 4 -10 0 0.04
0 4 -10 0.04 0.03
0 -4 10 0.06 0.03
-1 4 -10 7.75 0.22
1 -4 10 7.58 0.19
-2 4 -10 6.07 0.2
2 -4 10 5.91 0.17
-3 4 -10 0.01 0.05
3 -4 10 0.05 0.04
5 3 -10 1.08 0.09
4 3 -10 1.27 0.09
3 3 -10 0.3 0.05
-3 -3 10 0.36 0.05
2 3 -10 0.01 0.03
2 3 -10 0 0.03
-2 -3 10 0.06 0.04
1 3 -10 5.74 0.17
1 3 -10 5.62 0.15
1 3 -10 5.84 0.15
0 3 -10 4.5 0.16
0 3 -10 4.56 0.13
0 -3 10 4.68 0.14
-1 3 -10 5.93 0.19
-1 3 -10 5.87 0.16
1 -3 10 5.86 0.16
-2 3 -10 0.42 0.07
2 -3 10 0.61 0.07
-3 3 -10 -0.03 0.04
3 -3 10 0.09 0.05
5 2 -10 3 0.13
4 2 -10 0.16 0.05
3 2 -10 17.29 0.36
2 2 -10 11.36 0.25
2 2 -10 11.39 0.25
-2 -2 10 11.81 0.25
1 2 -10 2.18 0.09
1 2 -10 2.14 0.09
1 2 -10 2.27 0.1
0 2 -10 0.31 0.05
0 2 -10 0.46 0.06
0 -2 10 0.55 0.06
-1 2 -10 0.37 0.06
-1 2 -10 0.32 0.05
1 -2 10 0.34 0.05
-2 2 -10 4.54 0.17
2 -2 10 4.68 0.16
-3 2 -10 0.63 0.09
3 -2 10 0.56 0.07
5 1 -10 3.76 0.15
4 1 -10 7.09 0.2
3 1 -10 0.12 0.04
3 1 -10 0.16 0.04
2 1 -10 17.81 0.36
2 1 -10 17.52 0.36
-2 -1 10 17.83 0.35
1 1 -10 23.56 0.45
0 1 -10 20.77 0.41
0 1 -10 20.19 0.41
0 -1 10 20.21 0.4
-1 1 -10 0.9 0.08
-1 1 -10 0.78 0.09
1 -1 10 0.81 0.08
-2 1 -10 0.13 0.05
2 -1 10 0.23 0.05
5 0 -10 10.5 0.27
-5 0 10 10.33 0.26
4 0 -10 4.43 0.17
4 0 -10 4.33 0.15
-4 0 10 4.02 0.15
3 0 -10 1.25 0.08
3 0 -10 1.35 0.09
-3 0 10 1.22 0.08
2 0 -10 0.01 0.03
2 0 -10 0 0.03
-2 0 10 0 0.04
1 0 -10 18.73 0.38
0 0 -10 10.37 0.25
-1 0 -10 0.33 0.06
-1 0 -10 0.26 0.05
1 0 10 0.44 0.06
-2 0 -10 0 0.04
-2 0 -10 -0.02 0.04
2 0 10 -0.01 0.04
5 -1 -10 3.35 0.14
-5 1 10 3.59 0.15
4 -1 -10 3.33 0.14
4 -1 -10 3.37 0.14
-4 1 10 3.32 0.13
3 -1 -10 0.71 0.08
3 -1 -10 0.76 0.08
-3 1 10 0.7 0.07
2 -1 -10 0.8 0.08
-2 1 10 0.84 0.07
1 -1 -10 1.96 0.11
0 -1 -10 5.2 0.17
-1 -1 -10 -0.03 0.04
1 1 10 0.07 0.04
-2 -1 -10 -0.02 0.05
-2 -1 -10 0.05 0.05
2 1 10 -0.03 0.05
5 -2 -10 8.6 0.24
5 -2 -10 8.92 0.25
-5 2 10 8.74 0.24
4 -2 -10 2.51 0.13
4 -2 -10 2.3 0.11
-4 2 10 2.59 0.12
3 -2 -10 5.98 0.19
-3 2 10 6.06 0.17
2 -2 -10 0 0.04
-2 2 10 0.04 0.04
1 -2 -10 1.8 0.11
0 -2 -10 0.22 0.06
-1 -2 -10 0.4 0.07
1 2 10 0.48 0.07
5 -3 -10 0.31 0.06
-5 3 10 0.48 0.07
4 -3 -10 4.87 0.18
-4 3 10 5.02 0.17
3 -3 -10 4.24 0.16
-3 3 10 4.33 0.15
2 -3 -10 11.16 0.28
-2 3 10 10.93 0.26
1 -3 -10 8.04 0.23
0 -3 -10 1.06 0.11
4 -4 -10 0.14 0.05
-4 4 10 0.17 0.05
3 -4 -10 5.89 0.2
-3 4 10 5.74 0.18
2 -4 -10 2.93 0.14
1 -4 -10 17.51 0.4
3 -5 -10 1.3 0.12
-3 5 10 1.41 0.1
2 -5 -10 3.78 0.17
0 11 -11 0.04 0.06
0 -11 11 0.06 0.06
-1 11 -11 1.84 0.14
1 -11 11 1.84 0.13
2 10 -11 5.8 0.2
-2 -10 11 5.68 0.19
1 10 -11 7.25 0.22
1 10 -11 7.03 0.23
-1 -10 11 7.07 0.22
0 10 -11 3.67 0.17
0 -10 11 3.61 0.16
-1 10 -11 1.75 0.13
1 -10 11 1.6 0.13
-2 10 -11 5.43 0.21
3 9 -11 13.17 0.33
-3 -9 11 13.21 0.31
2 9 -11 0.8 0.09
-2 -9 11 0.91 0.09
1 9 -11 1.96 0.13
1 9 -11 1.9 0.11
-1 -9 11 1.93 0.12
0 9 -11 0.39 0.07
0 -9 11 0.47 0.08
-1 9 -11 11.04 0.3
-2 9 -11 1.51 0.13
3 8 -11 2.35 0.13
-3 -8 11 2.3 0.12
2 8 -11 0.12 0.05
-2 -8 11 0.19 0.05
1 8 -11 5.8 0.18
1 8 -11 6.02 0.2
-1 -8 11 6.08 0.2
0 8 -11 1.42 0.11
0 -8 11 1.38 0.11
-1 8 -11 2.24 0.14
-2 8 -11 3.09 0.16
-3 8 -11 0.13 0.06
4 7 -11 9.62 0.28
-4 -7 11 9.21 0.23
3 7 -11 12.58 0.31
-3 -7 11 12.42 0.29
2 7 -11 4.52 0.17
2 7 -11 4.51 0.16
-2 -7 11 4.65 0.16
1 7 -11 1.69 0.09
1 7 -11 1.75 0.11
-1 -7 11 1.65 0.11
0 7 -11 0.51 0.07
-1 7 -11 2.67 0.14
-2 7 -11 2.1 0.14
2 -7 11 2.02 0.11
-3 7 -11 0.07 0.06
3 -7 11 0.05 0.04
4 6 -11 1.04 0.1
-4 -6 11 1.2 0.09
3 6 -11 0.03 0.04
-3 -6 11 0 0.04
2 6 -11 0.85 0.09
2 6 -11 0.7 0.08
-2 -6 11 0.71 0.08
1 6 -11 2.74 0.11
1 6 -11 2.81 0.13
-1 -6 11 2.83 0.13
0 6 -11 1.05 0.1
-1 6 -11 2.03 0.13
-2 6 -11 1.21 0.11
2 -6 11 1.15 0.09
-3 6 -11 0.01 0.06
3 -6 11 0.04 0.04
4 5 -11 2.05 0.12
3 5 -11 3.17 0.13
-3 -5 11 3.14 0.12
2 5 -11 1.7 0.1
2 5 -11 1.69 0.1
-2 -5 11 1.59 0.1
1 5 -11 20.65 0.42
1 5 -11 21.4 0.43
0 5 -11 0.1 0.05
-1 5 -11 1.63 0.11
1 -5 11 1.56 0.09
-2 5 -11 1.12 0.11
2 -5 11 0.88 0.08
-3 5 -11 3.52 0.18
3 -5 11 3.53 0.14
5 4 -11 0.59 0.08
4 4 -11 7.76 0.23
3 4 -11 5.11 0.17
-3 -4 11 4.88 0.15
2 4 -11 4.01 0.14
2 4 -11 3.86 0.13
-2 -4 11 4.06 0.14
1 4 -11 9.85 0.25
0 4 -11 6.96 0.21
0 4 -11 6.68 0.17
0 -4 11 6.72 0.17
-1 4 -11 0.61 0.08
1 -4 11 0.61 0.07
-2 4 -11 0.21 0.06
2 -4 11 0.11 0.05
5 3 -11 1.29 0.11
4 3 -11 34.63 0.66
3 3 -11 18.8 0.39
2 3 -11 0.74 0.07
-2 -3 11 0.77 0.08
1 3 -11 0.9 0.07
1 3 -11 1.01 0.09
-1 -3 11 0.99 0.07
0 3 -11 0.11 0.05
0 3 -11 0.1 0.04
0 -3 11 0.12 0.04
-1 3 -11 1.86 0.12
-1 3 -11 1.97 0.1
1 -3 11 1.95 0.1
-2 3 -11 0.49 0.08
2 -3 11 0.41 0.06
5 2 -11 -0.02 0.04
4 2 -11 1.96 0.12
3 2 -11 12.65 0.29
2 2 -11 3.05 0.12
2 2 -11 3.01 0.12
1 2 -11 0.03 0.03
0 2 -11 0.24 0.05
0 2 -11 0.27 0.05
0 -2 11 0.3 0.05
-1 2 -11 0.56 0.07
-1 2 -11 0.48 0.06
1 -2 11 0.47 0.06
-2 2 -11 0.16 0.06
2 -2 11 -0.02 0.04
5 1 -11 0.59 0.07
-5 -1 11 0.71 0.08
4 1 -11 6.68 0.2
-4 -1 11 6.99 0.2
3 1 -11 4.29 0.15
-3 -1 11 4.51 0.15
2 1 -11 0.5 0.06
2 1 -11 0.62 0.07
-2 -1 11 0.6 0.07
1 1 -11 0.01 0.04
0 1 -11 0.13 0.04
0 -1 11 0.16 0.05
-1 1 -11 1.08 0.1
-1 1 -11 1.11 0.1
1 -1 11 1.12 0.09
-2 1 -11 4.22 0.18
2 -1 11 4.41 0.17
5 0 -11 0.96 0.1
-5 0 11 0.82 0.1
4 0 -11 0.12 0.05
-4 0 11 0.11 0.05
3 0 -11 0.46 0.06
3 0 -11 0.38 0.06
-3 0 11 0.38 0.06
2 0 -11 1.92 0.1
2 0 -11 2 0.11
-2 0 11 1.77 0.09
1 0 -11 0.49 0.06
0 0 -11 0.86 0.09
0 0 11 0.85 0.08
-1 0 -11 0.13 0.05
1 0 11 0.15 0.05
5 -1 -11 0.35 0.07
-5 1 11 0.43 0.07
4 -1 -11 0.12 0.05
4 -1 -11 0.14 0.05
-4 1 11 0.21 0.05
3 -1 -11 0.11 0.04
3 -1 -11 0.21 0.05
-3 1 11 0.17 0.05
2 -1 -11 0.82 0.08
1 -1 -11 -0.01 0.04
0 -1 -11 0.19 0.06
0 1 11 0.41 0.07
-1 -1 -11 0.73 0.08
1 1 11 0.63 0.07
4 -2 -11 2.37 0.13
-4 2 11 2.45 0.12
3 -2 -11 1.07 0.1
-3 2 11 1.16 0.09
2 -2 -11 5.35 0.19
1 -2 -11 16.5 0.37
0 -2 -11 3.26 0.15
0 2 11 3.6 0.15
4 -3 -11 0.03 0.05
-4 3 11 0.01 0.05
3 -3 -11 0.33 0.06
-3 3 11 0.26 0.05
2 -3 -11 0.67 0.08
1 -3 -11 9.69 0.27
1 10 -12 1.59 0.11
1 10 -12 1.25 0.12
-1 -10 12 1.33 0.11
0 10 -12 2.38 0.15
0 -10 12 2.41 0.15
-1 10 -12 7.07 0.25
2 9 -12 1.05 0.1
-2 -9 12 1.19 0.11
1 9 -12 0.32 0.07
1 9 -12 0.43 0.07
-1 -9 12 0.42 0.07
0 9 -12 0.02 0.05
0 -9 12 0 0.05
-1 9 -12 0.26 0.07
3 8 -12 0.2 0.06
-3 -8 12 0.12 0.06
2 8 -12 0.6 0.07
-2 -8 12 0.62 0.08
1 8 -12 0.24 0.06
-1 -8 12 0.23 0.06
0 8 -12 0.05 0.06
-1 8 -12 3.97 0.18
-2 8 -12 0.45 0.08
3 7 -12 3.63 0.16
-3 -7 12 3.64 0.15
2 7 -12 0.13 0.05
2 7 -12 0.08 0.04
-2 -7 12 0.08 0.05
1 7 -12 0.63 0.08
-1 -7 12 0.58 0.08
0 7 -12 7.78 0.24
-1 7 -12 10.15 0.29
-2 7 -12 0.18 0.06
4 6 -12 10.08 0.28
3 6 -12 13.11 0.32
-3 -6 12 12.83 0.3
2 6 -12 3.69 0.14
2 6 -12 3.76 0.15
-2 -6 12 3.79 0.15
1 6 -12 0.05 0.05
-1 -6 12 0.04 0.05
0 6 -12 14.12 0.35
-1 6 -12 26.38 0.55
-2 6 -12 0.74 0.09
2 -6 12 0.82 0.08
4 5 -12 3.87 0.17
3 5 -12 1.37 0.1
-3 -5 12 1.45 0.1
2 5 -12 1.96 0.1
2 5 -12 2.02 0.11
-2 -5 12 2.17 0.12
1 5 -12 2.59 0.13
0 5 -12 6.31 0.21
-1 5 -12 9.92 0.28
1 -5 12 9.67 0.23
-2 5 -12 4.46 0.19
2 -5 12 4.62 0.16
4 4 -12 2.66 0.14
3 4 -12 0.25 0.05
2 4 -12 3.39 0.13
-2 -4 12 3.51 0.14
1 4 -12 -0.02 0.04
0 4 -12 3.08 0.15
0 4 -12 2.98 0.12
0 -4 12 2.95 0.12
-1 4 -12 1.49 0.12
1 -4 12 1.49 0.1
-2 4 -12 0.05 0.05
2 -4 12 -0.01 0.04
4 3 -12 4.77 0.17
3 3 -12 0.17 0.05
2 3 -12 12.12 0.28
1 3 -12 -0.07 0.03
-1 -3 12 -0.01 0.03
0 3 -12 4.12 0.14
0 3 -12 4.4 0.17
0 -3 12 4.29 0.15
-1 3 -12 10.46 0.29
-1 3 -12 10.62 0.26
1 -3 12 10.69 0.26
4 2 -12 13.8 0.33
3 2 -12 0.8 0.08
1 2 -12 16.12 0.35
0 2 -12 2.66 0.12
0 -2 12 2.69 0.12
-1 2 -12 2.49 0.14
-1 2 -12 2.61 0.13
1 -2 12 2.57 0.13
4 1 -12 1.95 0.12
-4 -1 12 1.89 0.11
3 1 -12 0.43 0.06
-3 -1 12 0.49 0.06
2 1 -12 4.72 0.16
1 1 -12 2.09 0.11
0 1 -12 0.27 0.05
0 -1 12 0.34 0.06
-1 1 -12 0.91 0.1
1 -1 12 0.87 0.09
4 0 -12 3.82 0.16
-4 0 12 3.55 0.15
3 0 -12 0.12 0.05
3 0 -12 0.07 0.05
-3 0 12 0.08 0.05
2 0 -12 0.33 0.06
1 0 -12 -0.04 0.04
0 0 -12 -0.03 0.04
0 0 12 0.01 0.05
4 -1 -12 1.41 0.11
4 -1 -12 1.4 0.1
-4 1 12 1.51 0.1
3 -1 -12 0.98 0.1
-3 1 12 1.04 0.09
2 -1 -12 1.13 0.1
1 -1 -12 0.11 0.05
3 -2 -12 1.16 0.11
-3 2 12 1.09 0.1
2 -2 -12 5.43 0.19
1 8 -13 0.51 0.08
-1 -8 13 0.53 0.08
0 8 -13 1.67 0.13
2 7 -13 -0.01 0.04
2 7 -13 0 0.05
-2 -7 13 -0.03 0.05
1 7 -13 0.27 0.07
-1 -7 13 0.29 0.07
0 7 -13 0.04 0.06
-1 7 -13 0.46 0.08
3 6 -13 0.09 0.05
2 6 -13 1.53 0.11
-2 -6 13 1.54 0.11
1 6 -13 0.42 0.07
-1 -6 13 0.54 0.08
0 6 -13 2.22 0.14
-1 6 -13 1.47 0.13
3 5 -13 0.04 0.05
-2 -5 13 0.81 0.1
1 5 -13 0.26 0.06
0 5 -13 2.23 0.14
-1 5 -13 1.55 0.13
1 -5 13 1.44 0.11
3 4 -13 3.61 0.15
0 4 -13 3.61 0.17
3 3 -13 4.32 0.16
0 3 -13 2.31 0.12
0 -3 13 2.32 0.12
3 2 -13 1.87 0.11
-3 -2 13 1.91 0.11
1 2 -13 3.91 0.15
-1 -2 13 4.11 0.15
0 2 -13 2.55 0.12
0 -2 13 2.44 0.13
3 1 -13 0.49 0.07
-3 -1 13 0.57 0.07
2 1 -13 0.95 0.09
1 1 -13 0.26 0.06
-1 -1 13 0.31 0.06
