#------------------------------------------------------------------------------
#$Date: 2022-06-07 10:31:48 +0300 (Tue, 07 Jun 2022) $
#$Revision: 275860 $
#$URL: file:///home/coder/svn-repositories/cod/cif/8/10/53/8105344.cif $
#------------------------------------------------------------------------------
#
# This file is available in the Crystallography Open Database (COD),
# http://www.crystallography.net/
#
# All data on this site have been placed in the public domain by the
# contributors.
#
data_8105344
loop_
_publ_author_name
'Hanft, Anna'
'Lichtenberg, Crispin'
_publ_section_title
;
 Dimerization of
 2-[(2-((2-aminophenyl)thio)phenyl)amino]-cyclohepta-2,4,6-trien-1-one
 through hydrogen bonding, C19H16N2OS
;
_journal_issue                   4
_journal_name_full
'Zeitschrift f\"ur Kristallographie - New Crystal Structures'
_journal_page_first              963
_journal_page_last               966
_journal_paper_doi               10.1515/ncrs-2020-0124
_journal_volume                  235
_journal_year                    2020
_chemical_formula_moiety         'C19 H16 N2 O S'
_chemical_formula_sum            'C19 H16 N2 O S'
_chemical_formula_weight         320.40
_space_group_crystal_system      triclinic
_space_group_IT_number           2
_space_group_name_Hall           '-P 1'
_space_group_name_H-M_alt        'P -1'
_atom_sites_solution_hydrogens   mixed
_atom_sites_solution_primary     direct
_cell_angle_alpha                72.546(2)
_cell_angle_beta                 84.568(2)
_cell_angle_gamma                80.760(2)
_cell_formula_units_Z            2
_cell_length_a                   8.1510(3)
_cell_length_b                   8.8021(3)
_cell_length_c                   11.3953(5)
_cell_measurement_reflns_used    2169
_cell_measurement_temperature    100
_cell_measurement_theta_max      27.15
_cell_measurement_theta_min      2.45
_cell_volume                     768.86(5)
_computing_cell_refinement       'SAINT+ V8.38A [2]'
_computing_data_collection       'APEX2 ver. 2014.9 [1]'
_computing_data_reduction        'SAINT+ V8.38A [2]'
_computing_molecular_graphics    'Mercury 4 (CSD 2020) [5], Olex2 1.2 [6]'
_computing_publication_material  'SHELXL  [4], Olex2 1.2 [6]'
_computing_structure_refinement  'SHELXL  [4]'
_computing_structure_solution    'SHELXT  [3]'
_diffrn_ambient_temperature      100
_diffrn_detector_area_resol_mean 8
_diffrn_measured_fraction_theta_full 0.993
_diffrn_measured_fraction_theta_max 0.978
_diffrn_measurement_device_type  'Bruker SMART APEX CCD area detector'
_diffrn_measurement_method       '\w and \f scans'
_diffrn_radiation_monochromator  graphite
_diffrn_radiation_type           MoK\a
_diffrn_radiation_wavelength     0.71073
_diffrn_reflns_av_R_equivalents  0.0397
_diffrn_reflns_av_unetI/netI     0.0591
_diffrn_reflns_Laue_measured_fraction_full 0.993
_diffrn_reflns_Laue_measured_fraction_max 0.978
_diffrn_reflns_limit_h_max       10
_diffrn_reflns_limit_h_min       -8
_diffrn_reflns_limit_k_max       11
_diffrn_reflns_limit_k_min       -11
_diffrn_reflns_limit_l_max       15
_diffrn_reflns_limit_l_min       -11
_diffrn_reflns_number            9366
_diffrn_reflns_point_group_measured_fraction_full 0.993
_diffrn_reflns_point_group_measured_fraction_max 0.978
_diffrn_reflns_theta_full        26.000
_diffrn_reflns_theta_max         27.986
_diffrn_reflns_theta_min         1.876
_diffrn_source                   'sealed tube'
_diffrn_standards_number         0
_exptl_absorpt_coefficient_mu    0.216
_exptl_absorpt_correction_T_max  0.7456
_exptl_absorpt_correction_T_min  0.6223
_exptl_absorpt_correction_type   empirical
_exptl_absorpt_process_details
;    
SADABS-2012/1 (Bruker,2012) was used for absorption correction. 
wR2(int) was 0.0626 before and 0.0444 after correction. 
The Ratio of minimum to maximum transmission is 0.8346. 
The \l/2 correction factor is 0.0015.'
;
_exptl_crystal_colour            colourless
_exptl_crystal_colour_primary    colourless
_exptl_crystal_density_diffrn    1.384
_exptl_crystal_density_meas      .
_exptl_crystal_description       plate
_exptl_crystal_F_000             336
_exptl_crystal_size_max          0.21
_exptl_crystal_size_mid          0.16
_exptl_crystal_size_min          0.04
_refine_diff_density_max         0.519
_refine_diff_density_min         -0.305
_refine_diff_density_rms         0.066
_refine_ls_extinction_coef       .
_refine_ls_extinction_method     none
_refine_ls_goodness_of_fit_ref   0.936
_refine_ls_hydrogen_treatment    mixed
_refine_ls_matrix_type           full
_refine_ls_number_parameters     220
_refine_ls_number_reflns         3619
_refine_ls_number_restraints     0
_refine_ls_restrained_S_all      0.936
_refine_ls_R_factor_all          0.0765
_refine_ls_R_factor_gt           0.0491
_refine_ls_shift/su_max          0.000
_refine_ls_shift/su_mean         0.000
_refine_ls_structure_factor_coef Fsqd
_refine_ls_weighting_details
'w=1/[\s^2^(Fo^2^)+(0.1000P)^2^] where P=(Fo^2^+2Fc^2^)/3'
_refine_ls_weighting_scheme      calc
_refine_ls_wR_factor_gt          0.1299
_refine_ls_wR_factor_ref         0.1494
_reflns_Friedel_coverage         0.000
_reflns_Friedel_fraction_full    .
_reflns_Friedel_fraction_max     .
_reflns_number_gt                2625
_reflns_number_total             3619
_reflns_threshold_expression     'I > 2\s(I)'
_cod_data_source_file            suppl_ncrs-2020-0124_suppl.cif
_cod_data_source_block           crlp034_p-1
_cod_database_code               8105344
_shelx_space_group_comment
;
The symmetry employed for this shelxl refinement is uniquely defined
by the following loop, which should always be used as a source of
symmetry information in preference to the above space-group names.
They are only intended as comments.
;
_shelx_estimated_absorpt_t_max   0.991
_shelx_estimated_absorpt_t_min   0.956
_olex2_refinement_description
;
1. Fixed Uiso
 At 1.2 times of:
  All C(H) groups
2.a Aromatic H refined with riding coordinates:
 C19(H19), C16(H16), C10(H10), C13(H13), C12(H12), C6(H6), C11(H11), C17(H17),
 C3(H3), C7(H7), C18(H18), C5(H5), C4(H4)
;
_shelx_res_file
;
TITL CRLP034_P-1 in P-1 #2
    crlp034_p-1.res
    created by SHELXL-2017/1 at 12:16:59 on 13-Feb-2020
REM reset to P-1 #2
CELL 0.71073 8.151 8.8021 11.3953 72.546 84.568 80.76
ZERR 2 0.0003 0.0003 0.0005 0.002 0.002 0.002
LATT 1
SFAC C H N O S
UNIT 38 32 4 2 2
EQIV $1 -X,2-Y,2-Z

L.S. 4 0 0
PLAN  20
SIZE 0.04 0.16 0.21
TEMP 23
BIND O1 H2b_$1
BOND $H
MORE -1
CONF
fmap 2 53
acta 52
REM <olex2.extras>
REM <HklSrc "%.\\CRLP034_P-1.hkl">
REM </olex2.extras>

WGHT    0.100000
FVAR       0.27817
S1    5    0.180826    0.712753    0.980805    11.00000    0.01686    0.04036 =
         0.01333   -0.00613   -0.00343   -0.00687
O1    4    0.145342    1.013916    0.633631    11.00000    0.02287    0.03698 =
         0.02088   -0.01185   -0.00804    0.00803
N1    3    0.373573    0.909211    0.786040    11.00000    0.01620    0.02769 =
         0.01350   -0.00684   -0.00490    0.00366
N2    3    0.076012    0.863851    1.190623    11.00000    0.02888    0.02526 =
         0.02012   -0.00629    0.00049   -0.00597
C9    1    0.382885    0.748431    1.000268    11.00000    0.01207    0.02489 =
         0.01655   -0.00976   -0.00280    0.00040
C8    1    0.461146    0.845396    0.896771    11.00000    0.01584    0.02255 =
         0.01398   -0.00796   -0.00343    0.00250
C15   1    0.050713    0.706430    1.215406    11.00000    0.01173    0.02770 =
         0.01549   -0.00571   -0.00598   -0.00031
C19   1    0.081077    0.457769    1.160514    11.00000    0.01764    0.02983 =
         0.02290   -0.01026   -0.00675    0.00006
AFIX  43
H19   2    0.117034    0.400415    1.104136    11.00000   -1.20000
AFIX   0
C16   1   -0.026860    0.628997    1.327603    11.00000    0.01731    0.03188 =
         0.01615   -0.00703   -0.00385   -0.00074
AFIX  43
H16   2   -0.062511    0.684984    1.384912    11.00000   -1.20000
AFIX   0
C14   1    0.105646    0.617918    1.131318    11.00000    0.01338    0.02799 =
         0.01548   -0.00476   -0.00414   -0.00120
C2    1    0.401970    0.857309    0.683860    11.00000    0.01726    0.02133 =
         0.01235   -0.00390   -0.00092   -0.00394
C10   1    0.467180    0.683937    1.109032    11.00000    0.02068    0.02658 =
         0.01335   -0.00468   -0.00142   -0.00210
AFIX  43
H10   2    0.416279    0.618802    1.178156    11.00000   -1.20000
AFIX   0
C13   1    0.618576    0.880217    0.902474    11.00000    0.01856    0.02440 =
         0.01582   -0.00545   -0.00095   -0.00211
AFIX  43
H13   2    0.669291    0.946235    0.833736    11.00000   -1.20000
AFIX   0
C1    1    0.264881    0.926260    0.598952    11.00000    0.01901    0.02270 =
         0.01482   -0.00267   -0.00264   -0.00191
C12   1    0.701456    0.815859    1.011967    11.00000    0.01556    0.03055 =
         0.02105   -0.00990   -0.00312   -0.00208
AFIX  43
H12   2    0.807463    0.839519    1.016403    11.00000   -1.20000
AFIX   0
C6    1    0.371176    0.799564    0.426893    11.00000    0.02881    0.02768 =
         0.01389   -0.00557   -0.00365   -0.00517
AFIX  43
H6    2    0.340482    0.797943    0.350771    11.00000   -1.20000
AFIX   0
C11   1    0.625936    0.716484    1.114400    11.00000    0.01896    0.02865 =
         0.01537   -0.00756   -0.00650    0.00194
AFIX  43
H11   2    0.682462    0.671832    1.186693    11.00000   -1.20000
AFIX   0
C17   1   -0.050892    0.469956    1.353891    11.00000    0.02087    0.03213 =
         0.01619    0.00267   -0.00496   -0.00592
AFIX  43
H17   2   -0.104983    0.421133    1.428000    11.00000   -1.20000
AFIX   0
C3    1    0.542190    0.752921    0.669424    11.00000    0.01988    0.02853 =
         0.01635   -0.00736   -0.00766    0.00076
AFIX  43
H3    2    0.612709    0.721509    0.734592    11.00000   -1.20000
AFIX   0
C7    1    0.260535    0.891998    0.484358    11.00000    0.02294    0.02634 =
         0.01575   -0.00114   -0.00834   -0.00300
AFIX  43
H7    2    0.165653    0.941274    0.441153    11.00000   -1.20000
AFIX   0
C18   1    0.004427    0.381852    1.271426    11.00000    0.02427    0.02283 =
         0.03039   -0.00232   -0.00956   -0.00484
AFIX  43
H18   2   -0.009798    0.274248    1.290426    11.00000   -1.20000
AFIX   0
C5    1    0.522466    0.707773    0.465157    11.00000    0.02679    0.03351 =
         0.01821   -0.01301    0.00032   -0.00067
AFIX  43
H5    2    0.580316    0.654797    0.411164    11.00000   -1.20000
AFIX   0
C4    1    0.596117    0.686395    0.573261    11.00000    0.01870    0.03387 =
         0.02645   -0.01211   -0.00356    0.00311
AFIX  43
H4    2    0.696426    0.617702    0.584103    11.00000   -1.20000
AFIX   0
H2A   2    0.100476    0.914256    1.109017    11.00000    0.04055
H2B   2    0.012677    0.921036    1.239787    11.00000    0.04649
H1    2    0.282098    0.971553    0.788120    11.00000    0.03378
HKLF 4




REM  CRLP034_P-1 in P-1 #2
REM R1 =  0.0491 for    2625 Fo > 4sig(Fo)  and  0.0765 for all    3619 data
REM    220 parameters refined using      0 restraints

END

WGHT      0.0700      0.0726

REM Highest difference peak  0.519,  deepest hole -0.305,  1-sigma level  0.066
Q1    1   0.1431  0.8056  1.0052  11.00000  0.05    0.52
Q2    1   0.0528  0.6658  1.1689  11.00000  0.05    0.36
Q3    1   0.0054  0.4417  1.3054  11.00000  0.05    0.36
Q4    1   0.2868  0.7624  0.9717  11.00000  0.05    0.35
Q5    1   0.4459  0.7770  0.9444  11.00000  0.05    0.33
Q6    1   0.2201  0.8221  0.9829  11.00000  0.05    0.32
Q7    1   0.1573  0.4213  1.0874  11.00000  0.05    0.31
Q8    1   0.6399  0.7608  1.0446  11.00000  0.05    0.31
Q9    1   0.1278  0.6227  0.9786  11.00000  0.05    0.31
Q10   1  -0.0030  0.7989  1.2047  11.00000  0.05    0.31
Q11   1   0.0043  0.5399  1.3353  11.00000  0.05    0.30
Q12   1   0.5226  0.8957  0.9071  11.00000  0.05    0.29
Q13   1   0.0653  0.6845  1.0001  11.00000  0.05    0.28
Q14   1   0.5546  0.8174  0.8874  11.00000  0.05    0.27
Q15   1   0.3639  0.8855  0.4489  11.00000  0.05    0.27
Q16   1   0.5309  0.7511  1.1150  11.00000  0.05    0.27
Q17   1   0.1181  0.5347  1.1569  11.00000  0.05    0.26
Q18   1  -0.0282  0.6780  1.2581  11.00000  0.05    0.26
Q19   1   0.1045  0.7605  1.2001  11.00000  0.05    0.25
Q20   1   0.6430  0.8767  0.9634  11.00000  0.05    0.24
;
_shelx_hkl_file
;
  -1   0   0    5.83    0.23
   1   0   0    6.05    0.21
   1   0   0    6.51    0.30
   1   0   0    5.88    0.22
  -2   0   0  124.64    2.93
   2   0   0  121.00    2.88
   2   0   0  127.09    3.02
   2   0   0  128.23    2.93
  -3   0   0    5.95    0.35
   3   0   0    5.97    0.35
   3   0   0    6.75    0.55
   3   0   0    6.49    0.37
  -4   0   0   36.01    1.07
   4   0   0   38.22    1.40
   4   0   0   39.94    1.12
   4   0   0   37.11    1.08
  -5   0   0   20.16    0.71
   5   0   0   18.14    1.03
   5   0   0   20.44    0.74
   5   0   0   18.71    0.72
  -6   0   0   -0.01    0.16
   6   0   0    0.01    0.34
   7   0   0    0.82    0.47
   8   0   0    0.72    0.55
   9   0   0   30.55    1.96
  10   0   0    0.68    0.64
  10  -1   0    3.26    0.98
   9  -1   0    1.20    0.61
   8  -1   0    5.11    0.90
   7  -1   0    0.05    0.42
   6  -1   0   15.11    0.83
   6  -1   0   14.73    0.66
   6  -1   0   16.23    1.13
  -6   1   0   13.89    0.65
   5  -1   0    0.28    0.29
   5  -1   0    0.72    0.29
  -5   1   0    0.23    0.18
   4  -1   0    0.65    0.31
   4  -1   0    0.42    0.24
  -4   1   0    0.28    0.19
   3  -1   0    3.89    0.49
   3  -1   0    4.45    0.41
   3  -1   0    4.72    0.38
  -3   1   0    4.71    0.37
   2  -1   0  369.92    8.68
   2  -1   0  383.52    8.52
  -2   1   0  386.02    8.68
   1  -1   0  518.08   11.55
   1  -1   0  544.02   11.90
   1  -1   0  526.14   11.97
   0  -1   0   14.59    0.49
   0  -1   0   15.49    0.51
   0  -1   0   15.12    0.52
  -1  -1   0    2.30    0.25
  -1  -1   0    2.30    0.20
   1   1   0    2.09    0.23
   1   1   0    2.30    0.24
  -2  -1   0   14.04    0.56
   2   1   0   14.21    0.63
   2   1   0   13.70    0.54
  -3  -1   0    4.71    0.40
   3   1   0    4.69    0.39
   3   1   0    5.00    0.49
  -4  -1   0   45.27    1.32
   4   1   0   45.99    1.32
   4   1   0   45.78    1.59
  -5  -1   0    1.40    0.26
   5   1   0    1.88    0.43
  -6  -1   0    4.33    0.40
   6   1   0    4.28    0.65
   7   1   0    5.97    0.84
   8   1   0    8.23    1.04
   9   1   0    5.41    0.95
  10   1   0   23.10    1.78
  10  -2   0    0.37    0.66
   9  -2   0    0.36    0.61
   8  -2   0    2.50    0.79
   7  -2   0   18.87    1.37
   6  -2   0   15.26    0.86
   6  -2   0   16.06    1.17
   6  -2   0   17.27    0.99
   5  -2   0   74.88    2.25
   5  -2   0   69.27    2.42
   5  -2   0   73.01    2.07
   4  -2   0    3.05    0.54
   4  -2   0    2.85    0.37
   3  -2   0    4.92    0.45
   3  -2   0    5.41    0.62
   3  -2   0    4.62    0.51
   2  -2   0   19.33    0.82
   2  -2   0   18.03    0.84
   2  -2   0   16.03    0.71
   1  -2   0   89.23    2.36
   1  -2   0   90.83    2.35
   1  -2   0   89.29    2.37
   0  -2   0  243.84    5.77
   0  -2   0  246.32    5.69
   0  -2   0  239.54    5.54
  -1  -2   0  410.30    9.19
  -1  -2   0  416.28    9.58
  -1  -2   0  412.83    9.40
   1   2   0  426.18    9.19
   1   2   0  405.47    8.90
  -2  -2   0  141.73    3.50
  -2  -2   0  138.61    3.31
   2   2   0  141.07    3.43
  -3  -2   0   45.77    1.15
  -3  -2   0   46.07    1.42
   3   2   0   44.49    1.49
  -4  -2   0    7.90    0.59
   4   2   0    7.95    0.72
  -5  -2   0    1.54    0.33
   5   2   0    1.23    0.39
  -6  -2   0    4.10    0.45
   6   2   0    3.12    0.62
   7   2   0    3.42    0.72
   8   2   0   12.13    1.31
   9   2   0   16.09    1.52
  10   2   0    3.07    0.86
   9  -3   0    3.06    0.90
   8  -3   0    1.60    0.71
   7  -3   0   23.67    1.60
   6  -3   0   68.75    2.56
   6  -3   0   58.72    2.16
   5  -3   0    1.13    0.44
   5  -3   0    0.91    0.33
   5  -3   0    1.03    0.47
   4  -3   0    2.08    0.41
   4  -3   0    2.69    0.56
   4  -3   0    3.31    0.53
   3  -3   0   43.63    1.66
   3  -3   0   44.56    1.61
   2  -3   0   39.45    1.39
   2  -3   0   39.04    1.46
   2  -3   0   39.06    1.43
   1  -3   0    4.52    0.52
   1  -3   0    5.93    0.62
   1  -3   0    5.40    0.56
   0  -3   0   27.41    1.07
   0  -3   0   28.75    1.11
   0  -3   0   29.32    1.14
   0   3   0   29.49    0.92
  -1  -3   0   34.43    1.26
  -1  -3   0   33.51    1.16
   1   3   0   34.14    1.18
   1   3   0   33.20    0.89
  -2  -3   0   19.09    0.91
  -2  -3   0   19.54    0.80
   2   3   0   19.60    0.89
  -3  -3   0   36.63    1.34
  -3  -3   0   35.98    1.12
   3   3   0   36.78    1.35
  -4  -3   0   12.13    0.50
  -4  -3   0   11.81    0.78
   4   3   0   11.56    0.79
  -5  -3   0   61.00    1.94
   5   3   0   59.36    2.09
  -6  -3   0    0.48    0.34
   6   3   0    0.12    0.35
   7   3   0    3.61    0.72
   8   3   0    2.42    0.72
   9   3   0    2.20    0.71
  10   3   0    1.65    0.74
   9  -4   0    0.27    0.60
   8  -4   0    7.41    1.18
   7  -4   0    9.43    1.24
   6  -4   0   10.47    1.22
   6  -4   0    9.22    1.01
   5  -4   0    0.00    0.47
   5  -4   0    0.03    0.44
   5  -4   0   -0.35    0.26
   4  -4   0    5.16    0.78
   4  -4   0    4.66    0.70
   3  -4   0    0.07    0.28
   3  -4   0    0.31    0.37
   3  -4   0   -0.41    0.32
   2  -4   0   48.85    1.80
   2  -4   0   51.50    1.83
   2  -4   0   49.65    1.75
   1  -4   0   21.99    1.10
   1  -4   0   23.81    1.15
   1  -4   0   21.84    1.08
   0  -4   0    3.75    0.53
   0  -4   0    2.77    0.50
   0  -4   0    3.93    0.55
   0   4   0    3.31    0.38
  -1  -4   0   11.26    0.76
  -1  -4   0   10.23    0.76
  -1  -4   0   10.84    0.81
   1   4   0   11.83    0.76
   1   4   0   11.27    0.49
  -2  -4   0    9.45    0.70
  -2  -4   0    9.52    0.77
  -2  -4   0    9.22    0.70
   2   4   0    9.61    0.34
   2   4   0   10.02    0.70
  -3  -4   0  138.75    3.80
  -3  -4   0  139.40    3.54
   3   4   0  136.85    3.70
  -4  -4   0    4.00    0.43
  -4  -4   0    3.49    0.54
   4   4   0    3.18    0.52
  -5  -4   0    2.66    0.24
  -5  -4   0    2.87    0.24
  -5  -4   0    2.46    0.53
  -5  -4   0    3.05    0.34
   5   4   0    2.81    0.54
  -6  -4   0    9.82    0.88
   6   4   0    8.78    0.94
   7   4   0    2.49    0.67
   8   4   0    3.64    0.83
   9   4   0   13.97    1.54
  10   4   0   11.18    1.45
   8  -5   0    3.20    0.99
   7  -5   0    8.37    1.26
   7  -5   0    7.11    1.04
   6  -5   0    5.76    0.91
   6  -5   0    6.44    1.08
   5  -5   0    1.01    0.35
   5  -5   0    1.70    0.62
   5  -5   0    1.11    0.66
  -5   5   0    0.62    0.54
   4  -5   0    0.96    0.55
   4  -5   0    0.88    0.41
   4  -5   0    1.31    0.60
  -4   5   0    1.62    0.55
   3  -5   0   24.29    1.38
   3  -5   0   23.32    1.25
   3  -5   0   24.71    1.41
  -3   5   0   24.18    1.28
   2  -5   0    0.77    0.46
   2  -5   0    0.50    0.43
   2  -5   0    1.30    0.42
  -2   5   0    0.79    0.35
   1  -5   0    5.38    0.74
   1  -5   0    4.17    0.62
   1  -5   0    5.95    0.71
  -1   5   0    5.42    0.59
   0  -5   0   64.80    2.17
   0  -5   0   62.76    2.21
   0  -5   0   66.04    2.20
   0   5   0   64.84    1.86
  -1  -5   0   22.21    1.15
  -1  -5   0   22.30    1.18
  -1  -5   0   22.29    1.15
   1   5   0   22.69    0.82
  -2  -5   0    0.27    0.35
  -2  -5   0    0.50    0.36
  -2  -5   0    0.50    0.41
   2   5   0   -0.25    0.24
   2   5   0    0.35    0.13
  -3  -5   0    4.07    0.54
  -3  -5   0    3.23    0.60
  -3  -5   0    4.33    0.64
   3   5   0    4.83    0.67
  -4  -5   0    0.48    0.35
  -4  -5   0    0.96    0.47
   4   5   0    1.10    0.40
  -5  -5   0   26.52    1.41
   5   5   0   25.91    1.40
  -6  -5   0   22.37    1.36
   6   5   0   22.56    1.40
   7   5   0   17.01    1.32
   8   5   0   27.78    1.75
   9   5   0   20.03    1.62
  10   5   0    0.69    0.69
   8  -6   0   -0.09    0.71
   7  -6   0   23.74    1.81
   7  -6   0   29.89    2.07
   6  -6   0    0.55    0.67
   6  -6   0    1.90    0.76
   5  -6   0   -0.33    0.53
   5  -6   0    0.14    0.55
   5  -6   0    1.26    0.51
   4  -6   0   -0.03    0.53
   4  -6   0    1.52    0.70
   4  -6   0    0.88    0.50
  -4   6   0    0.18    0.43
   3  -6   0    7.85    1.04
   3  -6   0    7.49    1.01
   3  -6   0    6.81    0.88
  -3   6   0    8.72    0.93
   2  -6   0   39.77    1.85
   2  -6   0   38.40    1.85
   2  -6   0   39.88    1.79
  -2   6   0   40.86    1.66
   1  -6   0    9.86    1.03
   1  -6   0    9.72    1.03
   1  -6   0   10.73    1.05
  -1   6   0   10.63    0.81
   0  -6   0   -0.41    0.37
   0  -6   0    0.18    0.38
   0  -6   0    0.36    0.44
   0   6   0   -0.03    0.22
  -1  -6   0    4.84    0.77
  -1  -6   0    6.03    0.77
  -1  -6   0    5.93    0.78
   1   6   0    5.49    0.46
  -2  -6   0    9.95    0.99
  -2  -6   0    9.10    0.91
  -2  -6   0    6.89    0.85
   2   6   0    8.58    0.45
   2   6   0    9.66    0.96
  -3  -6   0    0.53    0.48
  -3  -6   0    0.23    0.44
  -3  -6   0   -0.39    0.34
   3   6   0    0.45    0.38
  -4  -6   0    1.36    0.55
  -4  -6   0    2.37    0.66
  -4  -6   0    1.33    0.48
   4   6   0    1.53    0.52
  -5  -6   0   12.17    1.24
  -5  -6   0   11.65    1.16
   5   6   0   12.61    1.21
  -6  -6   0    1.00    0.63
   6   6   0    1.32    0.55
   7   6   0   21.43    1.53
   8   6   0   25.77    1.76
   9   6   0    0.55    0.73
   7  -7   0   14.56    1.76
   7  -7   0   13.27    1.59
   6  -7   0   -0.89    0.66
   6  -7   0   -0.39    0.71
   5  -7   0    0.60    0.66
   5  -7   0    0.11    0.67
   5  -7   0    0.35    0.53
   4  -7   0    1.53    0.72
   4  -7   0   -0.21    0.42
   4  -7   0    1.32    0.75
   3  -7   0   20.49    1.53
   3  -7   0   20.07    1.43
   3  -7   0   17.23    1.49
  -3   7   0   17.88    1.30
   2  -7   0    1.96    0.72
   2  -7   0    1.48    0.59
   2  -7   0    1.15    0.65
  -2   7   0    0.92    0.47
   1  -7   0    5.13    0.85
   1  -7   0    4.25    0.82
   1  -7   0    4.01    0.78
  -1   7   0    5.29    0.69
   0  -7   0   25.11    1.50
   0  -7   0   25.81    1.57
   0  -7   0   26.27    1.56
   0   7   0   25.92    1.14
  -1  -7   0    6.92    0.97
  -1  -7   0    7.07    0.91
  -1  -7   0    5.75    0.86
   1   7   0    6.59    0.56
  -2  -7   0   -0.17    0.45
  -2  -7   0    0.33    0.55
  -2  -7   0   -0.02    0.48
  -3  -7   0   17.17    1.35
  -3  -7   0   15.92    1.28
  -3  -7   0   13.93    1.19
   3   7   0   14.80    1.14
  -4  -7   0   12.53    1.27
  -4  -7   0   10.50    1.12
  -4  -7   0   11.08    1.04
   4   7   0   10.41    1.09
  -5  -7   0   10.09    1.17
  -5  -7   0    9.20    1.17
   5   7   0   11.33    1.23
  -6  -7   0    1.65    0.77
  -6  -7   0    3.65    0.86
   6   7   0    3.28    0.73
   7   7   0    2.89    0.77
   8   7   0   12.58    1.46
   9   7   0   -0.09    0.60
   6  -8   0    1.76    0.89
   6  -8   0    0.12    0.90
   5  -8   0   -0.09    0.67
   5  -8   0    1.08    0.88
   5  -8   0    0.23    0.61
   4  -8   0    1.24    0.74
   4  -8   0   -0.43    0.68
   4  -8   0   -0.41    0.49
   3  -8   0   -0.31    0.56
   3  -8   0   -0.03    0.54
   3  -8   0    0.45    0.70
   2  -8   0    1.11    0.66
   2  -8   0   -0.35    0.55
   2  -8   0   -0.14    0.64
  -2   8   0    0.50    0.44
   1  -8   0    1.45    0.68
   1  -8   0    1.33    0.70
   1  -8   0    1.17    0.76
  -1   8   0    0.43    0.41
   0  -8   0    0.02    0.55
   0  -8   0    1.20    0.71
   0  -8   0    0.55    0.54
  -1  -8   0    1.97    0.65
  -1  -8   0    3.78    0.87
  -1  -8   0    2.99    0.81
  -2  -8   0   21.55    1.55
  -2  -8   0   22.55    1.62
  -2  -8   0   19.94    1.48
  -3  -8   0    3.08    0.88
  -3  -8   0    4.13    0.88
  -3  -8   0    3.05    0.79
   3   8   0    2.51    0.70
  -4  -8   0    8.12    1.11
  -4  -8   0    8.47    1.05
  -4  -8   0   10.13    1.30
   4   8   0    8.00    1.05
  -5  -8   0    1.68    0.74
  -5  -8   0    0.76    0.77
   5   8   0    1.58    0.61
  -6  -8   0   -0.60    0.72
  -6  -8   0    0.48    0.64
   6   8   0    0.84    0.58
  -7  -8   0    6.96    1.19
   7   8   0    5.61    1.07
  -8  -8   0    3.73    1.01
   8   8   0    3.32    0.91
   4  -9   0    0.83    0.98
   4  -9   0    2.21    0.88
   4  -9   0    1.77    0.93
   3  -9   0    0.83    0.63
   3  -9   0   -0.54    0.82
   3  -9   0   -0.10    0.70
   2  -9   0   -0.36    0.77
   2  -9   0   -0.12    0.63
   2  -9   0   -0.07    0.64
   1  -9   0    0.25    0.77
   1  -9   0   -0.35    0.56
   1  -9   0    0.44    0.66
   0  -9   0    3.21    0.88
   0  -9   0    2.58    0.94
   0  -9   0    4.03    0.99
  -1  -9   0    4.69    0.94
  -1  -9   0    4.05    1.03
  -1  -9   0    2.98    0.93
  -2  -9   0    0.80    0.72
  -2  -9   0    0.51    0.73
  -2  -9   0    1.10    0.70
  -3  -9   0    5.29    1.14
  -3  -9   0    3.86    0.91
  -3  -9   0    2.96    0.87
  -4  -9   0    0.00    0.77
  -4  -9   0   -0.73    0.50
  -4  -9   0   -0.76    0.65
   4   9   0   -0.39    0.47
  -5  -9   0   -0.63    0.70
  -5  -9   0    1.31    0.73
   5   9   0   -0.25    0.51
  -6  -9   0    6.16    1.10
  -6  -9   0    4.94    1.17
   6   9   0    5.48    1.02
  -7  -9   0    2.35    0.92
   7   9   0    4.39    1.00
   3 -10   0   -0.23    0.76
   3 -10   0   -1.42    0.92
   3 -10   0    0.08    0.82
   2 -10   0    0.46    0.98
   2 -10   0    0.09    0.77
   2 -10   0   -0.39    0.73
   1 -10   0    0.04    0.93
   1 -10   0    2.87    1.00
   1 -10   0    3.04    1.00
   0 -10   0    1.52    0.96
   0 -10   0    1.82    0.87
   0 -10   0    2.94    1.07
  -1 -10   0    0.04    0.78
  -1 -10   0    0.17    0.67
  -1 -10   0    0.92    0.88
  -2 -10   0    6.94    1.16
  -2 -10   0    4.04    1.13
  -2 -10   0    5.18    1.13
  -3 -10   0    0.24    0.69
  -3 -10   0   -2.07    0.66
  -3 -10   0   -0.59    0.77
  -4 -10   0    3.19    0.93
  -4 -10   0    1.14    0.98
  -5 -10   0    4.42    1.04
  -5 -10   0    3.79    1.19
   5  10   0    3.01    0.90
  -1 -11   0    2.45    1.17
  -1 -11   0    4.23    1.10
  -2 -11   0    0.75    1.02
  -2 -11   0    1.00    0.91
  -5 -10   1    4.71    1.35
  -5 -10   1    5.32    1.12
  -4 -10   1   -0.72    0.67
  -4 -10   1   -0.77    0.91
  -3 -10   1   -0.06    0.91
  -3 -10   1   -1.11    0.73
  -3 -10   1   -0.03    0.70
  -2 -10   1    3.09    1.13
  -2 -10   1    4.57    1.01
  -2 -10   1    4.15    1.14
  -1 -10   1   -1.19    0.78
  -1 -10   1   -1.03    0.85
  -1 -10   1    0.50    0.76
   0 -10   1    1.44    0.97
   0 -10   1   -0.73    0.87
   0 -10   1   -0.57    0.66
   1 -10   1    1.82    0.95
   1 -10   1   -0.07    1.01
   1 -10   1   -0.66    0.73
   2 -10   1   -0.05    1.08
   2 -10   1   -0.20    0.69
   2 -10   1   -0.71    0.76
  -7  -9   1    0.80    0.77
   6   9  -1    1.21    0.69
  -6  -9   1    2.07    1.02
  -6  -9   1    4.32    1.04
   5   9  -1    0.35    0.55
  -5  -9   1   -0.52    0.83
  -5  -9   1    0.42    0.69
  -4  -9   1    2.81    0.88
  -4  -9   1    3.31    1.11
  -4  -9   1    2.85    0.92
  -3  -9   1   -0.02    0.83
  -3  -9   1    1.75    0.85
  -3  -9   1    1.97    0.79
  -2  -9   1    0.38    0.79
  -2  -9   1    0.64    0.81
  -2  -9   1    1.68    0.74
  -1  -9   1   -0.54    0.67
  -1  -9   1    0.17    0.75
  -1  -9   1    0.68    0.65
   0  -9   1    0.72    0.79
   0  -9   1    2.22    0.92
   0  -9   1    2.11    0.79
   1  -9   1    5.60    1.12
   1  -9   1    5.89    1.11
   1  -9   1    6.18    1.23
   2  -9   1   22.85    1.99
   2  -9   1   19.03    1.81
   2  -9   1   20.54    1.76
   3  -9   1    0.61    0.75
   3  -9   1    0.26    0.71
   3  -9   1    3.28    1.11
   4  -9   1   -0.21    0.94
   4  -9   1    0.68    0.82
   4  -9   1   -0.29    0.72
   8   8  -1    2.07    0.80
  -8  -8   1    0.51    0.79
   7   8  -1    1.92    0.76
  -7  -8   1    2.17    0.82
   6   8  -1    0.38    0.53
  -6  -8   1    1.33    0.74
  -6  -8   1    0.18    0.77
   5   8  -1    4.29    0.83
  -5  -8   1    2.94    0.98
  -5  -8   1    2.42    0.80
   4   8  -1    3.33    0.75
  -4  -8   1    2.76    0.78
  -4  -8   1    5.20    1.11
  -4  -8   1    2.23    0.79
  -3  -8   1   -0.43    0.59
  -3  -8   1   -0.94    0.59
  -3  -8   1    0.36    0.56
  -2  -8   1    5.91    1.04
  -2  -8   1    7.07    1.13
  -2  -8   1    7.07    1.05
  -1  -8   1    0.88    0.70
  -1  -8   1   -0.09    0.66
  -1  -8   1    0.03    0.49
   0  -8   1    2.78    0.78
   0  -8   1    2.75    0.89
   0  -8   1    1.90    0.79
   1  -8   1   25.53    1.73
   1  -8   1   28.81    1.90
   1  -8   1   26.26    1.80
  -2   8  -1    4.67    0.77
   2  -8   1    2.29    0.94
   2  -8   1    4.11    0.86
   2  -8   1    3.12    0.87
   3  -8   1   -0.03    0.65
   3  -8   1    0.03    0.80
   3  -8   1    0.12    0.61
   4  -8   1   -0.64    0.57
   4  -8   1    0.15    0.71
   4  -8   1   -1.86    0.65
   5  -8   1   -0.27    0.85
   5  -8   1    1.26    0.81
   6  -8   1    0.02    0.82
   6  -8   1   -0.05    0.94
   8   7  -1    4.50    0.97
   7   7  -1    1.26    0.62
  -7  -7   1    2.52    0.84
   6   7  -1   -0.32    0.49
  -6  -7   1   -0.94    0.49
  -6  -7   1   -0.85    0.55
   5   7  -1   14.76    1.20
  -5  -7   1   12.48    1.40
  -5  -7   1   10.22    1.20
   4   7  -1    0.23    0.39
  -4  -7   1   -0.21    0.53
  -4  -7   1    0.19    0.69
  -4  -7   1    0.06    0.49
   3   7  -1    3.80    0.73
  -3  -7   1    2.45    0.72
  -3  -7   1    2.35    0.77
  -3  -7   1    2.81    0.73
  -2  -7   1    0.71    0.61
  -2  -7   1    0.55    0.60
  -2  -7   1    0.57    0.50
  -1  -7   1    6.46    0.94
  -1  -7   1    4.42    0.87
  -1  -7   1    6.04    0.93
   0   7  -1    8.09    0.73
   0  -7   1    8.48    1.10
   0  -7   1    5.56    0.86
   0  -7   1    9.19    1.18
  -1   7  -1    8.68    0.85
   1  -7   1    8.39    1.09
   1  -7   1   10.56    1.20
   1  -7   1    7.78    1.06
  -2   7  -1    3.83    0.69
   2  -7   1    4.54    0.84
   2  -7   1    4.22    0.94
   2  -7   1    2.39    0.73
  -3   7  -1   -0.51    0.42
   3  -7   1    0.18    0.62
   3  -7   1   -0.75    0.43
   3  -7   1    0.33    0.66
   4  -7   1    0.04    0.69
   4  -7   1   -1.29    0.52
   4  -7   1    0.21    0.47
   5  -7   1    0.94    0.83
   5  -7   1    1.93    0.83
   5  -7   1    1.20    0.66
   6  -7   1    2.20    0.90
   6  -7   1    0.25    0.83
   7  -7   1    2.50    0.97
   7  -7   1    2.05    1.03
   9   6  -1    8.38    1.26
   8   6  -1    1.82    0.68
   7   6  -1   13.82    1.38
   6   6  -1    1.67    0.60
  -6  -6   1    1.26    0.70
   5   6  -1   13.56    1.12
  -5  -6   1   14.25    1.36
  -5  -6   1   11.60    1.21
   4   6  -1  126.49    3.83
  -4  -6   1  131.43    3.72
  -4  -6   1  133.20    4.08
  -4  -6   1  125.06    3.87
   3   6  -1    0.05    0.36
  -3  -6   1   -0.51    0.45
  -3  -6   1    0.08    0.40
  -3  -6   1    0.45    0.53
   2   6  -1    3.66    0.30
   2   6  -1    4.17    0.66
  -2  -6   1    3.51    0.76
  -2  -6   1    3.67    0.65
  -2  -6   1    3.30    0.68
   1   6  -1    3.43    0.39
  -1  -6   1    3.66    0.70
  -1  -6   1    3.87    0.76
  -1  -6   1    3.97    0.66
   0   6  -1    5.25    0.56
   0  -6   1    5.58    0.82
   0  -6   1    3.77    0.70
   0  -6   1    4.04    0.69
  -1   6  -1    2.35    0.50
   1  -6   1    2.01    0.59
   1  -6   1    2.28    0.68
   1  -6   1    2.20    0.57
   2  -6   1    1.54    0.65
   2  -6   1    1.99    0.56
   2  -6   1    2.84    0.64
   3  -6   1   -0.14    0.50
   3  -6   1   -0.20    0.55
   3  -6   1   -0.26    0.39
   4  -6   1    4.65    0.92
   4  -6   1    4.15    0.91
   4  -6   1    4.99    0.81
   5  -6   1   12.67    1.36
   5  -6   1   12.94    1.45
   5  -6   1   11.01    1.16
   6  -6   1    3.10    0.95
   6  -6   1    2.00    0.83
   7  -6   1   17.90    1.83
   7  -6   1   18.35    1.74
   9   5  -1    0.23    0.58
   8   5  -1   -0.46    0.46
   7   5  -1    0.81    0.56
   6   5  -1    9.28    1.03
  -6  -5   1   12.46    1.19
   5   5  -1  136.74    4.01
  -5  -5   1  138.70    4.11
   4   5  -1    4.59    0.65
  -4  -5   1    4.78    0.71
  -4  -5   1    5.23    0.65
  -4  -5   1    3.74    0.70
   3   5  -1    0.44    0.32
  -3  -5   1    0.16    0.37
  -3  -5   1    0.61    0.36
  -3  -5   1    0.37    0.43
   2   5  -1    5.85    0.29
   2   5  -1    6.11    0.71
  -2  -5   1    5.33    0.74
  -2  -5   1    6.32    0.70
  -2  -5   1    5.78    0.74
   1   5  -1   14.11    0.63
  -1  -5   1   15.08    1.01
  -1  -5   1   13.60    1.02
  -1  -5   1   14.68    0.93
   0  -5   1   -0.42    0.33
   0  -5   1    0.25    0.35
   0  -5   1    0.67    0.45
   1  -5   1    1.09    0.50
   1  -5   1    1.13    0.46
   1  -5   1    0.57    0.41
   2  -5   1   26.34    1.41
   2  -5   1   25.44    1.37
   2  -5   1   24.48    1.30
   3  -5   1   15.48    1.20
   3  -5   1   15.79    1.06
   3  -5   1   15.86    1.17
   4  -5   1   42.96    1.81
   4  -5   1   48.00    2.07
   4  -5   1   43.05    2.00
   5  -5   1    4.73    0.93
   5  -5   1    3.06    0.76
   5  -5   1    4.74    0.72
   6  -5   1   39.53    2.14
   6  -5   1   35.58    1.91
   7  -5   1    2.50    0.86
   7  -5   1    2.46    0.81
   8  -5   1    0.54    0.73
  10   4  -1    0.56    0.62
   9   4  -1   12.00    1.35
   8   4  -1    3.46    0.80
   7   4  -1   25.93    1.52
   6   4  -1    8.10    0.96
  -6  -4   1    7.69    0.87
   5   4  -1   25.23    1.31
  -5  -4   1   24.53    0.94
  -5  -4   1   24.10    1.32
   4   4  -1   21.13    1.13
  -4  -4   1   21.86    0.95
  -4  -4   1   22.27    1.23
   3   4  -1   31.62    1.31
  -3  -4   1   31.38    1.33
  -3  -4   1   29.74    1.38
  -3  -4   1   29.77    1.21
   2   4  -1  160.31    4.17
  -2  -4   1  166.87    4.24
  -2  -4   1  163.57    4.43
  -2  -4   1  164.41    4.22
   1   4  -1    4.03    0.34
   1   4  -1    4.69    0.54
  -1  -4   1    4.47    0.58
  -1  -4   1    4.20    0.59
  -1  -4   1    4.05    0.54
   0  -4   1    5.16    0.61
   0  -4   1    4.92    0.58
   0  -4   1    6.24    0.71
   1  -4   1   31.25    1.34
   1  -4   1   36.31    1.48
   1  -4   1   34.71    1.42
   2  -4   1   26.68    1.30
   2  -4   1   24.68    1.17
   2  -4   1   23.12    1.21
   3  -4   1   -0.95    0.29
   3  -4   1   -0.18    0.25
   3  -4   1    0.23    0.42
   4  -4   1   11.06    1.05
   4  -4   1   11.50    1.10
   5  -4   1   12.61    1.15
   5  -4   1   11.20    1.13
   5  -4   1   13.38    0.90
   6  -4   1    1.41    0.63
   6  -4   1    1.11    0.59
   7  -4   1   11.57    1.37
   8  -4   1    0.15    0.58
   9  -4   1   -0.14    0.65
  10   3  -1    8.15    1.23
   9   3  -1    5.51    1.03
   8   3  -1    1.65    0.62
   7   3  -1   16.02    1.22
   6   3  -1    0.18    0.39
  -6  -3   1   -0.27    0.19
  -6  -3   1    0.87    0.39
   5   3  -1   33.90    1.45
  -5  -3   1   29.76    0.95
  -5  -3   1   33.50    1.39
   4   3  -1    1.45    0.38
  -4  -3   1    1.58    0.27
  -4  -3   1    1.35    0.16
  -4  -3   1    1.43    0.43
   3   3  -1   41.71    1.46
  -3  -3   1   40.37    1.30
  -3  -3   1   38.26    1.49
   2   3  -1   53.91    1.64
  -2  -3   1   50.66    1.74
  -2  -3   1   49.56    1.63
  -2  -3   1   51.43    1.60
   1   3  -1   98.24    2.59
  -1  -3   1   94.73    2.58
  -1  -3   1   97.97    2.75
  -1  -3   1   95.70    2.64
   0  -3   1   15.94    0.88
   0  -3   1   15.67    0.80
   1  -3   1   58.30    1.89
   1  -3   1   60.56    1.87
   1  -3   1   60.36    1.88
   2  -3   1    2.54    0.42
   2  -3   1    1.88    0.45
   2  -3   1    2.19    0.45
   3  -3   1    5.63    0.71
   3  -3   1    5.39    0.65
   4  -3   1   19.61    1.16
   4  -3   1   20.35    1.11
   4  -3   1   20.26    0.94
   5  -3   1    9.04    0.67
   5  -3   1    9.55    1.04
   5  -3   1    9.50    0.90
   6  -3   1    4.68    0.86
   7  -3   1    6.28    1.03
   7  -3   1    6.31    0.96
   8  -3   1    4.17    0.95
   9  -3   1    7.24    1.24
  10   2  -1    0.34    0.59
   9   2  -1    0.31    0.57
   8   2  -1    0.18    0.49
   7   2  -1    3.68    0.69
  -7  -2   1    3.08    0.50
   6   2  -1   18.13    1.12
  -6  -2   1   15.78    0.91
  -6  -2   1   17.19    0.85
   5   2  -1   11.61    0.84
  -5  -2   1    9.82    0.59
  -5  -2   1   10.86    0.75
   4   2  -1    1.78    0.37
  -4  -2   1    2.10    0.27
  -4  -2   1    1.87    0.20
  -4  -2   1    2.18    0.42
   3   2  -1   10.54    0.66
  -3  -2   1    9.12    0.38
  -3  -2   1    9.28    0.49
  -3  -2   1    9.36    0.70
   2   2  -1  130.70    3.25
  -2  -2   1  133.95    3.42
  -2  -2   1  130.91    3.23
   1   2  -1  884.40   19.14
  -1  -2   1  881.58   19.77
  -1  -2   1  869.86   19.14
  -1  -2   1  884.25   20.04
   0  -2   1   21.01    0.81
   0  -2   1   22.36    0.90
   1  -2   1   -0.16    0.26
   1  -2   1   -0.45    0.23
   1  -2   1    0.08    0.24
   2  -2   1   18.19    0.90
   2  -2   1   20.19    0.94
   3  -2   1   29.11    1.25
   3  -2   1   29.37    1.17
   3  -2   1   29.32    1.04
   4  -2   1    5.73    0.62
   4  -2   1    5.77    0.47
   4  -2   1    5.40    0.66
   5  -2   1   -0.23    0.31
   5  -2   1   -0.27    0.30
   5  -2   1   -0.09    0.19
   6  -2   1   11.98    0.96
   6  -2   1    9.86    1.03
   7  -2   1    0.54    0.50
   8  -2   1   34.61    2.01
   9  -2   1   10.09    1.32
  10  -2   1    0.10    0.74
  10   1  -1    0.07    0.59
   9   1  -1    0.00    0.53
   8   1  -1   -0.02    0.44
  -8  -1   1    0.54    0.41
   7   1  -1   59.37    2.31
  -7  -1   1   61.39    2.07
   6   1  -1   10.30    0.95
  -6  -1   1    8.23    0.64
  -6  -1   1    8.82    0.70
   5   1  -1   45.04    1.67
  -5  -1   1   45.23    1.45
  -5  -1   1   43.69    1.46
   4   1  -1   28.20    1.15
  -4  -1   1   26.54    0.75
  -4  -1   1   27.87    1.05
  -4  -1   1   27.73    0.97
   3   1  -1   62.25    1.80
  -3  -1   1   61.89    1.60
  -3  -1   1   63.69    1.80
  -3  -1   1   60.23    1.52
   2   1  -1  175.60    4.15
  -2  -1   1  177.18    3.95
  -2  -1   1  180.01    4.32
  -2  -1   1  179.51    4.13
   1   1  -1  209.52    4.55
   1   1  -1  208.51    4.71
   1   1  -1  214.10    4.99
  -1  -1   1  208.56    4.86
  -1  -1   1  208.34    4.56
  -1  -1   1  212.58    5.00
   0   1  -1   17.44    0.65
   0  -1   1   15.77    0.66
   0  -1   1   16.57    0.59
   0  -1   1   17.14    0.69
  -1   1  -1   79.91    1.93
   1  -1   1   77.69    2.00
   1  -1   1   69.80    1.91
  -2   1  -1    3.52    0.30
   2  -1   1    2.62    0.36
   2  -1   1    3.46    0.39
   2  -1   1    2.87    0.28
   3  -1   1    0.49    0.17
   3  -1   1   -0.06    0.12
   3  -1   1    0.37    0.17
   3  -1   1    0.20    0.27
   4  -1   1   55.10    1.45
   4  -1   1   52.98    1.65
   4  -1   1   55.36    1.85
   4  -1   1   52.48    1.45
   5  -1   1    1.73    0.38
   5  -1   1    2.53    0.27
   5  -1   1    2.64    0.29
   5  -1   1    2.31    0.47
   6  -1   1    3.59    0.51
   6  -1   1    2.89    0.58
   7  -1   1   38.60    1.90
   8  -1   1    0.47    0.51
   9  -1   1    3.03    0.88
  10  -1   1    7.45    1.29
  10   0  -1    3.47    0.91
   9   0  -1    8.73    1.24
   8   0  -1   44.48    2.10
  -8   0   1   41.24    1.83
   7   0  -1    8.51    0.96
  -7   0   1    8.55    0.89
   6   0  -1    2.30    0.53
  -6   0   1    2.97    0.39
  -6   0   1    2.31    0.48
   5   0  -1   24.25    0.82
   5   0  -1   25.54    1.21
  -5   0   1   25.64    1.10
  -5   0   1   26.01    0.98
   4   0  -1    6.64    0.64
   4   0  -1    6.38    0.38
  -4   0   1    5.30    0.46
   3   0  -1    0.99    0.27
  -3   0   1    1.13    0.19
  -3   0   1    1.17    0.26
  -3   0   1    0.93    0.26
   2   0  -1    1.91    0.29
   2   0  -1    1.49    0.26
  -2   0   1    2.10    0.29
  -2   0   1    1.82    0.21
  -2   0   1    1.32    0.24
   1   0  -1    1.95    0.19
   1   0  -1    1.83    0.24
   1   0  -1    1.70    0.18
  -1   0   1    1.70    0.25
  -1   0   1    1.89    0.18
  -1   0   1    1.76    0.20
   0   0  -1   58.55    1.45
   0   0  -1   58.80    1.37
   0   0   1   57.53    1.45
   0   0   1   59.61    1.37
   0   0   1   59.36    1.45
  -1   0  -1   13.05    0.41
   1   0   1   11.59    0.42
   1   0   1   12.43    0.49
   2   0   1   56.21    1.45
   2   0   1   54.19    1.53
   3   0   1   69.05    2.00
   3   0   1   71.48    1.82
   4   0   1   78.20    2.34
   4   0   1   77.48    2.02
   5   0   1    2.35    0.33
   5   0   1    1.25    0.44
   6   0   1   21.56    1.24
   6   0   1   18.92    0.84
   7   0   1    5.19    0.81
   8   0   1    0.17    0.50
   9   0   1    0.35    0.61
  10   0   1    7.64    1.24
  10  -1  -1    3.42    0.93
   9  -1  -1   -0.01    0.56
   8  -1  -1   -0.39    0.45
   7  -1  -1   34.92    1.72
  -7   1   1   30.99    1.53
   6  -1  -1    5.57    0.54
   6  -1  -1    5.65    0.79
  -6   1   1    4.96    0.68
  -6   1   1    5.14    0.50
   5  -1  -1    3.20    0.53
   5  -1  -1    3.57    0.42
  -5   1   1    3.76    0.42
   4  -1  -1  152.99    4.04
   4  -1  -1  160.41    3.88
  -4   1   1  158.43    3.92
   3  -1  -1    5.04    0.42
   3  -1  -1    5.38    0.54
  -3   1   1    5.48    0.46
   2  -1  -1    3.22    0.36
   2  -1  -1    3.50    0.38
  -2   1   1    3.41    0.33
  -2   1   1    3.48    0.38
  -2   1   1    2.79    0.34
   1  -1  -1   16.08    0.61
   1  -1  -1   15.13    0.60
   1  -1  -1   16.92    0.60
  -1   1   1   17.79    0.61
  -1   1   1   15.44    0.62
  -1   1   1   17.43    0.62
   0  -1  -1   14.34    0.51
   0  -1  -1   14.43    0.47
   0  -1  -1   14.30    0.47
   0   1   1   14.37    0.46
   0   1   1   14.61    0.47
   0   1   1   14.58    0.50
   0   1   1   13.82    0.52
  -1  -1  -1  208.68    4.68
  -1  -1  -1  202.03    4.50
   1   1   1  201.26    4.57
  -2  -1  -1  226.56    5.20
   2   1   1  233.18    5.20
   2   1   1  226.96    5.23
   2   1   1  225.67    5.13
  -3  -1  -1  245.52    5.46
   3   1   1  237.77    5.64
   3   1   1  234.63    5.44
   4   1   1  127.02    3.39
   5   1   1    8.52    0.80
   6   1   1    4.27    0.67
   7   1   1    0.37    0.41
   8   1   1    2.10    0.64
   9   1   1    0.94    0.63
  10   1   1    6.89    1.16
  10  -2  -1    1.44    0.77
   9  -2  -1    3.01    0.88
   8  -2  -1    0.77    0.60
   7  -2  -1    3.32    0.75
  -7   2   1    4.19    0.78
   6  -2  -1    2.77    0.59
   6  -2  -1    2.70    0.50
  -6   2   1    2.97    0.44
  -6   2   1    2.29    0.55
   5  -2  -1   22.77    1.04
   5  -2  -1   24.37    1.24
  -5   2   1   23.61    1.20
  -5   2   1   22.84    0.97
   4  -2  -1    1.38    0.41
  -4   2   1    1.49    0.33
   3  -2  -1    2.42    0.38
   3  -2  -1    2.39    0.41
  -3   2   1    2.61    0.39
  -3   2   1    2.81    0.43
   2  -2  -1    5.95    0.50
   2  -2  -1    5.78    0.55
  -2   2   1    5.60    0.49
  -2   2   1    6.38    0.54
   1  -2  -1  171.72    4.09
   1  -2  -1  172.11    4.17
  -1   2   1  176.79    4.05
  -1   2   1  172.72    4.22
   0  -2  -1  355.74    7.98
   0  -2  -1  358.79    8.33
   0  -2  -1  364.32    7.88
   0  -2  -1  364.40    8.22
   0   2   1  346.59    7.87
   0   2   1  365.82    8.22
   0   2   1  358.23    8.33
  -1  -2  -1   13.73    0.53
  -1  -2  -1   12.90    0.59
  -1  -2  -1   12.63    0.46
   1   2   1   12.90    0.45
   1   2   1   13.24    0.52
  -2  -2  -1  137.72    3.13
  -2  -2  -1  136.79    3.05
  -2  -2  -1  129.76    3.26
   2   2   1  136.28    3.29
   2   2   1  127.18    3.25
  -3  -2  -1   57.35    1.56
  -3  -2  -1   54.76    1.36
   3   2   1   55.63    1.55
   3   2   1   60.23    1.76
  -4  -2  -1   24.06    0.84
   4   2   1   21.88    0.78
   4   2   1   23.26    1.09
  -5  -2  -1    8.44    0.48
   5   2   1    7.27    0.42
   5   2   1    8.58    0.82
  -6  -2  -1   10.32    0.49
   6   2   1    9.43    0.93
   7   2   1    0.05    0.43
   8   2   1    0.87    0.54
   9   2   1   32.01    1.94
  10   2   1    3.86    0.98
   9  -3  -1   -0.46    0.53
   8  -3  -1    2.61    0.76
   7  -3  -1    2.28    0.67
   6  -3  -1    3.47    0.71
   6  -3  -1    4.68    0.64
   6  -3  -1    3.52    0.51
  -6   3   1    2.95    0.66
   5  -3  -1   22.86    1.08
   5  -3  -1   21.98    1.29
   5  -3  -1   23.08    1.15
  -5   3   1   21.99    1.24
  -5   3   1   23.39    1.08
   4  -3  -1   24.57    1.23
   4  -3  -1   22.17    1.02
   4  -3  -1   23.29    1.12
  -4   3   1   25.66    1.09
  -4   3   1   25.02    1.20
   3  -3  -1   35.73    1.35
   3  -3  -1   37.61    1.47
   3  -3  -1   37.77    1.40
  -3   3   1   37.73    1.36
  -3   3   1   37.20    1.41
   2  -3  -1   31.83    1.28
   2  -3  -1   34.25    1.28
   2  -3  -1   33.39    1.25
  -2   3   1   32.23    1.22
  -2   3   1   32.29    1.25
   1  -3  -1   84.53    2.34
   1  -3  -1   83.81    2.36
   1  -3  -1   83.60    2.38
  -1   3   1   85.36    2.24
   0  -3  -1   56.79    1.74
   0  -3  -1   51.99    1.65
   0  -3  -1   57.75    1.68
   0  -3  -1   56.42    1.51
   0   3   1   56.21    1.51
  -1  -3  -1    1.08    0.28
  -1  -3  -1    1.30    0.34
  -1  -3  -1    0.73    0.28
  -1  -3  -1    1.03    0.19
   1   3   1    1.34    0.29
   1   3   1    1.58    0.21
  -2  -3  -1   -0.02    0.19
  -2  -3  -1    0.01    0.22
  -2  -3  -1   -0.02    0.12
   2   3   1    0.11    0.24
  -3  -3  -1   53.69    1.37
  -3  -3  -1   53.34    1.46
  -3  -3  -1   52.66    1.65
   3   3   1   53.88    1.74
  -4  -3  -1   46.89    1.51
  -4  -3  -1   46.90    1.22
   4   3   1   48.46    1.70
  -5  -3  -1    9.28    0.65
   5   3   1    9.65    0.81
  -6  -3  -1    0.87    0.31
   6   3   1    0.67    0.39
   7   3   1    5.29    0.78
   8   3   1   18.86    1.39
   9   3   1    1.91    0.73
  10   3   1    5.19    1.01
   9  -4  -1    0.02    0.70
   8  -4  -1    6.27    1.10
   7  -4  -1    3.40    0.68
   7  -4  -1    5.13    0.91
   6  -4  -1   -0.58    0.37
   6  -4  -1    0.37    0.33
   6  -4  -1   -0.06    0.47
   5  -4  -1   30.03    1.33
   5  -4  -1   26.88    1.44
   5  -4  -1   28.95    1.60
  -5   4   1   29.47    1.51
   4  -4  -1   12.54    0.95
   4  -4  -1   13.96    0.90
   4  -4  -1   14.78    1.07
  -4   4   1   13.07    0.97
   3  -4  -1    6.02    0.66
   3  -4  -1    4.75    0.66
   3  -4  -1    6.90    0.77
  -3   4   1    6.60    0.73
   2  -4  -1   34.56    1.41
   2  -4  -1   36.38    1.47
   2  -4  -1   36.98    1.45
  -2   4   1   36.54    1.37
   1  -4  -1   11.14    0.79
   1  -4  -1   11.07    0.77
   1  -4  -1   11.08    0.81
  -1   4   1   11.65    0.71
   0  -4  -1    9.12    0.72
   0  -4  -1    9.69    0.77
   0  -4  -1   10.00    0.74
   0   4   1   10.67    0.59
  -1  -4  -1  125.29    3.45
  -1  -4  -1  130.86    3.34
  -1  -4  -1  124.58    3.34
   1   4   1  122.53    2.99
   1   4   1  126.79    3.34
  -2  -4  -1   59.57    1.97
  -2  -4  -1   63.51    2.00
  -2  -4  -1   63.28    1.85
  -2  -4  -1   60.25    1.54
   2   4   1   62.54    1.56
   2   4   1   64.14    1.98
  -3  -4  -1   16.33    0.75
  -3  -4  -1   16.27    0.90
  -3  -4  -1   15.41    0.52
   3   4   1   14.05    0.85
  -4  -4  -1    2.33    0.33
  -4  -4  -1    2.97    0.48
  -4  -4  -1    2.40    0.24
   4   4   1    2.64    0.50
  -5  -4  -1    1.24    0.42
  -5  -4  -1    1.63    0.26
  -5  -4  -1    1.38    0.24
   5   4   1    1.16    0.39
  -6  -4  -1    3.12    0.56
   6   4   1    3.02    0.65
   7   4   1    7.31    1.00
   8   4   1    2.07    0.69
   9   4   1   23.98    1.75
  10   4   1    5.30    1.05
   8  -5  -1    0.79    0.68
   7  -5  -1    2.33    0.82
   7  -5  -1    1.50    0.68
   6  -5  -1    6.22    0.94
   6  -5  -1    7.31    1.09
   5  -5  -1    0.62    0.55
   5  -5  -1   -0.02    0.18
   5  -5  -1   -0.14    0.45
  -5   5   1    0.72    0.47
   4  -5  -1   21.63    1.37
   4  -5  -1   22.35    1.23
   4  -5  -1   18.60    1.25
  -4   5   1   17.76    1.20
   3  -5  -1    5.32    0.72
   3  -5  -1    7.11    0.90
   3  -5  -1    5.41    0.76
  -3   5   1    7.08    0.81
   2  -5  -1    4.59    0.65
   2  -5  -1    3.89    0.65
   2  -5  -1    3.51    0.61
  -2   5   1    5.97    0.68
   1  -5  -1   27.70    1.35
   1  -5  -1   29.85    1.36
   1  -5  -1   28.85    1.35
  -1   5   1   28.95    1.16
   0  -5  -1   39.80    1.59
   0  -5  -1   40.09    1.59
   0  -5  -1   40.38    1.63
   0   5   1   42.11    1.36
  -1  -5  -1   19.96    1.11
  -1  -5  -1   20.55    1.06
  -1  -5  -1   19.54    1.06
   1   5   1   20.03    0.77
   1   5   1   20.88    1.07
  -2  -5  -1    0.83    0.39
  -2  -5  -1    0.85    0.38
  -2  -5  -1    0.28    0.31
   2   5   1    0.25    0.15
   2   5   1    0.44    0.31
  -3  -5  -1    2.37    0.54
  -3  -5  -1    2.24    0.42
  -3  -5  -1    2.83    0.53
   3   5   1    1.64    0.46
  -4  -5  -1    0.20    0.28
  -4  -5  -1    0.54    0.38
   4   5   1    0.17    0.33
  -5  -5  -1   11.75    0.95
   5   5   1   10.61    1.02
  -6  -5  -1    5.07    0.73
   6   5   1    5.52    0.82
   7   5   1   22.87    1.50
   8   5   1   23.12    1.59
   9   5   1    0.44    0.57
  10   5   1   -0.10    0.58
   8  -6  -1    0.72    0.77
   7  -6  -1    7.74    1.13
   7  -6  -1    7.46    1.23
   6  -6  -1    0.18    0.54
   6  -6  -1    0.27    0.61
   5  -6  -1    6.30    0.86
   5  -6  -1    9.95    1.24
   5  -6  -1    7.37    1.04
   4  -6  -1    0.47    0.56
   4  -6  -1    0.28    0.49
   4  -6  -1    0.25    0.43
  -4   6   1    0.84    0.49
   3  -6  -1    8.02    0.92
   3  -6  -1    6.34    0.91
   3  -6  -1    8.00    0.96
  -3   6   1    8.65    0.92
   2  -6  -1    2.79    0.65
   2  -6  -1    3.06    0.70
   2  -6  -1    2.87    0.63
  -2   6   1    2.30    0.49
   1  -6  -1    0.62    0.40
   1  -6  -1    0.58    0.46
   1  -6  -1    0.41    0.45
  -1   6   1    0.08    0.27
   0  -6  -1    3.35    0.65
   0  -6  -1    2.29    0.55
   0  -6  -1    3.29    0.64
   0   6   1    2.96    0.42
  -1  -6  -1   13.04    1.02
  -1  -6  -1   12.94    1.00
  -1  -6  -1   14.07    1.05
   1   6   1   13.40    0.68
  -2  -6  -1   -0.30    0.31
  -2  -6  -1    0.69    0.44
  -2  -6  -1    0.41    0.41
   2   6   1    0.06    0.33
   2   6   1    0.40    0.17
  -3  -6  -1    1.22    0.52
  -3  -6  -1    1.49    0.43
  -3  -6  -1    0.85    0.47
   3   6   1    1.13    0.43
  -4  -6  -1   20.83    1.32
  -4  -6  -1   19.76    1.09
  -4  -6  -1   19.72    1.28
   4   6   1   21.67    1.28
  -5  -6  -1    0.45    0.49
   5   6   1    0.36    0.40
  -6  -6  -1    4.73    0.79
   6   6   1    5.77    0.91
   7   6   1    4.26    0.90
   8   6   1    0.45    0.60
   9   6   1    4.49    0.96
   7  -7  -1   -0.46    0.73
   7  -7  -1    0.10    0.71
   6  -7  -1   14.22    1.50
   6  -7  -1   17.90    1.79
   5  -7  -1   17.68    1.56
   5  -7  -1   19.51    1.41
   5  -7  -1   17.46    1.70
   4  -7  -1   22.81    1.66
   4  -7  -1   21.62    1.50
   4  -7  -1   26.44    1.79
   3  -7  -1   -0.20    0.52
   3  -7  -1    0.31    0.48
   3  -7  -1   -0.38    0.49
  -3   7   1    0.27    0.45
   2  -7  -1    0.13    0.55
   2  -7  -1   -0.32    0.49
   2  -7  -1    0.04    0.44
  -2   7   1    0.36    0.41
   1  -7  -1    2.03    0.62
   1  -7  -1    2.12    0.67
   1  -7  -1    1.91    0.61
  -1   7   1    1.88    0.46
   0  -7  -1   27.70    1.54
   0  -7  -1   25.98    1.54
   0  -7  -1   28.51    1.57
   0   7   1   27.60    1.19
  -1  -7  -1    2.39    0.65
  -1  -7  -1    1.16    0.53
  -1  -7  -1    2.80    0.67
   1   7   1    2.01    0.37
  -2  -7  -1    6.94    0.87
  -2  -7  -1    5.95    0.83
  -2  -7  -1    7.19    0.94
   2   7   1    7.28    0.89
  -3  -7  -1    3.05    0.64
  -3  -7  -1    2.42    0.65
  -3  -7  -1    2.60    0.71
   3   7   1    2.39    0.62
  -4  -7  -1   25.14    1.55
  -4  -7  -1   24.96    1.51
  -4  -7  -1   28.30    1.44
   4   7   1   27.20    1.52
  -5  -7  -1    6.50    0.96
  -5  -7  -1    6.30    0.97
   5   7   1    6.70    0.95
  -6  -7  -1    1.24    0.71
  -6  -7  -1    1.34    0.67
   6   7   1    1.39    0.59
   7   7   1    0.46    0.55
   8   7   1    0.91    0.66
   9   7   1    0.25    0.59
   6  -8  -1    5.88    1.22
   6  -8  -1    6.76    1.28
   5  -8  -1    0.00    0.74
   5  -8  -1    0.23    0.56
   5  -8  -1    0.14    0.68
   4  -8  -1    2.66    0.90
   4  -8  -1    2.80    0.91
   4  -8  -1    3.30    0.79
   3  -8  -1    2.26    0.81
   3  -8  -1    2.67    0.80
   3  -8  -1    2.32    0.72
   2  -8  -1    1.08    0.70
   2  -8  -1    1.71    0.77
   2  -8  -1    2.07    0.71
  -2   8   1    2.04    0.57
   1  -8  -1    6.06    1.00
   1  -8  -1    8.25    1.07
   1  -8  -1    7.21    1.06
  -1   8   1    8.38    0.90
   0  -8  -1    3.21    0.82
   0  -8  -1    3.10    0.78
   0  -8  -1    2.80    0.80
   0   8   1    2.93    0.52
  -1  -8  -1    8.30    1.08
  -1  -8  -1    7.84    1.06
  -1  -8  -1    7.78    1.12
  -2  -8  -1    7.79    1.07
  -2  -8  -1    7.34    1.04
  -2  -8  -1    9.90    1.15
  -3  -8  -1    6.26    0.98
  -3  -8  -1    4.63    0.87
  -3  -8  -1    5.68    0.87
   3   8   1    5.53    0.86
  -4  -8  -1   26.51    1.78
  -4  -8  -1   28.23    1.60
   4   8   1   26.73    1.64
  -5  -8  -1   -1.16    0.57
  -5  -8  -1   -0.42    0.49
   5   8   1    0.52    0.48
  -6  -8  -1    1.59    0.78
  -6  -8  -1    3.05    0.88
   6   8   1    1.87    0.71
  -7  -8  -1   -1.01    0.51
   7   8   1   -0.14    0.50
  -8  -8  -1    9.74    1.47
   8   8   1    8.47    1.24
   5  -9  -1   -0.60    0.69
   5  -9  -1   -0.07    0.70
   5  -9  -1   -0.71    0.83
   4  -9  -1    1.66    0.90
   4  -9  -1    1.46    0.82
   4  -9  -1    2.14    0.96
   3  -9  -1    3.73    1.07
   3  -9  -1    4.14    1.03
   3  -9  -1    1.74    0.84
   2  -9  -1   -0.59    0.59
   2  -9  -1    0.31    0.62
   2  -9  -1   -1.00    0.69
   1  -9  -1    0.12    0.71
   1  -9  -1   -0.35    0.58
   1  -9  -1    0.78    0.69
   0  -9  -1    9.45    1.23
   0  -9  -1   11.09    1.36
   0  -9  -1    9.44    1.23
  -1  -9  -1    0.02    0.67
  -1  -9  -1    0.81    0.71
  -1  -9  -1    1.06    0.64
  -2  -9  -1    0.87    0.66
  -2  -9  -1   -1.09    0.57
  -2  -9  -1   -0.34    0.57
  -3  -9  -1    0.18    0.67
  -3  -9  -1    0.32    0.58
  -3  -9  -1   -0.45    0.61
  -4  -9  -1    4.82    1.02
  -4  -9  -1    2.77    0.80
  -4  -9  -1    3.53    0.88
   4   9   1    4.05    0.85
  -5  -9  -1    2.84    0.96
  -5  -9  -1    3.85    0.95
   5   9   1    1.84    0.76
  -6  -9  -1    1.90    0.90
  -6  -9  -1    2.93    0.91
   6   9   1    2.39    0.81
  -7  -9  -1    3.04    0.93
   7   9   1    0.19    0.64
   3 -10  -1   -0.09    0.73
   3 -10  -1   -0.78    0.85
   3 -10  -1    0.36    0.77
   2 -10  -1    0.14    0.71
   2 -10  -1   -0.05    0.73
   2 -10  -1   -0.47    0.83
   1 -10  -1    2.75    1.03
   1 -10  -1    2.26    0.93
   1 -10  -1    3.65    1.03
   0 -10  -1    0.28    0.71
   0 -10  -1   -0.66    0.74
   0 -10  -1   -0.53    0.72
  -1 -10  -1    2.72    0.97
  -1 -10  -1    2.12    0.81
  -1 -10  -1    1.08    0.84
  -2 -10  -1    0.25    0.62
  -2 -10  -1   -0.60    0.75
  -2 -10  -1   -0.08    0.74
  -3 -10  -1    1.02    0.77
  -3 -10  -1    1.10    0.86
  -3 -10  -1    1.35    0.87
  -4 -10  -1    4.27    1.02
  -4 -10  -1    3.38    1.06
  -5 -10  -1   -1.28    0.71
  -5 -10  -1    0.25    0.65
   5  10   1    0.20    0.62
  -6 -10  -1   -2.04    0.73
  -6 -10  -1   -0.46    0.70
   6  10   1    0.05    0.62
   0 -11  -1    1.95    1.13
   0 -11  -1    2.44    0.94
  -1 -11  -1   -0.64    0.74
  -1 -11  -1   -1.15    0.79
  -2 -11  -1    1.43    0.89
  -2 -11  -1    2.17    1.06
  -3 -11  -1    2.29    0.96
  -3 -11  -1   -0.95    0.82
  -4 -10   2    1.01    0.75
  -3 -10   2    1.67    1.19
  -3 -10   2    1.07    0.78
  -3 -10   2   -1.29    0.82
  -2 -10   2    3.59    1.29
  -2 -10   2    4.42    1.02
  -2 -10   2    2.56    1.14
  -1 -10   2    0.87    1.02
  -1 -10   2    1.80    0.89
  -1 -10   2    0.91    1.09
   0 -10   2    3.64    1.26
   0 -10   2    4.10    1.31
   0 -10   2    4.79    1.18
   1 -10   2    2.41    0.95
   1 -10   2    1.95    1.13
   1 -10   2    1.79    1.15
   6   9  -2    0.24    0.60
  -6  -9   2   -0.60    0.82
  -6  -9   2    0.92    0.71
   5   9  -2    0.02    0.56
  -5  -9   2    0.36    0.67
  -5  -9   2    0.15    0.92
  -4  -9   2    4.57    0.98
  -4  -9   2    2.01    1.04
  -3  -9   2   10.88    1.43
  -3  -9   2    9.13    1.48
  -3  -9   2   12.21    1.46
  -2  -9   2   -1.06    0.73
  -2  -9   2    0.57    0.65
  -2  -9   2    0.25    0.87
  -1  -9   2   -0.49    0.80
  -1  -9   2    0.00    0.63
  -1  -9   2    0.35    0.81
   0  -9   2   -0.28    0.76
   0  -9   2   -0.08    0.90
   0  -9   2    0.21    0.65
   1  -9   2   -0.52    0.68
   1  -9   2   -0.82    0.73
   1  -9   2   -0.71    0.84
   2  -9   2    3.48    1.22
   2  -9   2    2.46    0.92
   2  -9   2    4.81    1.08
   3  -9   2   -0.40    0.94
   3  -9   2    0.64    0.74
   3  -9   2   -1.57    0.65
   4  -9   2    1.57    0.95
   4  -9   2    0.70    1.13
   4  -9   2    3.36    0.98
   7   8  -2    0.15    0.56
  -7  -8   2    1.02    0.79
  -7  -8   2    1.71    0.96
   6   8  -2    6.37    1.03
  -6  -8   2    6.99    1.16
  -6  -8   2    6.36    1.21
   5   8  -2   22.80    1.62
  -5  -8   2   24.70    1.96
   4   8  -2    0.38    0.48
  -4  -8   2    1.36    0.85
  -4  -8   2    0.30    0.60
  -4  -8   2    0.19    0.69
  -3  -8   2   -0.27    0.71
  -3  -8   2    1.19    0.64
  -3  -8   2    0.80    0.76
  -2  -8   2   -0.94    0.64
  -2  -8   2   -0.94    0.69
  -2  -8   2   -0.58    0.48
  -1  -8   2    1.58    0.70
  -1  -8   2    2.65    0.89
  -1  -8   2    2.37    0.89
   0  -8   2    6.68    1.06
   0  -8   2    5.06    1.08
   0  -8   2    6.93    1.15
   1  -8   2    3.99    0.94
   1  -8   2    2.73    0.85
   1  -8   2    2.63    0.99
   2  -8   2    4.36    1.09
   2  -8   2    2.68    0.88
   2  -8   2    4.02    0.95
   3  -8   2    8.96    1.38
   3  -8   2    6.89    1.16
   3  -8   2    7.60    1.21
   4  -8   2    7.37    1.27
   4  -8   2    6.27    1.31
   4  -8   2    6.02    1.10
   5  -8   2    8.22    1.30
   5  -8   2    8.05    1.49
   8   7  -2    3.75    0.92
  -8  -7   2    4.61    1.08
   7   7  -2    0.60    0.55
  -7  -7   2    0.32    0.67
  -7  -7   2    0.49    0.64
   6   7  -2   14.56    1.42
  -6  -7   2   15.06    1.51
  -6  -7   2   13.57    1.47
   5   7  -2    0.71    0.60
  -5  -7   2    0.96    0.65
  -5  -7   2    1.40    0.81
   4   7  -2    0.65    0.49
  -4  -7   2    0.31    0.60
  -4  -7   2    0.29    0.70
  -4  -7   2   -0.35    0.49
   3   7  -2    2.44    0.60
  -3  -7   2    2.36    0.79
  -3  -7   2    2.83    0.73
  -3  -7   2    3.12    0.88
  -2  -7   2    0.22    0.64
  -2  -7   2    0.39    0.60
  -2  -7   2    0.27    0.53
  -1  -7   2   -0.05    0.60
  -1  -7   2   -0.03    0.57
  -1  -7   2   -0.15    0.48
   0  -7   2    5.18    1.00
   0  -7   2    5.06    0.96
   0  -7   2    4.95    0.84
  -1   7  -2    3.64    0.60
   1  -7   2    2.39    0.77
   1  -7   2    3.69    0.81
   1  -7   2    2.71    0.85
   2  -7   2    1.87    0.71
   2  -7   2    2.29    0.86
   2  -7   2    3.65    0.80
   3  -7   2   33.49    1.90
   3  -7   2   31.82    1.93
   3  -7   2   31.29    2.02
   4  -7   2   -0.13    0.63
   4  -7   2    0.77    0.56
   4  -7   2   -0.80    0.71
   5  -7   2    5.86    1.19
   5  -7   2    4.71    1.05
   6  -7   2    3.22    0.99
   6  -7   2    0.63    0.92
   9   6  -2    4.63    1.06
   8   6  -2    0.88    0.59
   7   6  -2    0.05    0.50
  -7  -6   2   -0.05    0.56
   6   6  -2    4.86    0.86
  -6  -6   2    4.96    0.94
  -6  -6   2    5.26    0.96
   5   6  -2    5.92    0.90
  -5  -6   2    3.31    0.86
  -5  -6   2    5.37    0.90
   4   6  -2    2.76    0.60
  -4  -6   2    3.65    0.69
  -4  -6   2    2.92    0.80
  -4  -6   2    3.63    0.75
   3   6  -2   71.92    2.54
  -3  -6   2   73.02    2.58
  -3  -6   2   69.17    2.75
  -3  -6   2   70.25    2.54
  -2  -6   2    0.75    0.49
  -2  -6   2    0.10    0.53
  -2  -6   2    1.02    0.60
   1   6  -2    6.41    0.52
  -1  -6   2    6.78    0.95
  -1  -6   2    6.43    0.82
  -1  -6   2    6.59    0.88
   0  -6   2    1.95    0.69
   0  -6   2    1.38    0.55
   0  -6   2    1.46    0.58
   1  -6   2   -0.64    0.40
   1  -6   2   -0.26    0.41
   1  -6   2    0.75    0.59
   2  -6   2   16.93    1.39
   2  -6   2   14.29    1.21
   2  -6   2   15.35    1.25
   3  -6   2    8.68    1.16
   3  -6   2    9.70    1.10
   3  -6   2    7.80    1.09
   4  -6   2    2.09    0.76
   4  -6   2    5.56    0.99
   4  -6   2    4.12    0.81
   5  -6   2    0.22    0.60
   5  -6   2   -0.68    0.23
   5  -6   2   -0.44    0.71
   6  -6   2    1.42    0.77
   6  -6   2   -0.48    0.70
   7  -6   2   -1.35    0.67
   7  -6   2   -0.24    0.69
   9   5  -2    2.91    0.86
   8   5  -2    2.14    0.73
   7   5  -2    8.79    1.12
  -7  -5   2    8.05    1.01
   6   5  -2    5.98    0.87
  -6  -5   2    5.82    0.90
   5   5  -2   52.21    2.06
  -5  -5   2   50.68    2.21
   4   5  -2   60.58    2.19
  -4  -5   2   59.15    2.23
  -4  -5   2   61.16    2.09
  -4  -5   2   61.47    2.41
   3   5  -2   23.13    1.21
  -3  -5   2   21.36    1.24
  -3  -5   2   24.97    1.28
  -3  -5   2   25.11    1.45
   2   5  -2    6.36    0.32
   2   5  -2    6.23    0.69
  -2  -5   2    7.32    0.89
  -2  -5   2    7.60    0.84
  -2  -5   2    6.57    0.76
  -1  -5   2   27.51    1.32
  -1  -5   2   26.60    1.42
  -1  -5   2   28.19    1.48
   0  -5   2    8.40    0.92
   0  -5   2    9.62    0.96
   0  -5   2    7.98    0.81
   1  -5   2    8.88    0.93
   1  -5   2    7.28    0.83
   1  -5   2    7.93    0.92
   2  -5   2    1.63    0.55
   2  -5   2    1.94    0.55
   2  -5   2    1.49    0.65
   3  -5   2    1.45    0.51
   3  -5   2    1.95    0.61
   3  -5   2    0.98    0.61
   4  -5   2    4.50    0.89
   4  -5   2    2.29    0.65
   4  -5   2    3.46    0.69
   5  -5   2    0.39    0.58
   5  -5   2    1.16    0.67
   5  -5   2    0.52    0.45
   6  -5   2    8.45    1.24
   6  -5   2    8.86    1.16
   7  -5   2   -0.25    0.54
   7  -5   2   -0.40    0.67
   8  -5   2    2.47    0.96
  10   4  -2    3.64    0.96
   9   4  -2    9.76    1.24
   8   4  -2    0.36    0.48
   7   4  -2   13.48    1.33
  -7  -4   2   11.47    1.14
   6   4  -2    2.69    0.61
  -6  -4   2    2.08    0.63
   5   4  -2   13.02    1.00
  -5  -4   2   12.79    1.07
  -5  -4   2   12.70    0.75
   4   4  -2   21.13    1.11
  -4  -4   2   18.16    1.20
  -4  -4   2   20.16    0.99
   3   4  -2   56.59    1.94
  -3  -4   2   58.55    2.17
  -3  -4   2   57.64    2.00
  -3  -4   2   60.71    1.94
   2   4  -2   40.31    1.47
  -2  -4   2   38.85    1.55
  -2  -4   2   39.17    1.65
  -2  -4   2   37.51    1.45
  -1  -4   2   37.64    1.42
  -1  -4   2   36.80    1.55
  -1  -4   2   36.32    1.56
   0  -4   2    6.45    0.78
   0  -4   2    6.05    0.66
   0  -4   2    6.09    0.71
   1  -4   2   12.57    0.99
   1  -4   2   12.66    0.89
   1  -4   2   10.10    0.81
   2  -4   2   27.18    1.33
   2  -4   2   28.04    1.32
   2  -4   2   29.84    1.45
   3  -4   2   39.37    1.71
   3  -4   2   38.97    1.58
   3  -4   2   35.93    1.69
   4  -4   2    0.98    0.50
   4  -4   2    1.34    0.39
   4  -4   2    0.86    0.54
   5  -4   2   29.04    1.67
   5  -4   2   28.01    1.35
   5  -4   2   26.17    1.56
   6  -4   2   34.72    1.94
   6  -4   2   31.97    1.79
   7  -4   2    9.64    1.16
   7  -4   2    8.93    1.24
   8  -4   2    4.99    1.08
   9  -4   2    0.62    0.74
  10   3  -2    9.48    1.32
   9   3  -2   10.46    1.31
   8   3  -2    8.56    1.10
   7   3  -2    0.29    0.43
   6   3  -2   42.40    1.80
  -6  -3   2   42.92    1.79
   5   3  -2   66.61    2.24
  -5  -3   2   66.20    1.71
  -5  -3   2   64.12    2.28
  -5  -3   2   67.64    1.86
   4   3  -2    0.60    0.33
  -4  -3   2    0.54    0.28
  -4  -3   2    0.46    0.40
  -4  -3   2    0.78    0.13
   3   3  -2   80.99    2.34
  -3  -3   2   77.76    2.51
  -3  -3   2   81.40    2.29
   2   3  -2   41.88    1.42
  -2  -3   2   40.08    1.42
  -2  -3   2   42.40    1.49
  -2  -3   2   42.76    1.63
   1   3  -2   75.85    2.13
  -1  -3   2   77.43    2.29
  -1  -3   2   73.68    2.13
  -1  -3   2   75.84    2.37
   0  -3   2   11.08    0.86
   0  -3   2   11.01    0.70
   0  -3   2   11.07    0.81
   1  -3   2    2.77    0.45
   1  -3   2    2.16    0.43
   1  -3   2    2.90    0.54
   2  -3   2    0.47    0.32
   2  -3   2   -0.11    0.38
   2  -3   2    0.56    0.33
   3  -3   2    1.02    0.44
   3  -3   2    0.97    0.41
   4  -3   2   42.35    1.52
   4  -3   2   41.71    1.79
   4  -3   2   41.74    1.72
   5  -3   2    0.72    0.51
   5  -3   2    2.27    0.45
   5  -3   2    2.59    0.62
   6  -3   2   53.60    2.32
   6  -3   2   51.06    2.08
   7  -3   2   11.34    1.12
   7  -3   2   11.21    1.29
   8  -3   2    0.45    0.64
   9  -3   2   24.80    1.96
  10   2  -2    7.49    1.15
   9   2  -2   27.43    1.72
   8   2  -2    7.29    1.00
   7   2  -2    2.39    0.60
   6   2  -2   17.86    1.12
  -6  -2   2   19.58    1.10
  -6  -2   2   19.73    0.90
   5   2  -2    3.48    0.54
  -5  -2   2    2.96    0.53
  -5  -2   2    3.30    0.30
  -5  -2   2    3.56    0.38
   4   2  -2    0.23    0.27
  -4  -2   2   -0.02    0.19
  -4  -2   2   -0.03    0.30
  -4  -2   2    0.46    0.17
   3   2  -2   15.92    0.79
  -3  -2   2   16.87    0.76
  -3  -2   2   15.33    0.53
  -3  -2   2   14.79    0.94
   2   2  -2   26.33    0.71
   2   2  -2   25.14    0.96
  -2  -2   2   28.98    1.19
  -2  -2   2   26.51    1.03
   1   2  -2    1.16    0.18
   1   2  -2    0.67    0.24
  -1  -2   2    1.10    0.27
  -1  -2   2    1.31    0.37
  -1  -2   2    0.93    0.36
   0  -2   2   31.76    1.05
   1  -2   2   89.60    2.46
   1  -2   2   86.19    2.37
   1  -2   2   91.78    2.53
   2  -2   2   24.27    1.11
   2  -2   2   23.78    1.05
   3  -2   2    1.58    0.41
   3  -2   2    1.60    0.45
   3  -2   2    1.60    0.34
   4  -2   2    0.01    0.36
   4  -2   2    0.44    0.25
   4  -2   2    0.10    0.32
   5  -2   2   12.98    0.70
   5  -2   2   14.17    1.02
   6  -2   2   -0.54    0.37
   6  -2   2    0.63    0.45
   7  -2   2    2.80    0.81
   8  -2   2    6.79    1.14
   9  -2   2   -0.17    0.58
  10  -2   2    4.80    1.15
  10   1  -2    5.93    1.08
   9   1  -2   -0.30    0.48
   8   1  -2    9.36    1.10
   7   1  -2    2.27    0.60
  -7  -1   2    1.19    0.40
   6   1  -2   12.55    0.92
  -6  -1   2   10.95    0.82
  -6  -1   2   11.46    0.76
   5   1  -2   33.72    1.40
  -5  -1   2   35.18    1.23
  -5  -1   2   34.42    1.02
  -5  -1   2   35.77    1.37
   4   1  -2   21.51    0.98
  -4  -1   2   21.01    0.82
  -4  -1   2   20.09    0.73
  -4  -1   2   21.51    1.00
   3   1  -2   27.36    1.04
  -3  -1   2   28.31    1.14
  -3  -1   2   29.00    0.90
  -3  -1   2   27.44    0.93
   2   1  -2    2.08    0.29
   2   1  -2    2.52    0.24
  -2  -1   2    2.25    0.23
  -2  -1   2    2.54    0.34
  -2  -1   2    2.44    0.43
   1   1  -2  163.67    3.60
   1   1  -2  156.49    3.64
  -1  -1   2  155.37    3.59
  -1  -1   2  162.29    3.89
   0  -1   2   13.06    0.69
   0  -1   2   12.86    0.52
   0  -1   2   13.03    0.70
   1  -1   2    0.59    0.24
   1  -1   2    0.56    0.31
   1  -1   2    1.58    0.30
  -2   1  -2   21.80    0.76
   2  -1   2   20.07    0.88
   2  -1   2   21.65    0.79
   2  -1   2   20.81    0.91
  -3   1  -2  112.89    2.71
   3  -1   2  111.36    2.73
   3  -1   2  107.72    2.96
   3  -1   2  106.65    2.92
   4  -1   2  185.26    4.76
   4  -1   2  186.34    4.40
   4  -1   2  188.96    4.38
   4  -1   2  181.52    4.64
   5  -1   2   38.86    1.47
   5  -1   2   40.55    1.14
   5  -1   2   40.35    1.12
   5  -1   2   44.58    1.74
   6  -1   2    2.29    0.57
   6  -1   2    2.19    0.48
   7  -1   2    0.00    0.44
   8  -1   2    4.30    0.86
   9  -1   2    0.34    0.59
  10  -1   2    1.31    0.82
  10   0  -2    2.93    0.81
   9   0  -2    6.33    1.06
   8   0  -2    0.22    0.46
  -8   0   2    0.23    0.43
   7   0  -2   -0.52    0.37
  -7   0   2   -0.15    0.34
   6   0  -2    3.92    0.63
  -6   0   2    3.39    0.51
  -6   0   2    4.38    0.58
   5   0  -2   22.99    0.81
   5   0  -2   23.16    1.13
  -5   0   2   23.02    0.83
  -5   0   2   22.26    1.00
  -5   0   2   21.90    0.99
   4   0  -2   31.75    1.24
  -4   0   2   32.40    1.02
  -4   0   2   31.83    1.23
  -4   0   2   32.26    1.16
   3   0  -2    5.57    0.48
  -3   0   2    5.77    0.45
  -3   0   2    5.71    0.40
  -3   0   2    6.69    0.58
   2   0  -2    0.19    0.18
   2   0  -2   -0.05    0.17
  -2   0   2    0.04    0.20
  -2   0   2    0.42    0.28
  -2   0   2    0.40    0.19
   1   0  -2   45.70    1.15
   1   0  -2   48.19    1.24
  -1   0   2   49.37    1.24
  -1   0   2   45.97    1.34
  -1   0   2   44.88    1.40
   0   0  -2   46.81    1.36
   0   0  -2   46.66    1.09
   0   0  -2   47.98    1.25
   0   0   2   48.94    1.25
   0   0   2   46.45    1.08
   0   0   2   49.40    1.37
   0   0   2   46.10    1.36
  -1   0  -2  377.09    8.67
   1   0   2  371.63    8.30
   1   0   2  388.50    8.68
  -2   0  -2 1000.00   22.26
   2   0   2  989.84   22.23
   2   0   2  974.77   21.47
   3   0   2  292.54    6.78
   3   0   2  288.19    6.76
   4   0   2   47.86    1.69
   4   0   2   48.50    1.47
   5   0   2    5.48    0.51
   5   0   2    5.63    0.72
   6   0   2   14.92    1.09
   6   0   2   14.01    0.74
   7   0   2    2.74    0.70
   8   0   2    6.49    1.02
   9   0   2   10.01    1.32
  10   0   2    0.34    0.71
  10  -1  -2    1.92    0.83
   9  -1  -2    0.74    0.61
   8  -1  -2    6.78    0.97
   7  -1  -2    5.60    0.83
  -7   1   2    6.51    0.84
   6  -1  -2   25.50    1.34
   6  -1  -2   24.28    1.01
  -6   1   2   24.08    1.08
  -6   1   2   25.19    1.25
   5  -1  -2   12.47    0.87
   5  -1  -2   13.49    0.70
  -5   1   2   13.45    0.86
  -5   1   2   14.09    0.78
   4  -1  -2   53.67    1.59
   4  -1  -2   54.39    1.78
  -4   1   2   54.65    1.72
  -4   1   2   54.90    1.61
  -4   1   2   55.17    1.74
   3  -1  -2   15.63    0.76
  -3   1   2   16.38    0.71
  -3   1   2   16.58    0.77
  -3   1   2   14.81    0.78
   2  -1  -2    8.06    0.49
   2  -1  -2    8.41    0.54
  -2   1   2    8.56    0.52
  -2   1   2    8.58    0.57
  -2   1   2    8.54    0.52
   1  -1  -2    4.93    0.32
   1  -1  -2    4.71    0.36
  -1   1   2    4.91    0.43
  -1   1   2    4.64    0.41
  -1   1   2    5.08    0.37
   0  -1  -2   56.22    1.35
   0  -1  -2   56.98    1.36
   0  -1  -2   59.41    1.58
   0  -1  -2   61.99    1.50
   0   1   2   60.59    1.56
   0   1   2   56.41    1.35
   0   1   2   56.68    1.35
   0   1   2   55.35    1.47
   0   1   2   54.61    1.56
  -1  -1  -2   35.73    1.04
  -1  -1  -2   37.58    1.03
   1   1   2   36.29    1.00
   1   1   2   36.98    1.06
  -2  -1  -2  115.62    2.69
   2   1   2  112.89    2.76
   2   1   2  114.39    2.67
   2   1   2  110.77    2.79
   3   1   2   19.48    0.69
   3   1   2   18.99    0.86
   4   1   2    1.65    0.24
   4   1   2    1.25    0.37
   5   1   2    3.98    0.33
   5   1   2    3.54    0.57
   6   1   2    3.24    0.62
   7   1   2   38.79    1.86
   8   1   2    0.94    0.61
   9   1   2    1.23    0.67
  10   1   2    3.90    0.95
  10  -2  -2   11.16    1.47
   9  -2  -2   -0.09    0.52
   8  -2  -2   -0.35    0.46
   7  -2  -2    6.76    0.95
  -7   2   2    5.94    0.84
   6  -2  -2    0.67    0.33
   6  -2  -2    0.78    0.43
  -6   2   2    0.29    0.40
  -6   2   2    0.69    0.33
   5  -2  -2   59.65    2.10
   5  -2  -2   59.59    1.89
  -5   2   2   59.70    2.05
  -5   2   2   57.84    1.90
   4  -2  -2   32.38    1.34
  -4   2   2   33.83    1.33
  -4   2   2   30.81    1.23
   3  -2  -2   95.19    2.60
   3  -2  -2   92.82    2.52
  -3   2   2   91.64    2.53
  -3   2   2   92.08    2.61
  -3   2   2   94.48    2.57
   2  -2  -2    9.39    0.60
  -2   2   2    8.28    0.64
  -2   2   2    9.93    0.61
  -2   2   2    8.45    0.60
   1  -2  -2  675.14   15.09
   1  -2  -2  696.54   15.10
  -1   2   2  704.34   15.11
  -1   2   2  691.56   15.63
  -1   2   2  689.16   15.83
   0  -2  -2  416.90    9.09
   0  -2  -2  402.89    9.08
   0   2   2  414.22    9.55
   0   2   2  401.18    9.08
   0   2   2  427.87    9.45
  -1  -2  -2    7.39    0.42
   1   2   2    8.01    0.46
   1   2   2    7.41    0.44
   1   2   2    8.18    0.49
   1   2   2    8.27    0.43
  -2  -2  -2    1.96    0.27
  -2  -2  -2    1.82    0.26
  -2  -2  -2    1.59    0.24
   2   2   2    1.58    0.30
   2   2   2    1.57    0.25
  -3  -2  -2   22.49    0.76
  -3  -2  -2   24.04    0.75
   3   2   2   23.35    0.97
   3   2   2   23.55    0.73
  -4  -2  -2   63.40    1.62
  -4  -2  -2   61.31    1.58
   4   2   2   62.38    1.52
   4   2   2   64.22    2.02
   5   2   2    0.34    0.32
   6   2   2   52.39    2.03
   7   2   2    0.36    0.45
   8   2   2    7.03    1.01
   9   2   2   11.15    1.31
  10   2   2    1.07    0.64
   9  -3  -2    0.55    0.61
   8  -3  -2    6.75    1.08
   7  -3  -2    3.65    0.78
   6  -3  -2    2.45    0.53
   6  -3  -2    2.32    0.62
  -6   3   2    2.32    0.50
  -6   3   2    2.55    0.59
   5  -3  -2   13.23    0.88
   5  -3  -2   13.93    1.03
  -5   3   2   13.30    1.00
  -5   3   2   14.58    0.89
   4  -3  -2   53.13    1.95
   4  -3  -2   54.66    1.84
  -4   3   2   54.97    1.84
  -4   3   2   54.69    1.91
   3  -3  -2   14.72    0.85
   3  -3  -2   13.87    0.87
  -3   3   2   14.50    0.84
  -3   3   2   16.14    0.85
   2  -3  -2    7.41    0.65
   2  -3  -2    6.17    0.59
  -2   3   2    6.91    0.57
  -2   3   2    6.65    0.63
   1  -3  -2   68.53    1.95
   1  -3  -2   68.37    1.90
   1  -3  -2   66.10    1.97
  -1   3   2   69.08    1.99
  -1   3   2   66.20    2.02
  -1   3   2   67.23    1.90
   0  -3  -2    0.04    0.27
   0  -3  -2    0.65    0.23
   0  -3  -2    0.34    0.28
   0   3   2    0.67    0.31
   0   3   2    0.63    0.23
   0   3   2    0.62    0.29
  -1  -3  -2    3.56    0.43
  -1  -3  -2    3.46    0.32
  -1  -3  -2    2.76    0.38
  -1  -3  -2    3.36    0.40
   1   3   2    3.44    0.45
   1   3   2    4.00    0.35
   1   3   2    3.47    0.40
   1   3   2    2.78    0.37
  -2  -3  -2    5.10    0.45
  -2  -3  -2    5.00    0.37
  -2  -3  -2    6.35    0.44
   2   3   2    3.03    0.34
   2   3   2    5.05    0.50
   2   3   2    4.65    0.37
  -3  -3  -2  123.66    3.22
  -3  -3  -2  131.28    3.07
  -3  -3  -2  125.45    3.03
   3   3   2  126.07    3.32
   3   3   2  123.63    3.06
  -4  -3  -2   40.00    1.29
  -4  -3  -2   40.88    1.11
   4   3   2   41.07    1.56
  -5  -3  -2   27.55    0.99
   5   3   2   26.76    1.30
   6   3   2    0.37    0.37
   7   3   2   18.96    1.31
   8   3   2    1.51    0.61
   9   3   2    7.85    1.14
  10   3   2   11.46    1.41
   9  -4  -2    0.80    0.72
   8  -4  -2   -0.23    0.56
   7  -4  -2    2.70    0.77
   7  -4  -2    2.09    0.59
   6  -4  -2    0.13    0.45
   6  -4  -2    0.65    0.40
   6  -4  -2    0.30    0.38
   5  -4  -2   18.38    1.16
   5  -4  -2   20.49    1.32
  -5   4   2   17.26    1.19
  -5   4   2   18.01    1.10
   4  -4  -2    0.40    0.36
   4  -4  -2    0.36    0.31
   4  -4  -2    0.27    0.37
  -4   4   2   -0.14    0.32
  -4   4   2   -0.29    0.32
   3  -4  -2   15.36    1.00
   3  -4  -2   17.12    1.04
   3  -4  -2   17.34    0.98
  -3   4   2   15.00    0.94
  -3   4   2   17.59    0.99
   2  -4  -2    5.86    0.66
   2  -4  -2    7.21    0.73
   2  -4  -2    7.01    0.73
  -2   4   2    7.13    0.75
  -2   4   2    6.84    0.67
   1  -4  -2   83.11    2.51
   1  -4  -2   84.16    2.42
   1  -4  -2   82.51    2.45
  -1   4   2   80.94    2.30
  -1   4   2   79.95    2.50
   0  -4  -2   83.69    2.54
   0  -4  -2   89.08    2.30
   0  -4  -2   86.15    2.48
   0  -4  -2   87.89    2.47
   0   4   2   83.76    2.28
  -1  -4  -2    9.51    0.71
  -1  -4  -2   11.30    0.69
  -1  -4  -2   11.71    0.56
  -1  -4  -2   12.34    0.79
   1   4   2    9.52    0.53
   1   4   2   10.19    0.70
  -2  -4  -2   17.66    0.82
  -2  -4  -2   17.46    0.67
  -2  -4  -2   17.76    0.93
  -2  -4  -2   17.62    0.91
   2   4   2   18.14    0.69
   2   4   2   17.65    0.90
  -3  -4  -2    0.23    0.15
  -3  -4  -2    0.21    0.21
  -3  -4  -2    0.28    0.25
   3   4   2    0.69    0.33
  -4  -4  -2   21.08    0.78
  -4  -4  -2   22.47    0.82
  -4  -4  -2   20.81    0.97
   4   4   2   20.87    1.11
  -5  -4  -2    5.37    0.39
  -5  -4  -2    6.22    0.47
  -5  -4  -2    6.50    0.61
   5   4   2    4.41    0.63
  -6  -4  -2    2.97    0.49
   6   4   2    1.36    0.54
   7   4   2   -0.13    0.37
   8   4   2    5.48    0.91
   9   4   2   18.52    1.55
  10   4   2    0.35    0.65
   8  -5  -2    0.45    0.71
   7  -5  -2    0.86    0.61
   7  -5  -2    1.06    0.66
   6  -5  -2    3.18    0.74
   6  -5  -2    2.74    0.77
   6  -5  -2    3.88    0.68
   5  -5  -2   15.11    1.09
   5  -5  -2   16.32    1.30
   5  -5  -2   13.82    1.15
  -5   5   2   11.85    1.13
   4  -5  -2   -0.36    0.34
   4  -5  -2   -0.40    0.29
   4  -5  -2   -0.36    0.40
  -4   5   2   -0.43    0.30
   3  -5  -2   18.13    1.16
   3  -5  -2   20.53    1.21
   3  -5  -2   18.51    1.10
  -3   5   2   17.63    1.09
   2  -5  -2   23.49    1.25
   2  -5  -2   24.35    1.24
   2  -5  -2   23.31    1.26
  -2   5   2   24.34    1.15
   1  -5  -2   34.17    1.44
   1  -5  -2   32.82    1.46
   1  -5  -2   30.38    1.41
  -1   5   2   31.83    1.26
   0  -5  -2   13.52    0.91
   0  -5  -2   13.04    0.93
   0  -5  -2   12.15    0.87
   0   5   2   13.74    0.74
  -1  -5  -2    0.06    0.18
  -1  -5  -2    0.36    0.34
  -1  -5  -2   -0.01    0.31
  -1  -5  -2   -0.06    0.33
   1   5   2    0.11    0.18
   1   5   2   -0.03    0.28
  -2  -5  -2    0.24    0.18
  -2  -5  -2    0.33    0.27
  -2  -5  -2    0.58    0.33
  -2  -5  -2    0.52    0.36
   2   5   2    0.78    0.21
   2   5   2    0.54    0.30
  -3  -5  -2   76.08    2.00
  -3  -5  -2   80.43    2.56
  -3  -5  -2   80.07    2.50
  -3  -5  -2   79.74    2.31
   3   5   2   82.84    2.53
  -4  -5  -2    0.71    0.20
  -4  -5  -2    1.84    0.42
  -4  -5  -2    0.60    0.30
   4   5   2    1.54    0.45
  -5  -5  -2   -0.21    0.25
  -5  -5  -2    0.34    0.36
   5   5   2   -0.30    0.36
  -6  -5  -2    2.21    0.51
   6   5   2    1.47    0.55
   7   5   2   -0.06    0.47
   8   5   2   -0.12    0.52
   9   5   2    0.41    0.57
  10   5   2   29.83    2.05
   8  -6  -2   -0.08    0.62
   7  -6  -2    5.56    1.02
   7  -6  -2    5.88    1.12
   6  -6  -2   -0.04    0.57
   6  -6  -2   -0.51    0.45
   6  -6  -2   -0.54    0.26
   5  -6  -2   17.65    1.30
   5  -6  -2   14.99    1.46
   5  -6  -2   15.75    1.31
   4  -6  -2    3.90    0.81
   4  -6  -2    3.82    0.78
   4  -6  -2    4.99    0.79
  -4   6   2    5.21    0.80
   3  -6  -2   15.96    1.21
   3  -6  -2   15.53    1.22
   3  -6  -2   15.12    1.16
  -3   6   2   13.37    1.03
   2  -6  -2    8.26    0.94
   2  -6  -2    9.10    1.00
   2  -6  -2    7.16    0.86
  -2   6   2    9.62    0.90
   1  -6  -2    0.04    0.42
   1  -6  -2    0.44    0.43
   1  -6  -2    0.23    0.42
  -1   6   2    0.47    0.35
   0  -6  -2    1.88    0.53
   0  -6  -2    2.52    0.57
   0  -6  -2    3.30    0.65
   0   6   2    2.36    0.41
  -1  -6  -2   16.17    1.04
  -1  -6  -2   15.93    1.07
  -1  -6  -2   16.85    1.09
   1   6   2   14.82    0.77
  -2  -6  -2   17.03    1.14
  -2  -6  -2   18.89    1.08
  -2  -6  -2   19.12    1.18
   2   6   2   15.27    1.06
   2   6   2   18.01    0.76
  -3  -6  -2    0.89    0.23
  -3  -6  -2    0.75    0.38
  -3  -6  -2    1.27    0.47
  -3  -6  -2    0.57    0.40
   3   6   2    0.95    0.40
   3   6   2    1.30    0.24
  -4  -6  -2   27.42    1.41
  -4  -6  -2   26.97    1.49
  -4  -6  -2   25.20    1.18
   4   6   2   28.57    1.45
  -5  -6  -2    0.44    0.42
   5   6   2    0.16    0.40
  -6  -6  -2    3.52    0.68
   6   6   2    3.39    0.73
   7   6   2    6.59    0.99
   8   6   2   -0.57    0.47
   9   6   2   13.12    1.49
   7  -7  -2   -0.66    0.61
   7  -7  -2    0.08    0.72
   6  -7  -2    4.73    1.01
   6  -7  -2    5.06    1.08
   5  -7  -2   15.40    1.28
   5  -7  -2   19.20    1.55
   5  -7  -2   13.86    1.47
   4  -7  -2    2.40    0.78
   4  -7  -2    3.19    0.78
   4  -7  -2    2.99    0.74
   3  -7  -2    1.20    0.63
   3  -7  -2    0.39    0.50
   3  -7  -2    0.17    0.57
  -3   7   2    0.41    0.46
   2  -7  -2    1.16    0.63
   2  -7  -2    2.09    0.66
   2  -7  -2    1.90    0.69
  -2   7   2    1.68    0.49
   1  -7  -2   -0.60    0.37
   1  -7  -2    0.46    0.48
   1  -7  -2   -0.11    0.48
  -1   7   2    0.37    0.34
   0  -7  -2    2.05    0.62
   0  -7  -2    3.28    0.68
   0  -7  -2    2.66    0.63
   0   7   2    3.15    0.50
  -1  -7  -2    8.01    0.93
  -1  -7  -2    8.12    1.00
  -1  -7  -2    6.77    0.88
   1   7   2    6.66    0.63
  -2  -7  -2    0.17    0.42
  -2  -7  -2   -0.37    0.38
  -2  -7  -2    0.07    0.43
   2   7   2   -0.22    0.36
   2   7   2    0.00    0.20
  -3  -7  -2    5.18    0.82
  -3  -7  -2    5.08    0.77
  -3  -7  -2    6.34    0.79
   3   7   2    5.14    0.74
  -4  -7  -2    0.22    0.41
  -4  -7  -2    0.07    0.47
  -4  -7  -2    0.37    0.49
   4   7   2    0.30    0.40
  -5  -7  -2   13.77    1.21
  -5  -7  -2   12.37    1.28
   5   7   2   13.52    1.14
  -6  -7  -2   17.37    1.32
   6   7   2   14.15    1.39
   7   7   2    0.27    0.51
   8   7   2    3.24    0.91
   9   7   2    3.10    0.95
   6  -8  -2    1.87    0.88
   6  -8  -2    0.97    0.88
   5  -8  -2    0.73    0.75
   5  -8  -2   -0.98    0.64
   5  -8  -2   -0.24    0.49
   4  -8  -2   -0.02    0.50
   4  -8  -2   -0.56    0.58
   4  -8  -2   -0.09    0.63
   3  -8  -2   25.87    1.75
   3  -8  -2   25.43    1.76
   3  -8  -2   25.16    1.79
   2  -8  -2    2.16    0.72
   2  -8  -2    1.20    0.71
   2  -8  -2    1.30    0.68
  -2   8   2    1.95    0.58
   1  -8  -2   -0.68    0.44
   1  -8  -2   -0.38    0.55
   1  -8  -2    0.34    0.57
  -1   8   2   -0.07    0.30
   0  -8  -2    6.98    1.03
   0  -8  -2    5.58    0.92
   0  -8  -2    5.35    0.90
   0   8   2    6.19    0.71
  -1  -8  -2    1.41    0.62
  -1  -8  -2    1.46    0.63
  -1  -8  -2    0.88    0.60
  -2  -8  -2   -0.19    0.47
  -2  -8  -2   -0.35    0.51
  -2  -8  -2   -0.06    0.52
  -3  -8  -2    0.36    0.47
  -3  -8  -2   -0.92    0.44
  -3  -8  -2    0.36    0.56
   3   8   2    0.71    0.49
  -4  -8  -2   37.15    1.80
  -4  -8  -2   39.25    2.02
   4   8   2   39.31    1.96
  -5  -8  -2   -0.28    0.55
  -5  -8  -2    0.75    0.61
   5   8   2    0.47    0.48
  -6  -8  -2   10.09    1.22
  -6  -8  -2   11.01    1.33
   6   8   2   11.64    1.35
  -7  -8  -2    0.41    0.66
   7   8   2    2.51    0.76
  -8  -8  -2    1.71    0.83
   8   8   2    2.07    0.79
   5  -9  -2    0.40    0.79
   5  -9  -2   -0.10    0.77
   5  -9  -2    0.09    0.64
   4  -9  -2    2.60    1.05
   4  -9  -2    2.47    0.91
   4  -9  -2    1.44    0.78
   3  -9  -2    3.14    1.00
   3  -9  -2    3.48    0.93
   3  -9  -2    3.72    0.99
   2  -9  -2    6.34    1.13
   2  -9  -2    7.03    1.14
   2  -9  -2    8.68    1.28
   1  -9  -2    1.02    0.69
   1  -9  -2    1.48    0.76
   1  -9  -2    1.03    0.72
   0  -9  -2    1.12    0.73
   0  -9  -2    0.46    0.62
   0  -9  -2    1.37    0.76
  -1  -9  -2    0.10    0.56
  -1  -9  -2    0.24    0.62
  -1  -9  -2    0.32    0.61
  -2  -9  -2   -0.04    0.57
  -2  -9  -2    0.29    0.55
  -2  -9  -2    0.17    0.58
  -3  -9  -2    6.03    1.07
  -3  -9  -2    7.18    1.08
  -3  -9  -2    8.13    1.12
  -4  -9  -2    4.21    0.93
  -4  -9  -2    3.23    0.89
  -4  -9  -2    3.01    0.74
   4   9   2    2.44    0.75
  -5  -9  -2    1.33    0.80
  -5  -9  -2    1.96    0.75
   5   9   2    2.53    0.77
  -6  -9  -2    3.55    0.92
  -6  -9  -2    3.29    0.96
   6   9   2    4.10    0.91
  -7  -9  -2   -0.11    0.65
   7   9   2    1.35    0.73
   3 -10  -2    3.83    1.14
   3 -10  -2    3.13    1.03
   3 -10  -2    1.70    0.90
   2 -10  -2    2.08    0.86
   2 -10  -2    2.33    0.92
   2 -10  -2    2.57    1.07
   1 -10  -2    1.13    0.90
   1 -10  -2   -0.51    0.71
   1 -10  -2    0.82    0.78
   0 -10  -2    2.11    0.90
   0 -10  -2    1.43    0.83
   0 -10  -2    2.65    0.92
  -1 -10  -2   -0.32    0.76
  -1 -10  -2    0.62    0.76
  -1 -10  -2    2.61    0.97
  -2 -10  -2    1.21    0.82
  -2 -10  -2    0.53    0.74
  -2 -10  -2    1.61    0.78
  -3 -10  -2    3.98    1.02
  -3 -10  -2    5.66    1.11
  -3 -10  -2    6.94    1.14
  -4 -10  -2    8.86    1.33
  -4 -10  -2    9.23    1.29
  -5 -10  -2    0.33    0.77
  -5 -10  -2   -0.29    0.64
   5  10   2    0.21    0.49
  -6 -10  -2    1.25    0.87
  -6 -10  -2    0.57    0.91
   6  10   2    1.52    0.79
   1 -11  -2    0.98    0.93
   1 -11  -2   -0.35    0.92
   0 -11  -2   -0.23    0.86
   0 -11  -2   -0.01    0.80
  -1 -11  -2    2.31    0.94
  -1 -11  -2    1.61    1.07
  -1 -11  -2    1.58    0.89
  -2 -11  -2    0.03    0.83
  -2 -11  -2    0.73    0.78
  -2 -11  -2   -0.68    0.81
  -3 -11  -2    1.39    0.84
  -3 -11  -2    1.95    0.97
  -3 -11  -2    0.59    0.90
  -4 -11  -2    1.23    0.94
  -4 -11  -2    0.81    1.01
  -3 -10   3    1.85    1.02
  -3 -10   3    0.51    0.76
  -2 -10   3    7.85    1.30
  -2 -10   3    3.70    1.20
  -1 -10   3    1.65    0.87
  -1 -10   3    0.33    0.96
   0 -10   3    0.34    0.79
   0 -10   3    0.36    1.09
  -5  -9   3    1.67    0.85
  -5  -9   3    0.55    1.00
  -4  -9   3   -0.28    0.70
  -4  -9   3   -0.30    0.92
  -3  -9   3    1.57    1.16
  -3  -9   3    2.31    0.97
  -3  -9   3    2.60    0.87
  -2  -9   3    0.58    0.86
  -2  -9   3    2.13    1.14
  -2  -9   3    0.07    0.67
  -1  -9   3   -0.61    0.81
  -1  -9   3    1.55    0.80
  -1  -9   3    0.24    0.87
   0  -9   3    1.61    0.81
   0  -9   3    0.86    0.98
   0  -9   3    0.30    0.91
   1  -9   3   10.84    1.56
   1  -9   3   10.65    1.57
   1  -9   3   13.31    1.52
   2  -9   3   21.99    2.07
   2  -9   3   22.54    2.19
   2  -9   3   24.73    1.98
   3  -9   3    0.27    0.89
   3  -9   3    0.99    1.19
   3  -9   3    0.66    0.79
   7   8  -3   -0.30    0.54
  -7  -8   3    0.18    0.74
  -7  -8   3    1.09    0.80
   6   8  -3    4.50    0.95
  -6  -8   3    5.15    1.04
  -6  -8   3    3.86    1.11
   5   8  -3   -0.12    0.48
  -5  -8   3   -0.25    0.54
  -5  -8   3    0.16    0.82
  -4  -8   3    6.31    1.05
  -4  -8   3    6.52    1.28
  -4  -8   3    6.71    1.10
  -3  -8   3    5.76    1.06
  -3  -8   3    4.96    1.20
  -3  -8   3    5.28    0.98
  -2  -8   3    3.29    1.00
  -2  -8   3    1.36    0.82
  -2  -8   3    1.98    0.74
  -1  -8   3   -0.02    0.76
  -1  -8   3    0.70    0.82
  -1  -8   3    1.19    0.67
   0  -8   3    0.61    0.80
   0  -8   3    2.46    0.77
   0  -8   3    2.45    0.97
   1  -8   3   10.46    1.45
   1  -8   3    9.78    1.49
   1  -8   3   10.73    1.35
   2  -8   3   11.45    1.33
   2  -8   3   11.85    1.46
   2  -8   3   10.91    1.51
   3  -8   3    1.41    1.07
   3  -8   3    1.76    0.83
   3  -8   3    2.45    0.85
   4  -8   3    1.06    0.81
   4  -8   3    0.67    1.03
   4  -8   3    1.67    0.86
   5  -8   3    6.10    1.25
   5  -8   3    4.69    1.35
   8   7  -3    0.66    0.60
  -8  -7   3    0.50    0.78
   7   7  -3   -0.13    0.54
  -7  -7   3    1.10    0.70
  -7  -7   3    0.28    0.67
   6   7  -3    1.29    0.56
  -6  -7   3    0.33    0.73
  -6  -7   3    1.35    0.71
   5   7  -3   32.49    1.77
  -5  -7   3   35.00    2.13
  -5  -7   3   31.38    1.83
   4   7  -3    0.91    0.52
  -4  -7   3   -0.22    0.55
  -4  -7   3   -0.17    0.73
  -4  -7   3    0.14    0.59
  -3  -7   3    6.37    1.04
  -3  -7   3    5.05    1.06
  -3  -7   3    7.47    1.03
  -2  -7   3    1.79    0.66
  -2  -7   3    1.72    0.83
  -2  -7   3    0.84    0.70
  -1  -7   3   -0.63    0.62
  -1  -7   3   -0.17    0.71
  -1  -7   3   -0.12    0.51
   0  -7   3    1.06    0.78
   0  -7   3    1.18    0.67
   0  -7   3    1.23    0.75
   1  -7   3    3.80    0.90
   1  -7   3    1.80    0.91
   1  -7   3    5.02    0.94
   2  -7   3    7.01    1.09
   2  -7   3    7.47    1.24
   2  -7   3    8.70    1.16
   3  -7   3    0.20    0.60
   3  -7   3   -0.72    0.72
   3  -7   3    0.88    0.65
   4  -7   3    9.85    1.46
   4  -7   3   10.39    1.30
   4  -7   3   12.80    1.55
   5  -7   3   -0.55    0.66
   5  -7   3   -0.91    0.85
   6  -7   3    1.04    1.05
   6  -7   3    1.09    0.80
   8   6  -3   -0.19    0.51
   7   6  -3    1.80    0.66
  -7  -6   3    1.43    0.75
  -7  -6   3    1.79    0.77
   6   6  -3    5.02    0.89
  -6  -6   3    5.49    1.01
  -6  -6   3    4.28    0.89
   5   6  -3   -0.20    0.41
  -5  -6   3    0.55    0.66
  -5  -6   3    0.21    0.53
   4   6  -3    5.48    0.81
  -4  -6   3    5.72    0.86
  -4  -6   3    5.67    1.05
  -4  -6   3    7.03    0.88
   3   6  -3    2.92    0.61
  -3  -6   3    3.23    0.73
  -3  -6   3    4.15    0.75
  -3  -6   3    3.93    0.89
  -2  -6   3   21.66    1.51
  -2  -6   3   20.96    1.33
  -2  -6   3   19.56    1.52
  -1  -6   3   20.30    1.29
  -1  -6   3   21.29    1.52
  -1  -6   3   20.32    1.52
   0  -6   3    8.88    1.07
   0  -6   3   10.24    1.02
   0  -6   3    9.19    1.18
   1  -6   3    3.98    0.81
   1  -6   3    5.54    0.85
   1  -6   3    5.86    1.03
   2  -6   3   -0.90    0.42
   2  -6   3    0.51    0.54
   2  -6   3    0.57    0.74
   3  -6   3    9.80    1.31
   3  -6   3   10.45    1.16
   3  -6   3   12.87    1.29
   4  -6   3    1.18    0.69
   4  -6   3    0.66    0.78
   4  -6   3    1.05    0.60
   5  -6   3   13.11    1.50
   5  -6   3   11.49    1.41
   6  -6   3   -0.02    0.79
   6  -6   3    1.05    0.73
   7  -6   3    5.07    1.18
   7  -6   3    2.13    1.01
   9   5  -3    0.67    0.65
   8   5  -3    1.67    0.71
   7   5  -3    7.18    1.02
  -7  -5   3    9.88    1.22
   6   5  -3    1.68    0.58
  -6  -5   3    2.15    0.72
   5   5  -3    1.41    0.50
  -5  -5   3    2.14    0.74
  -5  -5   3    1.05    0.57
   4   5  -3   39.56    1.72
  -4  -5   3   40.74    1.72
  -4  -5   3   39.34    1.98
  -4  -5   3   41.47    1.80
   3   5  -3   15.05    0.99
  -3  -5   3   16.22    1.10
  -3  -5   3   15.23    1.13
  -3  -5   3   13.56    1.29
   2   5  -3   35.41    1.52
   2   5  -3   35.63    1.04
  -2  -5   3   35.82    1.68
  -2  -5   3   35.78    1.56
  -2  -5   3   35.51    1.77
  -1  -5   3   18.18    1.11
  -1  -5   3   17.41    1.27
  -1  -5   3   14.56    1.22
   0  -5   3    3.41    0.69
   0  -5   3    5.20    0.86
   0  -5   3    4.67    0.69
   1  -5   3    7.45    0.87
   1  -5   3    7.20    0.95
   1  -5   3    8.42    0.93
   2  -5   3   11.81    1.21
   2  -5   3   10.29    1.02
   2  -5   3   10.38    1.04
   3  -5   3    6.85    0.89
   3  -5   3    7.40    0.89
   3  -5   3    5.08    0.94
   4  -5   3    0.17    0.63
   4  -5   3    0.75    0.54
   4  -5   3    1.01    0.60
   5  -5   3   11.30    1.33
   5  -5   3   10.19    1.07
   5  -5   3   11.46    1.29
   6  -5   3    8.63    1.20
   6  -5   3   10.56    1.38
   7  -5   3   -0.12    0.63
   7  -5   3   -0.76    0.72
   8  -5   3    4.80    1.12
   9   4  -3   14.29    1.51
   8   4  -3    5.84    0.98
   7   4  -3    6.82    0.96
  -7  -4   3    8.76    1.07
   6   4  -3    6.03    0.85
  -6  -4   3    5.28    0.87
   5   4  -3    2.67    0.58
  -5  -4   3    0.75    0.58
  -5  -4   3    2.56    0.48
   4   4  -3   24.15    1.22
  -4  -4   3   23.71    1.26
  -4  -4   3   23.98    1.18
  -4  -4   3   22.70    1.47
   3   4  -3   38.63    1.52
  -3  -4   3   42.21    1.84
  -3  -4   3   41.12    1.58
  -3  -4   3   39.22    1.61
   2   4  -3   21.43    1.06
   2   4  -3   22.43    0.70
  -2  -4   3   21.55    1.18
  -2  -4   3   20.73    1.06
  -2  -4   3   22.56    1.32
  -1  -4   3    2.93    0.61
  -1  -4   3    2.80    0.50
  -1  -4   3    3.44    0.61
   0  -4   3   55.32    2.05
   0  -4   3   49.11    1.76
   0  -4   3   51.20    1.99
   1  -4   3   12.11    1.12
   1  -4   3   11.70    0.94
   1  -4   3   12.72    0.89
   2  -4   3   21.62    1.37
   2  -4   3   21.43    1.18
   2  -4   3   21.15    1.20
   3  -4   3    7.36    0.83
   3  -4   3    7.37    0.96
   3  -4   3    6.33    0.83
   4  -4   3   -0.19    0.57
   4  -4   3    0.23    0.49
   4  -4   3   -0.15    0.34
   5  -4   3    1.70    0.54
   5  -4   3    0.90    0.63
   5  -4   3    1.89    0.64
   6  -4   3    1.75    0.73
   6  -4   3    2.31    0.78
   7  -4   3    5.94    1.13
   7  -4   3    5.79    1.03
   8  -4   3    0.76    0.71
  10   3  -3    1.12    0.66
   9   3  -3    0.87    0.57
   8   3  -3    3.77    0.79
   7   3  -3    0.26    0.42
  -7  -3   3    0.03    0.45
   6   3  -3   18.39    1.16
  -6  -3   3   19.00    1.29
   5   3  -3   40.24    1.64
  -5  -3   3   42.92    1.83
  -5  -3   3   38.97    1.15
  -5  -3   3   39.78    1.41
   4   3  -3    7.48    0.73
  -4  -3   3    7.02    0.35
  -4  -3   3    7.35    0.67
  -4  -3   3    6.18    0.79
   3   3  -3    2.99    0.24
   3   3  -3    4.48    0.53
  -3  -3   3    3.58    0.53
  -3  -3   3    3.97    0.68
   2   3  -3    9.85    0.65
   2   3  -3    9.39    0.42
  -2  -3   3    9.57    0.69
  -2  -3   3   10.40    0.80
  -2  -3   3    8.10    0.84
  -1  -3   3   34.73    1.46
  -1  -3   3   36.40    1.28
  -1  -3   3   33.35    1.50
   0  -3   3   10.03    0.70
   0  -3   3    8.61    0.85
   0  -3   3    9.82    0.86
   1  -3   3  104.62    2.95
   1  -3   3  110.74    3.20
   2  -3   3   -0.39    0.40
   2  -3   3   -0.01    0.30
   2  -3   3   -0.09    0.31
   3  -3   3    8.03    0.88
   3  -3   3    8.93    0.86
   4  -3   3    6.77    0.85
   4  -3   3    6.88    0.70
   4  -3   3    7.38    0.87
   5  -3   3   35.57    1.77
   5  -3   3   35.57    1.73
   5  -3   3   35.78    1.45
   6  -3   3   34.94    1.88
   6  -3   3   32.40    1.75
   7  -3   3    2.08    0.72
   7  -3   3    1.42    0.60
   8  -3   3    8.53    1.33
   9  -3   3    1.50    0.80
  10   2  -3    0.48    0.62
   9   2  -3    8.44    1.15
   8   2  -3   10.92    1.22
   7   2  -3    0.73    0.44
  -7  -2   3    1.35    0.49
   6   2  -3    0.12    0.32
  -6  -2   3   -0.01    0.37
  -6  -2   3   -0.26    0.21
   5   2  -3   18.95    1.04
  -5  -2   3   18.57    0.81
  -5  -2   3   20.14    1.17
  -5  -2   3   18.09    0.79
   4   2  -3   22.98    1.03
  -4  -2   3   22.07    0.79
  -4  -2   3   22.99    0.97
  -4  -2   3   21.73    1.21
   3   2  -3    7.06    0.40
   3   2  -3    7.71    0.56
  -3  -2   3    7.53    0.64
  -3  -2   3    6.64    0.75
  -3  -2   3    6.86    0.39
   2   2  -3   59.31    1.72
   2   2  -3   62.87    1.56
  -2  -2   3   60.98    1.75
  -2  -2   3   62.03    1.92
  -2  -2   3   59.06    2.05
   1   2  -3   15.14    0.68
   1   2  -3   15.52    0.61
  -1  -2   3   14.69    0.94
  -1  -2   3   15.50    0.89
  -1  -2   3   15.59    0.71
   0  -2   3    7.39    0.70
   0  -2   3    8.26    0.74
   0  -2   3    7.09    0.53
   1  -2   3   43.54    1.55
   1  -2   3   40.50    1.58
   1  -2   3   43.46    1.41
   2  -2   3   99.67    2.76
   2  -2   3  100.17    2.89
   2  -2   3   95.45    2.72
   3  -2   3    4.11    0.50
   3  -2   3    3.45    0.57
   3  -2   3    2.76    0.52
   4  -2   3   20.43    1.14
   4  -2   3   18.81    1.14
   4  -2   3   18.94    0.90
   5  -2   3   20.89    1.29
   5  -2   3   23.40    1.27
   5  -2   3   22.77    0.99
   6  -2   3    5.45    0.88
   6  -2   3    5.84    0.80
   7  -2   3   -0.89    0.36
   8  -2   3    9.64    1.27
   9  -2   3    2.86    0.89
  10   1  -3    3.81    0.93
   9   1  -3    6.18    1.03
   8   1  -3   -0.12    0.42
   7   1  -3    2.21    0.62
  -7  -1   3    3.05    0.53
  -7  -1   3    3.42    0.62
   6   1  -3   33.60    1.55
  -6  -1   3   34.07    1.50
  -6  -1   3   33.46    1.32
   5   1  -3   79.37    2.46
  -5  -1   3   84.71    2.56
  -5  -1   3   80.78    2.25
  -5  -1   3   74.13    2.12
   4   1  -3   75.56    2.22
  -4  -1   3   76.62    2.05
  -4  -1   3   78.21    2.41
  -4  -1   3   72.63    2.08
   3   1  -3   39.07    1.27
   3   1  -3   37.51    1.16
  -3  -1   3   38.46    1.30
  -3  -1   3   37.32    1.48
  -3  -1   3   38.04    1.15
   2   1  -3   69.81    1.84
   2   1  -3   70.11    1.80
  -2  -1   3   71.71    1.81
  -2  -1   3   71.60    2.05
  -2  -1   3   69.28    2.20
   1   1  -3   19.42    0.66
   1   1  -3   18.72    0.68
  -1  -1   3   19.22    0.99
  -1  -1   3   19.18    0.71
  -1  -1   3   19.89    0.93
  -1  -1   3   20.38    0.67
   0  -1   3    7.17    0.66
   0  -1   3    6.79    0.42
   0  -1   3    7.07    0.63
   1  -1   3    0.00    0.30
   1  -1   3    0.35    0.22
   1  -1   3   -0.05    0.33
   2  -1   3    7.15    0.56
   2  -1   3    7.08    0.66
   2  -1   3    6.39    0.55
   3  -1   3   46.78    1.61
   3  -1   3   47.87    1.44
   3  -1   3   47.58    1.65
   4  -1   3   11.83    0.59
   4  -1   3   11.70    0.83
   5  -1   3   27.10    1.35
   5  -1   3   25.74    1.20
   5  -1   3   24.27    0.83
   6  -1   3  104.95    3.32
   6  -1   3   98.55    2.98
   7  -1   3    3.45    0.78
   8  -1   3   19.03    1.52
   9  -1   3    1.69    0.75
  10  -1   3   10.27    1.50
  10   0  -3    1.65    0.78
   9   0  -3    4.53    0.87
   8   0  -3   12.52    1.20
  -8   0   3    9.90    0.99
   7   0  -3    0.20    0.41
  -7   0   3    0.05    0.34
   6   0  -3   47.77    1.87
  -6   0   3   46.58    1.75
  -6   0   3   44.31    1.67
   5   0  -3   17.34    0.98
  -5   0   3   18.30    0.91
  -5   0   3   17.91    0.79
  -5   0   3   16.96    1.01
   4   0  -3    0.36    0.24
  -4   0   3    0.23    0.31
  -4   0   3   -0.07    0.20
  -4   0   3    0.40    0.23
   3   0  -3   -0.01    0.19
   3   0  -3    0.10    0.20
  -3   0   3    0.00    0.20
  -3   0   3    0.13    0.31
  -3   0   3   -0.02    0.21
   2   0  -3  187.49    4.31
   2   0  -3  180.54    4.23
  -2   0   3  176.09    4.49
  -2   0   3  189.04    4.70
  -2   0   3  193.06    4.32
   1   0  -3    8.67    0.49
   1   0  -3    8.95    0.33
  -1   0   3    8.21    0.65
  -1   0   3    7.87    0.62
  -1   0   3    8.36    0.47
  -1   0   3    8.21    0.37
   0   0  -3   32.53    1.01
   0   0  -3   31.62    0.79
   0   0   3   30.41    0.78
   0   0   3   32.29    1.15
   0   0   3   31.44    1.13
   0   0   3   32.76    1.02
   1   0   3   24.90    0.78
   1   0   3   24.59    1.01
   1   0   3   25.21    0.93
  -2   0  -3   30.93    1.00
   2   0   3   31.78    1.16
   2   0   3   30.47    1.00
   2   0   3   30.81    1.05
  -3   0  -3   39.76    1.07
   3   0   3   36.15    1.07
   3   0   3   36.70    1.32
   4   0   3    1.12    0.36
   4   0   3    0.93    0.33
   5   0   3  103.72    3.15
   5   0   3  107.07    2.90
   6   0   3   24.04    1.08
   6   0   3   26.12    1.42
   7   0   3   74.79    2.79
   8   0   3    4.65    0.90
   9   0   3    3.84    0.91
  10   0   3    0.00    0.63
  10  -1  -3    6.81    1.14
   9  -1  -3   15.48    1.52
   8  -1  -3    3.69    0.81
   7  -1  -3    0.02    0.40
  -7   1   3    0.28    0.38
   6  -1  -3   -0.01    0.24
   6  -1  -3    0.02    0.36
  -6   1   3    0.05    0.31
  -6   1   3   -0.22    0.31
   5  -1  -3    0.48    0.34
  -5   1   3    0.36    0.30
  -5   1   3    0.34    0.27
  -5   1   3   -0.03    0.30
   4  -1  -3    8.02    0.64
  -4   1   3    8.42    0.60
  -4   1   3    8.53    0.66
  -4   1   3    7.47    0.70
   3  -1  -3    0.29    0.26
   3  -1  -3    0.90    0.26
  -3   1   3    0.54    0.27
  -3   1   3    0.49    0.27
  -3   1   3    0.57    0.32
   2  -1  -3    7.62    0.53
   2  -1  -3    6.72    0.44
  -2   1   3    6.30    0.52
  -2   1   3    6.97    0.61
  -2   1   3    7.87    0.53
   1  -1  -3   94.56    2.35
   1  -1  -3   88.32    2.14
  -1   1   3   95.84    2.48
  -1   1   3   91.62    2.55
  -1   1   3   95.40    2.35
   0  -1  -3    1.09    0.12
   0  -1  -3    1.04    0.26
   0  -1  -3    0.95    0.13
   0   1   3    0.97    0.12
   0   1   3    0.71    0.29
   0   1   3    0.77    0.30
   0   1   3    0.77    0.23
  -1  -1  -3   17.71    0.73
   1   1   3   20.93    0.85
   1   1   3   19.83    0.76
   1   1   3   18.56    0.63
  -2  -1  -3   22.87    0.76
   2   1   3   23.30    0.76
   2   1   3   18.37    0.80
   2   1   3   23.30    0.84
  -3  -1  -3   27.20    0.82
   3   1   3   29.18    0.80
   3   1   3   29.18    1.11
   3   1   3   29.26    1.03
   4   1   3  163.44    3.99
   4   1   3  160.72    4.19
   5   1   3   70.37    1.95
   5   1   3   69.90    2.33
   6   1   3   -0.19    0.33
   7   1   3    1.24    0.53
   8   1   3   21.72    1.53
   9   1   3    0.43    0.60
  10   1   3    0.53    0.70
   9  -2  -3    4.08    0.90
   8  -2  -3    0.99    0.55
   7  -2  -3    6.42    0.91
  -7   2   3    5.40    0.78
   6  -2  -3    0.35    0.38
   6  -2  -3    0.48    0.30
  -6   2   3   -0.15    0.30
  -6   2   3    0.11    0.34
   5  -2  -3    1.67    0.45
   5  -2  -3    1.59    0.38
  -5   2   3    0.76    0.37
  -5   2   3    1.49    0.41
   4  -2  -3    3.88    0.53
  -4   2   3    4.42    0.59
  -4   2   3    3.66    0.49
  -4   2   3    4.47    0.54
   3  -2  -3    0.47    0.28
  -3   2   3    0.52    0.29
  -3   2   3    0.44    0.28
  -3   2   3    0.55    0.32
   2  -2  -3    6.33    0.58
   2  -2  -3    6.41    0.49
  -2   2   3    7.07    0.57
  -2   2   3    6.78    0.66
  -2   2   3    6.63    0.58
   1  -2  -3   82.02    2.17
   1  -2  -3   90.84    2.32
  -1   2   3   85.50    2.47
  -1   2   3   92.04    2.34
  -1   2   3   91.28    2.42
   0  -2  -3   80.44    1.97
   0  -2  -3   78.19    2.09
   0   2   3   79.15    2.08
   0   2   3   78.58    2.22
   0   2   3   83.54    2.19
  -1  -2  -3   25.09    0.90
   1   2   3   27.24    0.96
   1   2   3   24.56    0.84
   1   2   3   25.97    0.95
   1   2   3   25.43    0.90
  -2  -2  -3    9.98    0.55
   2   2   3    9.94    0.57
   2   2   3    9.51    0.52
  -3  -2  -3   23.61    0.79
   3   2   3   23.53    1.00
   3   2   3   24.00    0.79
   3   2   3   22.45    0.84
  -4  -2  -3    5.09    0.31
  -4  -2  -3    5.59    0.31
   4   2   3    5.61    0.40
   4   2   3    6.36    0.67
   5   2   3   -0.04    0.26
   5   2   3    0.17    0.15
   6   2   3    5.46    0.76
   7   2   3   14.46    1.17
   8   2   3    8.41    1.13
   9   2   3    0.34    0.61
  10   2   3    4.79    1.06
   9  -3  -3    0.36    0.62
   8  -3  -3    4.56    0.90
   7  -3  -3    1.97    0.66
   6  -3  -3    5.39    0.68
   6  -3  -3    5.49    0.80
  -6   3   3    6.26    0.74
  -6   3   3    5.17    0.79
   5  -3  -3   12.89    0.87
   5  -3  -3   13.61    1.01
  -5   3   3   12.09    0.92
  -5   3   3   12.24    0.95
   4  -3  -3   15.56    0.92
   4  -3  -3   17.14    0.99
  -4   3   3   16.50    0.99
  -4   3   3   16.83    0.96
   3  -3  -3   18.96    0.96
   3  -3  -3   18.07    0.95
  -3   3   3   17.56    0.97
  -3   3   3   19.50    0.99
  -3   3   3   19.69    1.00
   2  -3  -3    0.24    0.27
   2  -3  -3   -0.01    0.26
  -2   3   3   -0.08    0.28
  -2   3   3    0.74    0.32
  -2   3   3    0.00    0.24
   1  -3  -3  260.76    6.07
   1  -3  -3  258.23    6.05
  -1   3   3  268.14    6.32
  -1   3   3  261.79    6.08
  -1   3   3  253.69    6.39
   0  -3  -3    1.49    0.31
   0  -3  -3    1.57    0.32
   0   3   3    1.14    0.29
   0   3   3    2.01    0.41
   0   3   3    1.07    0.37
  -1  -3  -3   83.98    2.22
  -1  -3  -3   85.89    2.28
   1   3   3   85.55    2.23
   1   3   3   85.14    2.40
   1   3   3   87.64    2.28
   1   3   3   87.69    2.36
  -2  -3  -3   15.83    0.69
   2   3   3   14.85    0.75
   2   3   3   15.89    0.71
   2   3   3   16.30    0.78
  -3  -3  -3   31.34    1.09
  -3  -3  -3   32.05    1.08
   3   3   3   31.94    1.05
   3   3   3   30.19    1.21
  -4  -3  -3    2.62    0.37
  -4  -3  -3    2.74    0.33
   4   3   3    1.82    0.28
   4   3   3    1.85    0.41
  -5  -3  -3   18.36    0.72
   5   3   3   19.19    1.09
   5   3   3   18.31    0.63
   6   3   3   15.53    1.10
   7   3   3   -0.08    0.42
   8   3   3    2.81    0.75
   9   3   3    0.99    0.66
  10   3   3    2.57    0.88
   9  -4  -3   -0.14    0.60
   8  -4  -3    1.75    0.72
   7  -4  -3    5.66    0.95
   7  -4  -3    5.38    0.82
   6  -4  -3   -0.01    0.46
   6  -4  -3    0.12    0.39
  -6   4   3    0.12    0.40
   5  -4  -3    2.92    0.60
   5  -4  -3    6.37    0.80
  -5   4   3    4.33    0.66
  -5   4   3    5.56    0.75
   4  -4  -3    1.10    0.45
   4  -4  -3    0.75    0.41
  -4   4   3    0.49    0.35
  -4   4   3    1.54    0.47
   3  -4  -3   31.52    1.38
   3  -4  -3   29.79    1.33
  -3   4   3   31.72    1.41
  -3   4   3   30.36    1.34
   2  -4  -3    2.09    0.44
   2  -4  -3    2.70    0.52
  -2   4   3    2.47    0.44
  -2   4   3    2.66    0.52
  -2   4   3    3.14    0.55
   1  -4  -3   78.45    2.33
   1  -4  -3   79.44    2.28
   1  -4  -3   80.32    2.41
  -1   4   3   77.82    2.45
  -1   4   3   81.59    2.31
  -1   4   3   81.38    2.42
   0  -4  -3   70.98    2.18
   0  -4  -3   74.04    2.06
   0  -4  -3   74.94    2.17
   0   4   3   76.02    2.24
   0   4   3   71.10    2.27
   0   4   3   72.96    2.07
  -1  -4  -3   30.02    1.25
  -1  -4  -3   31.42    1.08
  -1  -4  -3   33.23    1.24
   1   4   3   32.39    1.20
   1   4   3   31.14    1.27
   1   4   3   31.83    1.21
   1   4   3   29.21    1.06
  -2  -4  -3    0.74    0.32
  -2  -4  -3    0.75    0.22
  -2  -4  -3    0.29    0.26
   2   4   3    0.06    0.18
   2   4   3    0.47    0.28
   2   4   3    0.78    0.29
  -3  -4  -3   77.67    2.26
  -3  -4  -3   76.70    2.05
  -3  -4  -3   78.56    2.11
   3   4   3   70.90    2.09
   3   4   3   74.76    2.30
  -4  -4  -3   53.91    1.63
  -4  -4  -3   55.30    1.75
  -4  -4  -3   56.18    1.60
   4   4   3   55.91    1.61
  -5  -4  -3   67.33    2.00
  -5  -4  -3   66.88    1.96
  -5  -4  -3   65.63    1.76
   5   4   3   66.32    2.30
  -6  -4  -3    2.98    0.45
   6   4   3    3.98    0.70
   7   4   3   -0.13    0.43
   8   4   3    0.66    0.54
   9   4   3    0.89    0.67
  10   4   3   19.76    1.90
   8  -5  -3    3.80    0.92
   7  -5  -3   -0.38    0.47
   7  -5  -3   -0.62    0.45
   6  -5  -3    0.97    0.60
   6  -5  -3    1.73    0.61
   5  -5  -3    5.05    0.79
   5  -5  -3    5.28    0.80
   5  -5  -3    5.94    0.87
  -5   5   3    3.51    0.73
  -5   5   3    3.23    0.72
   4  -5  -3    2.48    0.62
   4  -5  -3    2.88    0.61
   4  -5  -3    2.25    0.59
  -4   5   3    2.65    0.60
  -4   5   3    3.15    0.65
   3  -5  -3    0.44    0.41
   3  -5  -3    1.10    0.47
   3  -5  -3    0.12    0.37
  -3   5   3    0.93    0.47
  -3   5   3    0.75    0.40
   2  -5  -3    7.43    0.81
   2  -5  -3    9.64    0.92
   2  -5  -3    8.81    0.89
  -2   5   3    9.45    0.77
  -2   5   3    7.64    0.82
   1  -5  -3   43.85    1.61
   1  -5  -3   47.58    1.79
   1  -5  -3   48.95    1.76
   1  -5  -3   50.15    1.87
  -1   5   3   46.50    1.83
  -1   5   3   49.13    1.67
   0  -5  -3   26.77    1.27
   0  -5  -3   23.40    1.15
   0  -5  -3   24.32    1.16
   0  -5  -3   23.23    1.02
   0   5   3   22.46    1.00
  -1  -5  -3    4.83    0.48
  -1  -5  -3    3.12    0.53
  -1  -5  -3    3.19    0.52
  -1  -5  -3    4.73    0.62
   1   5   3    4.06    0.55
   1   5   3    4.21    0.44
  -2  -5  -3   20.95    1.09
  -2  -5  -3   19.69    1.06
  -2  -5  -3   20.01    0.83
  -2  -5  -3   21.97    1.00
   2   5   3   21.18    1.05
   2   5   3   20.34    0.84
  -3  -5  -3   40.82    1.64
  -3  -5  -3   39.22    1.27
  -3  -5  -3   40.85    1.56
  -3  -5  -3   42.73    1.45
   3   5   3   40.10    1.60
  -4  -5  -3    0.31    0.32
  -4  -5  -3    0.56    0.28
  -4  -5  -3    0.74    0.23
   4   5   3    1.01    0.42
  -5  -5  -3    3.46    0.40
  -5  -5  -3    3.03    0.40
  -5  -5  -3    3.27    0.53
   5   5   3    2.71    0.59
  -6  -5  -3   -0.04    0.36
   6   5   3    1.16    0.49
   7   5   3   -0.50    0.39
   8   5   3   10.36    1.21
   9   5   3    0.48    0.62
  10   5   3    6.94    1.25
   8  -6  -3    2.13    0.91
   7  -6  -3    1.68    0.76
   7  -6  -3    1.38    0.69
   6  -6  -3    1.28    0.55
   6  -6  -3    2.51    0.76
   6  -6  -3    2.20    0.69
   5  -6  -3    0.26    0.56
   5  -6  -3    0.19    0.43
   5  -6  -3    0.11    0.46
   4  -6  -3   24.32    1.42
   4  -6  -3   18.61    1.35
   4  -6  -3   23.16    1.49
  -4   6   3   21.16    1.35
   3  -6  -3    6.17    0.86
   3  -6  -3    8.36    1.00
   3  -6  -3    7.06    0.92
  -3   6   3    5.75    0.77
   2  -6  -3    0.05    0.41
   2  -6  -3    0.17    0.41
   2  -6  -3   -0.40    0.37
  -2   6   3    0.47    0.36
   1  -6  -3   75.07    2.64
   1  -6  -3   72.13    2.51
   1  -6  -3   75.06    2.59
  -1   6   3   77.79    2.39
   0  -6  -3   21.17    1.22
   0  -6  -3   23.09    1.31
   0  -6  -3   21.83    1.23
   0   6   3   21.70    1.04
  -1  -6  -3   -0.30    0.34
  -1  -6  -3    0.42    0.41
  -1  -6  -3    0.40    0.38
  -1  -6  -3   -0.28    0.20
   1   6   3    0.21    0.21
  -2  -6  -3    3.64    0.60
  -2  -6  -3    3.66    0.58
  -2  -6  -3    2.66    0.38
  -2  -6  -3    2.44    0.55
   2   6   3    3.40    0.40
   2   6   3    2.82    0.53
  -3  -6  -3    0.52    0.41
  -3  -6  -3    0.51    0.34
  -3  -6  -3    1.21    0.44
  -3  -6  -3    0.67    0.25
   3   6   3    0.91    0.44
   3   6   3    0.81    0.26
  -4  -6  -3   -0.18    0.27
  -4  -6  -3    0.15    0.41
  -4  -6  -3    0.19    0.33
   4   6   3    0.05    0.35
  -5  -6  -3    5.75    0.75
   5   6   3    6.66    0.86
  -6  -6  -3    2.68    0.59
   6   6   3    3.54    0.75
   7   6   3    1.64    0.68
   8   6   3    4.09    0.92
   9   6   3    0.34    0.62
   7  -7  -3    0.24    0.72
   7  -7  -3    0.30    0.70
   6  -7  -3    0.74    0.64
   6  -7  -3    0.60    0.66
   5  -7  -3   -0.12    0.54
   5  -7  -3   -0.11    0.47
   5  -7  -3   -1.31    0.45
   4  -7  -3    8.74    1.12
   4  -7  -3    7.64    1.07
   4  -7  -3    6.83    1.02
   3  -7  -3   51.15    2.28
   3  -7  -3   46.86    2.21
   3  -7  -3   51.99    2.30
  -3   7   3   51.64    2.10
   2  -7  -3   45.18    2.08
   2  -7  -3   48.16    2.13
   2  -7  -3   44.93    2.11
  -2   7   3   46.55    1.90
   1  -7  -3   13.56    1.29
   1  -7  -3    9.22    1.03
   1  -7  -3   12.72    1.25
  -1   7   3   10.57    0.88
   0  -7  -3    0.07    0.41
   0  -7  -3    0.31    0.44
   0  -7  -3    0.30    0.49
   0   7   3   -0.11    0.24
  -1  -7  -3    2.24    0.61
  -1  -7  -3    2.06    0.59
  -1  -7  -3    1.21    0.54
   1   7   3    1.07    0.33
  -2  -7  -3    3.38    0.70
  -2  -7  -3    3.17    0.44
  -2  -7  -3    2.90    0.62
  -2  -7  -3    3.55    0.71
   2   7   3    3.12    0.43
   2   7   3    2.91    0.62
  -3  -7  -3    1.40    0.57
  -3  -7  -3    0.72    0.44
  -3  -7  -3   -0.04    0.42
   3   7   3    0.28    0.43
   3   7   3    0.31    0.24
  -4  -7  -3    7.73    0.95
  -4  -7  -3    7.92    0.94
  -4  -7  -3    8.24    0.84
   4   7   3    9.09    1.03
  -5  -7  -3   15.35    1.28
  -5  -7  -3   13.10    1.12
   5   7   3   12.24    1.19
  -6  -7  -3   13.64    1.18
   6   7   3   15.23    1.27
   7   7   3    5.14    0.92
   8   7   3    8.51    1.23
   9   7   3    2.47    0.90
   6  -8  -3   -0.14    0.72
   6  -8  -3   -0.02    0.74
   5  -8  -3    8.72    1.22
   5  -8  -3    8.95    1.25
   5  -8  -3    7.00    1.16
   4  -8  -3   11.43    1.40
   4  -8  -3   11.92    1.40
   4  -8  -3   10.82    1.33
   3  -8  -3    0.13    0.53
   3  -8  -3    0.43    0.65
   3  -8  -3    0.09    0.60
   2  -8  -3   24.65    1.70
   2  -8  -3   22.79    1.65
   2  -8  -3   22.53    1.62
  -2   8   3   22.27    1.38
   1  -8  -3    4.81    0.92
   1  -8  -3    5.17    0.90
   1  -8  -3    4.98    0.90
  -1   8   3    5.21    0.73
   0  -8  -3    0.27    0.52
   0  -8  -3    0.53    0.55
   0  -8  -3    0.01    0.54
   0   8   3    0.52    0.37
  -1  -8  -3   -0.38    0.46
  -1  -8  -3    0.52    0.53
  -1  -8  -3   -0.05    0.51
   1   8   3    0.12    0.27
  -2  -8  -3    1.36    0.60
  -2  -8  -3    1.71    0.62
  -2  -8  -3    1.55    0.60
  -3  -8  -3    0.60    0.58
  -3  -8  -3    1.11    0.54
  -3  -8  -3    1.43    0.60
   3   8   3    0.91    0.53
  -4  -8  -3   19.00    1.30
  -4  -8  -3   20.59    1.51
  -4  -8  -3   20.15    1.41
   4   8   3   18.63    1.36
  -5  -8  -3    0.20    0.55
  -5  -8  -3    0.95    0.62
   5   8   3    0.01    0.48
  -6  -8  -3    1.84    0.74
  -6  -8  -3    1.26    0.66
   6   8   3    1.42    0.62
  -7  -8  -3    3.67    0.91
   7   8   3    4.20    0.92
   8   8   3    5.88    1.10
   5  -9  -3   -0.22    0.56
   5  -9  -3   -0.09    0.67
   5  -9  -3   -0.88    0.69
   4  -9  -3    3.65    1.03
   4  -9  -3    4.75    1.04
   4  -9  -3    4.73    1.05
   3  -9  -3   -0.41    0.61
   3  -9  -3   -0.28    0.70
   3  -9  -3    0.21    0.56
   2  -9  -3   -0.11    0.65
   2  -9  -3    0.41    0.62
   2  -9  -3    0.19    0.70
   1  -9  -3    7.22    1.15
   1  -9  -3    5.78    1.05
   1  -9  -3    8.46    1.18
  -1   9   3    4.90    0.74
   0  -9  -3    6.83    1.15
   0  -9  -3    4.67    0.98
   0  -9  -3    7.91    1.18
  -1  -9  -3    0.41    0.63
  -1  -9  -3    1.54    0.69
  -1  -9  -3    0.72    0.66
  -2  -9  -3    0.62    0.61
  -2  -9  -3    0.18    0.58
  -2  -9  -3    0.24    0.60
  -3  -9  -3    0.09    0.59
  -3  -9  -3    0.13    0.53
  -3  -9  -3    0.65    0.62
   3   9   3    0.29    0.52
  -4  -9  -3    5.28    0.98
  -4  -9  -3    6.64    1.09
  -4  -9  -3    6.38    0.92
   4   9   3    3.85    0.81
  -5  -9  -3    0.61    0.69
  -5  -9  -3    0.75    0.72
   5   9   3    3.25    0.80
  -6  -9  -3   -0.09    0.64
  -6  -9  -3    0.78    0.66
   6   9   3    0.03    0.49
  -7  -9  -3    0.39    0.67
   7   9   3    0.49    0.69
  -8  -9  -3    1.56    0.92
   8   9   3    1.92    0.83
   3 -10  -3    4.03    1.01
   3 -10  -3    3.49    1.09
   3 -10  -3    5.02    1.23
   2 -10  -3    4.94    1.05
   2 -10  -3    3.76    1.04
   2 -10  -3    3.97    1.13
   1 -10  -3   13.07    1.57
   1 -10  -3   17.09    1.73
   1 -10  -3   13.13    1.55
   0 -10  -3    1.27    0.77
   0 -10  -3    0.22    0.69
   0 -10  -3    1.07    0.83
  -1 -10  -3    2.19    0.82
  -1 -10  -3    0.02    0.69
  -1 -10  -3    0.35    0.78
  -2 -10  -3    4.47    0.95
  -2 -10  -3    5.24    1.05
  -2 -10  -3    3.61    1.03
  -3 -10  -3   11.16    1.36
  -3 -10  -3   12.13    1.46
  -3 -10  -3   14.92    1.61
  -4 -10  -3    6.68    1.18
  -4 -10  -3    6.55    1.09
   4  10   3    5.49    1.06
  -5 -10  -3    1.27    0.77
  -5 -10  -3    2.09    0.88
   5  10   3    1.52    0.71
  -6 -10  -3    1.96    0.92
  -6 -10  -3   -0.36    0.64
   6  10   3    2.73    0.83
   1 -11  -3   -0.14    0.77
   1 -11  -3   -0.29    0.84
   0 -11  -3    2.88    1.13
   0 -11  -3    4.95    1.12
   0 -11  -3    2.86    1.12
  -1 -11  -3    1.42    0.99
  -1 -11  -3    0.86    0.78
  -1 -11  -3    0.98    0.90
  -2 -11  -3   -0.14    0.71
  -2 -11  -3    0.42    0.81
  -2 -11  -3    0.48    0.79
  -3 -11  -3   -0.29    0.78
  -3 -11  -3    1.82    0.86
  -3 -11  -3   -0.05    0.79
  -4 -11  -3    1.54    0.96
  -4 -11  -3   -0.03    0.71
  -4  -9   4   -0.20    1.05
  -4  -9   4    2.44    0.88
  -3  -9   4    0.71    0.76
  -3  -9   4    0.88    1.13
  -3  -9   4    0.88    0.91
  -2  -9   4   -0.32    0.98
  -2  -9   4    0.40    0.87
  -2  -9   4    1.14    0.76
  -1  -9   4    2.29    1.11
  -1  -9   4    2.48    0.90
  -1  -9   4    1.89    1.13
   0  -9   4    0.79    0.80
   0  -9   4   -1.55    0.90
   0  -9   4   -1.61    0.85
   1  -9   4    6.83    1.44
   1  -9   4    8.27    1.29
   1  -9   4    6.40    1.44
   2  -9   4    0.01    1.02
   2  -9   4    1.01    1.17
   2  -9   4    0.85    0.85
   6   8  -4    2.38    0.78
  -6  -8   4    3.69    1.11
  -6  -8   4    2.38    0.82
   5   8  -4    1.37    0.69
  -5  -8   4    0.81    0.93
  -5  -8   4    0.72    0.71
  -4  -8   4    0.10    0.64
  -4  -8   4   -0.81    0.79
  -4  -8   4   -0.15    0.70
  -3  -8   4   -0.12    0.87
  -3  -8   4    0.09    0.59
  -3  -8   4   -0.60    0.72
  -2  -8   4    2.95    0.97
  -2  -8   4    1.93    1.05
  -2  -8   4    3.32    0.82
  -1  -8   4    0.88    0.66
  -1  -8   4    0.15    0.78
  -1  -8   4   -1.11    0.78
   0  -8   4    4.12    1.17
   0  -8   4    4.41    0.98
   0  -8   4    2.17    0.97
   1  -8   4    3.72    1.14
   1  -8   4    4.04    0.96
   1  -8   4    2.19    0.99
   2  -8   4    0.26    0.80
   2  -8   4   -0.13    0.64
   2  -8   4    0.19    1.00
   3  -8   4   -0.12    0.66
   3  -8   4   -1.29    0.77
   3  -8   4   -1.01    0.87
   4  -8   4    5.05    1.11
   4  -8   4    2.52    1.03
   4  -8   4    2.95    1.23
   7   7  -4    2.38    0.72
  -7  -7   4    1.41    0.88
  -7  -7   4    2.57    0.84
   6   7  -4    0.09    0.48
  -6  -7   4   -0.20    0.63
  -6  -7   4    0.02    0.60
   5   7  -4    0.10    0.47
  -5  -7   4   -0.95    0.70
  -5  -7   4    0.86    0.67
   4   7  -4    3.27    0.73
  -4  -7   4    0.97    0.85
  -4  -7   4    4.80    0.89
  -4  -7   4    4.39    0.85
  -3  -7   4    4.21    0.86
  -3  -7   4    4.64    1.14
  -3  -7   4    3.78    0.88
  -2  -7   4    0.55    0.71
  -2  -7   4   -0.18    0.75
  -2  -7   4   -0.31    0.52
  -1  -7   4    0.90    0.80
  -1  -7   4    1.35    0.64
  -1  -7   4    0.16    0.78
   0  -7   4   -0.20    0.74
   0  -7   4   -0.29    0.73
   0  -7   4   -0.37    0.54
   1  -7   4   30.36    1.83
   1  -7   4   25.77    1.90
   1  -7   4   29.93    2.06
   2  -7   4   10.88    1.36
   2  -7   4   14.06    1.39
   2  -7   4   15.60    1.65
   3  -7   4    1.38    0.93
   3  -7   4    0.07    0.58
   3  -7   4   -0.32    0.67
   4  -7   4   -0.55    0.65
   4  -7   4   -1.37    0.60
   4  -7   4   -0.66    0.82
   5  -7   4    5.03    1.30
   5  -7   4    2.95    0.96
   6  -7   4    1.99    1.14
   6  -7   4    3.56    1.05
   8   6  -4    0.12    0.52
  -8  -6   4   -0.63    0.55
   7   6  -4    3.69    0.83
  -7  -6   4    4.02    0.92
  -7  -6   4    3.41    0.93
   6   6  -4    9.99    1.14
  -6  -6   4   10.11    1.32
  -6  -6   4    8.84    1.14
   5   6  -4   -0.64    0.36
  -5  -6   4    0.42    0.67
  -5  -6   4    1.19    0.63
   4   6  -4   -0.07    0.40
  -4  -6   4    0.14    0.72
  -4  -6   4   -0.03    0.50
  -4  -6   4    0.54    0.51
   3   6  -4    0.24    0.39
  -3  -6   4    0.27    0.72
  -3  -6   4    0.68    0.60
  -3  -6   4    0.35    0.46
  -2  -6   4    0.18    0.50
  -2  -6   4    0.28    0.61
  -2  -6   4    1.39    0.72
  -1  -6   4   45.54    1.94
  -1  -6   4   43.25    2.25
  -1  -6   4   42.62    2.23
   0  -6   4   31.30    1.88
   0  -6   4   29.66    1.63
   0  -6   4   29.16    1.83
   1  -6   4   23.39    1.49
   1  -6   4   24.68    1.81
   1  -6   4   23.35    1.66
   2  -6   4    5.26    0.86
   2  -6   4    6.03    1.01
   2  -6   4    3.94    1.00
   3  -6   4   10.26    1.20
   3  -6   4    9.67    1.37
   3  -6   4   11.98    1.26
   4  -6   4    0.25    0.58
   4  -6   4   -0.41    0.57
   4  -6   4    0.02    0.76
   5  -6   4    6.27    1.12
   5  -6   4    4.39    1.13
   6  -6   4    2.43    0.90
   6  -6   4    0.39    0.92
   7  -6   4   -0.24    0.93
   7  -6   4    0.87    0.81
   9   5  -4    1.66    0.72
   8   5  -4    0.30    0.47
   7   5  -4    9.76    1.14
  -7  -5   4    7.69    1.10
   6   5  -4    0.39    0.48
  -6  -5   4    0.60    0.63
  -6  -5   4    0.66    0.56
   5   5  -4    0.59    0.45
  -5  -5   4    1.47    0.70
  -5  -5   4    0.90    0.51
   4   5  -4    0.98    0.44
  -4  -5   4    0.53    0.45
  -4  -5   4    0.51    0.47
  -4  -5   4    0.49    0.70
   3   5  -4   22.19    1.21
  -3  -5   4   21.79    1.38
  -3  -5   4   21.13    1.23
  -3  -5   4   18.04    1.50
  -2  -5   4   25.79    1.67
  -2  -5   4   27.45    1.59
  -2  -5   4   27.35    1.39
  -1  -5   4    0.36    0.57
  -1  -5   4   -0.42    0.54
  -1  -5   4    0.09    0.36
   0  -5   4   18.70    1.44
   0  -5   4   17.15    1.14
   0  -5   4   15.87    1.35
   1  -5   4   21.25    1.44
   1  -5   4   18.47    1.48
   1  -5   4   21.90    1.30
   2  -5   4   -0.57    0.68
   2  -5   4    0.91    0.54
   2  -5   4    0.36    0.54
   3  -5   4    1.59    0.79
   3  -5   4    0.97    0.55
   3  -5   4    0.54    0.55
   4  -5   4   25.41    1.80
   4  -5   4   29.36    1.71
   4  -5   4   26.94    1.62
   5  -5   4   -0.44    0.52
   5  -5   4   -0.12    0.68
   6  -5   4    0.23    0.63
   6  -5   4    1.07    0.80
   7  -5   4    0.45    0.69
   7  -5   4   -0.33    0.76
   9   4  -4    3.09    0.84
   8   4  -4    3.32    0.80
   7   4  -4    1.43    0.57
  -7  -4   4    0.87    0.61
   6   4  -4    6.38    0.86
  -6  -4   4    7.25    1.02
   5   4  -4   -0.25    0.32
  -5  -4   4    0.53    0.37
  -5  -4   4    0.31    0.55
   4   4  -4    0.73    0.35
  -4  -4   4    0.52    0.56
  -4  -4   4   -0.09    0.38
  -4  -4   4    0.72    0.43
   3   4  -4    6.98    0.70
  -3  -4   4    7.38    0.83
  -3  -4   4    6.38    0.75
  -3  -4   4    5.57    0.87
   2   4  -4    0.94    0.21
   2   4  -4    0.55    0.32
  -2  -4   4    0.54    0.47
  -2  -4   4    1.30    0.57
  -2  -4   4    0.72    0.38
  -1  -4   4   34.79    1.68
  -1  -4   4   36.01    1.42
  -1  -4   4   32.75    1.64
   0  -4   4    0.35    0.36
   0  -4   4    0.61    0.54
   0  -4   4    0.33    0.50
   1  -4   4    4.96    0.86
   1  -4   4    3.89    0.61
   1  -4   4    2.85    0.65
   2  -4   4    1.41    0.54
   2  -4   4    0.43    0.61
   2  -4   4    0.43    0.43
   3  -4   4   38.59    1.91
   3  -4   4   33.22    1.66
   3  -4   4   37.85    1.72
   4  -4   4    1.71    0.59
   4  -4   4    0.78    0.48
   4  -4   4    1.82    0.77
   5  -4   4    1.56    0.76
   5  -4   4    1.71    0.65
   6  -4   4    0.51    0.59
   6  -4   4    0.04    0.69
   7  -4   4   14.23    1.56
   7  -4   4   10.24    1.28
   8  -4   4   16.88    1.78
   9   3  -4    0.32    0.55
   8   3  -4   12.80    1.31
   7   3  -4   12.02    1.19
  -7  -3   4   11.28    1.21
   6   3  -4   11.16    1.05
  -6  -3   4    9.45    1.09
   5   3  -4   25.65    1.29
  -5  -3   4   28.94    1.60
  -5  -3   4   27.86    1.25
   4   3  -4   13.87    0.87
  -4  -3   4   12.86    0.88
  -4  -3   4   13.54    1.13
   3   3  -4    1.99    0.41
   3   3  -4    1.92    0.25
  -3  -3   4    2.05    0.48
  -3  -3   4    2.19    0.45
  -3  -3   4    1.95    0.58
   2   3  -4    2.58    0.30
   2   3  -4    2.39    0.41
  -2  -3   4    2.09    0.52
  -2  -3   4    1.17    0.53
  -2  -3   4    2.07    0.41
   1   3  -4    0.56    0.22
  -1  -3   4    0.34    0.40
  -1  -3   4    0.15    0.42
  -1  -3   4    0.55    0.30
   0  -3   4   10.70    0.71
   0  -3   4   10.53    0.97
   0  -3   4   11.15    0.98
   1  -3   4   12.37    1.06
   1  -3   4   12.96    1.01
   1  -3   4   12.60    0.80
   2  -3   4   41.19    1.57
   2  -3   4   40.40    1.68
   2  -3   4   39.88    1.79
   3  -3   4    0.10    0.34
   3  -3   4   -0.41    0.22
   3  -3   4    0.30    0.51
   4  -3   4    7.52    0.80
   4  -3   4    7.77    0.94
   4  -3   4    5.48    0.84
   5  -3   4   -0.51    0.41
   5  -3   4    0.26    0.44
   5  -3   4   -0.10    0.55
   6  -3   4    8.89    1.08
   6  -3   4   10.43    1.25
   7  -3   4    0.31    0.35
   7  -3   4    1.20    0.67
   8  -3   4   -0.75    0.57
   9  -3   4    2.18    0.92
   9   2  -4   10.44    1.26
   8   2  -4   10.07    1.15
   7   2  -4   15.29    1.12
  -7  -2   4   11.88    1.16
   6   2  -4    3.22    0.60
  -6  -2   4    3.62    0.71
   5   2  -4    5.92    0.70
  -5  -2   4    6.06    0.53
  -5  -2   4    6.13    0.62
  -5  -2   4    5.51    0.80
   4   2  -4    0.29    0.27
   4   2  -4    0.40    0.21
  -4  -2   4    0.28    0.19
  -4  -2   4   -0.05    0.38
  -4  -2   4    0.43    0.29
   3   2  -4   33.32    1.18
   3   2  -4   30.92    1.01
  -3  -2   4   29.95    1.29
  -3  -2   4   34.22    1.54
  -3  -2   4   31.86    1.03
   2   2  -4   19.71    0.81
   2   2  -4   19.11    0.73
  -2  -2   4   17.78    1.04
  -2  -2   4   18.49    1.15
  -2  -2   4   19.77    0.82
   1   2  -4   35.63    1.15
  -1  -2   4   36.08    1.55
  -1  -2   4   33.83    1.46
  -1  -2   4   37.36    1.18
   0  -2   4   26.84    0.98
   0  -2   4   26.70    1.29
   0  -2   4   23.53    1.24
   1  -2   4  125.02    3.56
   1  -2   4  123.56    3.49
   1  -2   4  127.15    3.22
   2  -2   4   89.40    2.73
   2  -2   4   80.26    2.44
   2  -2   4   89.04    2.59
   3  -2   4   10.03    0.76
   3  -2   4    9.47    0.77
   3  -2   4    9.95    0.95
   4  -2   4   -0.05    0.42
   4  -2   4   -0.01    0.32
   4  -2   4   -0.58    0.29
   5  -2   4    3.49    0.50
   5  -2   4    2.96    0.66
   5  -2   4    2.89    0.64
   7  -2   4    6.71    1.08
   8  -2   4    2.82    0.80
   9  -2   4    4.09    1.01
  10   1  -4    5.76    1.03
   9   1  -4    1.29    0.64
   8   1  -4    1.36    0.57
   7   1  -4    7.29    0.90
  -7  -1   4    7.69    0.92
   6   1  -4   39.82    1.67
  -6  -1   4   40.54    1.77
  -6  -1   4   39.15    1.49
   5   1  -4   16.84    0.97
  -5  -1   4   19.84    0.92
  -5  -1   4   16.81    0.84
  -5  -1   4   17.56    1.12
   4   1  -4    2.82    0.43
   4   1  -4    3.18    0.41
  -4  -1   4    2.62    0.42
  -4  -1   4    1.69    0.32
  -4  -1   4    3.14    0.60
   3   1  -4    4.57    0.46
   3   1  -4    4.35    0.43
  -3  -1   4    4.26    0.54
  -3  -1   4    4.80    0.66
  -3  -1   4    5.02    0.46
   2   1  -4   26.48    0.88
   2   1  -4   27.21    0.93
  -2  -1   4   26.17    1.30
  -2  -1   4   25.46    0.93
  -2  -1   4   25.97    1.13
   1   1  -4   66.32    1.65
  -1  -1   4   62.93    2.05
  -1  -1   4   63.00    2.13
  -1  -1   4   65.87    1.65
  -1  -1   4   64.93    1.78
   0   1  -4  100.81    2.61
   0  -1   4   99.92    2.90
   0  -1   4  103.79    2.47
   0  -1   4  100.21    2.91
   1  -1   4   53.82    1.88
   1  -1   4   55.12    1.81
   1  -1   4   56.76    1.59
   2  -1   4   17.71    1.02
   2  -1   4   16.59    0.82
   3  -1   4    3.44    0.50
   3  -1   4    5.47    0.53
   3  -1   4    3.97    0.59
   4  -1   4    3.13    0.41
   4  -1   4    2.03    0.47
   4  -1   4    2.05    0.47
   5  -1   4    3.82    0.39
   5  -1   4    3.26    0.59
   6  -1   4  114.03    3.56
   6  -1   4  108.63    3.31
   7  -1   4    9.86    1.19
   8  -1   4   25.79    1.77
   9  -1   4   -0.50    0.61
  10  -1   4    9.44    1.46
  10   0  -4    3.03    0.85
   9   0  -4    0.04    0.45
   8   0  -4   20.86    1.39
   7   0  -4    0.52    0.44
  -7   0   4    1.02    0.43
  -7   0   4    0.21    0.40
   6   0  -4    0.45    0.35
  -6   0   4    0.36    0.40
  -6   0   4   -0.17    0.27
   5   0  -4   14.50    0.89
  -5   0   4   14.12    0.84
  -5   0   4   14.57    1.03
  -5   0   4   14.49    0.79
   4   0  -4    2.08    0.38
   4   0  -4    1.62    0.34
  -4   0   4    1.51    0.44
  -4   0   4    1.45    0.34
  -4   0   4    2.09    0.38
   3   0  -4   18.26    0.76
   3   0  -4   17.49    0.81
  -3   0   4   19.42    0.83
  -3   0   4   16.70    1.03
  -3   0   4   17.26    0.87
   2   0  -4  163.18    3.90
   2   0  -4  159.05    3.72
  -2   0   4  155.53    4.13
  -2   0   4  174.92    3.93
  -2   0   4  156.38    4.29
   1   0  -4   28.28    1.00
   1   0  -4   29.50    0.75
  -1   0   4   28.16    1.24
  -1   0   4   30.34    1.21
  -1   0   4   30.59    1.02
  -1   0   4   28.01    0.75
  -1   0   4   28.73    0.75
   0   0  -4    8.99    0.33
   0   0  -4   10.16    0.58
   0   0   4    8.59    0.33
   0   0   4    9.91    0.58
   0   0   4    9.51    0.72
   0   0   4    8.11    0.69
   0   0   4    8.76    0.32
   1   0   4  102.42    2.82
   1   0   4   99.01    2.73
   1   0   4   99.84    2.42
   2   0   4    1.98    0.33
   2   0   4    2.05    0.45
   2   0   4    1.99    0.35
   3   0   4   65.86    2.02
   3   0   4   59.83    1.73
   3   0   4   59.88    1.87
  -4   0  -4   33.40    0.97
   4   0   4   31.30    0.99
   4   0   4   33.00    1.35
   5   0   4   33.57    1.39
   5   0   4   36.79    1.59
   6   0   4   62.33    2.07
   6   0   4   61.75    2.35
   7   0   4    0.83    0.53
   8   0   4    0.41    0.57
   9   0   4   24.64    1.83
  10   0   4    2.31    0.96
   9  -1  -4    4.64    0.93
   8  -1  -4    0.64    0.50
   7  -1  -4    1.24    0.50
  -7   1   4    0.45    0.39
  -7   1   4    0.42    0.43
   6  -1  -4   52.86    1.99
  -6   1   4   51.25    1.92
  -6   1   4   51.13    1.99
  -6   1   4   51.05    1.75
   5  -1  -4    1.76    0.44
  -5   1   4    1.04    0.43
  -5   1   4    0.81    0.36
  -5   1   4    1.70    0.39
   4  -1  -4   21.43    0.98
  -4   1   4   23.36    1.15
  -4   1   4   24.18    1.07
  -4   1   4   21.16    0.98
   3  -1  -4   33.23    1.14
   3  -1  -4   32.08    1.23
  -3   1   4   34.62    1.25
  -3   1   4   33.12    1.40
  -3   1   4   35.73    1.26
   2  -1  -4   11.62    0.52
   2  -1  -4   11.49    0.66
  -2   1   4   12.09    0.84
  -2   1   4   12.09    0.75
  -2   1   4   11.21    0.68
   1  -1  -4   14.43    0.72
   1  -1  -4   13.25    0.43
  -1   1   4   13.17    0.44
  -1   1   4   15.97    0.82
  -1   1   4   15.42    0.72
  -1   1   4   14.76    0.88
   0  -1  -4   95.71    2.54
   0   1   4   98.40    2.54
   0   1   4   98.53    2.70
   0   1   4   98.20    2.72
  -1  -1  -4   42.69    1.39
   1   1   4   44.30    1.44
   1   1   4   46.26    1.52
   1   1   4   43.90    1.17
   2   1   4    0.57    0.33
   2   1   4    0.96    0.27
   2   1   4    0.95    0.25
  -3  -1  -4   70.85    1.90
   3   1   4   71.57    1.88
   3   1   4   70.32    2.06
  -4  -1  -4   26.76    0.79
   4   1   4   26.30    1.18
   4   1   4   27.53    1.10
   4   1   4   26.34    0.77
   5   1   4   59.54    1.86
   5   1   4   60.70    2.13
   6   1   4    0.14    0.37
   6   1   4    0.43    0.29
   7   1   4   -0.12    0.43
   8   1   4    9.20    1.15
   9   1   4    0.00    0.58
  10   1   4    0.54    0.74
   9  -2  -4    0.99    0.62
   8  -2  -4   24.84    1.59
   7  -2  -4    3.67    0.72
  -7   2   4    2.58    0.62
   6  -2  -4   14.94    0.93
   6  -2  -4   15.62    1.10
  -6   2   4   17.06    1.12
  -6   2   4   18.18    1.13
   5  -2  -4   10.54    0.82
  -5   2   4   10.69    0.79
  -5   2   4   12.05    0.91
  -5   2   4    9.86    0.84
   4  -2  -4    4.01    0.52
  -4   2   4    3.07    0.48
  -4   2   4    3.95    0.54
  -4   2   4    3.92    0.59
   3  -2  -4   -0.07    0.20
   3  -2  -4    0.09    0.25
  -3   2   4   -0.08    0.26
  -3   2   4   -0.33    0.30
  -3   2   4    0.30    0.27
   2  -2  -4    2.51    0.33
   2  -2  -4    2.72    0.42
  -2   2   4    2.20    0.43
  -2   2   4    2.23    0.37
  -2   2   4    2.44    0.50
   1  -2  -4    2.70    0.29
   1  -2  -4    2.78    0.39
  -1   2   4    2.65    0.47
  -1   2   4    2.74    0.39
  -1   2   4    3.75    0.49
   0  -2  -4  232.96    5.28
   0   2   4  242.07    5.54
   0   2   4  240.54    5.75
   0   2   4  230.69    5.82
  -1  -2  -4  176.61    4.42
   1   2   4  185.11    4.45
   1   2   4  181.06    4.24
   1   2   4  190.76    4.61
   1   2   4  190.61    4.61
  -2  -2  -4    0.41    0.24
   2   2   4    0.31    0.23
   2   2   4   -0.06    0.16
   2   2   4    0.55    0.29
  -3  -2  -4   29.83    1.15
   3   2   4   28.38    1.13
   3   2   4   28.59    1.08
   3   2   4   30.91    0.98
  -4  -2  -4   32.05    0.96
   4   2   4   31.83    1.29
   4   2   4   30.42    1.11
   4   2   4   32.11    0.95
   5   2   4    1.00    0.27
   5   2   4    0.74    0.37
   6   2   4   10.29    0.99
   7   2   4    4.12    0.76
   8   2   4    0.84    0.56
   9   2   4   35.44    2.07
  10   2   4    0.66    0.69
   9  -3  -4    4.93    0.99
   8  -3  -4   16.73    1.41
   7  -3  -4    5.65    0.88
   6  -3  -4    5.48    0.79
   6  -3  -4    4.25    0.62
  -6   3   4    6.24    0.78
  -6   3   4    4.51    0.73
   5  -3  -4   19.12    1.11
   5  -3  -4   18.04    1.04
  -5   3   4   18.08    1.11
  -5   3   4   20.18    1.18
  -5   3   4   17.35    1.14
   4  -3  -4    3.66    0.55
  -4   3   4    4.01    0.57
  -4   3   4    3.33    0.59
  -4   3   4    3.26    0.53
   3  -3  -4    0.92    0.34
  -3   3   4    0.95    0.42
  -3   3   4    0.74    0.36
  -3   3   4    0.90    0.35
   2  -3  -4   17.58    0.84
   2  -3  -4   17.21    0.88
  -2   3   4   21.26    0.97
  -2   3   4   18.93    1.05
  -2   3   4   21.20    1.05
   1  -3  -4   15.31    0.74
   1  -3  -4   15.91    0.83
  -1   3   4   17.25    0.91
  -1   3   4   17.54    0.85
  -1   3   4   17.01    0.96
   0  -3  -4   27.69    1.06
   0  -3  -4   27.74    0.99
   0   3   4   25.74    1.03
   0   3   4   28.07    1.16
   0   3   4   28.59    1.19
  -1  -3  -4    7.95    0.54
  -1  -3  -4    7.24    0.54
   1   3   4    8.95    0.66
   1   3   4    7.06    0.50
   1   3   4    8.24    0.65
   1   3   4    8.61    0.57
  -2  -3  -4    1.76    0.33
   2   3   4    1.66    0.33
   2   3   4    2.03    0.38
   2   3   4    2.37    0.40
   2   3   4    2.24    0.37
  -3  -3  -4   29.84    1.12
   3   3   4   29.91    1.06
   3   3   4   28.43    1.17
   3   3   4   28.43    1.06
  -4  -3  -4   11.31    0.58
  -4  -3  -4   12.38    0.71
   4   3   4   11.61    0.79
   4   3   4   11.30    0.62
  -5  -3  -4    3.02    0.32
   5   3   4    2.74    0.35
   5   3   4    2.61    0.54
   6   3   4    8.80    0.93
   7   3   4   19.35    1.36
   8   3   4    4.12    0.84
   9   3   4    0.03    0.55
  10   3   4    0.44    0.67
   9  -4  -4   -0.22    0.57
   8  -4  -4    1.47    0.64
   7  -4  -4    3.31    0.79
   6  -4  -4   32.13    1.57
   6  -4  -4   31.71    1.67
  -6   4   4   30.61    1.57
   5  -4  -4   62.19    2.25
   5  -4  -4   56.15    2.13
  -5   4   4   58.10    2.24
  -5   4   4   59.48    2.24
   4  -4  -4    4.82    0.68
   4  -4  -4    4.15    0.62
  -4   4   4    4.76    0.72
  -4   4   4    3.24    0.62
  -4   4   4    4.16    0.64
   3  -4  -4    0.92    0.41
   3  -4  -4    1.26    0.39
  -3   4   4    0.96    0.44
  -3   4   4    0.81    0.35
  -3   4   4    0.92    0.43
   2  -4  -4    0.17    0.29
  -2   4   4    0.49    0.38
  -2   4   4    0.15    0.36
  -2   4   4    0.14    0.24
   1  -4  -4  195.97    4.83
   1  -4  -4  197.19    4.81
  -1   4   4  199.87    5.17
  -1   4   4  189.39    4.84
  -1   4   4  197.43    5.08
   0  -4  -4   12.78    0.76
   0  -4  -4   12.81    0.73
   0   4   4   13.36    0.86
   0   4   4   12.17    0.86
   0   4   4   11.45    0.70
  -1  -4  -4   -0.23    0.18
  -1  -4  -4    0.17    0.24
   1   4   4   -0.05    0.32
   1   4   4    0.12    0.22
   1   4   4    0.22    0.21
   1   4   4   -0.38    0.28
  -2  -4  -4    4.56    0.54
  -2  -4  -4    4.61    0.47
   2   4   4    4.78    0.56
   2   4   4    5.38    0.52
   2   4   4    4.45    0.52
   2   4   4    5.32    0.60
  -3  -4  -4    0.42    0.26
  -3  -4  -4    0.26    0.20
   3   4   4    0.44    0.29
   3   4   4   -0.05    0.24
  -4  -4  -4   22.51    0.98
  -4  -4  -4   23.84    0.99
   4   4   4   22.76    1.14
   4   4   4   21.45    0.93
  -5  -4  -4   17.12    0.88
  -5  -4  -4   15.43    0.77
   5   4   4   15.79    0.73
   5   4   4   14.91    1.04
   6   4   4   14.33    1.12
   7   4   4    1.85    0.65
   8   4   4   14.41    1.43
   9   4   4    5.28    1.01
  10   4   4    0.28    0.73
   8  -5  -4   13.89    1.51
   7  -5  -4   -0.32    0.43
   7  -5  -4    0.37    0.59
   6  -5  -4    3.53    0.71
   6  -5  -4    4.64    0.83
  -6   5   4    3.22    0.70
   5  -5  -4   -0.20    0.38
   5  -5  -4    0.30    0.47
  -5   5   4    1.11    0.53
   4  -5  -4    1.40    0.50
   4  -5  -4    2.16    0.54
  -4   5   4    0.69    0.45
  -4   5   4    1.70    0.58
   3  -5  -4   12.13    0.94
   3  -5  -4   11.80    0.99
  -3   5   4   12.12    0.94
  -3   5   4   12.02    0.98
   2  -5  -4   28.96    1.31
   2  -5  -4   27.42    1.34
  -2   5   4   26.10    1.26
  -2   5   4   24.81    1.33
  -2   5   4   25.34    1.34
   1  -5  -4   38.06    1.50
   1  -5  -4   34.41    1.51
  -1   5   4   35.71    1.42
  -1   5   4   37.35    1.55
  -1   5   4   35.64    1.58
   0  -5  -4    4.09    0.55
   0  -5  -4    4.44    0.54
   0  -5  -4    5.00    0.65
   0   5   4    3.70    0.61
   0   5   4    4.73    0.64
   0   5   4    3.51    0.47
  -1  -5  -4    0.26    0.22
  -1  -5  -4   -0.45    0.27
  -1  -5  -4    0.07    0.30
   1   5   4   -0.46    0.21
   1   5   4    0.27    0.34
   1   5   4    0.21    0.22
   1   5   4    0.47    0.36
  -2  -5  -4    3.93    0.56
  -2  -5  -4    4.08    0.56
  -2  -5  -4    4.51    0.48
   2   5   4    5.15    0.60
   2   5   4    4.35    0.48
   2   5   4    5.39    0.63
  -3  -5  -4  104.66    2.89
  -3  -5  -4  103.86    2.77
  -3  -5  -4  102.96    3.03
   3   5   4  105.31    3.04
  -4  -5  -4    7.71    0.61
  -4  -5  -4    6.70    0.66
  -4  -5  -4    6.74    0.54
   4   5   4    5.83    0.74
   4   5   4    7.57    0.66
  -5  -5  -4   22.45    0.98
  -5  -5  -4   20.43    0.90
  -5  -5  -4   21.12    1.04
   5   5   4   21.16    1.26
   6   5   4   41.66    1.90
   7   5   4    0.00    0.43
   8   5   4    0.34    0.54
   9   5   4    6.69    1.14
  10   5   4   -0.90    0.65
   8  -6  -4    2.72    0.92
   7  -6  -4   -0.85    0.51
   7  -6  -4    1.03    0.66
   6  -6  -4    3.72    0.85
   6  -6  -4    2.54    0.70
   6  -6  -4    3.02    0.73
   5  -6  -4   15.45    1.26
   5  -6  -4   13.62    1.36
   5  -6  -4   13.85    1.23
  -5   6   4   12.53    1.29
   4  -6  -4    8.00    1.00
   4  -6  -4   10.99    1.20
   4  -6  -4    8.54    1.02
  -4   6   4    9.75    1.14
   3  -6  -4    4.74    0.80
   3  -6  -4    4.72    0.76
   3  -6  -4    6.51    0.89
  -3   6   4    5.29    0.83
  -3   6   4    4.34    0.68
   2  -6  -4    1.96    0.56
   2  -6  -4    2.45    0.63
   2  -6  -4    2.53    0.64
  -2   6   4    2.24    0.50
  -2   6   4    2.80    0.68
   1  -6  -4   26.65    1.38
   1  -6  -4   26.86    1.45
   1  -6  -4   25.23    1.37
  -1   6   4   24.20    1.43
  -1   6   4   24.62    1.22
   0  -6  -4    0.12    0.39
   0  -6  -4    0.32    0.41
   0  -6  -4    0.52    0.40
   0   6   4    0.15    0.41
   0   6   4    0.45    0.30
  -1  -6  -4    0.09    0.34
  -1  -6  -4   -0.16    0.22
  -1  -6  -4    0.44    0.38
  -1  -6  -4    0.10    0.38
   1   6   4   -0.25    0.21
  -2  -6  -4   20.49    0.93
  -2  -6  -4   20.64    1.17
  -2  -6  -4   21.39    1.14
  -2  -6  -4   19.01    1.15
   2   6   4   20.54    0.95
   2   6   4   20.02    1.15
  -3  -6  -4   10.80    0.68
  -3  -6  -4   12.19    0.98
  -3  -6  -4   12.26    0.97
  -3  -6  -4   12.88    0.87
   3   6   4   12.00    0.95
   3   6   4   11.81    0.72
  -4  -6  -4    7.55    0.81
  -4  -6  -4    8.49    0.72
  -4  -6  -4    7.42    0.59
   4   6   4    6.73    0.79
  -5  -6  -4    1.74    0.41
  -5  -6  -4    1.48    0.48
   5   6   4    2.42    0.60
   6   6   4    8.93    1.08
   7   6   4   -0.17    0.51
   8   6   4    9.29    1.25
   9   6   4    1.11    0.73
   7  -7  -4    1.24    0.80
   7  -7  -4    0.83    0.66
   6  -7  -4   -0.10    0.58
   6  -7  -4    1.18    0.63
   6  -7  -4    0.79    0.68
   5  -7  -4   -0.26    0.53
   5  -7  -4    0.43    0.51
   5  -7  -4    1.16    0.69
   4  -7  -4    2.68    0.74
   4  -7  -4    1.86    0.68
   4  -7  -4    2.65    0.72
   3  -7  -4   10.14    1.19
   3  -7  -4    9.40    1.15
   3  -7  -4    9.65    1.09
  -3   7   4    9.53    1.03
   2  -7  -4   33.55    1.78
   2  -7  -4   31.58    1.75
   2  -7  -4   33.35    1.73
  -2   7   4   32.07    1.56
   1  -7  -4    0.48    0.55
   1  -7  -4    0.95    0.54
   1  -7  -4    0.96    0.56
  -1   7   4    0.81    0.40
   0  -7  -4    7.63    0.97
   0  -7  -4    8.05    0.91
   0  -7  -4    8.63    1.02
   0   7   4    9.21    0.84
  -1  -7  -4    6.96    0.88
  -1  -7  -4    7.24    0.91
  -1  -7  -4    7.13    0.93
   1   7   4    5.96    0.64
  -2  -7  -4   17.47    1.23
  -2  -7  -4   16.32    1.14
  -2  -7  -4   16.20    0.88
  -2  -7  -4   20.23    1.31
   2   7   4   17.07    1.16
   2   7   4   16.70    0.89
  -3  -7  -4    2.22    0.63
  -3  -7  -4    3.32    0.66
  -3  -7  -4    3.94    0.65
   3   7   4    3.72    0.66
   3   7   4    3.39    0.46
  -4  -7  -4    1.85    0.61
  -4  -7  -4    0.81    0.46
  -4  -7  -4    1.29    0.45
   4   7   4    0.84    0.53
  -5  -7  -4    0.37    0.52
  -5  -7  -4    0.70    0.48
   5   7   4    0.58    0.52
   6   7   4   -0.40    0.42
   7   7   4   -0.07    0.50
   8   7   4    4.64    0.99
   9   7   4   15.20    1.65
   6  -8  -4    1.41    0.83
   6  -8  -4    5.27    1.16
   5  -8  -4    0.33    0.63
   5  -8  -4    0.53    0.70
   5  -8  -4    1.59    0.79
   4  -8  -4    1.22    0.72
   4  -8  -4    0.12    0.67
   4  -8  -4    0.68    0.63
   3  -8  -4    8.89    1.19
   3  -8  -4    9.26    1.20
   3  -8  -4    9.42    1.18
   2  -8  -4   14.95    1.40
   2  -8  -4   16.80    1.43
   2  -8  -4   11.99    1.34
  -2   8   4   14.23    1.13
   1  -8  -4    7.04    1.03
   1  -8  -4    5.91    0.99
   1  -8  -4    6.46    0.98
  -1   8   4    6.72    0.83
   0  -8  -4   16.77    1.37
   0  -8  -4   13.98    1.39
   0  -8  -4   18.62    1.39
   0   8   4   15.47    1.03
  -1  -8  -4   -0.48    0.47
  -1  -8  -4   -1.08    0.42
  -1  -8  -4    0.44    0.53
   1   8   4    0.15    0.28
  -2  -8  -4    8.09    1.02
  -2  -8  -4    9.58    1.11
  -2  -8  -4    8.74    1.10
   2   8   4    8.32    0.84
  -3  -8  -4    2.81    0.64
  -3  -8  -4    1.75    0.68
  -3  -8  -4    1.75    0.63
   3   8   4    2.35    0.64
  -4  -8  -4    1.36    0.58
  -4  -8  -4    1.42    0.63
  -4  -8  -4    1.78    0.57
   4   8   4    1.80    0.59
  -5  -8  -4    0.52    0.53
  -5  -8  -4   -0.01    0.55
   5   8   4    0.47    0.54
  -6  -8  -4    0.12    0.58
   6   8   4    0.15    0.50
  -7  -8  -4    3.91    0.92
   7   8   4    3.46    0.89
   8   8   4   14.60    1.61
   5  -9  -4    3.08    0.92
   5  -9  -4    2.63    0.93
   5  -9  -4    2.43    0.93
   4  -9  -4   -0.07    0.72
   4  -9  -4    0.06    0.59
   4  -9  -4   -1.42    0.58
   3  -9  -4    0.84    0.75
   3  -9  -4    1.10    0.77
   3  -9  -4   -0.02    0.75
   2  -9  -4   -0.30    0.57
   2  -9  -4    0.44    0.68
   2  -9  -4    0.24    0.66
   1  -9  -4    0.27    0.63
   1  -9  -4   -0.06    0.63
   1  -9  -4    1.01    0.71
  -1   9   4    0.94    0.48
   0  -9  -4    8.89    1.18
   0  -9  -4    9.55    1.20
   0  -9  -4   11.28    1.33
   0   9   4   10.53    0.99
  -1  -9  -4   -0.16    0.54
  -1  -9  -4    0.59    0.62
  -1  -9  -4   -0.73    0.51
  -2  -9  -4    4.69    0.92
  -2  -9  -4    4.48    0.88
  -2  -9  -4    4.78    0.96
  -3  -9  -4    0.05    0.52
  -3  -9  -4    0.50    0.56
  -3  -9  -4    0.30    0.58
   3   9   4    0.14    0.48
  -4  -9  -4    2.84    0.83
  -4  -9  -4    3.39    0.83
  -4  -9  -4    3.26    0.78
   4   9   4    3.84    0.85
  -5  -9  -4    1.27    0.62
  -5  -9  -4   -0.63    0.54
   5   9   4    0.40    0.58
  -6  -9  -4    7.17    1.16
   6   9   4    6.05    0.97
  -7  -9  -4    5.29    1.05
   7   9   4    3.38    0.95
  -8  -9  -4    0.57    0.77
   8   9   4    0.21    0.60
   3 -10  -4    0.43    0.75
   3 -10  -4   -0.67    0.73
   3 -10  -4    0.93    0.80
   2 -10  -4    0.93    0.77
   2 -10  -4    0.33    0.84
   2 -10  -4   -0.38    0.65
   1 -10  -4   -0.25    0.73
   1 -10  -4    0.44    0.70
   1 -10  -4   -0.49    0.60
   0 -10  -4    0.48    0.74
   0 -10  -4    0.43    0.65
   0 -10  -4    1.32    0.78
  -1 -10  -4    1.29    0.80
  -1 -10  -4    2.35    0.89
  -1 -10  -4    1.04    0.73
  -2 -10  -4    0.03    0.61
  -2 -10  -4    0.69    0.70
  -2 -10  -4   -0.75    0.55
  -3 -10  -4   10.22    1.35
  -3 -10  -4    8.76    1.19
  -3 -10  -4    7.90    1.25
  -4 -10  -4    8.62    1.14
  -4 -10  -4    8.58    1.22
  -4 -10  -4   10.78    1.42
   4  10   4   11.07    1.31
  -5 -10  -4    0.98    0.78
  -5 -10  -4   -0.13    0.61
   5  10   4    0.44    0.65
  -6 -10  -4   -0.16    0.65
   6  10   4    1.87    0.79
   1 -11  -4    8.64    1.44
   1 -11  -4    6.98    1.34
   0 -11  -4    0.46    0.74
   0 -11  -4   -0.59    0.74
   0 -11  -4   -0.40    0.75
  -1 -11  -4    0.93    0.78
  -1 -11  -4    1.13    0.90
  -1 -11  -4    1.22    0.85
  -2 -11  -4    1.60    0.95
  -2 -11  -4    2.31    0.91
  -2 -11  -4    2.93    0.99
  -3 -11  -4    3.60    1.03
  -3 -11  -4    5.88    1.15
  -3 -11  -4    6.86    1.26
  -4 -11  -4   -0.05    0.67
  -4 -11  -4   -0.92    0.68
  -5 -11  -4   -0.49    0.68
  -5 -11  -4   -1.66    0.69
   5  11   4   -0.63    0.60
  -3  -9   5    1.89    0.97
  -3  -9   5    0.40    0.79
  -2  -9   5    4.47    1.03
  -2  -9   5    3.16    1.11
  -1  -9   5    0.69    1.03
  -1  -9   5    1.01    0.81
   0  -9   5    1.13    1.04
   0  -9   5   -0.18    0.80
   1  -9   5   -0.47    0.71
   1  -9   5   -0.34    1.02
  -5  -8   5    0.48    0.92
  -5  -8   5    1.09    0.74
  -4  -8   5    2.55    1.09
  -4  -8   5    1.01    0.73
  -3  -8   5    8.52    1.16
  -3  -8   5    7.97    1.25
  -3  -8   5    9.27    1.52
  -2  -8   5    5.66    1.17
  -2  -8   5    5.73    1.06
  -2  -8   5    4.35    1.23
  -1  -8   5    7.14    1.39
  -1  -8   5    6.80    1.25
  -1  -8   5    7.02    1.08
   0  -8   5    1.28    0.75
   0  -8   5   -0.65    0.84
   0  -8   5    0.69    0.93
   1  -8   5    0.05    0.62
   1  -8   5   -0.71    0.91
   1  -8   5   -0.99    0.88
   2  -8   5    5.27    1.09
   2  -8   5    2.72    1.11
   2  -8   5    4.20    1.24
   3  -8   5    1.54    1.16
   3  -8   5   -2.12    0.89
   3  -8   5   -0.49    0.73
   7   7  -5    1.23    0.63
  -7  -7   5    3.43    1.00
   6   7  -5   -0.75    0.48
  -6  -7   5    1.21    0.88
  -6  -7   5    0.88    0.73
   5   7  -5    1.08    0.59
  -5  -7   5   -0.43    0.73
  -5  -7   5   -0.31    0.54
  -4  -7   5    1.98    0.97
  -4  -7   5    2.28    0.79
  -4  -7   5    2.94    0.75
  -3  -7   5   19.74    1.49
  -3  -7   5   21.50    2.03
  -3  -7   5   23.91    1.76
  -2  -7   5    0.00    0.52
  -2  -7   5    0.29    0.83
  -2  -7   5    0.69    0.79
  -1  -7   5   -0.01    0.81
  -1  -7   5    0.81    0.80
  -1  -7   5    0.48    0.60
   0  -7   5    1.28    0.89
   0  -7   5    1.89    0.68
   0  -7   5    1.82    0.93
   1  -7   5   15.51    1.69
   1  -7   5   13.06    1.58
   1  -7   5   15.35    1.43
   2  -7   5    4.51    0.95
   2  -7   5    5.01    1.17
   2  -7   5    5.85    1.24
   3  -7   5    3.09    1.05
   3  -7   5    4.11    0.98
   3  -7   5    2.37    1.09
   4  -7   5    0.77    0.96
   4  -7   5   -0.88    0.81
   4  -7   5   -0.61    0.58
   5  -7   5    0.96    1.03
   5  -7   5    1.82    0.88
   7   6  -5   -0.78    0.42
  -7  -6   5    0.21    0.62
  -7  -6   5    0.97    0.69
   6   6  -5    4.19    0.81
  -6  -6   5    6.22    1.18
  -6  -6   5    6.59    1.07
   5   6  -5    0.60    0.52
  -5  -6   5    0.89    0.74
  -5  -6   5    2.01    0.69
   4   6  -5    0.72    0.50
  -4  -6   5    1.66    0.63
  -4  -6   5    0.70    0.58
  -4  -6   5    1.04    0.76
  -3  -6   5    5.79    0.97
  -3  -6   5    7.78    1.28
  -3  -6   5    5.35    0.87
  -2  -6   5    0.42    0.72
  -2  -6   5    0.14    0.49
  -2  -6   5   -0.76    0.56
  -1  -6   5    9.80    1.36
  -1  -6   5    8.47    1.19
  -1  -6   5    9.57    1.03
   0  -6   5    0.12    0.54
   0  -6   5   -0.61    0.65
   0  -6   5   -0.67    0.63
   1  -6   5   22.64    1.82
   1  -6   5   26.70    1.58
   1  -6   5   23.69    1.85
   2  -6   5   22.15    1.83
   2  -6   5   20.87    1.46
   2  -6   5   18.81    1.66
   3  -6   5   -1.13    0.67
   3  -6   5    0.24    0.60
   3  -6   5   -0.71    0.79
   4  -6   5    4.18    1.10
   4  -6   5    4.54    0.94
   4  -6   5    3.71    0.97
   5  -6   5   16.46    1.68
   5  -6   5   15.69    1.77
   6  -6   5    0.18    0.64
   6  -6   5    0.97    0.94
   8   5  -5    6.27    1.03
   7   5  -5    9.66    1.13
  -7  -5   5    8.89    1.22
  -7  -5   5   10.13    1.22
   6   5  -5   -0.24    0.42
  -6  -5   5   -0.72    0.58
  -6  -5   5   -0.16    0.47
   5   5  -5    4.71    0.74
  -5  -5   5    3.35    0.87
  -5  -5   5    4.42    0.80
   4   5  -5   32.42    1.56
  -4  -5   5   37.88    1.84
  -4  -5   5   34.57    2.01
  -4  -5   5   33.67    1.64
   3   5  -5    0.08    0.34
  -3  -5   5    0.18    0.53
  -3  -5   5   -0.09    0.65
  -3  -5   5    0.13    0.43
  -2  -5   5   19.81    1.22
  -2  -5   5   23.25    1.65
  -2  -5   5   19.82    1.45
  -1  -5   5    2.15    0.57
  -1  -5   5    2.51    0.79
  -1  -5   5    2.48    0.78
   0  -5   5   13.54    1.07
   0  -5   5   12.22    1.27
   0  -5   5   10.12    1.23
   1  -5   5   85.67    2.87
   1  -5   5   88.70    3.27
   1  -5   5   93.23    3.28
   2  -5   5    2.13    0.64
   2  -5   5    3.02    0.92
   2  -5   5    2.59    0.80
   3  -5   5    0.08    0.51
   3  -5   5    1.17    0.79
   3  -5   5   -0.27    0.59
   4  -5   5   11.60    1.27
   4  -5   5   13.46    1.35
   4  -5   5    9.94    1.33
   5  -5   5   -0.48    0.51
   5  -5   5    1.16    0.84
   6  -5   5   -0.96    0.60
   6  -5   5    0.86    0.84
   7  -5   5    0.42    0.72
   7  -5   5    0.94    0.84
   8   4  -5   -0.37    0.46
   7   4  -5    0.53    0.48
  -7  -4   5    0.41    0.60
   6   4  -5    5.96    0.82
  -6  -4   5    3.24    0.82
   5   4  -5    8.57    0.91
  -5  -4   5    8.95    0.94
  -5  -4   5   10.59    1.03
  -5  -4   5   12.47    1.35
   4   4  -5    2.78    0.52
  -4  -4   5    3.05    0.81
  -4  -4   5    2.81    0.59
  -4  -4   5    2.82    0.62
   3   4  -5    0.05    0.31
  -3  -4   5   -0.02    0.36
  -3  -4   5    0.90    0.62
  -3  -4   5    0.73    0.50
  -2  -4   5    0.25    0.35
  -2  -4   5   -0.42    0.55
  -2  -4   5    0.39    0.53
   1   4  -5   21.77    0.94
  -1  -4   5   20.65    1.41
  -1  -4   5   22.78    1.13
  -1  -4   5   22.20    1.49
   0  -4   5   91.27    2.74
   0  -4   5   92.35    3.16
   0  -4   5   90.13    3.13
   1  -4   5    5.55    0.72
   1  -4   5    5.24    0.91
   1  -4   5    6.43    0.91
   2  -4   5    5.00    0.82
   2  -4   5    6.07    0.76
   2  -4   5    6.59    0.96
   3  -4   5    2.87    0.79
   3  -4   5    1.42    0.65
   3  -4   5    1.99    0.59
   4  -4   5   17.41    1.33
   4  -4   5   20.09    1.64
   5  -4   5   35.83    1.95
   5  -4   5   38.22    2.11
   6  -4   5    0.03    0.65
   6  -4   5    0.07    0.58
   7  -4   5    1.06    0.73
   7  -4   5    0.64    0.73
   8  -4   5    0.86    0.75
   9   3  -5    1.67    0.71
   8   3  -5    1.93    0.64
   7   3  -5    1.36    0.55
  -7  -3   5    1.86    0.69
   6   3  -5    0.84    0.46
  -6  -3   5    0.84    0.59
   5   3  -5    8.19    0.84
  -5  -3   5    9.53    1.15
  -5  -3   5   10.14    0.93
   4   3  -5   14.58    0.90
  -4  -3   5   17.06    0.99
  -4  -3   5   13.15    1.28
  -4  -3   5   15.69    1.05
   3   3  -5    3.11    0.46
   3   3  -5    3.02    0.35
  -3  -3   5    2.84    0.47
  -3  -3   5    2.42    0.70
  -3  -3   5    3.07    0.61
   2   3  -5    0.32    0.18
   2   3  -5   -0.21    0.21
  -2  -3   5   -0.23    0.24
  -2  -3   5    0.47    0.48
  -2  -3   5   -0.11    0.41
   1   3  -5   21.69    0.91
  -1  -3   5   22.68    1.40
  -1  -3   5   20.57    1.28
  -1  -3   5   22.73    1.00
   0  -3   5    6.56    0.89
   0  -3   5    6.69    0.89
   0  -3   5    6.68    0.65
   1  -3   5    0.37    0.32
   1  -3   5    0.57    0.49
   1  -3   5    0.57    0.53
   2  -3   5    3.02    0.64
   2  -3   5    3.16    0.73
   2  -3   5    3.96    0.59
   3  -3   5    4.37    0.66
   3  -3   5    3.31    0.64
   3  -3   5    4.04    0.81
   4  -3   5   26.07    1.37
   4  -3   5   24.51    1.41
   4  -3   5   24.65    1.56
   5  -3   5    0.61    0.53
   5  -3   5    1.13    0.68
   6  -3   5    1.82    0.69
   6  -3   5    1.74    0.70
   7  -3   5   12.67    1.40
   7  -3   5   12.32    1.31
   8  -3   5    0.34    0.70
   9   2  -5    4.98    0.90
   8   2  -5    0.31    0.45
   7   2  -5    0.75    0.45
  -7  -2   5   -0.42    0.42
   6   2  -5    9.83    0.94
  -6  -2   5    9.55    1.13
   5   2  -5   30.20    1.33
  -5  -2   5   29.33    1.33
  -5  -2   5   29.11    1.13
  -5  -2   5   29.56    1.67
   4   2  -5    0.07    0.25
   4   2  -5    0.26    0.23
  -4  -2   5    0.42    0.22
  -4  -2   5    0.10    0.32
  -4  -2   5    0.56    0.51
   3   2  -5    0.52    0.22
   3   2  -5    0.29    0.23
  -3  -2   5    0.51    0.35
  -3  -2   5    0.01    0.19
  -3  -2   5    0.08    0.23
  -3  -2   5    0.95    0.50
   2   2  -5   31.67    1.10
   2   2  -5   31.69    1.10
  -2  -2   5   30.48    1.55
  -2  -2   5   31.37    1.44
  -2  -2   5   32.25    1.11
   1   2  -5    4.59    0.46
  -1  -2   5    3.64    0.62
  -1  -2   5    4.91    0.72
  -1  -2   5    4.97    0.47
   0   2  -5   40.34    1.40
   0  -2   5   42.92    1.77
   0  -2   5   42.30    1.74
   0  -2   5   42.68    1.36
   1  -2   5   37.53    1.69
   1  -2   5   40.25    1.64
   1  -2   5   39.21    1.36
   2  -2   5    0.91    0.48
   2  -2   5    1.47    0.39
   2  -2   5    1.80    0.54
   3  -2   5    6.22    0.70
   3  -2   5    4.50    0.60
   3  -2   5    4.74    0.74
   4  -2   5    6.75    0.89
   4  -2   5    7.01    0.74
   4  -2   5    7.14    0.82
   5  -2   5   18.78    1.31
   5  -2   5   16.22    1.23
   6  -2   5    0.47    0.55
   6  -2   5    0.71    0.52
   7  -2   5    2.76    0.76
   7  -2   5    2.77    0.82
   8  -2   5    7.99    1.23
   9  -2   5    0.06    0.62
   9   1  -5   -0.38    0.46
   8   1  -5    1.04    0.51
   7   1  -5    0.10    0.35
  -7  -1   5    1.35    0.58
   6   1  -5   37.47    1.56
  -6  -1   5   30.33    1.35
  -6  -1   5   33.10    1.71
   5   1  -5    9.68    0.77
  -5  -1   5   10.24    1.09
  -5  -1   5    9.57    0.69
  -5  -1   5   10.16    0.76
   4   1  -5   22.11    0.98
   4   1  -5   24.53    1.03
  -4  -1   5   22.06    1.33
  -4  -1   5   23.90    0.99
  -4  -1   5   24.17    1.15
   3   1  -5   15.25    0.72
   3   1  -5   16.66    0.77
  -3  -1   5   16.15    1.10
  -3  -1   5   15.51    0.75
  -3  -1   5   14.78    0.95
   2   1  -5    9.72    0.51
   2   1  -5    9.84    0.58
  -2  -1   5   10.28    0.81
  -2  -1   5   10.04    0.61
  -2  -1   5   11.60    0.54
  -2  -1   5   11.15    0.97
   1   1  -5  223.93    5.21
  -1  -1   5  209.42    5.71
  -1  -1   5  218.22    5.63
  -1  -1   5  223.61    4.96
   0   1  -5   29.76    1.13
   0  -1   5   31.47    0.95
   0  -1   5   27.38    1.32
   0  -1   5   27.60    1.33
   1  -1   5    0.66    0.26
   1  -1   5    1.02    0.44
   1  -1   5    0.72    0.41
   2  -1   5   47.52    1.56
   2  -1   5   49.47    1.73
   2  -1   5   49.15    1.87
   3  -1   5    5.14    0.59
   3  -1   5    5.89    0.74
   3  -1   5    6.76    0.66
   4  -1   5    2.24    0.56
   4  -1   5    1.51    0.43
   4  -1   5    1.69    0.39
   5  -1   5   48.36    1.93
   5  -1   5   45.00    1.89
   6  -1   5    2.08    0.57
   6  -1   5    2.40    0.68
   7  -1   5    0.36    0.55
   8  -1   5    1.33    0.71
   9  -1   5    0.02    0.66
   9   0  -5    2.98    0.76
   8   0  -5    0.03    0.40
   7   0  -5    9.86    0.99
  -7   0   5   10.10    1.09
  -7   0   5    8.52    0.88
   6   0  -5   12.28    0.92
  -6   0   5   11.08    1.11
  -6   0   5   11.95    0.91
   5   0  -5    2.43    0.46
  -5   0   5    2.65    0.48
  -5   0   5    2.02    0.43
  -5   0   5    3.17    0.65
   4   0  -5    3.16    0.47
   4   0  -5    4.61    0.51
  -4   0   5    2.88    0.45
  -4   0   5    4.17    0.68
  -4   0   5    4.21    0.56
   3   0  -5    2.33    0.40
   3   0  -5    3.19    0.36
  -3   0   5    2.82    0.49
  -3   0   5    1.78    0.49
  -3   0   5    2.86    0.41
   2   0  -5  121.17    2.82
   2   0  -5  120.67    3.12
  -2   0   5  118.19    3.52
  -2   0   5  125.06    3.12
  -2   0   5  118.43    3.38
   1   0  -5   36.06    1.23
  -1   0   5   31.16    1.44
  -1   0   5   36.73    1.24
   0   0  -5   38.33    1.33
   0   0   5   39.39    1.55
   0   0   5   39.24    0.98
   0   0   5   40.75    1.56
  -1   0  -5   56.37    1.78
   1   0   5   55.09    1.93
   1   0   5   60.83    1.93
   1   0   5   57.28    1.52
   2   0   5   47.15    1.45
   2   0   5   47.15    1.75
   3   0   5    1.09    0.42
   3   0   5    0.58    0.28
   3   0   5    1.03    0.32
   4   0   5   51.00    1.81
   4   0   5   50.97    1.55
   4   0   5   50.71    1.89
   5   0   5    2.15    0.50
   5   0   5    2.63    0.58
   6   0   5    3.77    0.73
   6   0   5    4.66    0.68
   7   0   5    0.02    0.46
   8   0   5   53.68    2.50
   9   0   5   47.43    2.50
  10   0   5    1.58    0.90
   9  -1  -5   -0.21    0.47
   8  -1  -5   -0.28    0.40
   7  -1  -5    6.39    0.85
  -7   1   5    3.96    0.73
  -7   1   5    6.04    0.81
   6  -1  -5   74.18    2.45
  -6   1   5   70.22    2.30
  -6   1   5   72.89    2.62
  -6   1   5   72.26    2.42
   5  -1  -5   12.04    0.83
  -5   1   5   10.98    0.83
  -5   1   5   11.21    1.00
  -5   1   5   11.86    0.85
   4  -1  -5    1.19    0.31
  -4   1   5    0.89    0.34
  -4   1   5    0.54    0.34
  -4   1   5    0.44    0.38
   3  -1  -5    0.47    0.21
   3  -1  -5    0.31    0.27
  -3   1   5    0.34    0.39
  -3   1   5    0.18    0.25
  -3   1   5    0.54    0.32
   2  -1  -5   14.08    0.54
   2  -1  -5   13.29    0.77
  -2   1   5   14.74    0.78
  -2   1   5   13.44    0.97
  -2   1   5   14.12    0.87
   1  -1  -5   20.60    0.92
  -1   1   5   21.89    1.07
  -1   1   5   22.41    0.94
  -1   1   5   20.16    1.08
   0  -1  -5    0.60    0.28
   0   1   5    0.73    0.29
   0   1   5   -0.05    0.33
   0   1   5    0.57    0.35
  -1  -1  -5    1.17    0.31
   1   1   5    0.85    0.19
   1   1   5    1.16    0.38
   1   1   5    1.33    0.42
  -2  -1  -5   -0.12    0.24
   2   1   5    0.51    0.36
   2   1   5   -0.05    0.09
   2   1   5    0.10    0.18
   3   1   5   24.15    0.96
   3   1   5   24.68    1.04
   3   1   5   25.85    1.16
   4   1   5   18.50    0.99
   4   1   5   15.64    0.67
   5   1   5   39.48    1.66
   5   1   5   39.34    1.52
   6   1   5   82.00    2.49
   6   1   5   78.14    2.76
   7   1   5    7.28    0.97
   8   1   5   14.31    1.44
   9   1   5    3.15    0.84
  10   1   5   17.20    1.77
   9  -2  -5    5.43    0.98
   8  -2  -5   20.86    1.46
   7  -2  -5   79.07    2.74
  -7   2   5   73.67    2.74
   6  -2  -5    7.70    0.86
  -6   2   5    7.03    0.88
  -6   2   5    6.27    0.80
  -6   2   5    6.98    0.78
   5  -2  -5    0.21    0.30
  -5   2   5    0.37    0.37
  -5   2   5   -0.04    0.32
  -5   2   5   -0.12    0.38
   4  -2  -5   15.27    0.83
  -4   2   5   15.86    0.95
  -4   2   5   14.32    0.92
  -4   2   5   16.38    1.10
   3  -2  -5   15.26    0.74
  -3   2   5   15.39    1.02
  -3   2   5   16.18    0.92
  -3   2   5   16.95    0.94
   2  -2  -5   96.09    2.69
   2  -2  -5   92.57    2.40
  -2   2   5   96.87    2.95
  -2   2   5  100.24    2.81
  -2   2   5  100.18    2.71
   1  -2  -5    0.55    0.26
   1  -2  -5    0.49    0.15
  -1   2   5    0.30    0.26
  -1   2   5    0.74    0.36
  -1   2   5    0.68    0.41
   0  -2  -5   22.36    0.69
   0  -2  -5   23.79    1.00
   0   2   5   23.37    0.98
   0   2   5   22.69    1.10
   0   2   5   24.59    1.12
  -1  -2  -5   46.71    1.53
   1   2   5   45.81    1.25
   1   2   5   44.26    1.57
   1   2   5   45.32    1.57
   1   2   5   44.35    1.51
  -2  -2  -5   14.21    0.80
   2   2   5   14.97    0.87
   2   2   5   15.07    0.68
  -3  -2  -5   28.20    1.21
   3   2   5   31.04    1.21
   3   2   5   31.33    1.19
   3   2   5   31.89    1.10
   4   2   5   77.02    2.05
   4   2   5   77.73    2.35
   4   2   5   76.71    2.28
   5   2   5    3.61    0.48
   5   2   5    3.08    0.56
   6   2   5    6.22    0.85
   7   2   5   32.75    1.74
   8   2   5    0.55    0.54
   9   2   5    9.70    1.31
  10   2   5   -0.44    0.62
   9  -3  -5   10.78    1.29
   8  -3  -5    2.92    0.75
   7  -3  -5    0.57    0.50
  -7   3   5    0.95    0.54
   6  -3  -5   -0.16    0.34
   6  -3  -5    0.07    0.17
  -6   3   5    0.06    0.42
  -6   3   5    0.09    0.42
  -6   3   5    0.19    0.39
   5  -3  -5   10.86    0.86
  -5   3   5    9.87    0.97
  -5   3   5   10.73    1.06
  -5   3   5   10.14    0.99
   4  -3  -5   10.05    0.76
  -4   3   5   11.58    1.00
  -4   3   5   10.98    0.87
  -4   3   5   12.15    0.90
   3  -3  -5    5.37    0.55
  -3   3   5    3.90    0.62
  -3   3   5    5.95    0.71
  -3   3   5    6.01    0.66
   2  -3  -5   10.42    0.61
  -2   3   5   10.73    0.76
  -2   3   5   11.05    0.85
  -2   3   5   11.77    0.88
   1  -3  -5    8.28    0.66
   1  -3  -5    6.94    0.49
  -1   3   5    7.26    0.74
  -1   3   5    8.48    0.84
  -1   3   5    6.51    0.61
   0  -3  -5   -0.07    0.19
   0  -3  -5    0.20    0.27
   0   3   5   -0.05    0.31
   0   3   5    0.29    0.33
   0   3   5   -0.16    0.21
  -1  -3  -5   17.70    0.74
  -1  -3  -5   16.81    0.85
   1   3   5   17.30    0.94
   1   3   5   17.30    0.72
   1   3   5   16.54    0.92
   1   3   5   16.21    0.84
  -2  -3  -5  109.44    3.02
   2   3   5  117.11    3.13
   2   3   5  112.22    3.05
   2   3   5  112.84    2.93
   2   3   5  117.15    3.12
  -3  -3  -5   52.08    1.74
   3   3   5   51.60    1.71
   3   3   5   55.61    1.67
  -4  -3  -5    0.61    0.28
   4   3   5    0.44    0.24
   4   3   5    0.52    0.32
   4   3   5    0.25    0.27
  -5  -3  -5   47.95    1.41
   5   3   5   49.41    1.55
   5   3   5   47.37    1.86
   6   3   5    2.23    0.57
   7   3   5   -0.13    0.44
   8   3   5   20.38    1.54
   9   3   5    9.18    1.28
  10   3   5    0.18    0.66
   8  -4  -5   -0.07    0.54
   7  -4  -5    2.85    0.72
   6  -4  -5   -0.41    0.38
   6  -4  -5    0.89    0.44
  -6   4   5    0.50    0.46
   5  -4  -5    0.87    0.45
   5  -4  -5    0.58    0.41
  -5   4   5    0.24    0.43
  -5   4   5   -0.04    0.41
  -5   4   5    0.53    0.44
   4  -4  -5   16.36    1.03
   4  -4  -5   15.99    1.06
  -4   4   5   15.51    1.07
  -4   4   5   16.57    1.17
  -4   4   5   15.71    1.14
   3  -4  -5    2.73    0.47
  -3   4   5    2.14    0.55
  -3   4   5    2.03    0.49
  -3   4   5    1.95    0.56
   2  -4  -5    4.36    0.54
  -2   4   5    5.90    0.71
  -2   4   5    4.60    0.67
  -2   4   5    5.94    0.68
   1  -4  -5    8.30    0.63
  -1   4   5    9.56    0.82
  -1   4   5    9.46    0.82
  -1   4   5    8.88    0.71
   0  -4  -5    0.93    0.31
   0  -4  -5    1.40    0.38
   0   4   5    1.43    0.45
   0   4   5    1.68    0.38
   0   4   5    1.21    0.40
  -1  -4  -5   42.95    1.49
  -1  -4  -5   43.08    1.42
   1   4   5   40.43    1.58
   1   4   5   41.76    1.57
   1   4   5   41.65    1.39
   1   4   5   42.54    1.48
  -2  -4  -5    0.39    0.25
  -2  -4  -5    1.01    0.33
   2   4   5    0.12    0.29
   2   4   5    0.59    0.34
   2   4   5    0.81    0.29
   2   4   5    0.61    0.28
  -3  -4  -5   16.26    0.85
   3   4   5   12.50    0.75
   3   4   5   18.08    0.93
  -4  -4  -5    0.49    0.27
  -4  -4  -5    0.16    0.22
   4   4   5    0.09    0.28
   4   4   5   -0.03    0.28
  -5  -4  -5    5.97    0.53
   5   4   5    6.21    0.58
   5   4   5    6.42    0.79
   6   4   5    7.29    0.91
   7   4   5   39.57    1.97
   8   4   5    9.96    1.22
   9   4   5    2.55    0.82
  10   4   5    8.21    1.34
   8  -5  -5    0.56    0.64
   7  -5  -5    2.33    0.73
   7  -5  -5    1.90    0.65
   6  -5  -5   -0.01    0.46
   6  -5  -5    1.92    0.62
  -6   5   5    0.36    0.53
   5  -5  -5   27.41    1.54
   5  -5  -5   29.08    1.55
  -5   5   5   31.29    1.69
   4  -5  -5    2.33    0.58
   4  -5  -5    2.41    0.61
  -4   5   5    1.00    0.45
  -4   5   5    2.76    0.67
   3  -5  -5    1.04    0.46
   3  -5  -5    1.49    0.46
  -3   5   5    1.46    0.52
  -3   5   5    1.63    0.49
  -3   5   5    2.15    0.61
   2  -5  -5   79.27    2.45
  -2   5   5   74.64    2.67
  -2   5   5   76.16    2.61
  -2   5   5   79.41    2.52
   1  -5  -5   36.06    1.41
  -1   5   5   35.20    1.56
  -1   5   5   32.58    1.40
  -1   5   5   34.47    1.59
   0  -5  -5    0.96    0.34
   0   5   5    0.42    0.36
   0   5   5    0.29    0.28
   0   5   5    0.45    0.42
  -1  -5  -5    0.31    0.32
  -1  -5  -5    1.23    0.32
   1   5   5    0.89    0.31
   1   5   5    0.82    0.40
   1   5   5    0.68    0.38
   1   5   5    0.57    0.30
  -2  -5  -5    7.02    0.71
  -2  -5  -5    6.26    0.61
   2   5   5    5.15    0.60
   2   5   5    6.20    0.74
   2   5   5    6.08    0.70
   2   5   5    5.70    0.59
  -3  -5  -5   12.05    0.84
  -3  -5  -5   11.89    0.74
   3   5   5   13.79    0.88
   3   5   5   13.30    0.86
   3   5   5   13.27    0.92
  -4  -5  -5    1.19    0.35
  -4  -5  -5    1.14    0.32
   4   5   5    1.33    0.42
   4   5   5    0.68    0.36
  -5  -5  -5    1.81    0.42
  -5  -5  -5    2.12    0.41
   5   5   5    2.00    0.52
   5   5   5    2.62    0.46
   6   5   5   13.18    1.12
   7   5   5    6.44    0.99
   8   5   5    8.05    1.14
   9   5   5    1.98    0.82
  10   5   5    1.27    0.81
   7  -6  -5    2.90    0.79
   7  -6  -5    2.08    0.74
   6  -6  -5    4.90    0.87
   6  -6  -5    6.26    0.99
  -6   6   5    6.19    1.01
   5  -6  -5    2.93    0.74
   5  -6  -5    3.29    0.76
  -5   6   5    3.39    0.81
   4  -6  -5   10.59    1.15
   4  -6  -5    9.95    1.09
  -4   6   5    9.56    1.13
   3  -6  -5    3.65    0.67
   3  -6  -5    4.88    0.78
  -3   6   5    5.49    0.87
  -3   6   5    3.40    0.63
   2  -6  -5    1.14    0.50
   2  -6  -5    0.73    0.47
  -2   6   5    1.51    0.58
  -2   6   5    1.26    0.58
  -2   6   5    1.88    0.51
   1  -6  -5   17.44    1.18
   1  -6  -5   18.98    1.14
  -1   6   5   19.07    1.28
  -1   6   5   19.81    1.12
  -1   6   5   19.22    1.24
   0  -6  -5    6.39    0.81
   0  -6  -5    8.22    0.84
   0   6   5    9.09    1.01
   0   6   5    6.84    0.71
   0   6   5    6.41    0.82
  -1  -6  -5   25.69    1.32
  -1  -6  -5   25.85    1.37
  -1  -6  -5   25.48    1.28
   1   6   5   24.67    1.38
   1   6   5   23.76    1.13
   1   6   5   26.80    1.39
  -2  -6  -5   57.07    1.91
  -2  -6  -5   60.46    2.13
  -2  -6  -5   60.08    2.09
  -2  -6  -5   60.90    2.21
   2   6   5   60.49    2.14
   2   6   5   60.03    1.95
   2   6   5   61.55    2.11
  -3  -6  -5   19.31    1.06
  -3  -6  -5   19.04    1.13
  -3  -6  -5   18.76    1.15
  -3  -6  -5   19.01    0.95
   3   6   5   21.20    1.20
   3   6   5   19.99    0.99
   3   6   5   16.04    1.06
  -4  -6  -5    0.26    0.33
  -4  -6  -5    0.89    0.34
  -4  -6  -5    0.37    0.26
   4   6   5    0.25    0.36
   4   6   5    0.37    0.37
  -5  -6  -5   17.71    1.05
  -5  -6  -5   18.41    0.99
   5   6   5   19.54    1.28
   6   6   5    0.50    0.48
   7   6   5    3.06    0.76
   8   6   5    8.72    1.24
   9   6   5    1.21    0.72
   7  -7  -5    6.62    1.19
   7  -7  -5    7.62    1.20
   6  -7  -5   -0.07    0.56
   6  -7  -5    0.85    0.61
   6  -7  -5    0.63    0.66
   5  -7  -5    0.17    0.57
   5  -7  -5   -0.41    0.51
   5  -7  -5    1.78    0.73
   4  -7  -5    0.03    0.49
   4  -7  -5    0.42    0.52
   4  -7  -5    0.35    0.57
  -4   7   5    0.66    0.59
   3  -7  -5    9.82    1.15
   3  -7  -5    9.98    1.15
   3  -7  -5    7.86    1.01
  -3   7   5    9.77    1.21
   2  -7  -5    7.52    0.94
   2  -7  -5    8.01    1.05
   2  -7  -5    6.71    0.97
  -2   7   5    8.82    1.16
  -2   7   5    8.45    0.91
   1  -7  -5  101.09    3.48
   1  -7  -5  102.49    3.25
   1  -7  -5   98.57    3.36
  -1   7   5   99.74    3.12
  -1   7   5  102.19    3.50
   0  -7  -5    2.53    0.62
   0  -7  -5    3.95    0.75
   0  -7  -5    2.26    0.63
   0   7   5    3.10    0.53
  -1  -7  -5   52.07    2.16
  -1  -7  -5   51.32    2.09
  -1  -7  -5   53.67    2.13
   1   7   5   50.56    1.84
  -2  -7  -5   32.14    1.65
  -2  -7  -5   34.70    1.69
  -2  -7  -5   36.71    1.64
   2   7   5   31.68    1.35
   2   7   5   33.66    1.58
  -3  -7  -5   19.57    1.02
  -3  -7  -5   17.43    1.22
  -3  -7  -5   19.14    1.31
  -3  -7  -5   18.88    1.17
   3   7   5   20.55    1.04
   3   7   5   19.35    1.24
  -4  -7  -5    0.31    0.33
  -4  -7  -5    0.41    0.41
  -4  -7  -5   -0.16    0.37
   4   7   5    0.08    0.42
  -5  -7  -5   -0.25    0.46
  -5  -7  -5   -0.07    0.36
   5   7   5    0.44    0.48
   6   7   5    5.18    0.89
   7   7   5    0.65    0.55
   8   7   5   15.03    1.59
   9   7   5    0.97    0.77
   6  -8  -5    0.56    0.75
   6  -8  -5    0.82    0.75
   6  -8  -5    0.12    0.63
   5  -8  -5    4.21    0.98
   5  -8  -5    1.50    0.82
   5  -8  -5    1.50    0.72
   4  -8  -5    0.06    0.61
   4  -8  -5    0.27    0.57
   4  -8  -5    0.37    0.63
   3  -8  -5    0.11    0.59
   3  -8  -5   -0.60    0.54
   3  -8  -5    0.55    0.61
   2  -8  -5   -0.35    0.50
   2  -8  -5    0.03    0.53
   2  -8  -5    0.85    0.61
   1  -8  -5    7.52    1.07
   1  -8  -5    7.18    1.04
   1  -8  -5    6.55    1.01
  -1   8   5    7.27    0.89
   0  -8  -5   34.46    1.88
   0  -8  -5   32.58    1.75
   0  -8  -5   30.42    1.81
   0   8   5   30.74    1.48
  -1  -8  -5    4.97    0.85
  -1  -8  -5    4.37    0.86
  -1  -8  -5    4.72    0.87
   1   8   5    4.77    0.65
  -2  -8  -5   17.44    1.40
  -2  -8  -5   17.33    1.31
  -2  -8  -5   15.41    1.28
   2   8   5   14.72    0.95
  -3  -8  -5    0.85    0.54
  -3  -8  -5    0.76    0.51
  -3  -8  -5    0.49    0.52
   3   8   5    0.55    0.47
  -4  -8  -5   -0.59    0.38
  -4  -8  -5   -0.15    0.48
  -4  -8  -5    0.45    0.39
   4   8   5    0.14    0.43
  -5  -8  -5    5.13    0.90
  -5  -8  -5    4.35    0.79
   5   8   5    4.78    0.89
  -6  -8  -5    2.30    0.79
   6   8   5    1.10    0.60
   7   8   5   -0.04    0.50
   8   8   5   -0.03    0.60
   5  -9  -5    0.99    0.81
   5  -9  -5   -0.02    0.73
   5  -9  -5    0.24    0.72
   4  -9  -5   11.77    1.48
   4  -9  -5   12.16    1.53
   4  -9  -5   12.58    1.57
   3  -9  -5    0.40    0.68
   3  -9  -5    0.24    0.67
   3  -9  -5    0.17    0.66
   2  -9  -5   11.73    1.40
   2  -9  -5   14.13    1.46
   2  -9  -5   11.70    1.48
   1  -9  -5    1.66    0.77
   1  -9  -5    1.97    0.82
   1  -9  -5    0.07    0.61
   0  -9  -5    0.54    0.61
   0  -9  -5   -0.62    0.54
   0  -9  -5    0.11    0.56
   0   9   5   -0.50    0.29
  -1  -9  -5   10.96    1.28
  -1  -9  -5   12.55    1.35
  -1  -9  -5   13.29    1.46
  -2  -9  -5    1.86    0.69
  -2  -9  -5    0.06    0.58
  -2  -9  -5    1.51    0.69
  -3  -9  -5    2.24    0.74
  -3  -9  -5    2.48    0.76
  -3  -9  -5    2.15    0.69
   3   9   5    1.30    0.62
  -4  -9  -5    0.98    0.66
  -4  -9  -5    0.62    0.54
  -4  -9  -5    0.52    0.55
   4   9   5   -0.09    0.50
  -5  -9  -5    5.16    1.02
  -5  -9  -5    4.68    0.90
   5   9   5    5.74    0.97
  -6  -9  -5    1.75    0.83
   6   9   5    1.38    0.66
  -7  -9  -5    0.57    0.72
   7   9   5   -0.13    0.56
  -8  -9  -5    2.99    1.03
   8   9   5   -0.43    0.57
   3 -10  -5    0.03    0.67
   3 -10  -5    0.42    0.74
   3 -10  -5   -0.78    0.68
   2 -10  -5    1.55    0.83
   2 -10  -5    0.73    0.79
   2 -10  -5    0.22    0.78
   1 -10  -5    2.14    0.89
   1 -10  -5    2.56    0.88
   1 -10  -5    2.02    0.89
   0 -10  -5    3.10    0.93
   0 -10  -5    2.59    0.87
   0 -10  -5    2.97    0.92
  -1 -10  -5    3.19    0.96
  -1 -10  -5    2.65    0.83
  -1 -10  -5    1.25    0.78
  -2 -10  -5    0.25    0.64
  -2 -10  -5    0.19    0.64
  -2 -10  -5    0.29    0.68
  -3 -10  -5    0.02    0.61
  -3 -10  -5    0.48    0.68
  -3 -10  -5    1.79    0.82
  -4 -10  -5   -0.36    0.55
  -4 -10  -5   -0.51    0.52
  -4 -10  -5    0.55    0.71
   4  10   5   -0.12    0.52
  -5 -10  -5    4.32    1.00
  -5 -10  -5    5.41    1.03
   5  10   5    3.32    0.91
  -6 -10  -5    0.36    0.77
   6  10   5    0.63    0.63
   1 -11  -5    5.27    1.25
   1 -11  -5    2.97    1.08
   0 -11  -5    1.44    0.87
   0 -11  -5    0.75    0.89
   0 -11  -5    0.85    0.88
  -1 -11  -5    1.12    0.82
  -1 -11  -5   -0.42    0.73
  -1 -11  -5    1.62    0.87
  -2 -11  -5    0.34    0.77
  -2 -11  -5    0.53    0.77
  -2 -11  -5    0.59    0.81
  -3 -11  -5    1.38    0.82
  -3 -11  -5    1.88    0.82
  -3 -11  -5    2.89    0.99
  -4 -11  -5    1.95    0.88
  -4 -11  -5    0.56    0.83
  -5 -11  -5    1.32    0.87
  -5 -11  -5   -0.03    0.79
   5  11   5    1.28    0.73
  -3  -8   6    2.15    0.92
  -3  -8   6    0.68    0.67
  -3  -8   6    0.72    1.05
  -2  -8   6    0.25    0.70
  -2  -8   6    0.28    0.99
  -2  -8   6   -0.78    0.78
  -1  -8   6   -0.76    0.64
  -1  -8   6    1.13    0.95
  -1  -8   6   -1.10    0.92
   0  -8   6   -1.19    0.89
   0  -8   6    0.61    0.96
   0  -8   6    1.05    0.77
   1  -8   6    5.79    1.38
   1  -8   6    6.44    1.15
   1  -8   6    5.78    1.37
   2  -8   6    0.30    1.00
   2  -8   6   -0.15    0.90
   2  -8   6   -0.82    0.63
  -6  -7   6    2.43    0.99
  -5  -7   6   11.17    1.57
  -4  -7   6    1.36    0.92
  -4  -7   6    2.47    0.78
  -4  -7   6    3.44    0.84
  -3  -7   6   -0.16    0.56
  -3  -7   6    1.46    0.97
  -3  -7   6    0.46    0.71
  -2  -7   6    2.14    0.93
  -2  -7   6    2.08    0.75
  -2  -7   6    1.40    0.99
  -1  -7   6    1.22    0.67
  -1  -7   6    0.74    0.92
  -1  -7   6    1.37    0.84
   0  -7   6    1.10    0.70
   0  -7   6    2.42    1.02
   0  -7   6    0.90    0.93
   1  -7   6    1.05    0.86
   1  -7   6    3.18    0.83
   1  -7   6    2.96    1.11
   2  -7   6    0.30    0.66
   2  -7   6    0.05    0.95
   2  -7   6   -0.41    0.74
   3  -7   6    5.66    1.09
   3  -7   6    6.48    1.40
   3  -7   6    4.91    1.16
   4  -7   6    0.18    0.75
   4  -7   6    1.12    1.08
  -7  -6   6    1.74    0.84
  -6  -6   6   23.96    2.01
   5   6  -6    0.68    0.48
  -5  -6   6    1.62    0.66
  -5  -6   6    0.61    0.80
  -4  -6   6    1.04    0.81
  -4  -6   6    0.31    0.52
  -4  -6   6    0.48    0.62
  -3  -6   6    7.96    0.99
  -3  -6   6    8.60    1.29
  -3  -6   6    6.26    1.01
  -2  -6   6    0.49    0.67
  -2  -6   6   -0.42    0.78
  -2  -6   6   -0.40    0.44
  -1  -6   6    0.00    0.80
  -1  -6   6    0.77    0.55
  -1  -6   6    0.88    0.76
   0  -6   6    2.49    0.72
   0  -6   6    4.09    1.04
   0  -6   6    3.63    1.03
   1  -6   6   27.01    2.07
   1  -6   6   26.70    1.61
   1  -6   6   25.85    1.97
   2  -6   6    0.13    0.81
   2  -6   6   -0.05    0.69
   2  -6   6   -0.26    0.53
   3  -6   6    8.45    1.24
   3  -6   6    9.76    1.22
   3  -6   6    7.69    1.34
   4  -6   6    2.26    0.83
   4  -6   6    2.81    1.10
   4  -6   6    2.52    0.92
   5  -6   6    8.92    1.28
   5  -6   6    9.33    1.52
   6  -6   6    2.72    1.11
   6  -6   6    2.09    0.92
  -7  -5   6    9.39    1.30
  -6  -5   6    0.24    0.68
   5   5  -6    0.95    0.47
  -5  -5   6    1.29    0.74
  -5  -5   6    2.16    0.63
   4   5  -6    8.19    0.91
  -4  -5   6    8.15    1.30
  -4  -5   6    6.38    0.88
  -4  -5   6    8.92    1.08
  -3  -5   6   -0.04    0.43
  -3  -5   6   -0.03    0.53
  -3  -5   6   -0.65    0.58
  -2  -5   6    2.45    0.78
  -2  -5   6    0.77    0.51
  -2  -5   6    1.76    0.83
  -1  -5   6    3.76    0.88
  -1  -5   6    2.75    0.64
  -1  -5   6    2.81    0.91
   0  -5   6    5.18    0.79
   0  -5   6    2.84    0.86
   0  -5   6    3.37    0.89
   1  -5   6    9.89    1.02
   1  -5   6    9.83    1.30
   1  -5   6    9.97    1.25
   2  -5   6    3.60    0.70
   2  -5   6    3.20    0.90
   2  -5   6    2.00    0.89
   3  -5   6   23.51    1.70
   3  -5   6   22.95    1.84
   3  -5   6   23.59    1.53
   4  -5   6    3.76    0.84
   4  -5   6    3.44    1.02
   4  -5   6    2.42    0.83
   5  -5   6    0.55    0.80
   5  -5   6    1.37    0.70
   6  -5   6    7.36    1.22
   6  -5   6   10.25    1.46
   7  -5   6    3.06    1.04
   7  -5   6    3.72    1.05
  -7  -4   6    3.42    0.90
   6   4  -6   13.59    1.08
  -6  -4   6   14.39    1.51
  -6  -4   6   15.34    1.40
   5   4  -6   -0.15    0.33
  -5  -4   6    0.32    0.58
  -5  -4   6   -0.31    0.42
   4   4  -6    0.46    0.35
  -4  -4   6   -0.19    0.58
  -4  -4   6    0.60    0.50
  -4  -4   6    0.15    0.39
   3   4  -6   14.71    0.95
  -3  -4   6   17.42    1.03
  -3  -4   6   14.27    1.40
  -3  -4   6   15.30    1.30
  -2  -4   6    6.64    1.01
  -2  -4   6    8.94    1.06
  -2  -4   6    9.90    0.83
  -1  -4   6    2.09    0.51
  -1  -4   6    2.68    0.75
  -1  -4   6    1.77    0.74
   0  -4   6   55.24    1.95
   0  -4   6   53.68    2.41
   0  -4   6   52.97    2.41
   1  -4   6   32.58    1.89
   1  -4   6   32.97    1.50
   1  -4   6   32.74    1.88
   2  -4   6    4.56    0.91
   2  -4   6    5.59    0.94
   2  -4   6    4.27    0.70
   3  -4   6   16.18    1.37
   3  -4   6   16.75    1.24
   3  -4   6   16.46    1.58
   4  -4   6    0.12    0.48
   4  -4   6    0.16    0.68
   4  -4   6   -0.13    0.21
   5  -4   6    9.35    1.26
   5  -4   6    9.11    1.13
   6  -4   6    2.26    0.85
   6  -4   6    1.65    0.75
   7  -4   6    2.71    0.87
   7  -4   6    0.77    0.69
  -7  -3   6    3.14    0.85
   6   3  -6   -0.02    0.36
  -6  -3   6    0.40    0.57
   5   3  -6    5.83    0.71
  -5  -3   6    6.04    0.77
  -5  -3   6    6.37    0.84
  -5  -3   6    6.75    1.00
   4   3  -6   17.05    0.95
  -4  -3   6   16.11    1.41
  -4  -3   6   16.01    1.00
  -4  -3   6   16.30    1.17
   3   3  -6   -0.20    0.26
  -3  -3   6    0.19    0.33
  -3  -3   6    0.59    0.47
  -3  -3   6    0.29    0.55
   2   3  -6   35.34    1.29
  -2  -3   6   38.18    1.39
  -2  -3   6   38.54    1.80
  -2  -3   6   35.48    1.88
   1   3  -6    9.96    0.68
  -1  -3   6    9.64    0.70
  -1  -3   6    9.26    1.05
  -1  -3   6    8.82    1.00
   0  -3   6    5.07    0.83
   0  -3   6    5.49    0.61
   0  -3   6    5.13    0.83
   1  -3   6   21.01    1.09
   1  -3   6   21.66    1.41
   1  -3   6   22.22    1.50
   2  -3   6    8.29    0.83
   2  -3   6    8.20    1.08
   2  -3   6    8.31    0.99
   3  -3   6    0.18    0.40
   3  -3   6   -0.49    0.53
   3  -3   6    0.21    0.49
   4  -3   6   24.83    1.42
   4  -3   6   24.78    1.46
   4  -3   6   23.40    1.67
   5  -3   6    9.48    1.18
   5  -3   6   10.13    1.15
   6  -3   6    0.18    0.60
   6  -3   6    1.14    0.62
   7  -3   6   -0.09    0.56
   7  -3   6   -0.07    0.65
   8  -3   6    2.90    0.94
  -7  -2   6    0.50    0.54
   6   2  -6    2.08    0.54
  -6  -2   6    1.82    0.70
   5   2  -6   -0.34    0.28
  -5  -2   6    0.56    0.57
  -5  -2   6    0.40    0.41
   4   2  -6    0.56    0.29
  -4  -2   6    0.35    0.27
  -4  -2   6    0.35    0.43
  -4  -2   6    0.93    0.57
   3   2  -6   21.59    0.94
   3   2  -6   22.34    0.92
  -3  -2   6   22.93    0.97
  -3  -2   6   21.94    1.45
  -3  -2   6   23.29    0.97
  -3  -2   6   19.04    1.21
   2   2  -6    2.57    0.37
  -2  -2   6    3.17    0.63
  -2  -2   6    2.39    0.37
  -2  -2   6    2.71    0.67
  -1  -2   6    1.40    0.31
  -1  -2   6    0.87    0.53
  -1  -2   6    1.11    0.54
   0   2  -6   24.69    1.09
   0  -2   6   25.97    1.44
   0  -2   6   26.76    1.01
   0  -2   6   23.63    1.42
   1  -2   6   15.03    0.81
   1  -2   6   15.97    1.19
   1  -2   6   14.77    1.11
   2  -2   6    1.24    0.40
   2  -2   6    0.40    0.46
   2  -2   6    0.55    0.54
   3  -2   6   70.24    2.65
   3  -2   6   69.10    2.30
   4  -2   6    1.81    0.64
   4  -2   6    1.73    0.53
   4  -2   6    1.43    0.49
   5  -2   6    1.96    0.69
   5  -2   6    0.85    0.50
   6  -2   6   11.44    1.19
   6  -2   6    9.55    1.13
   7  -2   6    0.72    0.30
   7  -2   6   -0.13    0.59
   8  -2   6   10.13    1.41
   9  -2   6    3.47    1.01
   7   1  -6    0.53    0.39
  -7  -1   6    0.13    0.53
   6   1  -6   35.99    1.55
  -6  -1   6   34.96    1.88
   5   1  -6    0.91    0.36
  -5  -1   6    0.76    0.56
  -5  -1   6    0.74    0.34
  -5  -1   6    0.85    0.42
   4   1  -6   10.48    0.72
   4   1  -6    8.98    0.65
  -4  -1   6    9.07    0.91
  -4  -1   6    9.54    0.69
  -4  -1   6   11.35    1.19
   3   1  -6    3.27    0.37
   3   1  -6    2.97    0.44
  -3  -1   6    2.68    0.42
  -3  -1   6    3.46    0.70
  -3  -1   6    2.53    0.56
   2   1  -6    0.59    0.20
  -2  -1   6    0.32    0.42
  -2  -1   6    0.37    0.40
  -2  -1   6    0.36    0.26
  -2  -1   6    0.46    0.20
   1   1  -6    4.01    0.47
  -1  -1   6    5.03    0.37
  -1  -1   6    5.70    0.75
  -1  -1   6    4.13    0.68
   0   1  -6    1.76    0.35
   0  -1   6    1.62    0.26
   0  -1   6    1.95    0.53
   0  -1   6    0.77    0.43
  -1   1  -6   28.01    1.19
   1  -1   6   26.46    1.37
   1  -1   6   28.91    1.48
   1  -1   6   28.37    1.01
   2  -1   6   61.78    2.28
   2  -1   6   60.56    1.85
   2  -1   6   60.24    2.11
   3  -1   6   47.44    1.97
   3  -1   6   46.17    1.73
   3  -1   6   47.20    1.68
   4  -1   6    2.65    0.53
   4  -1   6    3.90    0.69
   4  -1   6    3.59    0.55
   5  -1   6    5.02    0.79
   5  -1   6    4.70    0.75
   6  -1   6    1.37    0.45
   6  -1   6    3.16    0.68
   7  -1   6    2.21    0.71
   8  -1   6   -0.11    0.53
   9  -1   6   15.40    1.67
   7   0  -6   -0.35    0.36
  -7   0   6   -0.13    0.45
   6   0  -6    1.36    0.44
  -6   0   6    1.16    0.43
  -6   0   6    1.24    0.60
   5   0  -6    9.92    0.74
  -5   0   6    9.15    0.88
  -5   0   6    9.13    0.77
  -5   0   6    9.27    1.08
   4   0  -6    6.32    0.59
  -4   0   6    5.66    0.71
  -4   0   6    6.49    0.68
  -4   0   6    7.07    0.91
   3   0  -6    2.60    0.44
   3   0  -6    2.35    0.31
  -3   0   6    2.42    0.49
  -3   0   6    2.20    0.42
  -3   0   6    1.78    0.52
   2   0  -6   21.32    0.66
   2   0  -6   22.21    1.01
  -2   0   6   22.69    1.00
  -2   0   6   20.54    1.16
  -2   0   6   21.28    0.67
  -2   0   6   20.66    1.26
   1   0  -6    4.40    0.52
  -1   0   6    4.08    0.62
  -1   0   6    5.56    0.57
  -1   0   6    3.33    0.60
   0   0  -6   47.25    1.61
   0   0   6   50.17    1.89
   0   0   6   46.47    1.84
  -1   0  -6  229.58    5.74
   1   0   6  238.23    5.36
   1   0   6  240.19    6.14
   1   0   6  236.92    6.07
   2   0   6    2.32    0.35
   2   0   6    2.67    0.55
   2   0   6    1.59    0.44
   3   0   6   24.84    1.09
   3   0   6   25.12    1.31
   3   0   6   24.88    1.13
   4   0   6    5.85    0.78
   4   0   6    6.07    0.58
   4   0   6    6.33    0.71
   5   0   6   16.42    1.12
   5   0   6   18.85    1.15
   6   0   6   -0.49    0.38
   6   0   6    0.77    0.48
   7   0   6   -0.27    0.46
   8   0   6    7.06    1.12
   9   0   6    3.73    0.96
   7  -1  -6   26.49    1.41
  -7   1   6   26.67    1.63
  -7   1   6   25.31    1.46
   6  -1  -6   43.10    1.68
  -6   1   6   41.88    1.77
  -6   1   6   38.04    1.66
  -6   1   6   40.53    1.97
   5  -1  -6   15.27    0.92
  -5   1   6   17.32    1.24
  -5   1   6   17.90    1.08
  -5   1   6   17.02    1.05
   4  -1  -6   13.66    0.75
  -4   1   6   14.64    1.14
  -4   1   6   14.89    0.97
  -4   1   6   15.05    0.91
   3  -1  -6   22.41    0.82
  -3   1   6   22.36    1.07
  -3   1   6   22.01    1.31
  -3   1   6   19.94    1.13
   2  -1  -6    8.10    0.36
   2  -1  -6    8.60    0.65
  -2   1   6    8.11    0.64
  -2   1   6    8.80    0.95
  -2   1   6    8.26    0.82
   1  -1  -6   29.13    1.20
  -1   1   6   27.76    1.39
  -1   1   6   30.10    1.20
  -1   1   6   32.18    1.39
   0  -1  -6   30.30    1.23
   0   1   6   32.00    1.41
   0   1   6   31.42    1.24
   0   1   6   30.18    1.37
  -1  -1  -6   69.60    2.16
   1   1   6   72.44    2.30
   1   1   6   71.09    1.76
   1   1   6   73.16    2.39
  -2  -1  -6    0.29    0.30
   2   1   6    0.80    0.43
   2   1   6    0.84    0.35
   2   1   6    0.55    0.23
   3   1   6    8.77    0.64
   3   1   6    9.91    0.82
   3   1   6    8.77    0.67
   4   1   6    7.75    0.77
   4   1   6    8.31    0.58
   4   1   6    8.27    0.83
   5   1   6   62.10    2.23
   5   1   6   63.94    2.21
   6   1   6    5.15    0.70
   6   1   6    3.63    0.70
   7   1   6   -0.30    0.46
   8   1   6   16.26    1.58
   9   1   6   -0.02    0.58
  10   1   6    1.34    0.81
   7  -2  -6    2.35    0.58
  -7   2   6    2.06    0.64
   6  -2  -6    8.87    0.90
  -6   2   6    6.16    0.83
  -6   2   6    6.76    0.94
  -6   2   6    6.26    0.83
   5  -2  -6   29.29    1.27
  -5   2   6   25.62    1.36
  -5   2   6   26.16    1.37
  -5   2   6   25.86    1.51
   4  -2  -6   45.07    1.53
  -4   2   6   44.99    1.74
  -4   2   6   44.99    1.96
  -4   2   6   43.69    1.76
   3  -2  -6   41.38    1.31
  -3   2   6   39.74    1.60
  -3   2   6   40.16    1.78
  -3   2   6   42.85    1.58
   2  -2  -6   21.36    0.74
  -2   2   6   22.36    1.26
  -2   2   6   22.67    1.16
  -2   2   6   24.08    1.09
   1  -2  -6    2.54    0.42
  -1   2   6    2.32    0.48
  -1   2   6    1.95    0.41
  -1   2   6    1.72    0.48
   0  -2  -6    3.84    0.51
   0   2   6    2.75    0.53
   0   2   6    3.59    0.51
   0   2   6    3.23    0.57
  -1  -2  -6   -0.01    0.26
   1   2   6    0.28    0.35
   1   2   6   -0.01    0.22
   1   2   6   -0.16    0.13
   1   2   6   -0.16    0.31
  -2  -2  -6   55.52    1.88
   2   2   6   60.80    1.98
   2   2   6   57.77    1.89
   2   2   6   55.25    1.62
   3   2   6   17.91    0.88
   3   2   6   17.55    1.01
   3   2   6   16.64    0.85
   4   2   6   10.40    0.78
   4   2   6    9.61    0.62
   5   2   6   -0.17    0.31
   5   2   6   -0.45    0.28
   6   2   6    1.71    0.54
   6   2   6    1.74    0.44
   7   2   6   23.85    1.51
   8   2   6    0.68    0.59
   9   2   6   17.61    1.68
  10   2   6    0.06    0.67
   7  -3  -6    0.18    0.42
  -7   3   6    0.23    0.49
   6  -3  -6   83.48    2.74
  -6   3   6   79.20    2.76
  -6   3   6   82.01    2.98
   5  -3  -6    9.97    0.88
  -5   3   6    7.58    0.90
  -5   3   6    8.47    1.01
  -5   3   6    7.92    0.91
   4  -3  -6    1.86    0.41
  -4   3   6    1.90    0.54
  -4   3   6    1.53    0.46
  -4   3   6    1.72    0.57
   3  -3  -6   65.11    1.92
  -3   3   6   66.68    2.20
  -3   3   6   63.64    2.23
  -3   3   6   61.98    2.35
   2  -3  -6    3.65    0.40
  -2   3   6    4.16    0.58
  -2   3   6    4.21    0.65
  -2   3   6    4.63    0.69
   1  -3  -6    2.62    0.31
  -1   3   6    3.14    0.60
  -1   3   6    2.50    0.45
  -1   3   6    2.38    0.51
   0  -3  -6    0.45    0.21
   0  -3  -6    0.20    0.25
   0   3   6    0.45    0.37
   0   3   6    0.13    0.36
   0   3   6    0.51    0.30
  -1  -3  -6   -0.06    0.19
  -1  -3  -6   -0.31    0.21
   1   3   6    0.26    0.18
   1   3   6    0.03    0.32
   1   3   6    0.06    0.35
   1   3   6    0.21    0.25
  -2  -3  -6    0.61    0.30
   2   3   6    0.66    0.34
   2   3   6    1.14    0.38
   2   3   6    0.95    0.26
   3   3   6   27.37    1.21
   3   3   6   26.13    1.11
   3   3   6   25.65    1.09
   4   3   6   18.37    0.85
   4   3   6   15.42    0.91
   4   3   6   17.80    0.98
   5   3   6   33.86    1.37
   5   3   6   33.97    1.56
   5   3   6   36.38    1.20
   6   3   6    5.51    0.84
   7   3   6   -0.38    0.44
   8   3   6    7.10    1.08
   9   3   6   -0.75    0.54
  10   3   6    1.34    0.79
   7  -4  -6    6.37    0.93
  -7   4   6    4.43    0.84
   6  -4  -6    0.02    0.40
   6  -4  -6    0.43    0.44
  -6   4   6   -0.14    0.45
  -6   4   6   -0.21    0.45
   5  -4  -6    4.70    0.72
   5  -4  -6    7.06    0.80
  -5   4   6    6.68    0.91
  -5   4   6    7.75    1.03
   4  -4  -6    3.18    0.53
  -4   4   6    5.12    0.76
  -4   4   6    3.45    0.68
  -4   4   6    3.36    0.68
   3  -4  -6    0.51    0.31
  -3   4   6    0.35    0.36
  -3   4   6    0.56    0.47
  -3   4   6    0.58    0.45
   2  -4  -6    2.03    0.40
  -2   4   6    2.37    0.60
  -2   4   6    2.55    0.59
  -2   4   6    2.46    0.50
   1  -4  -6    3.92    0.48
  -1   4   6    5.21    0.75
  -1   4   6    5.00    0.72
  -1   4   6    3.27    0.51
   0  -4  -6    2.72    0.40
   0   4   6    3.26    0.58
   0   4   6    2.88    0.47
   0   4   6    3.46    0.58
  -1  -4  -6   44.56    1.47
  -1  -4  -6   46.72    1.79
   1   4   6   45.16    1.75
   1   4   6   46.58    1.46
   1   4   6   41.64    1.58
   1   4   6   45.16    1.72
  -2  -4  -6   32.85    1.33
  -2  -4  -6   30.61    1.21
   2   4   6   31.06    1.31
   2   4   6   32.67    1.37
   2   4   6   31.16    1.34
   2   4   6   30.84    1.18
   3   4   6    1.15    0.33
   3   4   6    0.90    0.35
   4   4   6   38.19    1.45
   4   4   6   38.68    1.42
   4   4   6   37.47    1.52
  -5  -4  -6    2.07    0.36
   5   4   6    2.44    0.48
   5   4   6    2.66    0.59
   6   4   6    1.69    0.59
   7   4   6   14.59    1.37
   8   4   6    1.10    0.61
   9   4   6   11.33    1.39
  10   4   6    5.97    1.21
   7  -5  -6    0.20    0.50
   6  -5  -6    1.36    0.56
   6  -5  -6    0.53    0.45
  -6   5   6    0.80    0.60
   5  -5  -6    2.75    0.63
   5  -5  -6    1.31    0.52
  -5   5   6    2.84    0.71
  -5   5   6    2.41    0.70
   4  -5  -6    3.28    0.62
   4  -5  -6    3.07    0.66
  -4   5   6    3.98    0.69
  -4   5   6    3.06    0.71
  -4   5   6    3.43    0.76
   3  -5  -6    0.81    0.38
  -3   5   6    0.81    0.52
  -3   5   6    1.41    0.49
  -3   5   6    0.29    0.48
   2  -5  -6    0.48    0.36
  -2   5   6    0.33    0.41
  -2   5   6    0.19    0.32
  -2   5   6    0.67    0.47
   1  -5  -6    0.19    0.32
  -1   5   6    1.05    0.46
  -1   5   6    0.86    0.35
  -1   5   6    0.79    0.45
   0  -5  -6   19.56    0.98
   0   5   6   18.10    1.15
   0   5   6   20.78    1.21
   0   5   6   18.68    1.03
  -1  -5  -6   10.03    0.73
   1   5   6   10.97    0.92
   1   5   6    8.25    0.87
   1   5   6    8.98    0.74
   1   5   6    9.14    0.68
  -2  -5  -6    8.09    0.75
   2   5   6    7.65    0.82
   2   5   6    7.18    0.79
   2   5   6    7.90    0.66
   2   5   6    6.56    0.67
   3   5   6    5.59    0.65
   3   5   6    5.40    0.67
   3   5   6    6.04    0.71
  -4  -5  -6    4.53    0.58
   4   5   6    3.80    0.57
   4   5   6    2.84    0.56
  -5  -5  -6   20.00    1.00
   5   5   6   18.17    1.19
   5   5   6   18.04    1.01
   6   5   6    3.62    0.72
   7   5   6   10.30    1.19
   8   5   6    5.93    1.04
   9   5   6   11.41    1.42
   7  -6  -6   -0.56    0.50
   7  -6  -6    0.41    0.56
   6  -6  -6   41.67    2.07
   6  -6  -6   37.65    2.01
  -6   6   6   38.47    2.11
   5  -6  -6   -0.07    0.40
   5  -6  -6   -0.16    0.43
  -5   6   6   -0.51    0.46
   4  -6  -6   -0.11    0.40
   4  -6  -6    0.62    0.51
  -4   6   6    0.17    0.53
   3  -6  -6   -0.50    0.35
   3  -6  -6    0.63    0.47
  -3   6   6   -0.46    0.47
  -3   6   6   -0.07    0.36
  -3   6   6    0.03    0.50
   2  -6  -6   27.74    1.48
   2  -6  -6   23.09    1.28
  -2   6   6   24.38    1.35
  -2   6   6   25.16    1.50
  -2   6   6   23.40    1.51
   1  -6  -6   48.31    1.87
  -1   6   6   48.27    2.10
  -1   6   6   50.81    2.09
  -1   6   6   51.54    1.92
   0  -6  -6    0.93    0.42
   0   6   6    0.93    0.47
   0   6   6    0.46    0.45
   0   6   6    0.47    0.33
  -1  -6  -6   14.86    0.98
   1   6   6   14.42    1.11
   1   6   6   15.37    1.13
   1   6   6   16.78    0.97
  -2  -6  -6    2.77    0.55
   2   6   6    2.88    0.62
   2   6   6    1.81    0.42
   2   6   6    3.04    0.54
   2   6   6    1.35    0.52
  -3  -6  -6    2.09    0.53
  -3  -6  -6    1.35    0.47
   3   6   6    1.28    0.45
   3   6   6    1.57    0.51
   3   6   6    1.69    0.53
   3   6   6    1.51    0.41
  -4  -6  -6    9.96    0.85
   4   6   6   10.02    0.97
  -5  -6  -6    2.99    0.56
   5   6   6    2.11    0.50
   5   6   6    2.61    0.63
   6   6   6    0.27    0.47
   7   6   6    2.28    0.72
   8   6   6   10.15    1.31
   9   6   6    1.58    0.81
   6  -7  -6   -0.61    0.55
   6  -7  -6   -0.16    0.57
   6  -7  -6    0.12    0.55
  -6   7   6   -0.40    0.64
   5  -7  -6    3.49    0.87
   5  -7  -6    2.90    0.80
   5  -7  -6    3.99    0.86
  -5   7   6    1.87    0.76
   4  -7  -6    0.24    0.51
   4  -7  -6    1.42    0.66
  -4   7   6   -0.03    0.62
   3  -7  -6    1.03    0.56
   3  -7  -6    1.91    0.60
  -3   7   6    1.03    0.64
   2  -7  -6   41.85    2.04
   2  -7  -6   45.19    1.95
  -2   7   6   42.61    2.12
  -2   7   6   42.23    1.90
   1  -7  -6   15.68    1.19
   1  -7  -6   12.54    1.23
  -1   7   6   15.09    1.07
  -1   7   6   12.25    1.25
  -1   7   6   15.29    1.33
   0  -7  -6   13.78    1.10
   0  -7  -6   14.70    1.20
   0  -7  -6   12.88    1.12
   0   7   6   14.11    1.20
   0   7   6   14.52    0.99
   0   7   6   11.65    1.23
  -1  -7  -6    1.58    0.55
  -1  -7  -6    0.52    0.48
  -1  -7  -6    1.68    0.55
   1   7   6    1.68    0.44
   1   7   6    1.07    0.52
   1   7   6    1.73    0.63
  -2  -7  -6    0.46    0.44
  -2  -7  -6    0.24    0.39
  -2  -7  -6   -0.28    0.35
   2   7   6   -0.40    0.38
   2   7   6   -0.54    0.33
   2   7   6   -0.20    0.26
  -3  -7  -6   27.50    1.46
  -3  -7  -6   24.21    1.43
  -3  -7  -6   24.90    1.35
   3   7   6   24.80    1.36
   3   7   6   25.46    1.24
   3   7   6   23.77    1.40
  -4  -7  -6   41.71    1.86
  -4  -7  -6   43.84    1.99
  -4  -7  -6   42.23    1.73
   4   7   6   42.31    1.91
  -5  -7  -6    0.91    0.47
  -5  -7  -6    2.05    0.67
   5   7   6    2.34    0.64
   6   7   6    0.27    0.51
   7   7   6   11.03    1.30
   8   7   6    2.55    0.83
   9   7   6    7.27    1.25
   6  -8  -6    9.79    1.37
   6  -8  -6   13.44    1.58
   6  -8  -6    9.78    1.39
   5  -8  -6    4.07    0.95
   5  -8  -6    4.51    0.99
   5  -8  -6    3.29    0.91
   4  -8  -6    0.04    0.59
   4  -8  -6    0.49    0.65
   4  -8  -6   -0.38    0.51
   3  -8  -6    1.15    0.62
   3  -8  -6    0.96    0.68
   3  -8  -6    1.41    0.70
  -3   8   6    1.00    0.73
   2  -8  -6    0.93    0.55
   2  -8  -6    1.10    0.64
   2  -8  -6    1.04    0.67
  -2   8   6    0.61    0.67
   1  -8  -6    6.81    0.97
   1  -8  -6    6.66    1.02
   1  -8  -6    7.22    1.07
  -1   8   6    6.16    0.83
   0  -8  -6   15.66    1.47
   0  -8  -6   15.23    1.24
   0  -8  -6   14.03    1.36
   0   8   6   13.35    1.01
  -1  -8  -6    0.04    0.47
  -1  -8  -6   -0.02    0.45
  -1  -8  -6   -0.11    0.48
   1   8   6   -0.03    0.31
  -2  -8  -6   20.87    1.43
  -2  -8  -6   20.60    1.41
  -2  -8  -6   23.21    1.53
   2   8   6   20.49    1.16
  -3  -8  -6    9.18    1.05
  -3  -8  -6    9.25    1.08
  -3  -8  -6    8.32    1.04
   3   8   6    9.79    1.08
  -4  -8  -6    0.77    0.55
  -4  -8  -6    0.68    0.41
  -4  -8  -6    0.83    0.59
   4   8   6    1.01    0.56
  -5  -8  -6    5.53    0.98
  -5  -8  -6    4.06    0.74
   5   8   6    3.40    0.77
  -6  -8  -6    5.21    0.99
   6   8   6    4.93    0.88
   7   8   6    1.21    0.66
   8   8   6    4.50    0.99
   5  -9  -6    1.20    0.85
   5  -9  -6    1.98    0.85
   5  -9  -6    1.01    0.78
   4  -9  -6   -0.30    0.65
   4  -9  -6    1.73    0.77
   4  -9  -6    2.03    0.87
   3  -9  -6    5.94    1.03
   3  -9  -6    5.20    1.05
   3  -9  -6    5.69    1.17
   2  -9  -6   15.44    1.50
   2  -9  -6   17.67    1.76
   2  -9  -6   16.92    1.71
   1  -9  -6    4.02    1.00
   1  -9  -6    5.11    0.95
   1  -9  -6    3.20    0.91
   0  -9  -6    5.09    0.94
   0  -9  -6    4.82    0.98
   0  -9  -6    5.60    1.03
  -1  -9  -6   -0.42    0.55
  -1  -9  -6    0.14    0.55
  -1  -9  -6    0.13    0.54
   1   9   6   -0.03    0.36
  -2  -9  -6    9.88    1.24
  -2  -9  -6    9.98    1.21
  -2  -9  -6   10.84    1.25
  -3  -9  -6    2.43    0.72
  -3  -9  -6    2.52    0.71
  -3  -9  -6    2.59    0.76
   3   9   6    2.03    0.71
  -4  -9  -6    7.43    0.98
  -4  -9  -6    7.02    1.04
  -4  -9  -6    7.54    1.12
   4   9   6    6.34    1.01
  -5  -9  -6   -0.27    0.60
  -5  -9  -6   -0.02    0.48
   5   9   6   -0.59    0.43
  -6  -9  -6    0.65    0.67
   6   9   6    1.07    0.65
  -7  -9  -6    5.66    1.15
   7   9   6    6.57    1.14
   3 -10  -6    8.67    1.32
   3 -10  -6    7.48    1.37
   3 -10  -6    9.42    1.45
   2 -10  -6    2.09    0.90
   2 -10  -6    2.55    0.89
   2 -10  -6    0.86    0.78
   1 -10  -6    1.28    0.79
   1 -10  -6    1.27    0.76
   1 -10  -6    1.59    0.85
   0 -10  -6    0.95    0.77
   0 -10  -6    2.01    0.90
   0 -10  -6    0.29    0.69
  -1 -10  -6   10.81    1.34
  -1 -10  -6   11.95    1.40
  -1 -10  -6   13.63    1.58
  -2 -10  -6   17.74    1.71
  -2 -10  -6   14.27    1.48
  -2 -10  -6   15.54    1.57
  -3 -10  -6    1.98    0.83
  -3 -10  -6    3.75    0.89
  -3 -10  -6    3.41    0.96
  -4 -10  -6   -0.06    0.51
  -4 -10  -6   -0.64    0.50
  -4 -10  -6    0.61    0.67
   4  10   6    0.02    0.56
  -5 -10  -6    0.13    0.62
  -5 -10  -6    0.08    0.63
   5  10   6    0.41    0.64
  -6 -10  -6    0.29    0.74
   6  10   6    2.60    0.82
   1 -11  -6    0.75    0.92
   1 -11  -6    0.41    0.86
   0 -11  -6   -0.33    0.74
   0 -11  -6   -0.81    0.72
  -1 -11  -6   12.75    1.59
  -1 -11  -6   11.23    1.55
  -1 -11  -6   11.67    1.49
  -2 -11  -6    2.54    0.88
  -2 -11  -6    1.19    0.84
  -2 -11  -6    2.55    0.98
  -3 -11  -6    0.41    0.72
  -3 -11  -6    0.26    0.71
  -3 -11  -6    0.59    0.78
  -4 -11  -6    0.49    0.70
  -4 -11  -6   -0.27    0.69
  -2  -8   7    0.71    0.83
  -1  -8   7    4.45    1.27
   0  -8   7    0.83    0.97
  -4  -7   7    1.41    0.86
  -4  -7   7   -0.39    0.92
  -3  -7   7    0.89    0.94
  -3  -7   7   -0.33    0.67
  -2  -7   7    2.09    0.89
  -2  -7   7    0.74    0.91
  -1  -7   7    0.26    0.82
  -1  -7   7    1.44    1.04
   0  -7   7    1.62    0.95
   0  -7   7    1.10    0.70
   0  -7   7    0.88    0.94
   1  -7   7    4.82    1.24
   1  -7   7    2.75    0.86
   1  -7   7    3.16    1.14
   2  -7   7   -0.88    0.90
   2  -7   7    0.80    0.66
   2  -7   7   -0.18    0.80
   3  -7   7    0.77    1.02
   3  -7   7    0.17    0.82
   3  -7   7    0.19    0.64
  -6  -6   7    1.56    0.88
  -5  -6   7    1.90    0.97
  -4  -6   7    6.50    1.24
  -4  -6   7    5.53    1.01
  -3  -6   7   16.01    1.80
  -3  -6   7   10.95    1.39
  -2  -6   7    3.25    0.97
  -2  -6   7    3.08    1.04
  -1  -6   7    8.11    1.24
  -1  -6   7    9.39    1.37
  -1  -6   7    9.32    1.06
   0  -6   7    3.71    1.04
   0  -6   7    3.94    0.82
   0  -6   7    5.64    1.22
   1  -6   7    8.50    1.08
   1  -6   7    9.00    1.40
   1  -6   7    7.49    1.29
   2  -6   7    2.54    1.01
   2  -6   7    1.82    0.92
   2  -6   7    1.89    0.72
   3  -6   7    4.54    0.92
   3  -6   7    3.22    0.96
   3  -6   7    5.86    1.25
   4  -6   7    5.95    1.08
   4  -6   7    7.34    1.42
   5  -6   7    4.05    0.99
   5  -6   7    3.32    1.18
  -7  -5   7    2.35    0.90
  -6  -5   7    1.00    0.80
  -5  -5   7    8.07    1.32
  -4  -5   7   20.03    1.52
  -4  -5   7   21.35    1.79
  -3  -5   7    8.86    1.16
  -3  -5   7    6.81    1.22
  -2  -5   7    5.22    0.98
  -2  -5   7    8.19    1.27
  -2  -5   7    7.67    0.86
  -1  -5   7    9.83    1.31
  -1  -5   7    7.34    1.22
  -1  -5   7    7.62    0.88
   0  -5   7   16.28    1.18
   0  -5   7   16.64    1.62
   0  -5   7   16.31    1.65
   1  -5   7    0.27    0.73
   1  -5   7   -0.48    0.42
   1  -5   7    0.30    0.74
   2  -5   7    7.83    1.20
   2  -5   7    5.59    1.14
   2  -5   7    7.84    0.99
   3  -5   7   15.19    1.25
   3  -5   7   12.67    1.60
   3  -5   7   13.83    1.48
   4  -5   7   32.44    1.87
   4  -5   7   34.17    2.26
   5  -5   7   -0.16    0.59
   5  -5   7    0.72    0.89
   6  -5   7    0.01    0.68
   6  -5   7    1.74    0.97
  -7  -4   7    0.00    0.68
  -6  -4   7    3.00    0.80
  -5  -4   7    6.51    1.09
  -4  -4   7    3.32    0.77
  -4  -4   7    2.37    0.82
  -3  -4   7    1.00    0.71
  -3  -4   7    1.38    0.62
  -2  -4   7    0.45    0.60
  -2  -4   7    1.27    0.79
  -2  -4   7    0.31    0.39
  -1  -4   7    1.64    0.82
  -1  -4   7    2.35    0.78
  -1  -4   7    1.56    0.51
   0  -4   7    7.47    1.12
   0  -4   7    8.00    0.82
   0  -4   7    8.20    1.17
   1  -4   7    8.20    0.87
   1  -4   7    7.34    1.11
   1  -4   7    6.33    1.04
   2  -4   7   13.60    1.08
   2  -4   7   11.15    1.24
   2  -4   7   10.58    1.30
   3  -4   7    4.29    0.97
   3  -4   7    4.34    0.88
   3  -4   7    3.22    0.72
   4  -4   7    2.97    0.94
   4  -4   7    4.27    0.83
   5  -4   7   10.39    1.43
   5  -4   7   10.67    1.25
   6  -4   7    9.76    1.25
   6  -4   7    8.54    1.33
   7  -4   7    4.82    1.10
   7  -4   7    9.00    1.31
  -7  -3   7   18.29    1.76
  -6  -3   7    4.23    0.98
  -5  -3   7    2.76    0.84
  -5  -3   7    3.24    0.75
  -4  -3   7    2.50    0.80
  -4  -3   7    4.46    0.81
  -3  -3   7    1.44    0.75
  -3  -3   7    1.42    0.57
  -2  -3   7    0.28    0.34
  -2  -3   7   -0.06    0.49
  -2  -3   7    1.02    0.61
   1   3  -7   11.31    0.77
  -1  -3   7   10.88    0.79
  -1  -3   7    9.23    1.17
  -1  -3   7    9.22    1.12
   0  -3   7   13.95    1.35
   0  -3   7   12.87    0.83
   0  -3   7   10.26    1.21
   1  -3   7   12.58    0.87
   1  -3   7   10.97    1.21
   1  -3   7   12.17    1.21
   2  -3   7   12.94    1.24
   2  -3   7   12.26    1.36
   2  -3   7   13.81    0.95
   3  -3   7    0.52    0.65
   3  -3   7    0.18    0.52
   3  -3   7    0.35    0.42
   4  -3   7   10.94    1.31
   4  -3   7   10.04    1.09
   4  -3   7    9.83    1.05
   5  -3   7    0.56    0.66
   5  -3   7    0.45    0.53
   6  -3   7   -0.03    0.67
   6  -3   7   -0.19    0.53
   7  -3   7    8.54    1.22
   7  -3   7    6.13    1.11
   8  -3   7    6.02    1.19
  -7  -2   7    3.92    0.92
  -6  -2   7    0.00    0.56
  -5  -2   7    2.80    0.82
  -5  -2   7    2.51    0.63
  -4  -2   7    1.44    0.68
  -4  -2   7    1.65    0.57
   3   2  -7    5.78    0.56
   3   2  -7    6.72    0.73
  -3  -2   7    6.75    1.02
  -3  -2   7    6.29    0.88
   2   2  -7   25.35    1.13
  -2  -2   7   26.05    1.49
  -2  -2   7   28.99    1.69
  -2  -2   7   27.87    1.03
  -1  -2   7   10.03    1.12
  -1  -2   7    8.07    0.59
  -1  -2   7    7.71    0.95
   0  -2   7   97.57    3.41
   0  -2   7  104.65    2.72
   0  -2   7  106.47    3.47
   1  -2   7   -0.12    0.54
   1  -2   7   -0.42    0.24
   1  -2   7    0.50    0.53
   2  -2   7   10.24    1.05
   2  -2   7   10.26    0.78
   2  -2   7   10.91    1.18
   3  -2   7    9.17    0.95
   3  -2   7    9.75    0.83
   3  -2   7   10.67    1.22
   4  -2   7   28.80    1.47
   4  -2   7   31.95    1.54
   4  -2   7   29.38    1.75
   5  -2   7    2.49    0.66
   5  -2   7    0.83    0.64
   6  -2   7    4.76    0.92
   6  -2   7    4.87    0.87
   7  -2   7    0.08    0.57
   7  -2   7    0.53    0.60
   8  -2   7    2.40    0.86
  -7  -1   7    2.81    0.82
  -6  -1   7   -0.01    0.49
  -5  -1   7    0.83    0.61
  -5  -1   7    2.19    0.46
  -5  -1   7    1.97    0.58
  -4  -1   7   15.85    1.34
  -4  -1   7   15.93    0.91
  -4  -1   7   15.68    1.14
   3   1  -7    9.05    0.67
   3   1  -7    9.20    0.55
  -3  -1   7    9.55    0.73
  -3  -1   7    9.48    1.13
  -3  -1   7    7.76    0.92
   2   1  -7    6.92    0.59
  -2  -1   7    6.94    0.87
  -2  -1   7    7.22    0.45
  -2  -1   7    7.06    0.67
  -2  -1   7    6.68    0.94
   1   1  -7    5.98    0.64
  -1  -1   7    4.78    0.77
  -1  -1   7    5.50    0.81
  -1  -1   7    6.19    0.40
   0  -1   7   11.57    0.55
   0  -1   7   12.66    1.09
   0  -1   7   11.40    1.12
   1  -1   7   27.06    1.51
   1  -1   7   26.09    1.44
   1  -1   7   26.80    0.99
   2  -1   7   27.54    1.12
   2  -1   7   26.97    1.39
   2  -1   7   28.39    1.60
   3  -1   7    0.24    0.16
   3  -1   7    0.72    0.33
   3  -1   7    1.57    0.59
   4  -1   7   18.31    1.12
   4  -1   7   18.05    1.08
   4  -1   7   18.08    1.34
   5  -1   7   12.31    1.22
   5  -1   7   12.84    1.07
   6  -1   7    2.30    0.68
   6  -1   7    5.32    0.87
   7  -1   7   11.74    1.30
   8  -1   7    8.91    1.28
   9  -1   7    4.83    1.06
  -7   0   7    3.47    0.82
  -6   0   7    0.93    0.43
  -6   0   7    1.79    0.72
  -5   0   7   19.18    1.48
  -5   0   7   18.74    1.10
  -5   0   7   19.84    1.21
  -4   0   7    0.99    0.50
  -4   0   7    0.93    0.41
  -4   0   7    1.07    0.58
   3   0  -7    1.73    0.27
  -3   0   7    2.22    0.55
  -3   0   7    1.50    0.38
  -3   0   7    1.24    0.60
  -2   0   7    7.32    0.91
  -2   0   7   10.78    0.76
  -2   0   7    8.47    0.90
   1   0  -7    9.25    0.72
  -1   0   7    9.68    0.73
  -1   0   7    9.79    0.98
  -1   0   7   11.81    1.11
   0   0   7    8.70    0.98
   0   0   7    9.09    0.97
   1   0   7    0.33    0.43
   1   0   7   -0.14    0.14
   1   0   7   -0.39    0.36
   2   0   7    4.01    0.43
   2   0   7    3.24    0.66
   2   0   7    3.67    0.63
   3   0   7    0.56    0.32
   3   0   7    0.77    0.39
   3   0   7    0.28    0.46
   4   0   7   29.03    1.28
   4   0   7   29.75    1.57
   4   0   7   28.61    1.34
   5   0   7   -0.24    0.38
   5   0   7   -0.09    0.45
   6   0   7   14.33    1.20
   7   0   7    8.82    1.14
   8   0   7    1.65    0.76
   9   0   7    1.61    0.76
  -7   1   7    2.21    0.74
  -6   1   7   12.61    1.01
  -6   1   7   13.26    1.35
  -6   1   7   13.59    1.08
  -5   1   7    1.83    0.67
  -5   1   7    2.47    0.61
  -5   1   7    1.84    0.49
   4  -1  -7   83.69    2.39
  -4   1   7   78.77    2.55
  -4   1   7   81.96    2.99
  -4   1   7   80.02    2.70
   3  -1  -7   18.62    0.69
  -3   1   7   16.82    1.11
  -3   1   7   18.65    1.02
  -3   1   7   16.61    1.27
  -2   1   7   10.51    0.99
  -2   1   7    9.26    0.99
  -2   1   7    9.62    0.73
  -1   1   7    0.51    0.31
  -1   1   7    0.70    0.44
  -1   1   7    0.41    0.43
   0   1   7   48.88    1.74
   0   1   7   50.90    1.97
   0   1   7   46.62    1.90
   1   1   7    1.43    0.18
   1   1   7    1.03    0.45
   1   1   7    0.03    0.40
   2   1   7    0.27    0.21
   2   1   7    0.90    0.46
   2   1   7    0.85    0.41
   3   1   7   51.89    2.06
   3   1   7   51.49    1.84
   3   1   7   51.53    1.69
   4   1   7    3.59    0.67
   4   1   7    3.48    0.56
   4   1   7    5.00    0.58
   5   1   7   77.80    2.69
   5   1   7   77.09    2.61
   6   1   7    0.75    0.48
   6   1   7    0.41    0.47
   7   1   7    0.40    0.53
   8   1   7    0.81    0.63
   9   1   7    2.21    0.79
  -7   2   7    0.47    0.54
  -6   2   7   13.82    1.35
  -6   2   7   15.77    1.19
  -6   2   7   15.76    1.20
  -5   2   7   34.27    1.61
  -5   2   7   34.96    1.86
  -5   2   7   35.39    1.66
   4  -2  -7    1.73    0.37
  -4   2   7    2.12    0.67
  -4   2   7    1.93    0.56
  -4   2   7    2.53    0.54
   3  -2  -7   19.30    0.77
  -3   2   7   17.48    1.05
  -3   2   7   18.74    1.31
  -3   2   7   17.11    1.16
   2  -2  -7   28.32    0.82
  -2   2   7   28.75    1.50
  -2   2   7   32.30    1.34
  -2   2   7   27.97    1.41
  -1   2   7   48.05    1.70
  -1   2   7   47.28    1.88
  -1   2   7   44.79    1.87
   0   2   7    5.25    0.60
   0   2   7    5.74    0.72
   0   2   7    5.33    0.69
   1   2   7   36.37    1.03
   1   2   7   39.67    1.60
   1   2   7   39.47    1.66
   2   2   7   24.22    1.20
   2   2   7   24.40    0.91
   2   2   7   27.34    1.34
   3   2   7    2.42    0.48
   3   2   7    1.82    0.51
   3   2   7    2.67    0.41
   4   2   7   29.47    1.18
   4   2   7   29.52    1.42
   4   2   7   29.64    1.29
   5   2   7   18.71    1.12
   5   2   7   25.10    1.29
   6   2   7    6.12    0.85
   6   2   7    5.88    0.78
   7   2   7   19.97    1.44
   8   2   7    2.70    0.78
   9   2   7   10.93    1.43
  -7   3   7    8.84    1.14
  -6   3   7   14.94    1.33
  -6   3   7   13.62    1.36
   5  -3  -7    0.29    0.34
  -5   3   7    0.75    0.52
  -5   3   7    0.71    0.45
  -5   3   7    1.29    0.62
   4  -3  -7    0.49    0.29
  -4   3   7    1.05    0.57
  -4   3   7    0.77    0.46
  -4   3   7    0.51    0.47
   3  -3  -7    3.65    0.43
  -3   3   7    2.83    0.61
  -3   3   7    2.49    0.53
  -3   3   7    2.85    0.67
   2  -3  -7   25.36    0.89
  -2   3   7   26.81    1.47
  -2   3   7   23.96    1.24
  -2   3   7   28.37    1.37
   1  -3  -7    3.75    0.31
  -1   3   7    5.04    0.76
  -1   3   7    4.13    0.57
  -1   3   7    4.17    0.67
   0  -3  -7   64.13    1.66
   0   3   7   67.81    2.30
   0   3   7   65.44    2.33
  -1  -3  -7    4.94    0.41
   1   3   7    4.74    0.65
   1   3   7    5.20    0.38
   1   3   7    5.49    0.69
   1   3   7    5.12    0.63
   2   3   7   24.42    0.94
   2   3   7   23.06    1.24
   2   3   7   23.61    1.19
   3   3   7    1.05    0.43
   3   3   7    1.57    0.34
   3   3   7    0.24    0.25
   4   3   7    6.71    0.71
   4   3   7    8.30    0.84
   4   3   7    5.85    0.64
   5   3   7   88.78    2.75
   5   3   7   88.02    2.83
   6   3   7    5.94    0.83
   7   3   7    7.52    0.99
   8   3   7    5.52    0.98
   9   3   7    1.91    0.76
  -7   4   7   30.10    1.85
   6  -4  -7   -0.33    0.39
  -6   4   7    0.09    0.50
  -6   4   7   -0.50    0.48
   5  -4  -7   -0.06    0.33
  -5   4   7    0.66    0.51
  -5   4   7   -0.03    0.52
   4  -4  -7    0.10    0.30
  -4   4   7    0.17    0.50
  -4   4   7    0.98    0.50
  -4   4   7    0.68    0.52
   3  -4  -7   59.31    1.89
  -3   4   7   59.86    2.42
  -3   4   7   60.01    2.33
  -3   4   7   59.85    2.20
   2  -4  -7   60.74    1.81
  -2   4   7   62.52    2.29
  -2   4   7   62.06    2.16
  -2   4   7   58.24    2.36
   1  -4  -7   17.14    0.78
  -1   4   7   16.75    1.19
  -1   4   7   18.28    1.05
  -1   4   7   16.89    1.14
   0  -4  -7    1.92    0.33
   0   4   7    1.68    0.43
   0   4   7    1.24    0.47
   0   4   7    1.76    0.55
  -1  -4  -7    5.21    0.51
   1   4   7    5.60    0.68
   1   4   7    4.42    0.68
   1   4   7    3.95    0.61
   1   4   7    4.96    0.48
  -2  -4  -7   31.50    1.20
   2   4   7   29.88    1.36
   2   4   7   32.43    1.44
   2   4   7   30.11    1.15
   2   4   7   31.01    1.41
   3   4   7    7.62    0.80
   3   4   7    7.47    0.65
   3   4   7    8.15    0.73
   4   4   7    4.42    0.62
   4   4   7    5.64    0.65
   4   4   7    5.02    0.64
   5   4   7    2.73    0.60
   5   4   7    2.19    0.52
   6   4   7   33.81    1.71
   7   4   7    9.51    1.16
   8   4   7    3.15    0.83
   9   4   7   25.36    1.84
   6  -5  -7    2.72    0.68
  -6   5   7    2.77    0.78
   5  -5  -7    4.49    0.80
   5  -5  -7    3.80    0.67
  -5   5   7    5.82    0.95
  -5   5   7    5.67    0.95
   4  -5  -7    2.57    0.54
  -4   5   7    2.98    0.74
  -4   5   7    3.87    0.83
   3  -5  -7   38.35    1.56
  -3   5   7   36.90    1.85
  -3   5   7   40.61    1.78
  -3   5   7   40.02    1.95
   2  -5  -7    1.39    0.39
  -2   5   7    1.00    0.44
  -2   5   7    0.73    0.52
  -2   5   7    2.41    0.70
   1  -5  -7    7.07    0.69
  -1   5   7    7.09    0.94
  -1   5   7    7.40    0.82
  -1   5   7    6.17    0.86
   0  -5  -7    8.67    0.69
   0   5   7    7.13    0.84
   0   5   7    8.29    0.80
   0   5   7   11.01    1.08
  -1  -5  -7    1.27    0.36
   1   5   7    0.71    0.44
   1   5   7    0.13    0.29
   1   5   7    1.02    0.44
  -2  -5  -7    2.29    0.47
   2   5   7    1.43    0.52
   2   5   7    1.31    0.47
   2   5   7    1.92    0.47
   2   5   7    2.28    0.43
   3   5   7   15.16    0.93
   3   5   7   15.88    1.09
   3   5   7   14.51    1.00
   4   5   7   11.54    0.88
   4   5   7   12.37    0.93
   4   5   7    8.27    0.74
  -5  -5  -7    2.72    0.49
   5   5   7    2.65    0.53
   5   5   7    3.22    0.64
   6   5   7   17.99    1.28
   7   5   7   12.61    1.32
   8   5   7   23.97    1.70
   9   5   7   -0.01    0.69
   7  -6  -7    6.15    1.14
   6  -6  -7    1.10    0.62
  -6   6   7    0.52    0.62
   5  -6  -7    0.03    0.48
   5  -6  -7    0.72    0.47
  -5   6   7   -1.06    0.51
   4  -6  -7    6.31    0.94
   4  -6  -7    4.63    0.76
  -4   6   7    5.92    1.02
  -4   6   7    5.68    0.96
   3  -6  -7    1.27    0.47
   3  -6  -7    1.17    0.54
  -3   6   7    1.50    0.66
  -3   6   7    1.09    0.62
   2  -6  -7   -0.09    0.37
  -2   6   7    0.03    0.36
  -2   6   7    0.10    0.50
  -2   6   7    0.08    0.53
   1  -6  -7    5.91    0.71
  -1   6   7    5.77    0.78
  -1   6   7    5.53    0.86
  -1   6   7    6.37    0.91
   0  -6  -7    4.85    0.65
   0   6   7    5.19    0.80
   0   6   7    4.45    0.81
   0   6   7    5.34    0.72
  -1  -6  -7    1.19    0.43
   1   6   7    1.81    0.60
   1   6   7    0.46    0.35
   1   6   7    1.15    0.51
  -2  -6  -7   11.15    0.91
   2   6   7   12.48    1.02
   2   6   7   11.19    1.08
   2   6   7   11.67    0.87
   2   6   7   11.35    0.87
  -3  -6  -7   24.84    1.29
   3   6   7   23.08    1.34
   3   6   7   22.95    1.25
   3   6   7   24.74    1.26
   3   6   7   23.38    1.33
  -4  -6  -7   16.11    1.06
   4   6   7   13.13    1.01
   4   6   7   16.76    1.10
  -5  -6  -7   50.37    1.92
   5   6   7   51.87    2.11
   5   6   7   51.41    1.94
   6   6   7    2.08    0.65
   7   6   7    5.35    0.94
   8   6   7    1.43    0.72
   9   6   7    1.09    0.76
   6  -7  -7    0.06    0.57
  -6   7   7   -0.66    0.61
   5  -7  -7    7.46    1.02
   5  -7  -7    6.55    1.09
  -5   7   7    7.27    1.16
   4  -7  -7    6.87    1.04
   4  -7  -7    8.66    1.05
  -4   7   7    9.99    1.27
   3  -7  -7    4.50    0.90
   3  -7  -7    2.66    0.66
  -3   7   7    3.06    0.80
  -3   7   7    3.37    0.88
   2  -7  -7    1.77    0.65
   2  -7  -7    0.84    0.54
  -2   7   7    1.60    0.64
  -2   7   7    1.89    0.71
   1  -7  -7    7.85    1.02
   1  -7  -7   10.34    1.02
  -1   7   7    9.02    1.08
  -1   7   7    9.71    0.97
  -1   7   7   11.43    1.28
   0  -7  -7    2.47    0.60
   0   7   7    2.36    0.55
   0   7   7    3.75    0.81
   0   7   7    2.43    0.74
  -1  -7  -7    1.90    0.55
   1   7   7    2.55    0.67
   1   7   7    0.98    0.41
   1   7   7    0.86    0.59
  -2  -7  -7    1.53    0.59
  -2  -7  -7    1.81    0.55
   2   7   7    2.26    0.66
   2   7   7    1.36    0.56
   2   7   7    3.05    0.61
   2   7   7    2.27    0.51
  -3  -7  -7   41.49    1.90
  -3  -7  -7   42.66    1.87
   3   7   7   41.53    1.73
   3   7   7   42.94    1.90
   3   7   7   41.26    1.80
  -4  -7  -7   25.77    1.49
  -4  -7  -7   24.38    1.38
   4   7   7   24.74    1.40
   4   7   7   24.84    1.47
  -5  -7  -7    1.29    0.53
  -5  -7  -7    0.56    0.53
  -5  -7  -7    0.14    0.35
   5   7   7    0.65    0.51
   5   7   7    0.58    0.49
   6   7   7    2.60    0.73
   7   7   7    0.16    0.59
   8   7   7    0.76    0.70
   9   7   7    1.11    0.74
   5  -8  -7   -0.22    0.62
   5  -8  -7   -0.14    0.65
   5  -8  -7    0.65    0.64
  -5   8   7   -0.13    0.74
   4  -8  -7    1.52    0.76
   4  -8  -7    2.23    0.81
   4  -8  -7    2.76    0.74
  -4   8   7   -0.01    0.67
   3  -8  -7   -0.03    0.56
   3  -8  -7    0.29    0.53
   3  -8  -7   -0.58    0.50
  -3   8   7   -0.40    0.63
   2  -8  -7    8.03    1.14
   2  -8  -7    9.50    1.10
   2  -8  -7   10.41    1.34
  -2   8   7    7.98    1.24
   1  -8  -7    2.57    0.79
   1  -8  -7    2.75    0.70
   1  -8  -7    2.55    0.71
  -1   8   7    2.53    0.85
   0  -8  -7   11.87    1.19
   0  -8  -7    9.74    1.20
   0  -8  -7   10.80    1.28
   0   8   7   13.01    1.43
   0   8   7   12.22    1.02
   0   8   7   10.44    1.26
  -1  -8  -7    2.60    0.73
  -1  -8  -7    4.10    0.77
  -1  -8  -7    3.74    0.75
   1   8   7    3.46    0.64
   1   8   7    4.46    0.94
   1   8   7    4.05    0.88
  -2  -8  -7   33.38    1.74
  -2  -8  -7   31.05    1.67
  -2  -8  -7   31.44    1.73
   2   8   7   32.00    1.52
   2   8   7   27.89    1.75
  -3  -8  -7    1.38    0.59
  -3  -8  -7    0.76    0.56
  -3  -8  -7    0.95    0.48
   3   8   7    0.91    0.62
   3   8   7    0.74    0.49
   3   8   7    1.37    0.45
  -4  -8  -7    2.24    0.60
  -4  -8  -7    3.05    0.75
  -4  -8  -7    3.44    0.74
   4   8   7    3.81    0.76
  -5  -8  -7   16.18    1.21
  -5  -8  -7   14.38    1.42
   5   8   7   15.04    1.40
  -6  -8  -7    1.54    0.68
   6   8   7    3.32    0.80
   7   8   7    6.31    1.05
   8   8   7    6.79    1.11
   4  -9  -7    0.11    0.70
   4  -9  -7    0.66    0.68
   4  -9  -7    0.71    0.66
   3  -9  -7    0.11    0.65
   3  -9  -7   -0.47    0.50
   3  -9  -7    0.45    0.71
   2  -9  -7   40.84    2.32
   2  -9  -7   37.00    2.27
   2  -9  -7   37.57    2.08
   1  -9  -7    1.92    0.70
   1  -9  -7    0.71    0.69
   1  -9  -7    0.66    0.69
   0  -9  -7    6.77    1.06
   0  -9  -7    3.33    0.83
   0  -9  -7    4.83    0.98
  -1  -9  -7   -0.15    0.52
  -1  -9  -7    0.03    0.54
  -1  -9  -7    0.55    0.59
   1   9   7   -0.18    0.37
  -2  -9  -7    6.73    1.07
  -2  -9  -7    4.73    0.93
  -2  -9  -7    6.31    0.99
  -3  -9  -7    5.85    1.00
  -3  -9  -7    2.83    0.80
  -3  -9  -7    4.70    0.85
   3   9   7    5.26    0.90
  -4  -9  -7    0.20    0.51
  -4  -9  -7    0.31    0.56
  -4  -9  -7    0.90    0.56
   4   9   7    0.35    0.54
  -5  -9  -7    0.30    0.59
  -5  -9  -7    0.43    0.54
   5   9   7   -0.77    0.48
  -6  -9  -7   -0.01    0.61
   6   9   7   -0.53    0.46
  -7  -9  -7   13.90    1.62
   3 -10  -7    4.19    1.16
   3 -10  -7    4.66    1.05
   2 -10  -7    0.34    0.76
   2 -10  -7   -0.10    0.75
   2 -10  -7    0.48    0.81
   1 -10  -7   -0.11    0.61
   1 -10  -7   -0.08    0.68
   1 -10  -7   -0.86    0.65
   0 -10  -7   -0.06    0.65
   0 -10  -7   -0.87    0.60
   0 -10  -7   -0.02    0.59
  -1 -10  -7    2.14    0.83
  -1 -10  -7    2.54    0.85
  -1 -10  -7    2.26    0.90
  -2 -10  -7    0.81    0.68
  -2 -10  -7    0.80    0.72
  -2 -10  -7    1.57    0.71
  -3 -10  -7   -0.63    0.56
  -3 -10  -7    0.32    0.63
  -3 -10  -7    0.22    0.66
  -4 -10  -7    4.09    0.95
  -4 -10  -7    3.21    0.79
  -4 -10  -7    3.81    0.93
   4  10   7    3.06    0.82
  -5 -10  -7    2.99    0.91
  -5 -10  -7    2.59    0.83
   5  10   7    3.67    0.89
  -6 -10  -7    0.33    0.73
   6  10   7    0.21    0.54
   1 -11  -7   -0.91    0.73
   1 -11  -7   -0.68    0.73
   0 -11  -7   -0.41    0.71
   0 -11  -7    0.74    0.89
  -1 -11  -7    0.75    0.77
  -1 -11  -7   -0.67    0.57
  -1 -11  -7   -1.00    0.67
  -2 -11  -7    9.65    1.37
  -2 -11  -7    9.56    1.37
  -2 -11  -7   11.14    1.47
  -3 -11  -7    0.28    0.78
  -3 -11  -7   -0.04    0.72
  -3 -11  -7    0.64    0.69
  -4 -11  -7    1.41    0.83
  -4 -11  -7   -0.38    0.67
  -3  -7   8    3.44    1.06
  -2  -7   8    1.57    0.92
  -1  -7   8   11.58    1.58
  -1  -7   8   12.16    1.70
   0  -7   8    3.27    1.15
   0  -7   8    1.07    0.98
   1  -7   8   -0.07    0.98
   1  -7   8    0.60    0.94
   2  -7   8    2.43    1.06
   2  -7   8    0.09    1.07
  -5  -6   8    1.03    0.90
  -4  -6   8    6.25    1.30
  -4  -6   8    5.59    1.05
  -3  -6   8    4.76    1.23
  -3  -6   8    6.17    1.14
  -2  -6   8    4.00    1.07
  -2  -6   8    4.81    1.25
  -1  -6   8    1.16    0.89
  -1  -6   8    0.09    0.75
   0  -6   8    8.18    1.38
   0  -6   8    3.26    1.05
   1  -6   8    0.62    0.87
   1  -6   8    1.22    0.89
   2  -6   8    3.28    1.11
   2  -6   8    1.94    0.96
   3  -6   8   -0.85    0.58
   3  -6   8   -0.55    0.73
   3  -6   8   -1.32    0.79
   4  -6   8    0.33    0.65
   4  -6   8    0.42    0.96
  -6  -5   8   -0.61    0.66
  -5  -5   8    1.57    0.85
  -4  -5   8    7.39    1.27
  -4  -5   8    7.14    1.08
  -3  -5   8    0.80    0.68
  -3  -5   8    1.38    0.84
  -2  -5   8    1.39    0.89
  -2  -5   8   -0.55    0.62
  -1  -5   8   14.57    1.68
  -1  -5   8   12.63    1.48
   0  -5   8    0.40    0.75
   0  -5   8    2.27    0.92
   1  -5   8    8.29    1.33
   1  -5   8    8.65    1.30
   2  -5   8    5.76    0.85
   2  -5   8    5.30    1.20
   2  -5   8    4.56    1.06
   3  -5   8    1.02    0.75
   3  -5   8   -0.20    0.53
   3  -5   8    0.62    0.86
   4  -5   8    0.82    0.86
   4  -5   8   -0.09    0.57
   5  -5   8    5.35    1.28
   5  -5   8    3.93    0.95
  -7  -4   8    3.69    1.06
  -6  -4   8    1.07    0.78
  -5  -4   8    7.08    1.24
  -4  -4   8   -0.95    0.48
  -4  -4   8    0.17    0.68
  -3  -4   8    3.78    0.97
  -3  -4   8    5.78    0.98
  -2  -4   8    4.22    0.99
  -2  -4   8    3.37    0.85
  -1  -4   8    5.13    1.03
  -1  -4   8    5.35    1.07
   0  -4   8   52.00    2.56
   0  -4   8   52.46    2.57
   1  -4   8    3.68    0.91
   1  -4   8    2.58    0.60
   1  -4   8    2.69    0.86
   2  -4   8    1.01    0.49
   2  -4   8    0.53    0.78
   2  -4   8    0.38    0.70
   3  -4   8    0.20    0.71
   3  -4   8    0.74    0.53
   3  -4   8    0.23    0.61
   4  -4   8    0.69    0.56
   4  -4   8    2.52    0.94
   5  -4   8    6.44    1.22
   5  -4   8    6.12    0.99
   6  -4   8    4.75    1.18
   6  -4   8    2.39    0.80
  -7  -3   8    3.03    0.92
  -6  -3   8    6.39    1.14
  -5  -3   8    0.73    0.57
  -5  -3   8    0.99    0.73
  -4  -3   8   18.32    1.76
  -4  -3   8   14.48    1.40
  -3  -3   8    2.54    0.75
  -3  -3   8    2.73    0.86
  -2  -3   8    4.65    0.90
  -2  -3   8    5.11    1.05
  -1  -3   8    0.11    0.61
  -1  -3   8   -0.69    0.50
   0  -3   8   -0.59    0.58
   0  -3   8    0.52    0.69
   1  -3   8   12.62    1.35
   1  -3   8    9.31    1.23
   1  -3   8   10.72    0.87
   2  -3   8    2.41    0.57
   2  -3   8    3.29    0.90
   2  -3   8    3.48    0.86
   3  -3   8    1.74    0.80
   3  -3   8    1.96    0.54
   3  -3   8    1.79    0.66
   4  -3   8   15.29    1.60
   4  -3   8   15.91    1.22
   4  -3   8   10.60    1.15
   5  -3   8    2.54    0.86
   5  -3   8    1.67    0.65
   6  -3   8    0.58    0.72
   6  -3   8   -0.42    0.51
   7  -3   8   21.98    1.70
   7  -3   8   22.46    1.86
  -7  -2   8   17.32    1.73
  -6  -2   8    9.76    1.33
  -5  -2   8   10.82    1.37
  -5  -2   8   10.52    1.13
  -4  -2   8    0.93    0.62
  -4  -2   8   -0.31    0.44
  -3  -2   8    2.57    0.71
  -3  -2   8    3.80    0.90
  -2  -2   8    4.59    0.84
  -2  -2   8    3.10    0.87
  -1  -2   8    4.94    0.91
  -1  -2   8    3.82    0.84
   0  -2   8   37.55    1.96
   0  -2   8   35.40    1.90
   1  -2   8    6.19    0.98
   1  -2   8    5.15    0.58
   1  -2   8    4.74    0.93
   2  -2   8   21.43    1.61
   2  -2   8   22.49    1.52
   2  -2   8   22.43    1.12
   3  -2   8    4.02    0.76
   3  -2   8    2.90    0.83
   3  -2   8    4.17    0.63
   4  -2   8    3.88    0.73
   4  -2   8    3.29    0.88
   4  -2   8    4.26    0.71
   5  -2   8   19.31    1.58
   5  -2   8   20.19    1.33
   6  -2   8   10.72    1.21
   6  -2   8   12.66    1.42
   7  -2   8    2.05    0.77
   7  -2   8    0.13    0.56
   8  -2   8    1.94    0.84
  -7  -1   8   14.94    1.61
  -6  -1   8    2.06    0.76
  -5  -1   8    0.59    0.49
  -5  -1   8    0.15    0.58
  -4  -1   8    7.89    0.97
  -4  -1   8    6.27    0.72
  -4  -1   8    5.72    1.01
  -3  -1   8   10.84    1.15
  -3  -1   8    9.80    0.87
  -3  -1   8    9.92    1.26
  -2  -1   8   -0.10    0.48
  -2  -1   8    0.10    0.51
  -1  -1   8   14.52    1.22
  -1  -1   8   15.88    1.33
   0  -1   8   16.79    1.30
   0  -1   8   18.03    1.34
   1  -1   8   10.09    1.07
   1  -1   8   10.01    0.60
   1  -1   8   10.31    1.15
   2  -1   8   14.03    1.33
   2  -1   8   13.17    1.13
   2  -1   8   10.78    0.73
   3  -1   8    6.95    0.73
   3  -1   8    5.78    0.78
   3  -1   8    7.32    1.05
   4  -1   8   93.32    3.40
   4  -1   8   93.39    3.03
   4  -1   8   98.51    2.98
   5  -1   8   10.29    1.01
   5  -1   8    9.07    1.16
   6  -1   8   10.71    1.18
   6  -1   8   13.18    1.32
   7  -1   8    3.38    0.82
   8  -1   8   -0.21    0.59
  -7   0   8    1.21    0.71
  -6   0   8    7.24    1.15
  -5   0   8   -0.32    0.58
  -5   0   8    0.32    0.46
  -5   0   8    0.19    0.39
  -4   0   8    5.18    0.93
  -4   0   8    6.41    0.75
  -4   0   8    5.71    0.84
  -3   0   8    1.66    0.45
  -3   0   8    1.87    0.60
  -3   0   8    0.75    0.56
  -2   0   8   34.25    1.45
  -2   0   8   34.46    1.73
  -2   0   8   32.95    1.80
  -1   0   8    0.68    0.49
  -1   0   8    1.77    0.59
   0   0   8   17.16    1.27
   0   0   8   17.51    1.30
   1   0   8   23.45    1.36
   1   0   8   20.02    1.38
   1   0   8   19.61    0.73
   2   0   8    2.85    0.40
   2   0   8    1.63    0.58
   2   0   8    1.13    0.50
   3   0   8   74.30    2.80
   3   0   8   78.08    2.32
   4   0   8    8.19    0.84
   4   0   8    8.26    0.82
   4   0   8    8.42    1.02
   5   0   8    0.64    0.55
   5   0   8    0.00    0.37
   6   0   8    4.32    0.85
   6   0   8    6.02    0.90
   7   0   8    9.01    1.13
   8   0   8    3.38    0.87
   9   0   8    5.01    1.09
  -7   1   8    2.20    0.80
  -6   1   8    0.26    0.42
  -6   1   8    0.71    0.54
  -6   1   8    0.62    0.63
  -5   1   8   25.82    1.46
  -5   1   8   27.66    1.43
  -5   1   8   25.86    1.74
  -4   1   8    0.33    0.58
  -4   1   8    0.11    0.37
  -4   1   8    0.34    0.49
  -3   1   8    6.54    0.75
  -3   1   8    4.70    0.78
  -3   1   8    4.56    0.82
  -2   1   8   11.33    0.86
  -2   1   8   13.25    1.20
  -2   1   8    9.63    1.15
  -1   1   8   38.23    1.77
  -1   1   8   39.40    1.57
  -1   1   8   36.33    1.83
   0   1   8   30.72    1.59
   0   1   8   25.63    1.28
   0   1   8   29.79    1.56
   1   1   8    4.45    0.72
   1   1   8    3.54    0.72
   1   1   8    3.45    0.26
   2   1   8    4.71    0.79
   2   1   8    4.38    0.68
   2   1   8    3.61    0.39
   3   1   8    1.62    0.37
   3   1   8    1.21    0.57
   3   1   8    0.20    0.24
   4   1   8    3.95    0.77
   4   1   8    2.34    0.52
   4   1   8    3.08    0.53
   5   1   8    1.89    0.65
   5   1   8    0.90    0.49
   6   1   8    4.88    0.80
   7   1   8    8.59    1.07
   8   1   8    5.12    0.99
   9   1   8    2.27    0.85
  -7   2   8    6.34    1.07
  -6   2   8    8.30    1.02
  -6   2   8    9.16    1.24
  -5   2   8   -0.56    0.51
  -5   2   8    0.03    0.36
  -5   2   8    0.82    0.53
  -4   2   8    2.36    0.62
  -4   2   8    2.28    0.54
  -4   2   8    2.19    0.72
  -3   2   8   29.88    1.67
  -3   2   8   27.62    1.37
  -3   2   8   28.20    1.53
  -2   2   8   93.21    2.91
  -2   2   8  101.22    3.19
  -2   2   8   95.07    3.26
  -1   2   8   32.76    1.61
  -1   2   8   26.15    1.48
  -1   2   8   29.98    1.37
   0   2   8   42.55    1.68
   0   2   8   40.13    1.83
   0   2   8   42.91    1.86
  -1  -2  -8   64.64    1.58
   1   2   8   65.85    2.42
   1   2   8   70.42    2.39
   1   2   8   61.80    1.56
   2   2   8    0.16    0.17
   2   2   8   -0.01    0.39
   2   2   8   -0.20    0.33
   3   2   8   24.81    1.42
   3   2   8   23.69    1.03
   4   2   8    0.29    0.31
   4   2   8    0.14    0.35
   4   2   8   -0.04    0.43
   5   2   8    5.68    0.75
   5   2   8    6.73    0.87
   6   2   8    2.63    0.61
   6   2   8    1.45    0.53
   7   2   8   15.66    1.32
   8   2   8    0.71    0.59
   9   2   8   11.44    1.41
  -7   3   8   12.18    1.37
  -6   3   8    3.56    0.78
  -6   3   8    4.48    0.89
  -5   3   8    2.03    0.70
  -5   3   8    1.20    0.60
  -4   3   8   55.19    2.44
  -4   3   8   54.76    2.14
  -4   3   8   56.86    2.32
  -3   3   8   12.81    1.01
  -3   3   8   15.55    1.22
  -3   3   8   15.90    1.45
  -2   3   8    3.90    0.72
  -2   3   8    2.68    0.73
  -2   3   8    3.74    0.64
  -1   3   8    0.61    0.49
  -1   3   8    0.27    0.43
  -1   3   8   -0.09    0.30
   0   3   8   44.30    1.76
   0   3   8   44.84    1.91
   0   3   8   47.69    1.99
  -1  -3  -8    0.08    0.18
   1   3   8   -0.06    0.30
   1   3   8    0.68    0.45
   1   3   8    0.16    0.17
   1   3   8    0.00    0.42
   2   3   8    6.73    0.84
   2   3   8    6.65    0.49
   2   3   8    7.44    0.81
   3   3   8   25.38    1.07
   3   3   8   25.57    1.37
   4   3   8   25.98    1.39
   4   3   8   24.76    1.21
   4   3   8   26.36    1.23
   6   3   8   10.09    1.05
   7   3   8    4.00    0.81
   8   3   8    6.30    1.04
   9   3   8    6.45    1.13
  -7   4   8   11.61    1.40
  -6   4   8    0.80    0.62
  -6   4   8    1.12    0.62
  -5   4   8    2.77    0.73
  -5   4   8    3.76    0.84
  -4   4   8    1.88    0.62
  -4   4   8    1.34    0.68
  -3   4   8   11.02    1.23
  -3   4   8    8.09    0.91
  -3   4   8    7.59    0.97
  -2   4   8    0.28    0.45
  -2   4   8    0.25    0.38
  -2   4   8    0.55    0.52
   1  -4  -8    0.99    0.27
  -1   4   8    1.34    0.55
  -1   4   8    1.07    0.43
  -1   4   8    1.06    0.50
   0  -4  -8   11.77    0.63
   0   4   8   15.69    1.00
   0   4   8   12.87    1.03
   0   4   8   12.06    1.04
  -1  -4  -8   25.89    0.98
   1   4   8   26.51    1.42
   1   4   8   23.95    1.28
   1   4   8   26.56    1.43
  -2  -4  -8    0.40    0.28
   2   4   8   -0.48    0.27
   2   4   8   -0.10    0.21
   2   4   8   -0.10    0.38
   2   4   8    0.72    0.45
   3   4   8    9.28    0.69
   3   4   8    7.57    0.87
   3   4   8    8.31    0.85
   4   4   8   90.98    2.75
   4   4   8   85.56    2.69
   4   4   8   90.24    2.86
   5   4   8    4.78    0.69
   5   4   8    5.15    0.75
   6   4   8    0.31    0.47
   7   4   8    8.20    1.10
   8   4   8    4.23    0.92
   9   4   8    9.57    1.34
  -7   5   8    8.57    1.26
   6  -5  -8    1.61    0.61
  -6   5   8    0.80    0.67
  -6   5   8    1.65    0.76
  -5   5   8    1.60    0.70
  -5   5   8    2.02    0.77
  -4   5   8    2.59    0.81
  -4   5   8    2.36    0.76
  -3   5   8    0.03    0.49
  -3   5   8   -0.10    0.48
  -2   5   8   34.58    1.81
  -2   5   8   36.69    1.69
  -2   5   8   36.27    1.89
   1  -5  -8    7.65    0.66
  -1   5   8    7.60    0.95
  -1   5   8    7.60    1.02
  -1   5   8    8.24    0.91
   0  -5  -8   10.36    0.71
   0   5   8   10.55    1.13
   0   5   8    9.56    0.93
   0   5   8    8.78    1.04
  -1  -5  -8    0.13    0.30
   1   5   8    0.41    0.47
   1   5   8    0.06    0.30
   1   5   8   -0.19    0.39
  -2  -5  -8    1.07    0.39
   2   5   8    1.56    0.54
   2   5   8    0.85    0.50
   2   5   8    1.34    0.36
   2   5   8    2.14    0.50
  -3  -5  -8   16.29    1.01
   3   5   8   15.35    0.92
   3   5   8   15.27    1.08
   3   5   8   15.03    1.14
   4   5   8    4.14    0.64
   4   5   8    6.14    0.73
   4   5   8    3.25    0.66
   5   5   8    3.23    0.65
   5   5   8    3.54    0.64
   6   5   8    0.25    0.47
   7   5   8   -0.43    0.46
   8   5   8    0.54    0.61
   9   5   8    1.14    0.72
   6  -6  -8    0.16    0.56
  -6   6   8   -0.01    0.66
   5  -6  -8    2.16    0.69
  -5   6   8    1.08    0.73
  -5   6   8    4.94    1.02
   4  -6  -8    4.38    0.81
  -4   6   8    4.25    0.95
  -4   6   8    4.80    0.94
  -3   6   8   36.35    2.01
  -3   6   8   37.01    1.99
   2  -6  -8   -0.08    0.33
  -2   6   8    0.34    0.56
  -2   6   8    0.62    0.56
   1  -6  -8    8.18    0.79
  -1   6   8    8.09    1.05
  -1   6   8    8.93    1.13
  -1   6   8    8.19    0.91
   0  -6  -8    8.86    0.80
   0   6   8    6.30    0.90
   0   6   8    7.81    1.04
   0   6   8    6.33    0.80
  -1  -6  -8    7.01    0.76
   1   6   8    8.72    1.06
   1   6   8    5.78    0.75
   1   6   8    6.59    0.92
  -2  -6  -8    3.56    0.60
   2   6   8    4.59    0.77
   2   6   8    4.52    0.69
   2   6   8    4.96    0.67
   2   6   8    4.88    0.81
  -3  -6  -8   11.00    0.92
   3   6   8   10.77    1.06
   3   6   8   10.01    0.97
   3   6   8   10.40    0.85
   3   6   8    9.31    1.01
  -4  -6  -8   21.65    1.30
   4   6   8   21.95    1.24
   4   6   8   21.52    1.32
   4   6   8   20.70    1.20
  -5  -6  -8   10.89    1.05
   5   6   8   12.85    1.14
   5   6   8   11.83    1.15
   6   6   8   14.32    1.35
   7   6   8   14.57    1.46
   8   6   8   22.21    1.71
   9   6   8    0.25    0.67
   6  -7  -8    0.87    0.67
  -6   7   8    0.22    0.68
   5  -7  -8    2.93    0.79
  -5   7   8    2.10    0.82
   4  -7  -8    4.60    0.90
  -4   7   8    5.08    1.01
  -4   7   8    5.53    1.04
   3  -7  -8    0.51    0.58
  -3   7   8    1.23    0.73
  -3   7   8    0.61    0.64
   2  -7  -8   13.38    1.33
   2  -7  -8   13.55    1.08
  -2   7   8   13.61    1.47
  -2   7   8   11.48    1.30
   1  -7  -8    2.39    0.59
  -1   7   8    1.16    0.65
  -1   7   8    0.95    0.61
   0  -7  -8    0.37    0.41
   0   7   8    0.00    0.34
   0   7   8   -0.21    0.49
   0   7   8    0.57    0.57
  -1  -7  -8    0.46    0.44
   1   7   8    1.87    0.66
   1   7   8    1.55    0.65
   1   7   8    1.49    0.48
  -2  -7  -8   -0.13    0.40
   2   7   8    1.63    0.62
   2   7   8    0.28    0.36
   2   7   8    0.05    0.37
   2   7   8    0.22    0.49
  -3  -7  -8    0.12    0.41
  -3  -7  -8    0.55    0.46
   3   7   8    1.87    0.52
   3   7   8    0.25    0.41
   3   7   8    1.94    0.65
   3   7   8    0.73    0.52
  -4  -7  -8    0.47    0.42
  -4  -7  -8   -0.18    0.40
   4   7   8    0.30    0.47
   4   7   8    0.76    0.46
  -5  -7  -8    2.17    0.65
  -5  -7  -8    0.61    0.45
   5   7   8    1.54    0.56
   5   7   8    2.11    0.60
   6   7   8   62.58    2.60
   7   7   8   21.72    1.66
   8   7   8    1.33    0.73
   5  -8  -8   -1.10    0.52
  -5   8   8    1.17    0.80
   4  -8  -8    1.68    0.79
  -4   8   8    1.78    0.83
   3  -8  -8    0.24    0.61
  -3   8   8   -0.26    0.65
   2  -8  -8    0.76    0.54
   2  -8  -8    1.83    0.77
  -2   8   8    0.98    0.75
  -2   8   8    1.64    0.76
   1  -8  -8    0.98    0.57
   1  -8  -8    0.32    0.54
  -1   8   8   -0.37    0.55
  -1   8   8    0.06    0.59
   0  -8  -8    5.38    0.95
   0  -8  -8    5.40    0.82
   0   8   8    5.80    0.99
   0   8   8    5.14    0.99
  -1  -8  -8    1.57    0.59
  -1  -8  -8    1.88    0.66
  -1  -8  -8    2.08    0.71
   1   8   8    0.95    0.67
   1   8   8    2.08    0.58
   1   8   8    1.51    0.72
  -2  -8  -8    4.80    0.81
  -2  -8  -8    1.76    0.62
  -2  -8  -8    2.72    0.74
   2   8   8    3.08    0.77
   2   8   8    2.54    0.78
   2   8   8    3.20    0.64
  -3  -8  -8    1.18    0.57
  -3  -8  -8    1.50    0.55
  -3  -8  -8    0.84    0.53
   3   8   8    1.68    0.56
   3   8   8    1.69    0.69
   3   8   8    1.59    0.52
  -4  -8  -8    7.38    0.99
  -4  -8  -8    7.37    0.94
  -4  -8  -8    7.89    1.01
   4   8   8    9.19    1.03
   4   8   8    8.18    1.05
  -5  -8  -8   10.06    1.20
  -5  -8  -8    9.80    1.09
   5   8   8   10.18    1.15
  -6  -8  -8    6.58    1.10
   6   8   8    6.80    1.02
   7   8   8    1.27    0.65
   8   8   8    2.09    0.84
   4  -9  -8    2.64    0.95
   4  -9  -8    1.67    0.93
  -4   9   8    1.42    1.04
   3  -9  -8    5.93    1.15
   3  -9  -8    6.40    1.18
  -3   9   8    5.20    1.18
   2  -9  -8   13.86    1.56
   2  -9  -8   13.23    1.36
   2  -9  -8   15.16    1.64
  -2   9   8   12.53    1.55
   1  -9  -8    0.89    0.68
   1  -9  -8   -0.28    0.56
   1  -9  -8   -0.05    0.60
  -1   9   8    0.22    0.69
   0  -9  -8    0.79    0.61
   0  -9  -8   -0.06    0.58
   0  -9  -8    0.32    0.66
   0   9   8    0.04    0.65
  -1  -9  -8    5.97    1.06
  -1  -9  -8    5.32    1.02
  -1  -9  -8    5.92    0.94
  -2  -9  -8    7.79    1.11
  -2  -9  -8    4.84    0.95
  -2  -9  -8    7.64    1.04
  -3  -9  -8    1.38    0.68
  -3  -9  -8    0.82    0.61
  -3  -9  -8    0.78    0.56
  -4  -9  -8   11.94    1.29
  -4  -9  -8   13.99    1.22
  -4  -9  -8   14.53    1.44
   4   9   8   13.70    1.35
  -5  -9  -8    0.33    0.56
   5   9   8   -0.04    0.54
  -6  -9  -8    2.53    0.91
   6   9   8    1.58    0.66
  -7  -9  -8   -0.59    0.69
   7   9   8    0.74    0.68
   2 -10  -8   -0.46    0.65
   2 -10  -8   -1.11    0.59
   1 -10  -8    2.82    0.85
   1 -10  -8    2.49    0.93
   1 -10  -8    4.16    1.03
   0 -10  -8    8.41    1.25
   0 -10  -8    8.84    1.33
   0 -10  -8    6.76    1.12
  -1 -10  -8    3.54    0.93
  -1 -10  -8    6.18    1.05
  -1 -10  -8    5.04    1.05
  -2 -10  -8    0.49    0.67
  -2 -10  -8    2.77    0.90
  -2 -10  -8    0.23    0.66
  -3 -10  -8    4.26    0.96
  -3 -10  -8    4.05    0.89
  -3 -10  -8    2.68    0.85
  -4 -10  -8    0.32    0.62
  -4 -10  -8    0.49    0.69
  -4 -10  -8    0.98    0.61
   4  10   8    1.02    0.65
  -5 -10  -8    3.89    0.99
   5  10   8    2.84    0.85
  -6 -10  -8    0.32    0.77
   6  10   8    0.97    0.63
   0 -11  -8   -0.60    0.75
   0 -11  -8   -0.67    0.76
  -1 -11  -8    0.55    0.74
  -1 -11  -8   -0.06    0.70
  -2 -11  -8   -0.78    0.64
  -2 -11  -8   -0.28    0.66
  -2 -11  -8   -0.46    0.83
  -3 -11  -8   -0.42    0.66
  -3 -11  -8    1.42    0.78
  -3 -11  -8    1.68    0.83
  -3  -6   9    0.57    0.78
  -2  -6   9    1.45    1.00
  -2  -6   9    1.41    0.93
  -1  -6   9   20.55    2.10
  -1  -6   9   21.52    2.10
   0  -6   9    1.65    0.95
   0  -6   9    2.71    1.05
   1  -6   9    1.91    1.04
   1  -6   9    5.35    1.22
   2  -6   9    9.52    1.50
   2  -6   9    7.13    1.41
  -5  -5   9    3.17    1.18
  -4  -5   9    0.83    0.73
  -4  -5   9    0.02    0.77
  -3  -5   9    5.34    1.19
  -3  -5   9    2.95    0.91
  -2  -5   9    3.67    1.10
  -2  -5   9    2.90    0.93
  -1  -5   9    2.88    1.02
  -1  -5   9    3.76    1.06
   0  -5   9    0.38    0.86
   0  -5   9   -0.05    0.80
   1  -5   9    2.50    0.95
   1  -5   9    1.63    0.89
   2  -5   9   22.99    1.91
   2  -5   9   19.00    2.01
   3  -5   9    3.10    0.95
   3  -5   9    2.41    1.05
   4  -5   9    0.86    0.92
  -6  -4   9    3.00    1.00
  -5  -4   9    1.20    0.85
  -4  -4   9    4.49    1.08
  -4  -4   9    2.53    0.85
  -3  -4   9    5.87    1.07
  -3  -4   9    7.58    1.26
  -2  -4   9    4.39    0.95
  -2  -4   9    5.82    1.13
  -1  -4   9    3.20    0.96
  -1  -4   9    1.21    0.76
   0  -4   9    1.59    0.87
   0  -4   9    1.38    0.84
   1  -4   9   11.58    1.47
   1  -4   9   12.49    1.56
   2  -4   9    3.08    0.92
   2  -4   9    3.10    0.98
   3  -4   9    0.46    0.72
   3  -4   9    1.99    0.91
   4  -4   9    0.06    0.76
   5  -4   9    2.66    1.04
  -7  -3   9    5.88    1.19
  -6  -3   9    2.78    0.96
  -5  -3   9   -0.36    0.69
  -4  -3   9   24.53    1.90
  -4  -3   9   24.89    1.75
  -3  -3   9    5.14    1.09
  -3  -3   9    4.47    0.92
  -2  -3   9    5.86    1.13
  -2  -3   9    2.43    0.81
  -1  -3   9    2.28    0.87
  -1  -3   9    3.15    0.87
   0  -3   9    4.42    0.92
   0  -3   9    5.47    1.05
   1  -3   9   15.78    1.53
   1  -3   9   13.58    1.55
   2  -3   9   25.56    1.73
   2  -3   9   26.58    1.95
   3  -3   9    3.52    1.04
   3  -3   9    4.75    0.93
   4  -3   9    7.11    1.24
   5  -3   9    3.24    0.76
   5  -3   9    5.50    1.15
   6  -3   9   -0.03    0.74
   6  -3   9    0.43    0.57
  -7  -2   9    1.32    0.80
  -6  -2   9    1.56    0.77
  -5  -2   9   16.34    1.50
  -5  -2   9   17.66    1.84
  -4  -2   9    8.08    1.12
  -4  -2   9   10.53    1.39
  -3  -2   9    3.47    0.95
  -3  -2   9    2.82    0.77
  -2  -2   9    2.32    0.84
  -2  -2   9    0.24    0.54
  -1  -2   9   16.17    1.56
  -1  -2   9   14.01    1.41
   0  -2   9   91.42    3.43
   0  -2   9   92.20    3.42
   1  -2   9    0.63    0.59
   1  -2   9   -0.15    0.56
   2  -2   9   14.00    1.35
   2  -2   9   10.90    1.33
   3  -2   9   -0.01    0.49
   3  -2   9    0.20    0.62
   4  -2   9    3.54    0.67
   4  -2   9    3.78    0.96
   5  -2   9    2.00    0.60
   5  -2   9    2.49    0.85
   6  -2   9   10.35    1.38
   6  -2   9    9.81    1.17
   7  -2   9    2.45    0.91
   7  -2   9    1.66    0.78
  -7  -1   9   -0.02    0.66
  -6  -1   9   20.33    1.75
  -5  -1   9    9.48    1.32
  -5  -1   9    8.68    1.10
  -4  -1   9   17.13    1.41
  -4  -1   9   19.09    1.63
  -3  -1   9    0.06    0.35
  -3  -1   9   -0.07    0.61
  -3  -1   9    1.17    0.60
  -2  -1   9    0.14    0.55
  -2  -1   9    1.31    0.66
  -1  -1   9   16.36    1.43
  -1  -1   9   20.22    1.55
   0  -1   9    0.13    0.51
   0  -1   9   -0.85    0.49
   1  -1   9    0.53    0.57
   1  -1   9    0.78    0.61
   2  -1   9   -0.80    0.46
   2  -1   9   -0.03    0.56
   3  -1   9    1.08    0.60
   3  -1   9    2.29    0.74
   4  -1   9    0.26    0.39
   4  -1   9    0.32    0.63
   4  -1   9    0.15    0.44
   5  -1   9    4.66    0.77
   5  -1   9    4.49    0.96
   6  -1   9   -0.36    0.53
   6  -1   9   -0.37    0.46
   7  -1   9   13.35    1.37
   8  -1   9    7.76    1.18
  -7   0   9   21.79    1.79
  -6   0   9    0.88    0.69
  -5   0   9   20.11    1.70
  -5   0   9   17.83    1.40
  -4   0   9   -0.07    0.35
  -4   0   9   -0.11    0.48
  -4   0   9   -0.05    0.57
  -3   0   9    3.76    0.79
  -3   0   9    3.31    0.59
  -3   0   9    4.50    0.96
  -2   0   9   -0.09    0.31
  -2   0   9    0.07    0.55
  -2   0   9   -0.75    0.45
  -1   0   9   71.90    2.81
  -1   0   9   66.33    2.72
   0   0   9   87.15    3.16
   0   0   9   86.78    3.19
   1   0   9    2.00    0.67
   1   0   9    1.50    0.59
   2   0   9   36.80    1.81
   2   0   9   35.42    1.92
   3   0   9    1.74    0.69
   3   0   9    2.44    0.61
   4   0   9   33.07    1.86
   4   0   9   30.95    1.43
   4   0   9   31.80    1.56
   5   0   9    0.73    0.50
   5   0   9    0.84    0.58
   6   0   9   16.92    1.46
   6   0   9   17.03    1.29
   7   0   9    3.68    0.84
   8   0   9    0.07    0.59
  -7   1   9    0.36    0.69
  -6   1   9    7.56    1.21
  -5   1   9    1.02    0.49
  -5   1   9    0.76    0.67
  -5   1   9    1.09    0.61
  -4   1   9   -0.14    0.35
  -4   1   9    0.99    0.56
  -4   1   9    1.33    0.66
  -3   1   9   -0.21    0.33
  -3   1   9    0.21    0.51
  -3   1   9    0.33    0.60
  -2   1   9    1.31    0.60
  -2   1   9    1.42    0.47
  -2   1   9    0.76    0.59
  -1   1   9   47.30    2.24
  -1   1   9   51.54    2.23
  -1   1   9   48.53    1.90
   0   1   9    0.61    0.55
   0   1   9   -0.16    0.50
   1   1   9   30.01    1.63
   1   1   9   27.23    1.66
   2   1   9   36.59    1.92
   2   1   9   39.02    1.81
   3   1   9   26.25    1.37
   4   1   9    4.74    0.66
   4   1   9    5.38    0.77
   4   1   9    4.55    0.85
   5   1   9   28.72    1.72
   5   1   9   26.38    1.44
   6   1   9    7.27    1.04
   6   1   9    4.81    0.82
   7   1   9    1.62    0.63
   8   1   9    5.41    1.01
  -7   2   9    6.44    1.13
  -6   2   9    1.53    0.73
  -6   2   9   -0.71    0.52
  -5   2   9    2.56    0.74
  -5   2   9    3.38    0.89
  -4   2   9    0.83    0.53
  -4   2   9   -0.33    0.33
  -4   2   9   -0.33    0.57
  -3   2   9    0.92    0.56
  -3   2   9    0.12    0.36
  -3   2   9   -0.08    0.53
  -2   2   9    1.32    0.56
  -2   2   9    0.11    0.35
  -2   2   9    0.66    0.55
  -1   2   9   33.43    1.56
  -1   2   9   35.30    1.85
  -1   2   9   35.83    1.82
   0   2   9   19.57    1.37
   0   2   9   19.57    1.36
   0   2   9   20.43    1.20
   1   2   9   12.17    1.08
   1   2   9   12.88    1.24
   2   2   9   30.41    1.66
   2   2   9   30.87    1.55
   3   2   9   13.39    0.99
   3   2   9   19.27    0.90
   3   2   9   21.31    1.43
   4   2   9    9.70    0.96
   4   2   9   10.46    0.82
   4   2   9   11.41    1.19
   5   2   9    0.97    0.45
   5   2   9    1.11    0.55
   6   2   9    0.01    0.21
   6   2   9    0.09    0.43
   7   2   9   -0.53    0.48
   8   2   9   -0.11    0.55
   9   2   9    4.19    1.05
  -7   3   9    2.17    0.88
  -6   3   9    3.01    0.88
  -6   3   9    5.95    1.03
  -5   3   9    8.86    1.11
  -5   3   9    8.07    1.17
  -4   3   9    8.38    1.16
  -4   3   9   10.21    1.17
  -3   3   9   16.90    1.17
  -3   3   9   19.24    1.33
  -3   3   9   18.54    1.50
  -2   3   9    5.98    0.81
  -2   3   9    6.08    0.96
  -2   3   9    7.09    1.00
  -1   3   9    1.59    0.68
  -1   3   9    1.63    0.50
  -1   3   9    1.17    0.54
   0   3   9   27.07    1.58
   0   3   9   27.74    1.41
   0   3   9   26.88    1.56
   1   3   9   10.99    1.03
   1   3   9    8.99    1.04
   1   3   9    9.09    1.04
   2   3   9   10.99    1.08
   2   3   9   12.78    1.22
   3   3   9    2.33    0.40
   3   3   9    2.03    0.55
   3   3   9    1.52    0.59
   4   3   9   39.95    1.59
   4   3   9   42.55    1.91
   4   3   9   42.55    1.71
   5   3   9    0.55    0.42
   5   3   9    1.06    0.51
   6   3   9    1.24    0.56
   6   3   9    1.92    0.58
   7   3   9    0.33    0.53
   8   3   9    3.16    0.83
   9   3   9    5.11    1.05
  -7   4   9   12.65    1.52
  -6   4   9    2.19    0.82
  -6   4   9    2.24    0.80
  -5   4   9    0.84    0.65
  -5   4   9    0.98    0.67
  -4   4   9   10.08    1.23
  -4   4   9    9.54    1.17
  -3   4   9    3.89    0.84
  -3   4   9    4.67    0.94
  -2   4   9    3.10    0.76
  -2   4   9    4.14    0.72
  -2   4   9    3.42    0.83
  -1   4   9   27.86    1.68
  -1   4   9   27.35    1.57
  -1   4   9   32.17    1.53
   0   4   9    2.96    0.62
   0   4   9    3.83    0.79
   0   4   9    2.04    0.63
   1   4   9    6.93    0.93
   1   4   9    5.53    0.83
   1   4   9    6.21    0.79
   2   4   9   22.96    1.38
   2   4   9   21.04    1.36
   3   4   9    4.64    0.77
   3   4   9    4.57    0.56
   3   4   9    6.32    0.83
   4   4   9    3.64    0.72
   4   4   9    5.73    0.77
   4   4   9    4.85    0.64
   5   4   9    3.49    0.64
   5   4   9    3.04    0.67
   6   4   9    3.61    0.73
   7   4   9   12.20    1.30
   8   4   9   22.46    1.67
   9   4   9    0.36    0.77
  -7   5   9   13.14    1.58
   6  -5  -9    4.82    0.86
  -6   5   9    5.39    1.06
  -6   5   9    4.30    0.99
  -5   5   9    3.32    0.90
  -5   5   9    4.56    0.98
  -4   5   9    1.18    0.72
  -4   5   9    1.05    0.68
  -3   5   9    5.37    0.96
  -3   5   9    5.25    0.95
  -2   5   9    0.23    0.55
  -2   5   9   -0.14    0.47
  -1   5   9    1.54    0.50
  -1   5   9    1.64    0.65
  -1   5   9    2.09    0.73
   0   5   9   22.66    1.49
   0   5   9   22.80    1.47
   0   5   9   20.48    1.25
   1   5   9    3.59    0.73
   1   5   9    5.67    0.90
   1   5   9    3.81    0.67
  -2  -5  -9    6.08    0.63
   2   5   9    5.56    0.86
   2   5   9    4.41    0.77
   2   5   9    6.11    0.81
   2   5   9    4.94    0.57
  -3  -5  -9    0.27    0.35
   3   5   9    0.28    0.30
   3   5   9   -0.03    0.43
   3   5   9   -0.50    0.38
   4   5   9   46.77    1.74
   4   5   9   36.45    1.70
   4   5   9   43.21    1.85
   5   5   9   40.56    1.79
   6   5   9    0.07    0.45
   7   5   9    3.61    0.80
   8   5   9   12.72    1.42
   9   5   9    9.38    1.34
   6  -6  -9    1.08    0.64
  -6   6   9    0.64    0.73
  -6   6   9    0.60    0.76
   5  -6  -9    0.67    0.58
  -5   6   9    0.31    0.66
  -5   6   9    0.69    0.69
  -4   6   9   -0.40    0.54
  -4   6   9    0.66    0.70
  -3   6   9    6.68    1.08
  -3   6   9    7.44    1.19
  -2   6   9    0.55    0.65
  -2   6   9    0.09    0.57
  -1   6   9   11.33    1.28
  -1   6   9   11.04    1.28
   0   6   9    3.24    0.79
   0   6   9    3.43    0.68
   0   6   9    3.29    0.81
   1   6   9   33.26    1.77
   1   6   9   31.51    1.74
   1   6   9   32.81    1.61
  -2  -6  -9   13.90    0.97
   2   6   9   13.95    1.24
   2   6   9   14.67    0.92
   2   6   9   16.37    1.26
   2   6   9   16.28    1.14
  -3  -6  -9   11.34    0.91
   3   6   9   10.28    1.12
   3   6   9   11.13    1.14
   3   6   9   11.90    0.88
  -4  -6  -9   13.62    1.08
   4   6   9   15.21    1.21
   4   6   9   12.06    1.01
   4   6   9   14.57    1.03
   6   6   9    0.25    0.49
   7   6   9   13.11    1.38
   8   6   9   21.07    1.73
   5  -7  -9    1.03    0.66
  -5   7   9   -0.06    0.71
  -5   7   9   -0.86    0.73
   4  -7  -9    5.19    1.01
  -4   7   9    6.48    1.20
  -4   7   9    3.89    0.98
  -3   7   9    6.83    1.17
  -3   7   9    5.05    1.01
  -2   7   9   12.87    1.45
  -2   7   9   13.27    1.56
  -1   7   9   19.07    1.55
  -1   7   9   20.49    1.58
   0   7   9    3.13    0.82
   0   7   9    1.91    0.71
  -1  -7  -9    3.32    0.63
   1   7   9    3.70    0.86
   1   7   9    2.74    0.77
  -2  -7  -9   17.51    1.14
   2   7   9   20.50    1.43
   2   7   9   18.85    1.24
   2   7   9   16.85    1.38
  -3  -7  -9   -0.10    0.41
   3   7   9   -0.61    0.48
   3   7   9    0.67    0.42
   3   7   9   -0.23    0.51
   3   7   9    0.31    0.38
  -4  -7  -9    0.01    0.39
  -4  -7  -9    1.28    0.54
   4   7   9    0.84    0.56
   4   7   9    0.47    0.51
   4   7   9    0.32    0.42
  -5  -7  -9    9.99    1.13
   5   7   9    9.80    1.09
   6   7   9    0.99    0.62
   7   7   9   24.31    1.68
   8   7   9    2.48    0.91
   4  -8  -9    1.86    0.79
  -4   8   9    1.26    0.80
   3  -8  -9    3.38    0.89
  -3   8   9    3.23    0.94
  -3   8   9    2.52    1.02
   2  -8  -9    0.42    0.65
  -2   8   9    0.37    0.70
  -2   8   9    0.36    0.68
   1  -8  -9    0.92    0.64
  -1   8   9    1.23    0.75
  -1   8   9    1.99    0.78
   0   8   9    0.66    0.62
   0   8   9   -0.96    0.55
  -1  -8  -9    2.84    0.66
   1   8   9    2.67    0.82
   1   8   9    3.30    0.87
  -2  -8  -9   18.80    1.32
   2   8   9   22.87    1.60
   2   8   9   21.35    1.58
  -3  -8  -9   -0.14    0.44
  -3  -8  -9    0.23    0.52
   3   8   9   -0.31    0.53
   3   8   9   -0.33    0.48
   3   8   9   -0.35    0.37
  -4  -8  -9    4.35    0.81
  -4  -8  -9    4.89    0.83
   4   8   9    3.77    0.72
   4   8   9    3.18    0.80
  -5  -8  -9   -0.51    0.45
   5   8   9    1.43    0.59
  -6  -8  -9    9.59    1.24
   6   8   9    9.64    1.19
  -7  -8  -9    1.45    0.73
   7   8   9    0.62    0.61
   3  -9  -9    1.31    0.83
   3  -9  -9    1.94    0.89
  -3   9   9    3.61    1.04
   2  -9  -9    0.99    0.76
  -2   9   9   -0.32    0.64
   1  -9  -9    0.34    0.69
   1  -9  -9    1.33    0.76
  -1   9   9    0.63    0.78
  -1   9   9    1.27    0.87
   0  -9  -9    3.69    0.93
   0  -9  -9    3.94    0.94
   0   9   9    2.35    0.96
   0   9   9    2.98    0.96
  -1  -9  -9    1.77    0.70
  -1  -9  -9    2.33    0.71
  -1  -9  -9    2.33    0.85
   1   9   9    1.78    0.80
   1   9   9    1.86    0.84
  -2  -9  -9    3.27    0.82
  -2  -9  -9    3.87    0.92
  -2  -9  -9    3.04    0.77
   2   9   9    4.12    0.95
  -3  -9  -9    0.67    0.60
  -3  -9  -9    0.18    0.51
  -3  -9  -9   -0.36    0.47
   3   9   9    0.79    0.65
  -4  -9  -9    0.73    0.61
  -4  -9  -9    0.19    0.54
  -4  -9  -9   -0.16    0.43
   4   9   9   -0.37    0.50
   4   9   9    0.13    0.60
  -5  -9  -9    5.11    0.99
   5   9   9    4.30    0.84
  -6  -9  -9   -0.01    0.58
   6   9   9   -0.73    0.49
   2 -10  -9   -0.02    0.75
   1 -10  -9   -1.15    0.67
   1 -10  -9   -1.39    0.63
   0 -10  -9    4.29    1.06
   0 -10  -9    3.73    1.02
  -1 -10  -9    6.16    1.13
  -1 -10  -9    6.30    1.07
  -1 -10  -9    4.89    1.06
  -2 -10  -9    2.03    0.80
  -2 -10  -9    3.85    0.94
  -2 -10  -9    2.51    0.80
  -3 -10  -9    0.47    0.70
  -3 -10  -9   -0.29    0.50
  -3 -10  -9   -0.94    0.54
  -4 -10  -9    6.68    1.04
  -4 -10  -9    9.57    1.31
  -4 -10  -9    7.20    1.15
   4  10   9    7.61    1.11
  -5 -10  -9    2.93    0.92
   5  10   9    1.19    0.74
  -3  -5  10    2.38    0.92
  -2  -5  10   -0.04    0.72
  -2  -5  10    0.47    0.91
  -1  -5  10   19.62    2.04
  -1  -5  10   13.42    1.66
   0  -5  10    5.27    1.25
   0  -5  10    4.77    1.20
   1  -5  10    8.24    1.36
   1  -5  10    8.24    1.54
   2  -5  10    0.40    0.93
   2  -5  10    0.22    0.82
   3  -5  10   -0.15    1.01
  -4  -4  10   -0.08    0.79
  -4  -4  10    0.16    0.69
  -3  -4  10    0.40    0.81
  -3  -4  10    1.02    0.76
  -2  -4  10   12.61    1.52
  -2  -4  10   14.14    1.70
  -1  -4  10    6.69    1.29
  -1  -4  10    7.86    1.27
   0  -4  10    0.86    0.79
   0  -4  10    1.05    0.83
   1  -4  10    0.64    0.85
   1  -4  10    3.07    0.94
   2  -4  10    3.57    1.11
   2  -4  10    3.56    0.98
   3  -4  10    2.53    1.08
   3  -4  10    2.09    0.85
   4  -4  10    3.96    1.23
  -5  -3  10    3.91    1.11
  -4  -3  10    2.11    0.84
  -4  -3  10    4.10    1.02
  -3  -3  10    8.02    1.37
  -3  -3  10    8.36    1.26
  -2  -3  10    3.06    0.98
  -2  -3  10    2.46    0.89
  -1  -3  10    0.24    0.72
  -1  -3  10    0.24    0.67
   0  -3  10    4.19    1.02
   0  -3  10    3.98    1.02
   1  -3  10    2.00    0.86
   1  -3  10    0.80    0.73
   2  -3  10    1.20    0.71
   2  -3  10   -0.21    0.71
   3  -3  10    6.02    1.18
   3  -3  10    5.06    0.99
   4  -3  10    6.60    1.29
   5  -3  10    5.90    1.21
   6  -3  10    2.32    0.96
  -6  -2  10    2.87    0.99
  -5  -2  10    5.69    1.01
  -5  -2  10    8.52    1.40
  -4  -2  10   -0.71    0.66
  -4  -2  10   -0.25    0.58
  -3  -2  10    0.05    0.67
  -3  -2  10    0.02    0.64
  -2  -2  10   20.98    1.80
  -2  -2  10   22.73    1.79
  -1  -2  10    7.18    1.18
  -1  -2  10    5.58    1.06
   0  -2  10    0.10    0.64
   0  -2  10    0.75    0.73
   1  -2  10    6.78    1.11
   1  -2  10    6.44    1.11
   2  -2  10    1.81    0.84
   2  -2  10    1.95    0.76
   3  -2  10   15.31    1.45
   3  -2  10   16.21    1.65
   4  -2  10   12.84    1.50
   5  -2  10    1.18    0.84
   6  -2  10    3.52    1.00
  -6  -1  10    1.95    0.86
  -5  -1  10    2.05    0.79
  -5  -1  10    2.30    0.82
  -4  -1  10    4.76    0.96
  -4  -1  10    4.57    1.05
  -3  -1  10    2.64    0.88
  -3  -1  10    4.11    0.91
  -2  -1  10    1.55    0.74
  -2  -1  10    1.58    0.81
  -1  -1  10    0.07    0.60
  -1  -1  10    0.22    0.60
   0  -1  10   33.87    2.06
   0  -1  10   33.76    2.01
   1  -1  10   10.33    1.26
   1  -1  10    7.58    1.16
   2  -1  10   17.35    1.46
   2  -1  10   16.01    1.58
   3  -1  10   18.69    1.42
   3  -1  10   17.23    1.72
   4  -1  10    9.06    1.30
   5  -1  10    1.30    0.77
   6  -1  10    2.48    0.85
  -7   0  10    0.49    0.75
  -6   0  10    8.35    1.36
  -5   0  10    9.28    1.42
  -5   0  10    7.12    1.06
  -4   0  10    0.05    0.38
  -4   0  10    0.27    0.67
  -4   0  10   -0.20    0.49
  -3   0  10    7.38    1.22
  -3   0  10    7.03    0.86
  -3   0  10    8.48    1.16
  -2   0  10    6.20    1.01
  -2   0  10    5.14    1.05
  -1   0  10   44.72    2.33
  -1   0  10   48.67    2.33
   0   0  10   32.14    1.94
   0   0  10   31.89    1.89
   1   0  10   -0.10    0.53
   1   0  10    0.21    0.60
   2   0  10    1.35    0.62
   2   0  10    1.03    0.68
   3   0  10    2.59    0.84
   3   0  10    3.02    0.73
   4   0  10    1.74    0.73
   5   0  10    1.58    0.75
   6   0  10    8.22    1.21
  -7   1  10   -0.46    0.68
  -6   1  10    4.93    1.12
  -5   1  10   24.24    1.84
  -5   1  10   25.62    1.69
  -4   1  10    2.50    0.84
  -4   1  10    2.78    0.79
  -3   1  10   19.48    1.51
  -3   1  10   18.63    1.65
  -3   1  10   19.84    1.27
  -2   1  10   19.48    1.63
  -2   1  10   19.60    1.26
  -2   1  10   20.70    1.57
  -1   1  10    1.58    0.69
  -1   1  10    0.37    0.61
  -1   1  10    1.24    0.50
   0   1  10    2.04    0.76
   0   1  10    1.82    0.71
   1   1  10   17.89    1.47
   1   1  10   18.12    1.47
   2   1  10    1.60    0.73
   2   1  10    1.82    0.68
   3   1  10   95.79    3.58
   3   1  10   99.28    3.34
   4   1  10   -0.29    0.53
   4   1  10    0.27    0.49
   5   1  10    1.26    0.66
   6   1  10   12.26    1.38
   8   1  10    3.12    0.87
  -7   2  10    6.62    1.24
  -6   2  10    5.29    1.14
  -6   2  10    4.49    0.99
  -5   2  10   15.58    1.71
  -5   2  10   13.51    1.42
  -4   2  10    1.55    0.69
  -4   2  10    1.05    0.72
  -3   2  10   15.23    1.33
  -3   2  10   19.76    1.57
  -3   2  10   14.91    1.15
  -2   2  10   -0.33    0.30
  -2   2  10   -0.39    0.50
  -2   2  10    0.13    0.55
  -1   2  10    2.27    0.57
  -1   2  10    2.45    0.74
  -1   2  10    4.24    0.83
   0   2  10   46.78    1.96
   0   2  10   44.71    2.16
   0   2  10   46.05    2.19
   1   2  10   28.14    1.73
   1   2  10   29.51    1.70
   2   2  10   58.97    2.51
   2   2  10   60.37    2.40
   3   2  10    0.63    0.57
   3   2  10    0.40    0.52
   4   2  10   17.69    1.22
   4   2  10   17.14    1.47
   5   2  10   22.19    1.60
   6   2  10   -0.20    0.52
   7   2  10    7.64    1.09
   8   2  10    8.30    1.19
  -7   3  10    0.84    0.74
  -6   3  10   -0.85    0.56
  -6   3  10    1.91    0.79
  -5   3  10    3.29    0.87
  -5   3  10    3.97    0.97
  -4   3  10    1.37    0.76
  -4   3  10    1.39    0.64
  -3   3  10   -0.21    0.61
  -3   3  10    0.17    0.51
  -2   3  10    0.57    0.42
  -2   3  10   -0.31    0.48
  -2   3  10   -0.74    0.47
  -1   3  10   15.28    1.47
  -1   3  10   13.72    1.09
  -1   3  10   12.85    1.26
   0   3  10    0.71    0.45
   0   3  10    0.58    0.63
   0   3  10    0.13    0.58
   1   3  10   12.55    1.25
   1   3  10   11.56    1.24
   2   3  10    1.30    0.64
   2   3  10    0.74    0.55
   3   3  10   58.16    2.44
   3   3  10   58.39    2.30
   4   3  10    5.64    0.94
   4   3  10    6.61    0.87
   5   3  10    1.25    0.58
   6   3  10   12.56    1.08
   7   3  10    0.13    0.49
   8   3  10   11.22    1.33
  -6   4  10    0.22    0.64
  -6   4  10   -0.57    0.63
  -5   4  10    2.41    0.83
  -5   4  10    1.91    0.83
  -4   4  10    3.84    0.87
  -4   4  10    2.17    0.83
  -3   4  10   17.86    1.46
  -3   4  10   20.74    1.63
  -2   4  10    0.56    0.58
  -2   4  10   -0.20    0.53
  -1   4  10    0.81    0.57
  -1   4  10    1.30    0.64
   0   4  10   37.97    2.04
   0   4  10   48.18    1.99
   0   4  10   48.15    2.21
   1   4  10    6.70    0.99
   1   4  10    6.27    0.85
   1   4  10    7.59    0.99
   2   4  10   11.93    1.17
   2   4  10   11.81    1.22
   3   4  10    2.02    0.61
   3   4  10    1.45    0.62
   4   4  10    0.24    0.47
   4   4  10   -0.46    0.36
   5   4  10    5.26    0.86
   6   4  10   -0.15    0.39
   7   4  10    2.48    0.74
   8   4  10    1.43    0.73
  -6   5  10    1.20    0.80
  -6   5  10    1.04    0.81
  -5   5  10    9.73    1.31
  -5   5  10   11.27    1.42
  -4   5  10    4.02    1.00
  -4   5  10    4.36    0.98
  -3   5  10    5.02    1.08
  -3   5  10    3.19    0.87
  -2   5  10    9.49    1.25
  -2   5  10    9.86    1.28
  -1   5  10    1.78    0.67
  -1   5  10    1.74    0.75
   0   5  10   24.71    1.65
   0   5  10   23.58    1.60
   1   5  10    8.92    1.08
   1   5  10    9.32    1.16
   2   5  10    2.28    0.68
   2   5  10    0.72    0.57
   3   5  10    2.32    0.63
   3   5  10    2.57    0.70
   4   5  10    7.89    0.99
   5   5  10    0.43    0.48
   6   5  10   15.20    1.20
   7   5  10    0.99    0.61
   8   5  10    0.56    0.66
  -5   6  10   -0.59    0.63
  -5   6  10    0.50    0.80
  -4   6  10    1.36    0.79
  -4   6  10    1.21    0.75
  -3   6  10    1.94    0.81
  -3   6  10    1.88    0.78
  -2   6  10    2.40    0.86
  -2   6  10    5.72    1.01
  -1   6  10    3.84    0.91
  -1   6  10    5.16    0.99
   0   6  10   16.25    1.54
   0   6  10   16.21    1.43
   1   6  10    7.97    1.11
   1   6  10    8.27    1.13
   2   6  10    0.99    0.60
   2   6  10   -0.38    0.45
   3   6  10   13.22    1.34
   3   6  10   10.81    1.19
   4   6  10    8.86    1.06
   4   6  10    7.74    1.08
   5   6  10    2.80    0.71
   6   6  10    3.24    0.76
   7   6  10   -0.06    0.50
   8   6  10    3.85    0.96
   5  -7 -10    1.98    0.81
  -5   7  10    1.35    0.94
  -5   7  10    0.68    0.78
   4  -7 -10    4.77    0.95
  -4   7  10    5.63    1.15
  -4   7  10    7.78    1.31
  -3   7  10    0.12    0.71
  -3   7  10    0.64    0.73
  -2   7  10   -0.74    0.56
  -2   7  10   -0.83    0.59
  -1   7  10    6.94    1.15
  -1   7  10    7.36    1.13
   0   7  10    6.09    1.05
   0   7  10    6.45    1.15
   1   7  10    0.55    0.58
   1   7  10    0.47    0.63
   2   7  10    5.48    1.01
   2   7  10    4.96    0.97
   3   7  10    0.77    0.60
   3   7  10    1.87    0.72
   4   7  10   11.73    1.26
   4   7  10   12.00    1.26
  -5  -7 -10    3.76    0.79
   5   7  10    2.67    0.71
   5   7  10    2.84    0.77
   6   7  10   -0.24    0.48
   7   7  10    3.02    0.84
   4  -8 -10    0.72    0.71
  -4   8  10    0.25    0.87
   3  -8 -10    2.58    0.87
  -3   8  10    0.85    0.75
  -3   8  10    2.40    0.92
   2  -8 -10    2.27    0.79
  -2   8  10    1.71    0.83
  -2   8  10    0.93    0.84
  -1   8  10    1.34    0.77
  -1   8  10    0.62    0.65
   0   8  10    2.99    0.93
   0   8  10    5.69    1.10
   1   8  10    1.91    0.79
   1   8  10    1.22    0.68
   2   8  10   -0.60    0.53
   2   8  10    0.65    0.67
   3   8  10   31.00    1.89
   3   8  10   34.53    1.98
  -4  -8 -10    2.66    0.69
   4   8  10    2.45    0.81
   4   8  10    3.08    0.83
  -5  -8 -10    4.31    0.85
   5   8  10    4.23    0.83
  -6  -8 -10   -0.14    0.56
   6   8  10    0.92    0.63
  -7  -8 -10   -0.28    0.60
   7   8  10   -0.35    0.53
   3  -9 -10   -1.65    0.55
   2  -9 -10   -0.61    0.65
  -2   9  10    0.32    0.88
  -2   9  10    0.26    0.75
   1  -9 -10    3.50    0.92
  -1   9  10    2.13    0.92
  -1   9  10    4.31    1.09
   0  -9 -10    0.52    0.64
   0   9  10    0.46    0.76
   0   9  10    1.57    0.77
  -1  -9 -10    0.38    0.66
   1   9  10    0.70    0.71
   1   9  10   -0.62    0.67
  -2  -9 -10    0.19    0.53
  -2  -9 -10   -0.25    0.54
   2   9  10    0.41    0.68
   2   9  10   -0.03    0.65
  -3  -9 -10    1.89    0.72
  -3  -9 -10    0.65    0.53
   3   9  10    2.65    0.85
  -4  -9 -10    5.16    0.91
  -4  -9 -10    7.25    1.09
   4   9  10    8.55    1.24
  -5  -9 -10    4.59    0.91
  -6  -9 -10    0.81    0.67
   6   9  10   -0.46    0.51
   1 -10 -10    0.76    0.75
   0 -10 -10    1.59    0.87
  -1 -10 -10    0.43    0.73
  -1 -10 -10   -0.77    0.65
  -2 -10 -10    2.76    0.89
  -2 -10 -10    1.70    0.80
   2  10  10    0.23    0.78
  -3 -10 -10    8.18    1.22
  -3 -10 -10    7.51    1.18
  -4 -10 -10   -0.76    0.50
  -4 -10 -10    0.23    0.66
  -3  -4  11    1.84    0.97
  -2  -4  11   15.59    1.75
  -2  -4  11   13.52    1.77
  -1  -4  11    0.38    0.82
  -1  -4  11    0.04    0.83
   0  -4  11    4.19    1.15
   0  -4  11    5.19    1.15
   1  -4  11   24.05    2.09
   1  -4  11   24.70    2.06
   2  -4  11    4.36    1.09
   2  -4  11    3.46    1.12
   3  -4  11    0.00    0.84
  -4  -3  11    6.49    1.37
  -4  -3  11    5.81    1.14
  -3  -3  11    0.32    0.75
  -3  -3  11    1.46    0.93
  -2  -3  11    1.60    0.90
  -2  -3  11    1.42    0.89
  -1  -3  11   44.04    2.59
   0  -3  11    1.19    0.82
   0  -3  11    1.37    0.87
   1  -3  11   -0.18    0.64
   1  -3  11    1.15    0.84
   2  -3  11    1.67    0.81
   2  -3  11    1.07    0.89
   3  -3  11    0.99    0.72
   3  -3  11   -0.26    0.85
   4  -3  11    7.74    1.40
  -5  -2  11    2.80    1.00
  -4  -2  11   11.89    1.45
  -4  -2  11   12.27    1.65
  -3  -2  11    1.13    0.79
  -3  -2  11    0.42    0.85
  -2  -2  11   30.76    2.14
  -2  -2  11   30.51    2.23
  -1  -2  11    1.14    0.78
  -1  -2  11    0.09    0.69
   0  -2  11    1.39    0.83
   0  -2  11   -0.26    0.69
   1  -2  11    3.83    0.95
   1  -2  11    2.57    0.92
   2  -2  11    1.51    0.79
   2  -2  11   -0.02    0.71
   3  -2  11    0.58    0.80
   3  -2  11    1.98    0.76
   4  -2  11    0.85    0.81
   5  -2  11    1.01    0.91
  -5  -1  11    3.29    0.92
  -5  -1  11    2.41    1.01
  -4  -1  11   14.47    1.55
  -4  -1  11   13.73    1.63
  -3  -1  11    5.67    1.05
  -3  -1  11    5.08    1.17
  -2  -1  11   -0.17    0.67
  -2  -1  11    0.93    0.73
  -1  -1  11    1.83    0.87
  -1  -1  11    2.86    0.91
   0  -1  11   -0.30    0.62
   0  -1  11    0.05    0.69
   1  -1  11    4.93    1.09
   1  -1  11    8.21    1.21
   2  -1  11   14.81    1.63
   2  -1  11   15.74    1.55
   3  -1  11   10.71    1.29
   3  -1  11   10.54    1.47
   4  -1  11    1.15    0.80
   5  -1  11    5.62    1.18
   6  -1  11    9.70    1.41
  -6   0  11   -0.17    0.81
  -5   0  11    4.87    1.16
  -5   0  11    3.83    0.90
  -4   0  11   11.12    1.55
  -4   0  11   11.35    1.35
  -3   0  11    5.20    1.14
  -3   0  11    3.40    0.89
  -2   0  11    3.51    0.94
  -2   0  11    2.88    0.88
  -1   0  11   15.94    1.63
  -1   0  11   16.47    1.66
   0   0  11    3.65    0.89
   0   0  11    1.42    0.79
   1   0  11   27.83    1.93
   1   0  11   28.77    1.84
   2   0  11    0.22    0.69
   2   0  11    2.05    0.75
   3   0  11    1.01    0.60
   3   0  11    2.08    0.86
   4   0  11   18.48    1.84
   5   0  11   11.11    1.44
   6   0  11   13.19    1.61
  -6   1  11    3.60    1.10
  -5   1  11   20.00    1.65
  -5   1  11   20.31    1.77
  -4   1  11    1.72    0.84
  -4   1  11   -0.36    0.56
  -3   1  11   -0.37    0.59
  -3   1  11   -0.32    0.58
  -2   1  11   12.13    1.39
  -2   1  11   10.59    1.38
  -1   1  11   -0.08    0.63
  -1   1  11   -0.15    0.64
   0   1  11   -0.28    0.58
   0   1  11    0.70    0.68
   1   1  11    1.85    0.72
   1   1  11    1.32    0.75
   2   1  11   10.44    1.23
   2   1  11   12.61    1.48
   3   1  11    3.41    0.79
   3   1  11    2.80    0.88
   4   1  11    2.15    0.82
   5   1  11   20.68    1.75
   6   1  11    6.79    1.16
  -6   2  11   13.52    1.74
  -5   2  11    4.55    0.97
  -5   2  11    4.84    1.09
  -4   2  11    6.91    1.10
  -4   2  11    4.54    1.08
  -3   2  11    0.94    0.68
  -3   2  11    1.70    0.79
  -2   2  11   17.77    1.57
  -2   2  11   17.12    1.61
  -1   2  11   92.49    3.55
  -1   2  11   96.94    3.56
   0   2  11    3.01    0.84
   0   2  11    4.53    0.94
   1   2  11    0.53    0.61
   1   2  11    0.66    0.64
   2   2  11    4.59    0.94
   2   2  11    5.61    0.89
   3   2  11    0.09    0.53
   3   2  11    0.34    0.59
   4   2  11   27.37    1.79
   5   2  11    6.17    1.05
   6   2  11    5.43    1.00
  -6   3  11    0.09    0.66
  -6   3  11   -0.44    0.70
  -5   3  11    2.79    0.92
  -5   3  11    3.43    1.02
  -4   3  11    0.58    0.69
  -4   3  11   -0.36    0.67
  -3   3  11    3.92    0.93
  -3   3  11    9.30    1.33
  -2   3  11   31.91    1.93
  -2   3  11   35.50    2.14
  -1   3  11   10.87    1.28
  -1   3  11   11.50    1.38
   0   3  11   -0.36    0.55
   0   3  11   -1.05    0.46
   1   3  11    1.33    0.73
   1   3  11    1.66    0.69
   2   3  11    0.71    0.63
   2   3  11    0.41    0.55
   3   3  11   42.74    2.01
   3   3  11   36.91    2.10
   4   3  11    1.31    0.66
   5   3  11    3.10    0.78
   6   3  11   14.87    1.44
  -6   4  11    1.88    0.87
  -6   4  11    2.19    0.94
  -5   4  11    2.94    0.92
  -5   4  11    3.45    0.96
  -4   4  11   -0.59    0.54
  -4   4  11    0.45    0.72
  -3   4  11    0.10    0.59
  -3   4  11   -0.43    0.64
  -2   4  11    0.85    0.76
  -2   4  11    0.31    0.61
  -1   4  11   28.55    1.82
  -1   4  11   30.15    1.94
   0   4  11    1.32    0.72
   0   4  11    0.43    0.63
   1   4  11   -0.08    0.56
   1   4  11   -0.71    0.48
   2   4  11   10.61    1.21
   2   4  11    7.85    1.11
   3   4  11    0.80    0.58
   3   4  11    0.10    0.55
   4   4  11   17.00    1.41
   4   4  11    9.78    1.17
   5   4  11    5.25    0.94
  -5   5  11    0.29    0.69
  -5   5  11    0.75    0.82
  -4   5  11    2.18    0.86
  -4   5  11    2.59    0.94
  -3   5  11   -0.15    0.61
  -3   5  11    0.49    0.61
  -2   5  11   11.28    1.43
  -2   5  11   11.60    1.41
  -1   5  11    0.56    0.61
  -1   5  11    1.47    0.78
   0   5  11   -0.87    0.49
   0   5  11    0.11    0.61
   1   5  11    0.93    0.64
   1   5  11    1.91    0.73
   2   5  11    1.22    0.66
   2   5  11    3.27    0.79
   3   5  11    7.51    1.05
   3   5  11    6.85    0.99
   4   5  11    8.80    1.15
   5   5  11    1.25    0.65
  -5   6  11    2.79    1.03
  -4   6  11   -0.89    0.65
  -4   6  11    0.10    0.71
  -3   6  11   11.43    1.47
  -3   6  11    9.93    1.41
  -2   6  11    1.27    0.72
  -2   6  11    1.21    0.72
  -1   6  11    4.76    0.99
  -1   6  11    4.92    1.05
   0   6  11    0.51    0.66
   0   6  11    1.02    0.71
   1   6  11    1.07    0.66
   1   6  11    0.52    0.60
   2   6  11   28.62    1.73
   2   6  11   27.14    1.80
   3   6  11   21.54    1.52
   3   6  11   20.80    1.54
   4   6  11    0.72    0.55
   4   6  11    0.99    0.61
   5   6  11   -0.01    0.50
  -4   7  11    2.99    1.11
  -4   7  11    2.98    1.00
  -3   7  11   -0.20    0.64
  -3   7  11    0.22    0.75
  -2   7  11    0.66    0.70
  -2   7  11   -0.56    0.63
  -1   7  11    1.06    0.81
  -1   7  11    2.15    0.82
   0   7  11   11.57    1.42
   0   7  11   13.52    1.49
   1   7  11    1.96    0.77
   1   7  11    1.48    0.74
   2   7  11    6.70    1.11
   2   7  11    9.80    1.25
   3   7  11    0.05    0.57
   3   7  11    0.95    0.65
   4   7  11   13.44    1.38
   4   7  11   15.47    1.47
   5   7  11    0.94    0.64
   3  -8 -11   19.44    1.67
  -3   8  11   19.12    1.91
  -2   8  11    1.47    0.87
  -2   8  11    1.41    0.88
  -1   8  11    0.27    0.72
  -1   8  11    0.45    0.80
   0   8  11    0.00    0.68
   0   8  11   -0.55    0.61
   1   8  11    5.75    1.11
   1   8  11    5.14    1.05
   2   8  11    0.61    0.68
   2   8  11    0.79    0.64
   3   8  11    8.65    1.25
   3   8  11   10.48    1.36
  -4  -8 -11   10.61    1.21
   4   8  11   11.96    1.40
   4   8  11   10.78    1.34
   2  -9 -11   -0.80    0.65
  -2   9  11    1.30    0.96
   1  -9 -11    6.60    1.16
  -1   9  11    8.63    1.41
   0   9  11    2.38    0.92
   0   9  11    0.88    0.79
   1   9  11    2.60    0.93
   1   9  11    0.56    0.77
   2   9  11    1.33    0.81
   2   9  11    0.87    0.80
  -3  -9 -11    1.58    0.71
   3   9  11    2.24    0.88
   3   9  11    1.88    0.90
  -4  -9 -11    0.69    0.65
   4   9  11    0.74    0.70
  -1 -10 -11    1.96    0.80
   1  10  11    0.41    0.84
  -2 -10 -11    0.99    0.68
  -2 -10 -11    1.49    0.87
   2  10  11    0.75    0.80
  -3 -10 -11    9.12    1.33
  -3 -10 -11    8.82    1.25
  -3  -3  12   -0.55    0.73
  -2  -3  12   -0.24    0.86
  -1  -3  12    7.26    1.40
  -1  -3  12    8.52    1.48
   0  -3  12    6.36    1.35
   0  -3  12    5.10    1.25
   1  -3  12    2.36    1.07
   1  -3  12    3.52    1.03
   2  -3  12    2.85    1.10
   2  -3  12    1.15    0.86
   3  -3  12   19.59    2.15
  -4  -2  12    2.22    0.91
  -3  -2  12    3.19    1.05
  -3  -2  12    2.53    1.07
  -2  -2  12    8.53    1.49
  -2  -2  12    8.38    1.41
  -1  -2  12    0.21    0.84
  -1  -2  12   -0.69    0.74
   0  -2  12   17.49    1.84
   0  -2  12   15.74    1.85
   1  -2  12   10.76    1.58
   1  -2  12   10.73    1.46
   2  -2  12    2.88    1.04
   2  -2  12    0.89    0.74
   3  -2  12    2.29    1.02
   4  -2  12   14.85    1.84
  -4  -1  12    1.11    0.77
  -4  -1  12    2.93    1.03
  -3  -1  12    4.64    1.15
  -3  -1  12    3.51    1.03
  -2  -1  12    2.06    0.91
  -2  -1  12    3.37    1.02
  -1  -1  12    8.87    1.37
  -1  -1  12    5.97    1.24
   0  -1  12    2.97    0.94
   0  -1  12    2.67    1.00
   1  -1  12    0.37    0.76
   1  -1  12    1.15    0.71
   2  -1  12    0.29    0.85
   2  -1  12    0.60    0.65
   3  -1  12    8.41    1.22
   3  -1  12    9.54    1.51
   4  -1  12    4.07    1.14
   5  -1  12   13.39    1.73
  -5   0  12    3.77    0.99
  -4   0  12    2.97    0.96
  -4   0  12    3.38    1.07
  -3   0  12    6.89    1.27
  -3   0  12    8.36    1.24
  -2   0  12   25.33    2.03
  -2   0  12   23.86    1.86
  -1   0  12    7.94    1.28
  -1   0  12    9.91    1.39
   0   0  12    1.08    0.78
   0   0  12    1.63    0.83
   1   0  12    2.68    0.86
   1   0  12    0.55    0.82
   2   0  12   13.45    1.64
   2   0  12   17.53    1.68
   3   0  12   -0.28    0.69
   3   0  12   -0.21    0.57
   4   0  12    1.50    0.86
   5   0  12    0.23    0.84
   6   0  12    1.74    0.87
  -5   1  12    1.98    0.87
  -5   1  12    1.48    0.89
  -4   1  12    4.12    0.97
  -4   1  12    4.38    1.10
  -3   1  12   21.97    1.78
  -3   1  12   24.02    2.02
  -2   1  12    4.36    1.05
  -2   1  12    2.59    1.01
  -1   1  12    4.29    1.07
  -1   1  12    3.37    0.96
   0   1  12    9.64    1.38
   0   1  12    7.39    1.18
   1   1  12   23.51    1.93
   1   1  12   26.10    1.84
   2   1  12    0.74    0.68
   2   1  12    1.52    0.84
   3   1  12   -0.67    0.66
   3   1  12    0.26    0.61
   4   1  12    4.83    1.09
   5   1  12   25.99    2.02
   6   1  12   17.83    1.79
  -5   2  12    4.47    1.17
  -5   2  12    6.35    1.18
  -4   2  12    1.49    0.82
  -4   2  12    0.66    0.77
  -3   2  12    2.84    0.99
  -3   2  12    3.42    0.94
  -2   2  12    0.50    0.66
  -2   2  12    1.28    0.80
  -1   2  12   31.83    2.03
  -1   2  12   25.98    1.92
   0   2  12    3.46    0.93
   0   2  12    4.00    0.96
   1   2  12    4.23    1.02
   1   2  12    4.67    0.93
   2   2  12    1.19    0.71
   2   2  12    1.76    0.73
   3   2  12   16.70    1.44
   3   2  12   16.51    1.69
   4   2  12   11.90    1.43
   5   2  12    8.75    1.27
   6   2  12    3.21    0.86
  -5   3  12    9.93    1.49
  -5   3  12    8.78    1.35
  -4   3  12    2.46    0.89
  -4   3  12    3.85    1.09
  -3   3  12   -0.13    0.72
  -3   3  12    0.27    0.67
  -2   3  12   22.33    2.02
  -2   3  12   19.56    1.72
  -1   3  12    2.40    0.87
  -1   3  12    0.86    0.78
   0   3  12    0.91    0.73
   0   3  12    1.23    0.77
   1   3  12    3.80    0.97
   1   3  12    4.96    1.03
   2   3  12   -0.55    0.61
   2   3  12   -1.00    0.54
   3   3  12   13.69    1.51
   3   3  12   15.07    1.44
   4   3  12    3.57    0.91
   5   3  12    0.99    0.70
   6   3  12    2.78    0.84
  -5   4  12    2.24    0.95
  -4   4  12    0.82    0.76
  -4   4  12   -0.72    0.71
  -3   4  12   -1.17    0.63
  -3   4  12   -0.13    0.67
  -2   4  12    0.37    0.75
  -2   4  12    0.25    0.69
  -1   4  12   22.10    1.73
  -1   4  12   23.52    1.84
   0   4  12    4.71    1.00
   0   4  12    4.18    0.98
   1   4  12    2.13    0.79
   1   4  12    2.36    0.81
   2   4  12   21.01    1.64
   2   4  12   18.37    1.57
   3   4  12    2.45    0.83
   3   4  12    2.99    0.77
   4   4  12    1.10    0.71
   5   4  12   11.13    1.32
  -4   5  12    1.16    0.85
  -4   5  12   -0.25    0.66
  -3   5  12   -0.16    0.63
  -3   5  12    1.16    0.80
  -2   5  12   14.60    1.59
  -2   5  12   17.03    1.78
  -1   5  12    3.91    0.99
  -1   5  12    3.54    0.96
   0   5  12    1.96    0.76
   0   5  12    0.67    0.74
   1   5  12    7.29    1.14
   1   5  12    7.04    1.15
   2   5  12    0.69    0.66
   2   5  12    0.25    0.62
   3   5  12   18.54    1.49
   3   5  12   17.27    1.65
   4   5  12    6.16    1.08
   5   5  12    0.10    0.62
  -4   6  12    2.08    0.98
  -3   6  12    0.32    0.77
  -3   6  12    1.15    0.83
  -2   6  12    7.02    1.25
  -2   6  12    7.70    1.28
  -1   6  12    0.04    0.66
  -1   6  12    0.12    0.68
   0   6  12    5.11    1.10
   0   6  12    5.24    1.06
   1   6  12   -0.70    0.54
   1   6  12   -0.90    0.59
   2   6  12    7.70    1.19
   2   6  12    7.81    1.20
   3   6  12   -0.71    0.54
   3   6  12    0.56    0.66
   4   6  12   -0.28    0.55
   5   6  12    3.25    0.91
  -3   7  12   -0.94    0.73
  -2   7  12    8.57    1.40
  -2   7  12    9.79    1.49
  -1   7  12    4.21    1.08
  -1   7  12    6.34    1.24
   0   7  12    0.06    0.68
   0   7  12    0.54    0.66
   1   7  12    4.85    1.04
   1   7  12    5.84    1.08
   2   7  12    0.57    0.71
   2   7  12    1.52    0.71
   3   7  12    0.46    0.61
   3   7  12   -0.20    0.66
   4   7  12   11.82    1.36
   5   7  12    3.33    0.87
  -2   8  12    5.55    1.30
  -1   8  12    3.51    1.08
  -1   8  12    4.43    1.12
   0   8  12    1.79    0.91
   0   8  12    1.75    0.87
   1   8  12    0.76    0.77
   1   8  12    0.77    0.75
   2   8  12    0.48    0.69
   2   8  12    0.79    0.78
   3   8  12   10.94    1.41
   3   8  12    9.88    1.37
   4   8  12    0.86    0.72
   0   9  12    0.52    0.83
   1   9  12    0.49    0.73
   1   9  12   -0.88    0.73
   2   9  12   -0.35    0.71
   2   9  12    0.01    0.70
   3   9  12    4.30    1.11
   3   9  12    5.21    1.14
  -2  -2  13   12.17    1.69
  -1  -2  13   -0.40    0.86
   0  -2  13    0.82    0.87
   0  -2  13    0.27    0.89
   1  -2  13   23.02    2.26
   1  -2  13   19.96    1.98
   2  -2  13    1.65    1.00
   2  -2  13    1.29    0.88
  -3  -1  13    1.54    0.89
  -2  -1  13    1.70    0.94
  -2  -1  13    0.96    0.95
  -1  -1  13    2.36    0.98
  -1  -1  13    3.95    1.14
   0  -1  13   12.52    1.72
   0  -1  13   14.86    1.78
   1  -1  13   -1.28    0.71
   1  -1  13    1.45    0.97
   2  -1  13    0.27    0.71
   2  -1  13    0.57    0.94
   3  -1  13   13.98    1.87
   4  -1  13    0.31    0.84
  -3   0  13    0.42    1.03
  -3   0  13    0.32    0.79
  -2   0  13   11.49    1.71
  -2   0  13   11.75    1.52
  -1   0  13    5.59    1.21
  -1   0  13    4.76    1.20
   0   0  13    4.52    1.09
   0   0  13    3.20    1.08
   1   0  13    3.73    1.05
   1   0  13    1.58    0.96
   2   0  13    1.29    0.90
   2   0  13    1.75    0.84
   3   0  13    2.56    1.04
   4   0  13    1.45    0.98
  -4   1  13    1.99    0.93
  -3   1  13   14.70    1.70
  -3   1  13   16.02    1.87
  -2   1  13    7.30    1.30
  -2   1  13    8.36    1.46
  -1   1  13    1.88    0.81
  -1   1  13    0.30    0.81
   0   1  13    6.96    1.30
   0   1  13    8.99    1.39
   1   1  13    4.55    1.10
   1   1  13    3.39    1.00
   2   1  13    2.36    0.97
   2   1  13    4.75    1.00
   3   1  13   17.85    1.96
   3   1  13   16.15    1.63
   4   1  13    3.05    1.04
   5   1  13    0.32    0.80
  -4   2  13    2.76    1.00
  -3   2  13   -0.58    0.66
  -3   2  13    0.03    0.80
  -2   2  13    0.42    0.77
  -2   2  13   -0.41    0.74
  -1   2  13   21.76    1.88
  -1   2  13   22.80    1.91
   0   2  13    2.61    0.93
   0   2  13    0.60    0.71
   1   2  13    9.14    1.38
   1   2  13    9.32    1.32
   2   2  13   20.62    1.99
   2   2  13   23.47    1.78
   3   2  13    3.40    0.88
   3   2  13    2.43    0.95
   4   2  13    2.72    0.94
   5   2  13    3.33    0.98
  -4   3  13    1.73    0.86
  -3   3  13   -0.05    0.63
  -3   3  13    0.18    0.81
  -2   3  13    2.04    0.92
  -2   3  13    2.41    1.04
  -1   3  13    1.78    0.84
  -1   3  13   -0.76    0.70
   0   3  13    3.45    0.98
   0   3  13    2.11    0.92
   1   3  13    8.43    1.31
   1   3  13    7.17    1.32
   2   3  13    2.06    0.91
   2   3  13    3.71    0.99
   3   3  13    8.06    1.19
   3   3  13    4.04    1.09
   4   3  13    0.44    0.70
   5   3  13    3.91    1.00
   6   3  13   18.95    1.85
  -4   4  13    1.15    0.88
  -3   4  13    1.85    0.96
  -3   4  13    0.95    0.96
  -2   4  13   13.59    1.60
  -2   4  13   17.18    1.91
  -1   4  13   18.74    1.88
  -1   4  13   16.44    1.82
   0   4  13    0.46    0.75
   0   4  13    0.88    0.76
   1   4  13    1.23    0.80
   1   4  13    1.67    0.80
   2   4  13    4.85    1.10
   2   4  13    5.81    1.08
   3   4  13   -0.09    0.64
   3   4  13    1.01    0.66
   4   4  13    1.34    0.81
   5   4  13   13.52    1.55
  -3   5  13   -0.10    0.79
  -2   5  13   13.00    1.73
  -2   5  13   11.31    1.54
  -1   5  13   -0.16    0.72
  -1   5  13    0.92    0.80
   0   5  13    1.86    0.84
   0   5  13    2.29    0.88
   1   5  13    3.63    0.93
   1   5  13    4.61    1.05
   2   5  13   10.06    1.40
   2   5  13   13.52    1.53
   3   5  13    5.21    1.08
   3   5  13    4.45    0.97
   4   5  13    1.30    0.79
   5   5  13    0.41    0.70
  -3   6  13    1.90    0.90
  -2   6  13    0.25    0.80
  -2   6  13    1.14    0.92
  -1   6  13    6.29    1.24
  -1   6  13    5.34    1.18
   0   6  13    0.84    0.78
   0   6  13    0.66    0.82
   1   6  13    2.59    0.92
   1   6  13    1.60    0.84
   2   6  13    2.34    0.83
   2   6  13    2.17    0.92
   3   6  13   -0.10    0.67
   3   6  13    0.47    0.67
   4   6  13   -0.39    0.60
   5   6  13   27.36    1.91
  -2   7  13   -1.08    0.75
  -1   7  13    0.48    0.85
  -1   7  13    0.92    0.82
   0   7  13   -1.01    0.64
   0   7  13   -0.04    0.69
   1   7  13    0.95    0.77
   1   7  13    0.45    0.76
   2   7  13    6.29    1.15
   2   7  13    5.26    1.18
   3   7  13    1.27    0.76
   3   7  13    0.48    0.74
   4   7  13    6.00    1.16
   5   7  13    0.93    0.78
   0   8  13   12.21    1.66
   1   8  13   16.70    1.84
   1   8  13   15.46    1.77
   2   8  13    0.35    0.76
   2   8  13   -1.05    0.58
   3   8  13    9.82    1.42
   3   8  13   10.72    1.43
  -1   0  14    2.32    1.04
   0   0  14    0.76    0.95
   0   0  14    1.77    0.92
   1   0  14   25.70    2.15
   1   0  14   23.37    2.27
   2   0  14    0.32    0.95
   2   0  14    0.83    0.76
  -2   1  14   -0.25    0.88
  -1   1  14    4.72    1.18
  -1   1  14    5.11    1.26
   0   1  14   15.33    1.78
   0   1  14   16.11    1.85
   1   1  14   -0.59    0.88
   1   1  14    0.32    0.80
   2   1  14    1.76    0.76
   2   1  14    2.86    1.04
   3   1  14   17.87    2.00
  -2   2  14    6.45    1.32
  -1   2  14    6.14    1.32
  -1   2  14    5.73    1.24
   0   2  14    4.06    1.06
   0   2  14    2.40    1.07
   1   2  14    3.92    1.10
   1   2  14    5.25    1.21
   2   2  14    5.20    1.16
   2   2  14    6.16    1.30
   3   2  14   12.94    1.67
   4   2  14    1.55    0.91
  -2   3  14   15.99    1.82
  -1   3  14    0.70    0.86
  -1   3  14   -1.07    0.70
   0   3  14   -0.51    0.78
   0   3  14   -0.80    0.75
   1   3  14    3.11    0.97
   1   3  14    3.20    1.05
   2   3  14    2.68    1.10
   2   3  14    4.17    1.05
   3   3  14    3.96    1.15
   4   3  14    9.27    1.45
  -2   4  14    6.52    1.19
  -1   4  14    0.92    0.88
  -1   4  14    0.00    0.83
   0   4  14    0.38    0.77
   0   4  14   -0.08    0.78
   1   4  14    1.53    0.92
   1   4  14    1.04    0.75
   2   4  14    5.79    1.18
   2   4  14    7.15    1.31
   3   4  14    4.08    1.03
   4   4  14    7.37    1.31
  -2   5  14   13.68    1.74
  -1   5  14    5.82    1.26
  -1   5  14    3.57    1.09
   0   5  14    3.80    1.10
   0   5  14    4.76    1.20
   1   5  14    2.10    0.91
   1   5  14    4.17    1.13
   2   5  14    8.94    1.37
   2   5  14    9.39    1.41
   3   5  14    8.78    1.41
   3   5  14    5.58    1.12
   4   5  14    0.73    0.80
  -1   6  14    2.65    1.01
   0   6  14   10.78    1.56
   0   6  14   11.75    1.62
   1   6  14    5.58    1.23
   1   6  14    5.33    1.14
   2   6  14    7.45    1.36
   2   6  14   10.22    1.44
   3   6  14    1.13    0.83
   3   6  14    0.56    0.72
   4   6  14    0.44    0.74
   1   7  14    9.80    1.48
   1   7  14    7.19    1.43
   2   7  14    1.69    0.94
   2   7  14    3.10    1.00
   1   3  15    3.35    1.18
   1   4  15    0.69    0.84
   0   0   0    0.00    0.00
;
loop_
_space_group_symop_operation_xyz
'x, y, z'
'-x, -y, -z'
loop_
_atom_site_label
_atom_site_type_symbol
_atom_site_fract_x
_atom_site_fract_y
_atom_site_fract_z
_atom_site_U_iso_or_equiv
_atom_site_adp_type
_atom_site_occupancy
_atom_site_site_symmetry_order
_atom_site_calc_flag
_atom_site_refinement_flags_posn
_atom_site_refinement_flags_adp
_atom_site_refinement_flags_occupancy
_atom_site_disorder_assembly
_atom_site_disorder_group
C1 C 0.2649(3) 0.9263(2) 0.59895(19) 0.0194(5) Uani 1 1 d . . . . .
C2 C 0.4020(3) 0.8573(2) 0.68386(19) 0.0170(4) Uani 1 1 d . . . . .
C3 C 0.5422(3) 0.7529(3) 0.66942(19) 0.0214(5) Uani 1 1 d . . . . .
H3 H 0.612709 0.721509 0.734592 0.026 Uiso 1 1 calc R . . . .
C4 C 0.5961(3) 0.6864(3) 0.5733(2) 0.0262(5) Uani 1 1 d . . . . .
H4 H 0.696426 0.617702 0.584103 0.031 Uiso 1 1 calc R . . . .
C5 C 0.5225(3) 0.7078(3) 0.4652(2) 0.0254(5) Uani 1 1 d . . . . .
H5 H 0.580316 0.654797 0.411164 0.031 Uiso 1 1 calc R . . . .
C6 C 0.3712(3) 0.7996(3) 0.4269(2) 0.0232(5) Uani 1 1 d . . . . .
H6 H 0.340482 0.797943 0.350771 0.028 Uiso 1 1 calc R . . . .
C7 C 0.2605(3) 0.8920(3) 0.48436(19) 0.0223(5) Uani 1 1 d . . . . .
H7 H 0.165653 0.941274 0.441153 0.027 Uiso 1 1 calc R . . . .
C8 C 0.4611(3) 0.8454(2) 0.89677(19) 0.0173(4) Uani 1 1 d . . . . .
C9 C 0.3829(2) 0.7484(2) 1.00027(19) 0.0172(4) Uani 1 1 d . . . . .
C10 C 0.4672(3) 0.6839(3) 1.10903(19) 0.0205(5) Uani 1 1 d . . . . .
H10 H 0.416279 0.618802 1.178156 0.025 Uiso 1 1 calc R . . . .
C11 C 0.6259(3) 0.7165(3) 1.1144(2) 0.0210(5) Uani 1 1 d . . . . .
H11 H 0.682462 0.671832 1.186693 0.025 Uiso 1 1 calc R . . . .
C12 C 0.7015(3) 0.8159(3) 1.0120(2) 0.0218(5) Uani 1 1 d . . . . .
H12 H 0.807463 0.839519 1.016403 0.026 Uiso 1 1 calc R . . . .
C13 C 0.6186(3) 0.8802(3) 0.9025(2) 0.0198(5) Uani 1 1 d . . . . .
H13 H 0.669291 0.946235 0.833736 0.024 Uiso 1 1 calc R . . . .
C14 C 0.1056(3) 0.6179(3) 1.13132(19) 0.0193(4) Uani 1 1 d . . . . .
C15 C 0.0507(2) 0.7064(3) 1.21541(19) 0.0184(4) Uani 1 1 d . . . . .
C16 C -0.0269(3) 0.6290(3) 1.3276(2) 0.0219(5) Uani 1 1 d . . . . .
H16 H -0.062511 0.684984 1.384912 0.026 Uiso 1 1 calc R . . . .
C17 C -0.0509(3) 0.4700(3) 1.3539(2) 0.0247(5) Uani 1 1 d . . . . .
H17 H -0.104983 0.421133 1.428000 0.030 Uiso 1 1 calc R . . . .
C18 C 0.0044(3) 0.3819(3) 1.2714(2) 0.0263(5) Uani 1 1 d . . . . .
H18 H -0.009798 0.274248 1.290426 0.032 Uiso 1 1 calc R . . . .
C19 C 0.0811(3) 0.4578(3) 1.1605(2) 0.0229(5) Uani 1 1 d . . . . .
H19 H 0.117034 0.400415 1.104136 0.027 Uiso 1 1 calc R . . . .
H1 H 0.282(3) 0.972(3) 0.788(2) 0.034(7) Uiso 1 1 d . . . . .
H2A H 0.100(3) 0.914(3) 1.109(3) 0.041(8) Uiso 1 1 d . . . . .
H2B H 0.013(4) 0.921(3) 1.240(3) 0.046(8) Uiso 1 1 d . . . . .
N1 N 0.3736(2) 0.9092(2) 0.78604(16) 0.0194(4) Uani 1 1 d . . . . .
N2 N 0.0760(3) 0.8639(2) 1.1906(2) 0.0247(4) Uani 1 1 d . . . . .
O1 O 0.14534(19) 1.01392(19) 0.63363(14) 0.0271(4) Uani 1 1 d . . . . .
S1 S 0.18083(7) 0.71275(7) 0.98081(5) 0.02337(18) Uani 1 1 d . . . . .
loop_
_atom_site_aniso_label
_atom_site_aniso_U_11
_atom_site_aniso_U_22
_atom_site_aniso_U_33
_atom_site_aniso_U_23
_atom_site_aniso_U_13
_atom_site_aniso_U_12
S1 0.0169(3) 0.0404(3) 0.0133(3) -0.0061(2) -0.0034(2) -0.0069(2)
O1 0.0229(9) 0.0370(9) 0.0209(9) -0.0119(7) -0.0080(7) 0.0080(7)
N1 0.0162(10) 0.0277(10) 0.0135(9) -0.0068(7) -0.0049(7) 0.0037(8)
N2 0.0289(12) 0.0253(10) 0.0201(11) -0.0063(8) 0.0005(9) -0.0060(8)
C9 0.0121(10) 0.0249(10) 0.0166(11) -0.0098(8) -0.0028(8) 0.0004(8)
C8 0.0158(11) 0.0225(10) 0.0140(10) -0.0080(8) -0.0034(8) 0.0025(8)
C15 0.0117(10) 0.0277(11) 0.0155(11) -0.0057(9) -0.0060(8) -0.0003(8)
C19 0.0176(11) 0.0298(12) 0.0229(12) -0.0103(9) -0.0068(9) 0.0001(9)
C16 0.0173(11) 0.0319(12) 0.0161(11) -0.0070(9) -0.0039(9) -0.0007(9)
C14 0.0134(11) 0.0280(11) 0.0155(11) -0.0048(9) -0.0041(8) -0.0012(8)
C2 0.0173(11) 0.0213(10) 0.0123(10) -0.0039(8) -0.0009(8) -0.0039(8)
C10 0.0207(12) 0.0266(11) 0.0133(10) -0.0047(9) -0.0014(8) -0.0021(9)
C13 0.0186(11) 0.0244(11) 0.0158(11) -0.0055(9) -0.0010(8) -0.0021(8)
C1 0.0190(11) 0.0227(10) 0.0148(11) -0.0027(8) -0.0026(8) -0.0019(8)
C12 0.0156(11) 0.0306(12) 0.0210(12) -0.0099(9) -0.0031(9) -0.0021(9)
C6 0.0288(13) 0.0277(12) 0.0139(11) -0.0056(9) -0.0037(9) -0.0052(9)
C11 0.0190(11) 0.0287(11) 0.0154(11) -0.0076(9) -0.0065(9) 0.0019(9)
C17 0.0209(12) 0.0321(12) 0.0162(11) 0.0027(9) -0.0050(9) -0.0059(9)
C3 0.0199(12) 0.0285(11) 0.0163(11) -0.0074(9) -0.0077(9) 0.0008(9)
C7 0.0229(12) 0.0263(11) 0.0158(11) -0.0011(9) -0.0083(9) -0.0030(9)
C18 0.0243(13) 0.0228(11) 0.0304(13) -0.0023(9) -0.0096(10) -0.0048(9)
C5 0.0268(13) 0.0335(12) 0.0182(11) -0.0130(10) 0.0003(9) -0.0007(10)
C4 0.0187(12) 0.0339(13) 0.0265(13) -0.0121(10) -0.0036(9) 0.0031(9)
loop_
_atom_type_symbol
_atom_type_description
_atom_type_scat_dispersion_real
_atom_type_scat_dispersion_imag
_atom_type_scat_source
C C 0.0033 0.0016 'International Tables Vol C Tables 4.2.6.8 and 6.1.1.4'
H H 0.0000 0.0000 'International Tables Vol C Tables 4.2.6.8 and 6.1.1.4'
N N 0.0061 0.0033 'International Tables Vol C Tables 4.2.6.8 and 6.1.1.4'
O O 0.0106 0.0060 'International Tables Vol C Tables 4.2.6.8 and 6.1.1.4'
S S 0.1246 0.1234 'International Tables Vol C Tables 4.2.6.8 and 6.1.1.4'
loop_
_geom_angle_atom_site_label_1
_geom_angle_atom_site_label_2
_geom_angle_atom_site_label_3
_geom_angle
_geom_angle_site_symmetry_1
_geom_angle_site_symmetry_3
C14 S1 C9 104.48(10) . .
C8 N1 H1 117.6(18) . .
C2 N1 C8 126.28(18) . .
C2 N1 H1 114.8(18) . .
C15 N2 H2A 114.8(17) . .
C15 N2 H2B 115.5(18) . .
H2A N2 H2B 120(2) . .
C8 C9 S1 116.12(16) . .
C10 C9 S1 124.51(17) . .
C10 C9 C8 119.35(19) . .
C9 C8 N1 118.57(19) . .
C13 C8 N1 120.86(19) . .
C13 C8 C9 120.56(19) . .
N2 C15 C16 120.20(19) . .
N2 C15 C14 121.34(19) . .
C16 C15 C14 118.43(19) . .
C14 C19 H19 119.2 . .
C18 C19 H19 119.2 . .
C18 C19 C14 121.5(2) . .
C15 C16 H16 119.7 . .
C17 C16 C15 120.6(2) . .
C17 C16 H16 119.7 . .
C15 C14 S1 121.09(16) . .
C19 C14 S1 118.58(16) . .
C19 C14 C15 119.8(2) . .
N1 C2 C1 110.89(18) . .
N1 C2 C3 121.24(19) . .
C3 C2 C1 127.87(19) . .
C9 C10 H10 119.9 . .
C11 C10 C9 120.2(2) . .
C11 C10 H10 119.9 . .
C8 C13 H13 120.2 . .
C8 C13 C12 119.6(2) . .
C12 C13 H13 120.2 . .
O1 C1 C2 116.84(18) . .
O1 C1 C7 119.8(2) . .
C7 C1 C2 123.31(19) . .
C13 C12 H12 119.9 . .
C11 C12 C13 120.1(2) . .
C11 C12 H12 119.9 . .
C7 C6 H6 115.1 . .
C7 C6 C5 129.8(2) . .
C5 C6 H6 115.1 . .
C10 C11 C12 120.1(2) . .
C10 C11 H11 119.9 . .
C12 C11 H11 119.9 . .
C16 C17 H17 119.4 . .
C16 C17 C18 121.1(2) . .
C18 C17 H17 119.4 . .
C2 C3 H3 114.6 . .
C2 C3 C4 130.7(2) . .
C4 C3 H3 114.6 . .
C1 C7 H7 114.3 . .
C6 C7 C1 131.5(2) . .
C6 C7 H7 114.3 . .
C19 C18 C17 118.5(2) . .
C19 C18 H18 120.7 . .
C17 C18 H18 120.7 . .
C6 C5 H5 116.3 . .
C4 C5 C6 127.5(2) . .
C4 C5 H5 116.3 . .
C3 C4 H4 115.4 . .
C5 C4 C3 129.3(2) . .
C5 C4 H4 115.4 . .
loop_
_geom_bond_atom_site_label_1
_geom_bond_atom_site_label_2
_geom_bond_distance
_geom_bond_site_symmetry_2
S1 C9 1.771(2) .
S1 C14 1.766(2) .
O1 C1 1.253(2) .
N1 C8 1.426(3) .
N1 C2 1.361(3) .
N1 H1 0.85(3) .
N2 C15 1.374(3) .
N2 H2A 0.92(3) .
N2 H2B 0.93(3) .
C9 C8 1.398(3) .
C9 C10 1.394(3) .
C8 C13 1.378(3) .
C15 C16 1.401(3) .
C15 C14 1.407(3) .
C19 H19 0.9300 .
C19 C14 1.391(3) .
C19 C18 1.383(3) .
C16 H16 0.9300 .
C16 C17 1.383(3) .
C2 C1 1.479(3) .
C2 C3 1.377(3) .
C10 H10 0.9300 .
C10 C11 1.380(3) .
C13 H13 0.9300 .
C13 C12 1.395(3) .
C1 C7 1.430(3) .
C12 H12 0.9300 .
C12 C11 1.390(3) .
C6 H6 0.9300 .
C6 C7 1.370(3) .
C6 C5 1.391(3) .
C11 H11 0.9300 .
C17 H17 0.9300 .
C17 C18 1.390(3) .
C3 H3 0.9300 .
C3 C4 1.396(3) .
C7 H7 0.9300 .
C18 H18 0.9300 .
C5 H5 0.9300 .
C5 C4 1.370(3) .
C4 H4 0.9300 .
loop_
_geom_torsion_atom_site_label_1
_geom_torsion_atom_site_label_2
_geom_torsion_atom_site_label_3
_geom_torsion_atom_site_label_4
_geom_torsion
_geom_torsion_site_symmetry_1
_geom_torsion_site_symmetry_2
_geom_torsion_site_symmetry_3
_geom_torsion_site_symmetry_4
S1 C9 C8 N1 0.9(2) . . . .
S1 C9 C8 C13 -179.98(15) . . . .
S1 C9 C10 C11 178.78(15) . . . .
O1 C1 C7 C6 -178.8(2) . . . .
N1 C8 C13 C12 -179.88(18) . . . .
N1 C2 C1 O1 -2.3(3) . . . .
N1 C2 C1 C7 -179.58(19) . . . .
N1 C2 C3 C4 -179.4(2) . . . .
N2 C15 C16 C17 -179.2(2) . . . .
N2 C15 C14 S1 -9.8(3) . . . .
N2 C15 C14 C19 178.6(2) . . . .
C9 S1 C14 C15 75.80(19) . . . .
C9 S1 C14 C19 -112.50(18) . . . .
C9 C8 C13 C12 1.1(3) . . . .
C9 C10 C11 C12 1.0(3) . . . .
C8 N1 C2 C1 167.35(19) . . . .
C8 N1 C2 C3 -12.0(3) . . . .
C8 C9 C10 C11 0.4(3) . . . .
C8 C13 C12 C11 0.4(3) . . . .
C15 C16 C17 C18 1.5(3) . . . .
C16 C15 C14 S1 172.05(16) . . . .
C16 C15 C14 C19 0.5(3) . . . .
C16 C17 C18 C19 -1.5(3) . . . .
C14 S1 C9 C8 -170.45(15) . . . .
C14 S1 C9 C10 11.1(2) . . . .
C14 C15 C16 C17 -1.0(3) . . . .
C14 C19 C18 C17 1.0(3) . . . .
C2 N1 C8 C9 -104.8(2) . . . .
C2 N1 C8 C13 76.1(3) . . . .
C2 C1 C7 C6 -1.6(4) . . . .
C2 C3 C4 C5 0.1(4) . . . .
C10 C9 C8 N1 179.48(17) . . . .
C10 C9 C8 C13 -1.4(3) . . . .
C13 C12 C11 C10 -1.4(3) . . . .
C1 C2 C3 C4 1.4(4) . . . .
C6 C5 C4 C3 -1.9(4) . . . .
C3 C2 C1 O1 177.0(2) . . . .
C3 C2 C1 C7 -0.3(3) . . . .
C7 C6 C5 C4 1.1(4) . . . .
C18 C19 C14 S1 -172.28(17) . . . .
C18 C19 C14 C15 -0.5(3) . . . .
C5 C6 C7 C1 1.2(4) . . . .
